MODEL 1
REMARK VINA RESULT: -4.994449620      0.000      0.000
REMARK  4 active torsions:
REMARK  status: ('A' for Active; 'I' for Inactive)
REMARK    1  A    between atoms: N1_6  and  C6_7 
REMARK    2  A    between atoms: C6_7  and  C7_8 
REMARK    3  A    between atoms: C7_8  and  O1_9 
REMARK    4  A    between atoms: N2_14  and  O2_15 
ROOT
HETATM    1  C1  UNL     1       5.375 -13.111  -3.870  1.00  0.00     0.040 C 
HETATM    2  C2  UNL     1       5.285 -14.173  -4.961  1.00  0.00     0.051 C 
HETATM    3  C3  UNL     1       5.591 -13.439  -6.264  1.00  0.00     0.040 C 
HETATM    4  C4  UNL     1       3.874 -14.675  -5.046  1.00  0.00     0.052 C 
HETATM    5  C5  UNL     1       3.805 -16.068  -5.661  1.00  0.00     0.122 C 
HETATM    6  N1  UNL     1       4.625 -17.016  -4.991  1.00  0.00    -0.385 N 
HETATM    7  C8  UNL     1       5.769 -16.467  -4.321  1.00  0.00     0.117 C 
HETATM    8  C9  UNL     1       6.922 -17.441  -4.564  1.00  0.00     0.064 C 
HETATM    9  C10 UNL     1       5.612 -16.331  -2.835  1.00  0.00     0.064 C 
HETATM   10  N2  UNL     1       6.226 -15.218  -4.829  1.00  0.00    -0.259 N 
ENDROOT
BRANCH   6  11
HETATM   11  C6  UNL     1       3.967 -18.055  -4.283  1.00  0.00     0.145 C 
BRANCH  11  12
HETATM   12  C7  UNL     1       2.550 -18.340  -4.674  1.00  0.00     0.183 C 
BRANCH  12  13
HETATM   13  O1  UNL     1       2.347 -19.493  -5.386  1.00  0.00    -0.399 OA
ATOM     14  H1  UNL     1       2.748 -20.277  -5.027  1.00  0.00     0.209 HD
ENDBRANCH  12  13
ENDBRANCH  11  12
ENDBRANCH   6  11
BRANCH  10  15
HETATM   15  O2  UNL     1       7.188 -15.277  -5.743  1.00  0.00    -0.289 OA
ATOM     16  H2  UNL     1       7.508 -16.142  -5.971  1.00  0.00     0.244 HD
ENDBRANCH  10  15
TORSDOF 4
ENDMDL
MODEL 2
REMARK VINA RESULT: -4.842587818      5.764      8.380
REMARK  4 active torsions:
REMARK  status: ('A' for Active; 'I' for Inactive)
REMARK    1  A    between atoms: N1_6  and  C6_7 
REMARK    2  A    between atoms: C6_7  and  C7_8 
REMARK    3  A    between atoms: C7_8  and  O1_9 
REMARK    4  A    between atoms: N2_14  and  O2_15 
ROOT
HETATM    1  C1  UNL     1       5.031 -11.793  -3.383  1.00  0.00     0.040 C 
HETATM    2  C2  UNL     1       4.497 -10.943  -4.531  1.00  0.00     0.051 C 
HETATM    3  C3  UNL     1       3.803 -11.925  -5.470  1.00  0.00     0.040 C 
HETATM    4  C4  UNL     1       5.651 -10.341  -5.277  1.00  0.00     0.052 C 
HETATM    5  C5  UNL     1       5.241  -9.082  -6.033  1.00  0.00     0.122 C 
HETATM    6  N1  UNL     1       4.631  -8.105  -5.200  1.00  0.00    -0.385 N 
HETATM    7  C8  UNL     1       3.964  -8.623  -4.040  1.00  0.00     0.117 C 
HETATM    8  C9  UNL     1       2.676  -7.815  -3.884  1.00  0.00     0.064 C 
HETATM    9  C10 UNL     1       4.736  -8.473  -2.763  1.00  0.00     0.064 C 
HETATM   10  N2  UNL     1       3.541  -9.979  -4.139  1.00  0.00    -0.259 N 
ENDROOT
BRANCH   6  11
HETATM   11  C6  UNL     1       5.348  -6.901  -4.982  1.00  0.00     0.145 C 
BRANCH  11  12
HETATM   12  C7  UNL     1       5.076  -5.776  -5.933  1.00  0.00     0.183 C 
BRANCH  12  13
HETATM   13  O1  UNL     1       3.795  -5.698  -6.414  1.00  0.00    -0.399 OA
ATOM     14  H1  UNL     1       3.696  -5.279  -7.261  1.00  0.00     0.209 HD
ENDBRANCH  12  13
ENDBRANCH  11  12
ENDBRANCH   6  11
BRANCH  10  15
HETATM   15  O2  UNL     1       2.293 -10.172  -4.551  1.00  0.00    -0.289 OA
ATOM     16  H2  UNL     1       1.678  -9.464  -4.398  1.00  0.00     0.244 HD
ENDBRANCH  10  15
TORSDOF 4
ENDMDL
MODEL 3
REMARK VINA RESULT: -4.784871330      4.580      6.162
REMARK  4 active torsions:
REMARK  status: ('A' for Active; 'I' for Inactive)
REMARK    1  A    between atoms: N1_6  and  C6_7 
REMARK    2  A    between atoms: C6_7  and  C7_8 
REMARK    3  A    between atoms: C7_8  and  O1_9 
REMARK    4  A    between atoms: N2_14  and  O2_15 
ROOT
HETATM    1  C1  UNL     1       5.622 -10.010  -1.847  1.00  0.00     0.040 C 
HETATM    2  C2  UNL     1       4.923 -10.377  -3.151  1.00  0.00     0.051 C 
HETATM    3  C3  UNL     1       3.433 -10.197  -2.874  1.00  0.00     0.040 C 
HETATM    4  C4  UNL     1       5.157 -11.829  -3.445  1.00  0.00     0.052 C 
HETATM    5  C5  UNL     1       5.006 -12.138  -4.931  1.00  0.00     0.122 C 
HETATM    6  N1  UNL     1       5.834 -11.329  -5.756  1.00  0.00    -0.385 N 
HETATM    7  C8  UNL     1       6.170 -10.045  -5.211  1.00  0.00     0.117 C 
HETATM    8  C9  UNL     1       6.105  -9.052  -6.371  1.00  0.00     0.064 C 
HETATM    9  C10 UNL     1       7.552  -9.959  -4.634  1.00  0.00     0.064 C 
HETATM   10  N2  UNL     1       5.258  -9.541  -4.240  1.00  0.00    -0.259 N 
ENDROOT
BRANCH   6  11
HETATM   11  C6  UNL     1       6.894 -11.977  -6.441  1.00  0.00     0.145 C 
BRANCH  11  12
HETATM   12  C7  UNL     1       6.650 -13.390  -6.872  1.00  0.00     0.183 C 
BRANCH  12  13
HETATM   13  O1  UNL     1       7.032 -13.699  -8.151  1.00  0.00    -0.399 OA
ATOM     14  H1  UNL     1       7.086 -14.626  -8.355  1.00  0.00     0.209 HD
ENDBRANCH  12  13
ENDBRANCH  11  12
ENDBRANCH   6  11
BRANCH  10  15
HETATM   15  O2  UNL     1       4.301  -8.742  -4.699  1.00  0.00    -0.289 OA
ATOM     16  H2  UNL     1       4.560  -8.087  -5.335  1.00  0.00     0.244 HD
ENDBRANCH  10  15
TORSDOF 4
ENDMDL
MODEL 4
REMARK VINA RESULT: -4.722249149      2.256      3.763
REMARK  4 active torsions:
REMARK  status: ('A' for Active; 'I' for Inactive)
REMARK    1  A    between atoms: N1_6  and  C6_7 
REMARK    2  A    between atoms: C6_7  and  C7_8 
REMARK    3  A    between atoms: C7_8  and  O1_9 
REMARK    4  A    between atoms: N2_14  and  O2_15 
ROOT
HETATM    1  C1  UNL     1       7.130 -17.340  -4.612  1.00  0.00     0.040 C 
HETATM    2  C2  UNL     1       5.793 -16.850  -4.066  1.00  0.00     0.051 C 
HETATM    3  C3  UNL     1       5.596 -17.600  -2.752  1.00  0.00     0.040 C 
HETATM    4  C4  UNL     1       4.696 -17.272  -4.998  1.00  0.00     0.052 C 
HETATM    5  C5  UNL     1       3.464 -16.384  -4.861  1.00  0.00     0.122 C 
HETATM    6  N1  UNL     1       3.750 -15.003  -5.032  1.00  0.00    -0.385 N 
HETATM    7  C8  UNL     1       5.089 -14.611  -4.697  1.00  0.00     0.117 C 
HETATM    8  C9  UNL     1       4.981 -13.265  -3.981  1.00  0.00     0.064 C 
HETATM    9  C10 UNL     1       5.990 -14.410  -5.880  1.00  0.00     0.064 C 
HETATM   10  N2  UNL     1       5.759 -15.467  -3.778  1.00  0.00    -0.259 N 
ENDROOT
BRANCH   6  11
HETATM   11  C6  UNL     1       3.219 -14.370  -6.186  1.00  0.00     0.145 C 
BRANCH  11  12
HETATM   12  C7  UNL     1       1.797 -14.689  -6.531  1.00  0.00     0.183 C 
BRANCH  12  13
HETATM   13  O1  UNL     1       0.930 -13.628  -6.526  1.00  0.00    -0.399 OA
ATOM     14  H1  UNL     1       0.205 -13.683  -7.139  1.00  0.00     0.209 HD
ENDBRANCH  12  13
ENDBRANCH  11  12
ENDBRANCH   6  11
BRANCH  10  15
HETATM   15  O2  UNL     1       5.678 -15.125  -2.497  1.00  0.00    -0.289 OA
ATOM     16  H2  UNL     1       6.496 -14.931  -2.054  1.00  0.00     0.244 HD
ENDBRANCH  10  15
TORSDOF 4
ENDMDL
MODEL 5
REMARK VINA RESULT: -4.677777092      3.072      3.796
REMARK  4 active torsions:
REMARK  status: ('A' for Active; 'I' for Inactive)
REMARK    1  A    between atoms: N1_6  and  C6_7 
REMARK    2  A    between atoms: C6_7  and  C7_8 
REMARK    3  A    between atoms: C7_8  and  O1_9 
REMARK    4  A    between atoms: N2_14  and  O2_15 
ROOT
HETATM    1  C1  UNL     1       5.706 -10.796  -2.674  1.00  0.00     0.040 C 
HETATM    2  C2  UNL     1       5.268 -10.917  -4.130  1.00  0.00     0.051 C 
HETATM    3  C3  UNL     1       5.538  -9.548  -4.747  1.00  0.00     0.040 C 
HETATM    4  C4  UNL     1       3.787 -11.153  -4.181  1.00  0.00     0.052 C 
HETATM    5  C5  UNL     1       3.367 -11.832  -5.480  1.00  0.00     0.122 C 
HETATM    6  N1  UNL     1       4.066 -13.044  -5.728  1.00  0.00    -0.385 N 
HETATM    7  C8  UNL     1       5.374 -13.125  -5.142  1.00  0.00     0.117 C 
HETATM    8  C9  UNL     1       6.272 -13.802  -6.176  1.00  0.00     0.064 C 
HETATM    9  C10 UNL     1       5.442 -13.950  -3.890  1.00  0.00     0.064 C 
HETATM   10  N2  UNL     1       5.996 -11.872  -4.874  1.00  0.00    -0.259 N 
ENDROOT
BRANCH   6  11
HETATM   11  C6  UNL     1       3.317 -14.247  -5.670  1.00  0.00     0.145 C 
BRANCH  11  12
HETATM   12  C7  UNL     1       1.954 -14.219  -6.291  1.00  0.00     0.183 C 
BRANCH  12  13
HETATM   13  O1  UNL     1       1.550 -15.381  -6.895  1.00  0.00    -0.399 OA
ATOM     14  H1  UNL     1       2.192 -15.802  -7.455  1.00  0.00     0.209 HD
ENDBRANCH  12  13
ENDBRANCH  11  12
ENDBRANCH   6  11
BRANCH  10  15
HETATM   15  O2  UNL     1       6.798 -11.406  -5.824  1.00  0.00    -0.289 OA
ATOM     16  H2  UNL     1       6.903 -10.463  -5.871  1.00  0.00     0.244 HD
ENDBRANCH  10  15
TORSDOF 4
ENDMDL
