MODEL 1
REMARK VINA RESULT: -5.416208684      0.000      0.000
REMARK  3 active torsions:
REMARK  status: ('A' for Active; 'I' for Inactive)
REMARK    1  A    between atoms: C2_2  and  N1_4 
REMARK    2  A    between atoms: N1_4  and  C5_6 
REMARK    3  A    between atoms: C10_14  and  O1_16 
ROOT
HETATM    1  C5  UNL     1       3.440 -14.343  -5.193  1.00  0.00     0.115 C 
HETATM    2  C6  UNL     1       3.116 -12.878  -5.540  1.00  0.00     0.061 C 
HETATM    3  C7  UNL     1       4.211 -12.052  -4.922  1.00  0.00     0.196 A 
HETATM    4  N2  UNL     1       5.036 -11.299  -5.848  1.00  0.00    -0.070 N 
ATOM      5  H21 UNL     1       5.123 -10.292  -5.715  1.00  0.00     0.277 HD
ATOM      6  H22 UNL     1       4.705 -11.175  -6.804  1.00  0.00     0.277 HD
HETATM    7  C8  UNL     1       6.196 -12.126  -5.621  1.00  0.00     0.242 A 
HETATM    8  C9  UNL     1       5.346 -13.002  -4.732  1.00  0.00     0.078 A 
HETATM    9  C10 UNL     1       4.925 -14.322  -5.376  1.00  0.00     0.081 C 
HETATM   10  C11 UNL     1       5.626 -15.400  -4.535  1.00  0.00     0.048 C 
ENDROOT
BRANCH   1  11
HETATM   11  N1  UNL     1       2.697 -15.152  -6.047  1.00  0.00    -0.406 N 
HETATM   12  C4  UNL     1       1.699 -14.413  -6.779  1.00  0.00     0.144 C 
BRANCH  11  13
HETATM   13  C2  UNL     1       2.170 -16.386  -5.652  1.00  0.00     0.071 C 
HETATM   14  C1  UNL     1       0.798 -16.690  -6.238  1.00  0.00     0.031 C 
HETATM   15  C3  UNL     1       3.092 -17.488  -6.121  1.00  0.00     0.031 C 
ENDBRANCH  11  13
ENDBRANCH   1  11
BRANCH   9  16
HETATM   16  O1  UNL     1       5.358 -14.285  -6.677  1.00  0.00    -0.388 OA
ATOM     17  H1  UNL     1       6.293 -14.403  -6.800  1.00  0.00     0.210 HD
ENDBRANCH   9  16
TORSDOF 3
ENDMDL
MODEL 2
REMARK VINA RESULT: -4.945421002      2.689      4.192
REMARK  3 active torsions:
REMARK  status: ('A' for Active; 'I' for Inactive)
REMARK    1  A    between atoms: C2_2  and  N1_4 
REMARK    2  A    between atoms: N1_4  and  C5_6 
REMARK    3  A    between atoms: C10_14  and  O1_16 
ROOT
HETATM    1  C5  UNL     1       4.794 -11.102  -4.468  1.00  0.00     0.115 C 
HETATM    2  C6  UNL     1       3.406 -10.457  -4.299  1.00  0.00     0.061 C 
HETATM    3  C7  UNL     1       3.655  -9.061  -3.796  1.00  0.00     0.196 A 
HETATM    4  N2  UNL     1       3.215  -7.986  -4.666  1.00  0.00    -0.070 N 
ATOM      5  H21 UNL     1       2.577  -7.285  -4.290  1.00  0.00     0.277 HD
ATOM      6  H22 UNL     1       2.572  -8.207  -5.426  1.00  0.00     0.277 HD
HETATM    7  C8  UNL     1       4.561  -7.586  -4.995  1.00  0.00     0.242 A 
HETATM    8  C9  UNL     1       5.063  -8.759  -4.187  1.00  0.00     0.078 A 
HETATM    9  C10 UNL     1       5.546  -9.937  -5.031  1.00  0.00     0.081 C 
HETATM   10  C11 UNL     1       7.052 -10.026  -4.739  1.00  0.00     0.048 C 
ENDROOT
BRANCH   1  11
HETATM   11  N1  UNL     1       4.641 -12.222  -5.280  1.00  0.00    -0.406 N 
HETATM   12  C4  UNL     1       3.257 -12.524  -5.549  1.00  0.00     0.144 C 
BRANCH  11  13
HETATM   13  C2  UNL     1       5.348 -13.411  -5.069  1.00  0.00     0.071 C 
HETATM   14  C1  UNL     1       4.481 -14.662  -5.105  1.00  0.00     0.031 C 
HETATM   15  C3  UNL     1       6.379 -13.571  -6.162  1.00  0.00     0.031 C 
ENDBRANCH  11  13
ENDBRANCH   1  11
BRANCH   9  16
HETATM   16  O1  UNL     1       5.266  -9.630  -6.338  1.00  0.00    -0.388 OA
ATOM     17  H1  UNL     1       5.458  -8.737  -6.599  1.00  0.00     0.210 HD
ENDBRANCH   9  16
TORSDOF 3
ENDMDL
MODEL 3
REMARK VINA RESULT: -4.925747743      2.920      4.565
REMARK  3 active torsions:
REMARK  status: ('A' for Active; 'I' for Inactive)
REMARK    1  A    between atoms: C2_2  and  N1_4 
REMARK    2  A    between atoms: N1_4  and  C5_6 
REMARK    3  A    between atoms: C10_14  and  O1_16 
ROOT
HETATM    1  C5  UNL     1       5.386 -10.533  -4.934  1.00  0.00     0.115 C 
HETATM    2  C6  UNL     1       4.242  -9.528  -5.163  1.00  0.00     0.061 C 
HETATM    3  C7  UNL     1       4.821  -8.168  -4.883  1.00  0.00     0.196 A 
HETATM    4  N2  UNL     1       4.845  -7.247  -6.003  1.00  0.00    -0.070 N 
ATOM      5  H21 UNL     1       4.398  -6.337  -5.894  1.00  0.00     0.277 HD
ATOM      6  H22 UNL     1       4.276  -7.462  -6.822  1.00  0.00     0.277 HD
HETATM    7  C8  UNL     1       6.280  -7.298  -6.128  1.00  0.00     0.242 A 
HETATM    8  C9  UNL     1       6.295  -8.342  -5.037  1.00  0.00     0.078 A 
HETATM    9  C10 UNL     1       6.519  -9.768  -5.540  1.00  0.00     0.081 C 
HETATM   10  C11 UNL     1       7.875 -10.176  -4.946  1.00  0.00     0.048 C 
ENDROOT
BRANCH   1  11
HETATM   11  N1  UNL     1       5.020 -11.731  -5.542  1.00  0.00    -0.406 N 
HETATM   12  C4  UNL     1       3.591 -11.903  -5.610  1.00  0.00     0.144 C 
BRANCH  11  13
HETATM   13  C2  UNL     1       5.625 -12.953  -5.230  1.00  0.00     0.071 C 
HETATM   14  C1  UNL     1       4.641 -14.094  -5.009  1.00  0.00     0.031 C 
HETATM   15  C3  UNL     1       6.516 -13.370  -6.377  1.00  0.00     0.031 C 
ENDBRANCH  11  13
ENDBRANCH   1  11
BRANCH   9  16
HETATM   16  O1  UNL     1       6.526  -9.708  -6.910  1.00  0.00    -0.388 OA
ATOM     17  H1  UNL     1       7.268 -10.123  -7.334  1.00  0.00     0.210 HD
ENDBRANCH   9  16
TORSDOF 3
ENDMDL
MODEL 4
REMARK VINA RESULT: -4.896118901      1.932      3.287
REMARK  3 active torsions:
REMARK  status: ('A' for Active; 'I' for Inactive)
REMARK    1  A    between atoms: C2_2  and  N1_4 
REMARK    2  A    between atoms: N1_4  and  C5_6 
REMARK    3  A    between atoms: C10_14  and  O1_16 
ROOT
HETATM    1  C5  UNL     1       4.802 -12.518  -5.638  1.00  0.00     0.115 C 
HETATM    2  C6  UNL     1       6.301 -12.510  -5.986  1.00  0.00     0.061 C 
HETATM    3  C7  UNL     1       6.712 -11.063  -6.026  1.00  0.00     0.196 A 
HETATM    4  N2  UNL     1       7.706 -10.658  -5.051  1.00  0.00    -0.070 N 
ATOM      5  H21 UNL     1       8.560 -10.213  -5.383  1.00  0.00     0.277 HD
ATOM      6  H22 UNL     1       8.236 -11.383  -4.567  1.00  0.00     0.277 HD
HETATM    7  C8  UNL     1       6.767  -9.869  -4.293  1.00  0.00     0.242 A 
HETATM    8  C9  UNL     1       5.677 -10.350  -5.221  1.00  0.00     0.078 A 
HETATM    9  C10 UNL     1       4.773 -11.425  -4.618  1.00  0.00     0.081 C 
HETATM   10  C11 UNL     1       3.393 -10.756  -4.524  1.00  0.00     0.048 C 
ENDROOT
BRANCH   1  11
HETATM   11  N1  UNL     1       4.475 -13.803  -5.214  1.00  0.00    -0.406 N 
HETATM   12  C4  UNL     1       5.633 -14.568  -4.825  1.00  0.00     0.144 C 
BRANCH  11  13
HETATM   13  C2  UNL     1       3.582 -14.625  -5.910  1.00  0.00     0.071 C 
HETATM   14  C1  UNL     1       3.306 -15.958  -5.226  1.00  0.00     0.031 C 
HETATM   15  C3  UNL     1       2.252 -13.918  -6.029  1.00  0.00     0.031 C 
ENDBRANCH  11  13
ENDBRANCH   1  11
BRANCH   9  16
HETATM   16  O1  UNL     1       5.302 -11.746  -3.393  1.00  0.00    -0.388 OA
ATOM     17  H1  UNL     1       4.889 -11.328  -2.647  1.00  0.00     0.210 HD
ENDBRANCH   9  16
TORSDOF 3
ENDMDL
MODEL 5
REMARK VINA RESULT: -4.785918289      2.386      3.764
REMARK  3 active torsions:
REMARK  status: ('A' for Active; 'I' for Inactive)
REMARK    1  A    between atoms: C2_2  and  N1_4 
REMARK    2  A    between atoms: N1_4  and  C5_6 
REMARK    3  A    between atoms: C10_14  and  O1_16 
ROOT
HETATM    1  C5  UNL     1       5.212 -11.733  -4.617  1.00  0.00     0.115 C 
HETATM    2  C6  UNL     1       4.145 -10.977  -3.804  1.00  0.00     0.061 C 
HETATM    3  C7  UNL     1       4.844  -9.787  -3.204  1.00  0.00     0.196 A 
HETATM    4  N2  UNL     1       4.360  -8.487  -3.628  1.00  0.00    -0.070 N 
ATOM      5  H21 UNL     1       4.060  -7.823  -2.915  1.00  0.00     0.277 HD
ATOM      6  H22 UNL     1       3.457  -8.434  -4.099  1.00  0.00     0.277 HD
HETATM    7  C8  UNL     1       5.551  -8.194  -4.386  1.00  0.00     0.242 A 
HETATM    8  C9  UNL     1       6.050  -9.581  -4.059  1.00  0.00     0.078 A 
HETATM    9  C10 UNL     1       5.941 -10.572  -5.217  1.00  0.00     0.081 C 
HETATM   10  C11 UNL     1       7.397 -10.919  -5.563  1.00  0.00     0.048 C 
ENDROOT
BRANCH   1  11
HETATM   11  N1  UNL     1       4.548 -12.594  -5.484  1.00  0.00    -0.406 N 
HETATM   12  C4  UNL     1       3.131 -12.337  -5.541  1.00  0.00     0.144 C 
BRANCH  11  13
HETATM   13  C2  UNL     1       4.775 -13.975  -5.500  1.00  0.00     0.071 C 
HETATM   14  C1  UNL     1       5.505 -14.497  -4.270  1.00  0.00     0.031 C 
HETATM   15  C3  UNL     1       3.446 -14.692  -5.548  1.00  0.00     0.031 C 
ENDBRANCH  11  13
ENDBRANCH   1  11
BRANCH   9  16
HETATM   16  O1  UNL     1       5.284  -9.925  -6.233  1.00  0.00    -0.388 OA
ATOM     17  H1  UNL     1       5.795  -9.274  -6.701  1.00  0.00     0.210 HD
ENDBRANCH   9  16
TORSDOF 3
ENDMDL
