MODEL 1
REMARK VINA RESULT: -7.739967530      0.000      0.000
REMARK  8 active torsions:
REMARK  status: ('A' for Active; 'I' for Inactive)
REMARK    1  A    between atoms: C3_3  and  O1_4 
REMARK    2  A    between atoms: O1_4  and  C4_5 
REMARK    3  A    between atoms: C5_6  and  C6_7 
REMARK    4  A    between atoms: C6_7  and  C7_8 
REMARK    5  A    between atoms: C10_13  and  C11_14 
REMARK    6  A    between atoms: C11_14  and  C12_15 
REMARK    7  A    between atoms: C15_21  and  N3_22 
REMARK    8  A    between atoms: N3_22  and  C16_24 
ROOT
HETATM    1  C1  UNL     1       4.319  16.398  51.004  1.00  0.00     0.099 C 
HETATM    2  C2  UNL     1       5.418  16.926  51.043  1.00  0.00    -0.161 C 
HETATM    3  C3  UNL     1       6.751  17.539  51.079  1.00  0.00     0.255 C 
ENDROOT
BRANCH   3   4
HETATM    4  O1  UNL     1       6.643  18.797  51.709  1.00  0.00    -0.333 OA
BRANCH   4   5
HETATM    5  C4  UNL     1       7.126  19.981  51.180  1.00  0.00     0.166 A 
HETATM    6  C5  UNL     1       6.231  20.930  50.730  1.00  0.00     0.090 A 
HETATM    7  N2  UNL     1       6.747  22.067  50.223  1.00  0.00    -0.189 N 
HETATM    8  C15 UNL     1       8.065  22.311  50.139  1.00  0.00     0.685 A 
ATOM      9  H2  UNL     1       6.102  22.780  49.885  1.00  0.00     0.184 HD
HETATM   10  N4  UNL     1       8.936  21.385  50.578  1.00  0.00    -0.153 N 
HETATM   11  C19 UNL     1       8.491  20.219  51.099  1.00  0.00     0.295 A 
ATOM     12  H4  UNL     1       9.938  21.563  50.516  1.00  0.00     0.187 HD
HETATM   13  O2  UNL     1       9.324  19.365  51.505  1.00  0.00    -0.264 OA
BRANCH   6  14
HETATM   14  C6  UNL     1       4.793  20.699  50.805  1.00  0.00     0.064 C 
BRANCH  14  15
HETATM   15  C7  UNL     1       4.138  20.020  49.873  1.00  0.00     0.057 A 
HETATM   16  N1  UNL     1       4.613  19.445  48.766  1.00  0.00    -0.355 N 
HETATM   17  C8  UNL     1       3.639  18.847  48.067  1.00  0.00     0.031 A 
ATOM     18  H1  UNL     1       5.594  19.459  48.487  1.00  0.00     0.166 HD
HETATM   19  C9  UNL     1       3.779  18.190  46.926  1.00  0.00     0.043 C 
HETATM   20  C10 UNL     1       2.454  19.037  48.751  1.00  0.00    -0.008 A 
HETATM   21  C14 UNL     1       2.783  19.769  49.873  1.00  0.00     0.069 A 
HETATM   22 CL1  UNL     1       1.645  20.297  51.109  1.00  0.00    -0.081 Cl
BRANCH  20  23
HETATM   23  C11 UNL     1       1.105  18.565  48.381  1.00  0.00     0.042 C 
BRANCH  23  24
HETATM   24  C12 UNL     1       0.494  19.424  47.275  1.00  0.00     0.000 C 
HETATM   25  C13 UNL     1      -1.005  19.303  47.412  1.00  0.00     0.005 C 
ENDBRANCH  23  24
ENDBRANCH  20  23
ENDBRANCH  14  15
ENDBRANCH   6  14
BRANCH   8  26
HETATM   26  N3  UNL     1       8.488  23.419  49.644  1.00  0.00    -0.196 N 
ATOM     27  H3  UNL     1       8.329  24.265  50.192  1.00  0.00     0.184 HD
BRANCH  26  28
HETATM   28  C16 UNL     1       9.148  23.566  48.420  1.00  0.00     0.013 C 
HETATM   29  C17 UNL     1       9.027  24.668  47.729  1.00  0.00     0.038 C 
HETATM   30  C18 UNL     1       9.993  22.476  47.893  1.00  0.00     0.068 C 
ENDBRANCH  26  28
ENDBRANCH   8  26
ENDBRANCH   4   5
ENDBRANCH   3   4
TORSDOF 8
ENDMDL
MODEL 2
REMARK VINA RESULT: -7.655919577      1.383      1.745
REMARK  8 active torsions:
REMARK  status: ('A' for Active; 'I' for Inactive)
REMARK    1  A    between atoms: C3_3  and  O1_4 
REMARK    2  A    between atoms: O1_4  and  C4_5 
REMARK    3  A    between atoms: C5_6  and  C6_7 
REMARK    4  A    between atoms: C6_7  and  C7_8 
REMARK    5  A    between atoms: C10_13  and  C11_14 
REMARK    6  A    between atoms: C11_14  and  C12_15 
REMARK    7  A    between atoms: C15_21  and  N3_22 
REMARK    8  A    between atoms: N3_22  and  C16_24 
ROOT
HETATM    1  C1  UNL     1       3.863  15.535  50.624  1.00  0.00     0.099 C 
HETATM    2  C2  UNL     1       4.829  15.839  51.305  1.00  0.00    -0.161 C 
HETATM    3  C3  UNL     1       5.996  16.180  52.128  1.00  0.00     0.255 C 
ENDROOT
BRANCH   3   4
HETATM    4  O1  UNL     1       6.060  17.585  52.243  1.00  0.00    -0.333 OA
BRANCH   4   5
HETATM    5  C4  UNL     1       6.831  18.402  51.435  1.00  0.00     0.166 A 
HETATM    6  C5  UNL     1       6.205  19.277  50.572  1.00  0.00     0.090 A 
HETATM    7  N2  UNL     1       6.995  20.052  49.804  1.00  0.00    -0.189 N 
HETATM    8  C15 UNL     1       8.337  20.011  49.842  1.00  0.00     0.685 A 
ATOM      9  H2  UNL     1       6.551  20.705  49.160  1.00  0.00     0.184 HD
HETATM   10  N4  UNL     1       8.946  19.157  50.683  1.00  0.00    -0.153 N 
HETATM   11  C19 UNL     1       8.218  18.347  51.485  1.00  0.00     0.295 A 
ATOM     12  H4  UNL     1       9.966  19.119  50.717  1.00  0.00     0.187 HD
HETATM   13  O2  UNL     1       8.808  17.555  52.265  1.00  0.00    -0.264 OA
BRANCH   6  14
HETATM   14  C6  UNL     1       4.749  19.349  50.504  1.00  0.00     0.064 C 
BRANCH  14  15
HETATM   15  C7  UNL     1       4.077  19.016  49.410  1.00  0.00     0.057 A 
HETATM   16  N1  UNL     1       4.505  18.355  48.333  1.00  0.00    -0.355 N 
HETATM   17  C8  UNL     1       3.527  18.208  47.428  1.00  0.00     0.031 A 
ATOM     18  H1  UNL     1       5.456  18.005  48.213  1.00  0.00     0.166 HD
HETATM   19  C9  UNL     1       3.626  17.600  46.255  1.00  0.00     0.043 C 
HETATM   20  C10 UNL     1       2.391  18.804  47.936  1.00  0.00    -0.008 A 
HETATM   21  C14 UNL     1       2.751  19.302  49.171  1.00  0.00     0.069 A 
HETATM   22 CL1  UNL     1       1.678  20.169  50.268  1.00  0.00    -0.081 Cl
BRANCH  20  23
HETATM   23  C11 UNL     1       1.057  18.903  47.310  1.00  0.00     0.042 C 
BRANCH  23  24
HETATM   24  C12 UNL     1       0.969  20.097  46.361  1.00  0.00     0.000 C 
HETATM   25  C13 UNL     1       0.751  19.534  44.978  1.00  0.00     0.005 C 
ENDBRANCH  23  24
ENDBRANCH  20  23
ENDBRANCH  14  15
ENDBRANCH   6  14
BRANCH   8  26
HETATM   26  N3  UNL     1       9.031  20.781  49.081  1.00  0.00    -0.196 N 
ATOM     27  H3  UNL     1       9.520  20.344  48.300  1.00  0.00     0.184 HD
BRANCH  26  28
HETATM   28  C16 UNL     1       9.173  22.164  49.232  1.00  0.00     0.013 C 
HETATM   29  C17 UNL     1       9.767  22.874  48.312  1.00  0.00     0.038 C 
HETATM   30  C18 UNL     1       8.651  22.840  50.437  1.00  0.00     0.068 C 
ENDBRANCH  26  28
ENDBRANCH   8  26
ENDBRANCH   4   5
ENDBRANCH   3   4
TORSDOF 8
ENDMDL
MODEL 3
REMARK VINA RESULT: -7.538375265      3.130      6.612
REMARK  8 active torsions:
REMARK  status: ('A' for Active; 'I' for Inactive)
REMARK    1  A    between atoms: C3_3  and  O1_4 
REMARK    2  A    between atoms: O1_4  and  C4_5 
REMARK    3  A    between atoms: C5_6  and  C6_7 
REMARK    4  A    between atoms: C6_7  and  C7_8 
REMARK    5  A    between atoms: C10_13  and  C11_14 
REMARK    6  A    between atoms: C11_14  and  C12_15 
REMARK    7  A    between atoms: C15_21  and  N3_22 
REMARK    8  A    between atoms: N3_22  and  C16_24 
ROOT
HETATM    1  C1  UNL     1       9.799  23.787  47.547  1.00  0.00     0.099 C 
HETATM    2  C2  UNL     1       9.792  22.709  48.119  1.00  0.00    -0.161 C 
HETATM    3  C3  UNL     1       9.788  21.400  48.783  1.00  0.00     0.255 C 
ENDROOT
BRANCH   3   4
HETATM    4  O1  UNL     1       9.492  21.599  50.148  1.00  0.00    -0.333 OA
BRANCH   4   5
HETATM    5  C4  UNL     1       8.235  21.441  50.706  1.00  0.00     0.166 A 
HETATM    6  C5  UNL     1       7.838  20.188  51.125  1.00  0.00     0.090 A 
HETATM    7  N2  UNL     1       6.607  20.082  51.661  1.00  0.00    -0.189 N 
HETATM    8  C15 UNL     1       5.768  21.121  51.805  1.00  0.00     0.685 A 
ATOM      9  H2  UNL     1       6.296  19.163  51.975  1.00  0.00     0.184 HD
HETATM   10  N4  UNL     1       6.156  22.342  51.396  1.00  0.00    -0.153 N 
HETATM   11  C19 UNL     1       7.378  22.525  50.848  1.00  0.00     0.295 A 
ATOM     12  H4  UNL     1       5.524  23.136  51.501  1.00  0.00     0.187 HD
HETATM   13  O2  UNL     1       7.722  23.677  50.473  1.00  0.00    -0.264 OA
BRANCH   6  14
HETATM   14  C6  UNL     1       8.723  19.036  50.984  1.00  0.00     0.064 C 
BRANCH  14  15
HETATM   15  C7  UNL     1       8.258  17.807  50.806  1.00  0.00     0.057 A 
HETATM   16  N1  UNL     1       7.496  17.334  49.818  1.00  0.00    -0.355 N 
HETATM   17  C8  UNL     1       7.229  16.031  49.986  1.00  0.00     0.031 A 
ATOM     18  H1  UNL     1       7.159  17.893  49.035  1.00  0.00     0.166 HD
HETATM   19  C9  UNL     1       6.502  15.268  49.184  1.00  0.00     0.043 C 
HETATM   20  C10 UNL     1       7.849  15.622  51.149  1.00  0.00    -0.008 A 
HETATM   21  C14 UNL     1       8.486  16.739  51.647  1.00  0.00     0.069 A 
HETATM   22 CL1  UNL     1       9.440  16.789  53.127  1.00  0.00    -0.081 Cl
BRANCH  20  23
HETATM   23  C11 UNL     1       7.849  14.275  51.755  1.00  0.00     0.042 C 
BRANCH  23  24
HETATM   24  C12 UNL     1       9.038  13.444  51.275  1.00  0.00     0.000 C 
HETATM   25  C13 UNL     1       9.947  13.263  52.466  1.00  0.00     0.005 C 
ENDBRANCH  23  24
ENDBRANCH  20  23
ENDBRANCH  14  15
ENDBRANCH   6  14
BRANCH   8  26
HETATM   26  N3  UNL     1       4.606  20.948  52.327  1.00  0.00    -0.196 N 
ATOM     27  H3  UNL     1       4.543  20.986  53.344  1.00  0.00     0.184 HD
BRANCH  26  28
HETATM   28  C16 UNL     1       3.422  20.712  51.621  1.00  0.00     0.013 C 
HETATM   29  C17 UNL     1       3.449  20.480  50.336  1.00  0.00     0.038 C 
HETATM   30  C18 UNL     1       2.122  20.721  52.322  1.00  0.00     0.068 C 
ENDBRANCH  26  28
ENDBRANCH   8  26
ENDBRANCH   4   5
ENDBRANCH   3   4
TORSDOF 8
ENDMDL
MODEL 4
REMARK VINA RESULT: -7.465302932      2.515      4.123
REMARK  8 active torsions:
REMARK  status: ('A' for Active; 'I' for Inactive)
REMARK    1  A    between atoms: C3_3  and  O1_4 
REMARK    2  A    between atoms: O1_4  and  C4_5 
REMARK    3  A    between atoms: C5_6  and  C6_7 
REMARK    4  A    between atoms: C6_7  and  C7_8 
REMARK    5  A    between atoms: C10_13  and  C11_14 
REMARK    6  A    between atoms: C11_14  and  C12_15 
REMARK    7  A    between atoms: C15_21  and  N3_22 
REMARK    8  A    between atoms: N3_22  and  C16_24 
ROOT
HETATM    1  C1  UNL     1       2.220  20.438  52.496  1.00  0.00     0.099 C 
HETATM    2  C2  UNL     1       3.212  20.968  52.023  1.00  0.00    -0.161 C 
HETATM    3  C3  UNL     1       4.402  21.625  51.470  1.00  0.00     0.255 C 
ENDROOT
BRANCH   3   4
HETATM    4  O1  UNL     1       4.854  20.867  50.369  1.00  0.00    -0.333 OA
BRANCH   4   5
HETATM    5  C4  UNL     1       5.923  19.989  50.410  1.00  0.00     0.166 A 
HETATM    6  C5  UNL     1       5.687  18.637  50.260  1.00  0.00     0.090 A 
HETATM    7  N2  UNL     1       6.757  17.820  50.307  1.00  0.00    -0.189 N 
HETATM    8  C15 UNL     1       8.015  18.253  50.489  1.00  0.00     0.685 A 
ATOM      9  H2  UNL     1       6.603  16.818  50.200  1.00  0.00     0.184 HD
HETATM   10  N4  UNL     1       8.243  19.570  50.634  1.00  0.00    -0.153 N 
HETATM   11  C19 UNL     1       7.218  20.452  50.598  1.00  0.00     0.295 A 
ATOM     12  H4  UNL     1       9.196  19.908  50.773  1.00  0.00     0.187 HD
HETATM   13  O2  UNL     1       7.453  21.681  50.736  1.00  0.00    -0.264 OA
BRANCH   6  14
HETATM   14  C6  UNL     1       4.333  18.130  50.062  1.00  0.00     0.064 C 
BRANCH  14  15
HETATM   15  C7  UNL     1       3.830  17.917  48.854  1.00  0.00     0.057 A 
HETATM   16  N1  UNL     1       4.363  17.245  47.831  1.00  0.00    -0.355 N 
HETATM   17  C8  UNL     1       3.548  17.247  46.767  1.00  0.00     0.031 A 
ATOM     18  H1  UNL     1       5.275  16.789  47.855  1.00  0.00     0.166 HD
HETATM   19  C9  UNL     1       3.782  16.671  45.597  1.00  0.00     0.043 C 
HETATM   20  C10 UNL     1       2.415  17.957  47.106  1.00  0.00    -0.008 A 
HETATM   21  C14 UNL     1       2.606  18.367  48.409  1.00  0.00     0.069 A 
HETATM   22 CL1  UNL     1       1.462  19.318  49.352  1.00  0.00    -0.081 Cl
BRANCH  20  23
HETATM   23  C11 UNL     1       1.230  18.235  46.269  1.00  0.00     0.042 C 
BRANCH  23  24
HETATM   24  C12 UNL     1       1.096  19.726  45.964  1.00  0.00     0.000 C 
HETATM   25  C13 UNL     1       0.681  19.835  44.517  1.00  0.00     0.005 C 
ENDBRANCH  23  24
ENDBRANCH  20  23
ENDBRANCH  14  15
ENDBRANCH   6  14
BRANCH   8  26
HETATM   26  N3  UNL     1       8.990  17.417  50.522  1.00  0.00    -0.196 N 
ATOM     27  H3  UNL     1       9.649  17.438  49.743  1.00  0.00     0.184 HD
BRANCH  26  28
HETATM   28  C16 UNL     1       9.227  16.480  51.533  1.00  0.00     0.013 C 
HETATM   29  C17 UNL     1       9.417  16.867  52.766  1.00  0.00     0.038 C 
HETATM   30  C18 UNL     1       9.264  15.038  51.219  1.00  0.00     0.068 C 
ENDBRANCH  26  28
ENDBRANCH   8  26
ENDBRANCH   4   5
ENDBRANCH   3   4
TORSDOF 8
ENDMDL
MODEL 5
REMARK VINA RESULT: -7.404541537      3.012      5.835
REMARK  8 active torsions:
REMARK  status: ('A' for Active; 'I' for Inactive)
REMARK    1  A    between atoms: C3_3  and  O1_4 
REMARK    2  A    between atoms: O1_4  and  C4_5 
REMARK    3  A    between atoms: C5_6  and  C6_7 
REMARK    4  A    between atoms: C6_7  and  C7_8 
REMARK    5  A    between atoms: C10_13  and  C11_14 
REMARK    6  A    between atoms: C11_14  and  C12_15 
REMARK    7  A    between atoms: C15_21  and  N3_22 
REMARK    8  A    between atoms: N3_22  and  C16_24 
ROOT
HETATM    1  C1  UNL     1       2.001  20.631  52.353  1.00  0.00     0.099 C 
HETATM    2  C2  UNL     1       2.893  20.070  51.738  1.00  0.00    -0.161 C 
HETATM    3  C3  UNL     1       3.949  19.386  50.981  1.00  0.00     0.255 C 
ENDROOT
BRANCH   3   4
HETATM    4  O1  UNL     1       5.168  19.557  51.670  1.00  0.00    -0.333 OA
BRANCH   4   5
HETATM    5  C4  UNL     1       6.210  20.355  51.231  1.00  0.00     0.166 A 
HETATM    6  C5  UNL     1       7.268  19.772  50.564  1.00  0.00     0.090 A 
HETATM    7  N2  UNL     1       8.259  20.587  50.155  1.00  0.00    -0.189 N 
HETATM    8  C15 UNL     1       8.262  21.914  50.363  1.00  0.00     0.685 A 
ATOM      9  H2  UNL     1       9.050  20.174  49.662  1.00  0.00     0.184 HD
HETATM   10  N4  UNL     1       7.230  22.481  51.013  1.00  0.00    -0.153 N 
HETATM   11  C19 UNL     1       6.198  21.726  51.453  1.00  0.00     0.295 A 
ATOM     12  H4  UNL     1       7.225  23.489  51.175  1.00  0.00     0.187 HD
HETATM   13  O2  UNL     1       5.242  22.277  52.059  1.00  0.00    -0.264 OA
BRANCH   6  14
HETATM   14  C6  UNL     1       7.298  18.333  50.322  1.00  0.00     0.064 C 
BRANCH  14  15
HETATM   15  C7  UNL     1       8.086  17.519  51.011  1.00  0.00     0.057 A 
HETATM   16  N1  UNL     1       8.974  17.817  51.962  1.00  0.00    -0.355 N 
HETATM   17  C8  UNL     1       9.581  16.718  52.428  1.00  0.00     0.031 A 
ATOM     18  H1  UNL     1       9.166  18.763  52.292  1.00  0.00     0.166 HD
HETATM   19  C9  UNL     1      10.509  16.672  53.372  1.00  0.00     0.043 C 
HETATM   20  C10 UNL     1       9.066  15.633  51.748  1.00  0.00    -0.008 A 
HETATM   21  C14 UNL     1       8.136  16.149  50.870  1.00  0.00     0.069 A 
HETATM   22 CL1  UNL     1       7.166  15.201  49.745  1.00  0.00    -0.081 Cl
BRANCH  20  23
HETATM   23  C11 UNL     1       9.418  14.207  51.907  1.00  0.00     0.042 C 
BRANCH  23  24
HETATM   24  C12 UNL     1       8.336  13.445  52.672  1.00  0.00     0.000 C 
HETATM   25  C13 UNL     1       8.740  13.465  54.126  1.00  0.00     0.005 C 
ENDBRANCH  23  24
ENDBRANCH  20  23
ENDBRANCH  14  15
ENDBRANCH   6  14
BRANCH   8  26
HETATM   26  N3  UNL     1       9.241  22.633  49.944  1.00  0.00    -0.196 N 
ATOM     27  H3  UNL     1       9.937  22.919  50.633  1.00  0.00     0.184 HD
BRANCH  26  28
HETATM   28  C16 UNL     1       9.435  23.059  48.625  1.00  0.00     0.013 C 
HETATM   29  C17 UNL     1       8.949  24.200  48.218  1.00  0.00     0.038 C 
HETATM   30  C18 UNL     1      10.194  22.221  47.676  1.00  0.00     0.068 C 
ENDBRANCH  26  28
ENDBRANCH   8  26
ENDBRANCH   4   5
ENDBRANCH   3   4
TORSDOF 8
ENDMDL
