MODEL 1
REMARK VINA RESULT: -7.253009912      0.000      0.000
REMARK  7 active torsions:
REMARK  status: ('A' for Active; 'I' for Inactive)
REMARK       I    between atoms: C2_2  and  N1_4 
REMARK    1  A    between atoms: N1_4  and  C4_6 
REMARK    2  A    between atoms: C10_12  and  C11_13 
REMARK    3  A    between atoms: C11_13  and  N2_14 
REMARK    4  A    between atoms: N2_14  and  C12_16 
REMARK    5  A    between atoms: C12_16  and  C13_17 
REMARK    6  A    between atoms: C16_21  and  C17_22 
REMARK    7  A    between atoms: C17_22  and  N3_23 
ROOT
HETATM    1  C4  UNL     1       5.221  19.200  51.227  1.00  0.00     0.036 C 
HETATM    2  C5  UNL     1       5.481  18.084  50.235  1.00  0.00     0.037 C 
HETATM    3  C6  UNL     1       6.382  17.116  50.916  1.00  0.00     0.004 A 
HETATM    4  C7  UNL     1       7.731  17.835  51.266  1.00  0.00     0.006 A 
HETATM    5  C8  UNL     1       7.901  18.866  50.292  1.00  0.00     0.005 A 
HETATM    6  C9  UNL     1       8.553  20.204  50.759  1.00  0.00     0.007 A 
HETATM    7  C10 UNL     1       8.164  21.268  49.769  1.00  0.00     0.018 A 
HETATM    8  C14 UNL     1       7.223  20.104  50.188  1.00  0.00    -0.024 A 
HETATM    9  C15 UNL     1       5.979  20.452  50.836  1.00  0.00     0.042 C 
HETATM   10  C16 UNL     1       6.693  17.687  52.207  1.00  0.00    -0.006 A 
HETATM   11  C18 UNL     1       5.780  18.796  52.548  1.00  0.00     0.043 C 
ENDROOT
BRANCH   7  12
HETATM   12  C11 UNL     1       7.836  22.653  50.169  1.00  0.00     0.119 C 
BRANCH  12  13
HETATM   13  N2  UNL     1       8.590  23.586  49.395  1.00  0.00    -0.420 N 
ATOM     14  H2  UNL     1       8.302  24.560  49.302  1.00  0.00     0.153 HD
BRANCH  13  15
HETATM   15  C12 UNL     1       9.761  23.092  48.761  1.00  0.00     0.124 C 
BRANCH  15  16
HETATM   16  C13 UNL     1       9.934  23.464  47.326  1.00  0.00     0.104 C 
HETATM   17 BR1  UNL     1       9.326  25.315  47.153  1.00  0.00    -0.095 Br
ENDBRANCH  15  16
ENDBRANCH  13  15
ENDBRANCH  12  13
ENDBRANCH   7  12
BRANCH   1  18
HETATM   18  N1  UNL     1       3.801  19.467  51.339  1.00  0.00    -0.347 N 
HETATM   19  C2  UNL     1       3.328  20.610  52.012  1.00  0.00     0.216 C 
HETATM   20  C1  UNL     1       1.881  20.868  52.111  1.00  0.00     0.117 C 
HETATM   21  O1  UNL     1       4.125  21.423  52.535  1.00  0.00    -0.274 OA
HETATM   22  C3  UNL     1       2.851  18.543  50.746  1.00  0.00     0.153 C 
ENDBRANCH   1  18
BRANCH  10  23
HETATM   23  C17 UNL     1       6.885  16.687  53.349  1.00  0.00     0.240 C 
BRANCH  23  24
HETATM   24  N3  UNL     1       8.298  16.575  53.563  1.00  0.00    -0.079 N 
ATOM     25  H33 UNL     1       8.835  16.541  52.696  1.00  0.00     0.274 HD
ATOM     26  H32 UNL     1       8.717  17.425  53.940  1.00  0.00     0.274 HD
ATOM     27  H31 UNL     1       8.439  15.759  54.157  1.00  0.00     0.274 HD
ENDBRANCH  23  24
ENDBRANCH  10  23
TORSDOF 7
ENDMDL
MODEL 2
REMARK VINA RESULT: -7.045790600      2.806      5.322
REMARK  7 active torsions:
REMARK  status: ('A' for Active; 'I' for Inactive)
REMARK       I    between atoms: C2_2  and  N1_4 
REMARK    1  A    between atoms: N1_4  and  C4_6 
REMARK    2  A    between atoms: C10_12  and  C11_13 
REMARK    3  A    between atoms: C11_13  and  N2_14 
REMARK    4  A    between atoms: N2_14  and  C12_16 
REMARK    5  A    between atoms: C12_16  and  C13_17 
REMARK    6  A    between atoms: C16_21  and  C17_22 
REMARK    7  A    between atoms: C17_22  and  N3_23 
ROOT
HETATM    1  C4  UNL     1       7.231  19.798  50.694  1.00  0.00     0.036 C 
HETATM    2  C5  UNL     1       7.274  19.691  52.206  1.00  0.00     0.037 C 
HETATM    3  C6  UNL     1       7.762  18.322  52.518  1.00  0.00     0.004 A 
HETATM    4  C7  UNL     1       6.745  17.274  51.944  1.00  0.00     0.006 A 
HETATM    5  C8  UNL     1       5.469  17.919  51.932  1.00  0.00     0.005 A 
HETATM    6  C9  UNL     1       4.502  17.590  50.753  1.00  0.00     0.007 A 
HETATM    7  C10 UNL     1       3.505  18.713  50.657  1.00  0.00     0.018 A 
HETATM    8  C14 UNL     1       4.994  18.921  51.053  1.00  0.00    -0.024 A 
HETATM    9  C15 UNL     1       5.803  19.755  50.193  1.00  0.00     0.042 C 
HETATM   10  C16 UNL     1       7.914  17.643  51.251  1.00  0.00    -0.006 A 
HETATM   11  C18 UNL     1       7.888  18.590  50.119  1.00  0.00     0.043 C 
ENDROOT
BRANCH   7  12
HETATM   12  C11 UNL     1       3.013  19.237  49.366  1.00  0.00     0.119 C 
BRANCH  12  13
HETATM   13  N2  UNL     1       1.592  19.120  49.292  1.00  0.00    -0.420 N 
ATOM     14  H2  UNL     1       1.005  19.186  50.124  1.00  0.00     0.153 HD
BRANCH  13  15
HETATM   15  C12 UNL     1       1.035  18.907  48.003  1.00  0.00     0.124 C 
BRANCH  15  16
HETATM   16  C13 UNL     1       1.894  19.298  46.847  1.00  0.00     0.104 C 
HETATM   17 BR1  UNL     1       0.684  19.861  45.417  1.00  0.00    -0.095 Br
ENDBRANCH  15  16
ENDBRANCH  13  15
ENDBRANCH  12  13
ENDBRANCH   7  12
BRANCH   1  18
HETATM   18  N1  UNL     1       7.903  21.001  50.245  1.00  0.00    -0.347 N 
HETATM   19  C2  UNL     1       7.424  22.276  50.602  1.00  0.00     0.216 C 
HETATM   20  C1  UNL     1       8.122  23.489  50.142  1.00  0.00     0.117 C 
HETATM   21  O1  UNL     1       6.400  22.401  51.315  1.00  0.00    -0.274 OA
HETATM   22  C3  UNL     1       9.090  20.890  49.416  1.00  0.00     0.153 C 
ENDBRANCH   1  18
BRANCH  10  23
HETATM   23  C17 UNL     1       9.059  16.632  51.169  1.00  0.00     0.240 C 
BRANCH  23  24
HETATM   24  N3  UNL     1       9.746  16.688  52.427  1.00  0.00    -0.079 N 
ATOM     25  H33 UNL     1       9.200  16.309  53.201  1.00  0.00     0.274 HD
ATOM     26  H32 UNL     1      10.527  16.035  52.489  1.00  0.00     0.274 HD
ATOM     27  H31 UNL     1      10.022  17.659  52.566  1.00  0.00     0.274 HD
ENDBRANCH  23  24
ENDBRANCH  10  23
TORSDOF 7
ENDMDL
MODEL 3
REMARK VINA RESULT: -7.017232680      3.480      6.262
REMARK  7 active torsions:
REMARK  status: ('A' for Active; 'I' for Inactive)
REMARK       I    between atoms: C2_2  and  N1_4 
REMARK    1  A    between atoms: N1_4  and  C4_6 
REMARK    2  A    between atoms: C10_12  and  C11_13 
REMARK    3  A    between atoms: C11_13  and  N2_14 
REMARK    4  A    between atoms: N2_14  and  C12_16 
REMARK    5  A    between atoms: C12_16  and  C13_17 
REMARK    6  A    between atoms: C16_21  and  C17_22 
REMARK    7  A    between atoms: C17_22  and  N3_23 
ROOT
HETATM    1  C4  UNL     1       5.722  19.097  50.870  1.00  0.00     0.036 C 
HETATM    2  C5  UNL     1       6.057  20.423  50.216  1.00  0.00     0.037 C 
HETATM    3  C6  UNL     1       5.690  21.481  51.194  1.00  0.00     0.004 A 
HETATM    4  C7  UNL     1       4.148  21.405  51.473  1.00  0.00     0.006 A 
HETATM    5  C8  UNL     1       3.554  20.866  50.291  1.00  0.00     0.005 A 
HETATM    6  C9  UNL     1       2.331  19.913  50.466  1.00  0.00     0.007 A 
HETATM    7  C10 UNL     1       2.214  19.091  49.210  1.00  0.00     0.018 A 
HETATM    8  C14 UNL     1       3.573  19.531  49.822  1.00  0.00    -0.024 A 
HETATM    9  C15 UNL     1       4.481  18.491  50.248  1.00  0.00     0.042 C 
HETATM   10  C16 UNL     1       5.096  20.803  52.324  1.00  0.00    -0.006 A 
HETATM   11  C18 UNL     1       5.366  19.352  52.294  1.00  0.00     0.043 C 
ENDROOT
BRANCH   7  12
HETATM   12  C11 UNL     1       1.836  17.662  49.222  1.00  0.00     0.119 C 
BRANCH  12  13
HETATM   13  N2  UNL     1       0.651  17.455  48.453  1.00  0.00    -0.420 N 
ATOM     14  H2  UNL     1       0.109  16.594  48.527  1.00  0.00     0.153 HD
BRANCH  13  15
HETATM   15  C12 UNL     1       0.263  18.507  47.581  1.00  0.00     0.124 C 
BRANCH  15  16
HETATM   16  C13 UNL     1      -0.009  18.116  46.167  1.00  0.00     0.104 C 
HETATM   17 BR1  UNL     1       0.733  19.534  45.042  1.00  0.00    -0.095 Br
ENDBRANCH  15  16
ENDBRANCH  13  15
ENDBRANCH  12  13
ENDBRANCH   7  12
BRANCH   1  18
HETATM   18  N1  UNL     1       6.844  18.185  50.784  1.00  0.00    -0.347 N 
HETATM   19  C2  UNL     1       8.089  18.509  51.357  1.00  0.00     0.216 C 
HETATM   20  C1  UNL     1       9.218  17.567  51.265  1.00  0.00     0.117 C 
HETATM   21  O1  UNL     1       8.258  19.599  51.952  1.00  0.00    -0.274 OA
HETATM   22  C3  UNL     1       6.682  16.915  50.099  1.00  0.00     0.153 C 
ENDBRANCH   1  18
BRANCH  10  23
HETATM   23  C17 UNL     1       5.351  21.439  53.692  1.00  0.00     0.240 C 
BRANCH  23  24
HETATM   24  N3  UNL     1       6.705  21.910  53.680  1.00  0.00    -0.079 N 
ATOM     25  H33 UNL     1       7.384  21.178  53.476  1.00  0.00     0.274 HD
ATOM     26  H32 UNL     1       6.916  22.508  52.881  1.00  0.00     0.274 HD
ATOM     27  H31 UNL     1       6.862  22.368  54.577  1.00  0.00     0.274 HD
ENDBRANCH  23  24
ENDBRANCH  10  23
TORSDOF 7
ENDMDL
MODEL 4
REMARK VINA RESULT: -6.969103253      3.241      5.568
REMARK  7 active torsions:
REMARK  status: ('A' for Active; 'I' for Inactive)
REMARK       I    between atoms: C2_2  and  N1_4 
REMARK    1  A    between atoms: N1_4  and  C4_6 
REMARK    2  A    between atoms: C10_12  and  C11_13 
REMARK    3  A    between atoms: C11_13  and  N2_14 
REMARK    4  A    between atoms: N2_14  and  C12_16 
REMARK    5  A    between atoms: C12_16  and  C13_17 
REMARK    6  A    between atoms: C16_21  and  C17_22 
REMARK    7  A    between atoms: C17_22  and  N3_23 
ROOT
HETATM    1  C4  UNL     1       5.442  20.872  52.522  1.00  0.00     0.036 C 
HETATM    2  C5  UNL     1       6.540  19.846  52.723  1.00  0.00     0.037 C 
HETATM    3  C6  UNL     1       7.609  20.176  51.743  1.00  0.00     0.004 A 
HETATM    4  C7  UNL     1       7.028  20.049  50.292  1.00  0.00     0.006 A 
HETATM    5  C8  UNL     1       5.981  19.080  50.362  1.00  0.00     0.005 A 
HETATM    6  C9  UNL     1       4.725  19.303  49.464  1.00  0.00     0.007 A 
HETATM    7  C10 UNL     1       3.594  18.509  50.060  1.00  0.00     0.018 A 
HETATM    8  C14 UNL     1       4.684  19.218  50.911  1.00  0.00    -0.024 A 
HETATM    9  C15 UNL     1       4.250  20.252  51.824  1.00  0.00     0.042 C 
HETATM   10  C16 UNL     1       7.117  21.286  50.960  1.00  0.00    -0.006 A 
HETATM   11  C18 UNL     1       5.944  21.922  51.591  1.00  0.00     0.043 C 
ENDROOT
BRANCH   7  12
HETATM   12  C11 UNL     1       2.202  19.003  50.097  1.00  0.00     0.119 C 
BRANCH  12  13
HETATM   13  N2  UNL     1       1.402  18.309  49.139  1.00  0.00    -0.420 N 
ATOM     14  H2  UNL     1       1.219  17.308  49.220  1.00  0.00     0.153 HD
BRANCH  13  15
HETATM   15  C12 UNL     1       0.875  19.078  48.068  1.00  0.00     0.124 C 
BRANCH  15  16
HETATM   16  C13 UNL     1       1.808  19.348  46.936  1.00  0.00     0.104 C 
HETATM   17 BR1  UNL     1       0.696  19.811  45.394  1.00  0.00    -0.095 Br
ENDBRANCH  15  16
ENDBRANCH  13  15
ENDBRANCH  12  13
ENDBRANCH   7  12
BRANCH   1  18
HETATM   18  N1  UNL     1       5.053  21.461  53.787  1.00  0.00    -0.347 N 
HETATM   19  C2  UNL     1       5.972  22.201  54.557  1.00  0.00     0.216 C 
HETATM   20  C1  UNL     1       5.558  22.797  55.839  1.00  0.00     0.117 C 
HETATM   21  O1  UNL     1       7.152  22.363  54.167  1.00  0.00    -0.274 OA
HETATM   22  C3  UNL     1       3.694  21.289  54.269  1.00  0.00     0.153 C 
ENDBRANCH   1  18
BRANCH  10  23
HETATM   23  C17 UNL     1       8.171  22.291  50.491  1.00  0.00     0.240 C 
BRANCH  23  24
HETATM   24  N3  UNL     1       8.277  23.285  51.519  1.00  0.00    -0.079 N 
ATOM     25  H33 UNL     1       7.457  23.328  52.124  1.00  0.00     0.274 HD
ATOM     26  H32 UNL     1       8.956  23.047  52.241  1.00  0.00     0.274 HD
ATOM     27  H31 UNL     1       8.479  24.168  51.051  1.00  0.00     0.274 HD
ENDBRANCH  23  24
ENDBRANCH  10  23
TORSDOF 7
ENDMDL
MODEL 5
REMARK VINA RESULT: -6.929231827      2.633      4.744
REMARK  7 active torsions:
REMARK  status: ('A' for Active; 'I' for Inactive)
REMARK       I    between atoms: C2_2  and  N1_4 
REMARK    1  A    between atoms: N1_4  and  C4_6 
REMARK    2  A    between atoms: C10_12  and  C11_13 
REMARK    3  A    between atoms: C11_13  and  N2_14 
REMARK    4  A    between atoms: N2_14  and  C12_16 
REMARK    5  A    between atoms: C12_16  and  C13_17 
REMARK    6  A    between atoms: C16_21  and  C17_22 
REMARK    7  A    between atoms: C17_22  and  N3_23 
ROOT
HETATM    1  C4  UNL     1       4.558  18.095  49.909  1.00  0.00     0.036 C 
HETATM    2  C5  UNL     1       3.595  17.701  51.011  1.00  0.00     0.037 C 
HETATM    3  C6  UNL     1       2.275  18.279  50.644  1.00  0.00     0.004 A 
HETATM    4  C7  UNL     1       2.400  19.842  50.586  1.00  0.00     0.006 A 
HETATM    5  C8  UNL     1       3.444  20.193  51.497  1.00  0.00     0.005 A 
HETATM    6  C9  UNL     1       4.370  21.389  51.111  1.00  0.00     0.007 A 
HETATM    7  C10 UNL     1       5.646  21.246  51.896  1.00  0.00     0.018 A 
HETATM    8  C14 UNL     1       4.842  20.037  51.342  1.00  0.00    -0.024 A 
HETATM    9  C15 UNL     1       5.503  19.179  50.384  1.00  0.00     0.042 C 
HETATM   10  C16 UNL     1       2.485  19.039  49.432  1.00  0.00    -0.006 A 
HETATM   11  C18 UNL     1       3.778  18.710  48.799  1.00  0.00     0.043 C 
ENDROOT
BRANCH   7  12
HETATM   12  C11 UNL     1       6.974  21.562  51.330  1.00  0.00     0.119 C 
BRANCH  12  13
HETATM   13  N2  UNL     1       6.989  22.892  50.812  1.00  0.00    -0.420 N 
ATOM     14  H2  UNL     1       6.224  23.544  50.988  1.00  0.00     0.153 HD
BRANCH  13  15
HETATM   15  C12 UNL     1       8.120  23.265  50.038  1.00  0.00     0.124 C 
BRANCH  15  16
HETATM   16  C13 UNL     1       9.015  22.149  49.611  1.00  0.00     0.104 C 
HETATM   17 BR1  UNL     1       9.922  22.752  47.986  1.00  0.00    -0.095 Br
ENDBRANCH  15  16
ENDBRANCH  13  15
ENDBRANCH  12  13
ENDBRANCH   7  12
BRANCH   1  18
HETATM   18  N1  UNL     1       5.292  16.940  49.432  1.00  0.00    -0.347 N 
HETATM   19  C2  UNL     1       4.721  16.050  48.502  1.00  0.00     0.216 C 
HETATM   20  C1  UNL     1       5.483  14.884  48.023  1.00  0.00     0.117 C 
HETATM   21  O1  UNL     1       3.560  16.233  48.068  1.00  0.00    -0.274 OA
HETATM   22  C3  UNL     1       6.639  16.698  49.918  1.00  0.00     0.153 C 
ENDBRANCH   1  18
BRANCH  10  23
HETATM   23  C17 UNL     1       1.315  19.059  48.446  1.00  0.00     0.240 C 
BRANCH  23  24
HETATM   24  N3  UNL     1       0.825  17.714  48.364  1.00  0.00    -0.079 N 
ATOM     25  H33 UNL     1       1.506  17.060  47.977  1.00  0.00     0.274 HD
ATOM     26  H32 UNL     1       0.721  17.266  49.274  1.00  0.00     0.274 HD
ATOM     27  H31 UNL     1      -0.044  17.752  47.832  1.00  0.00     0.274 HD
ENDBRANCH  23  24
ENDBRANCH  10  23
TORSDOF 7
ENDMDL
