MODEL 1
REMARK VINA RESULT: -7.363694480      0.000      0.000
REMARK  7 active torsions:
REMARK  status: ('A' for Active; 'I' for Inactive)
REMARK    1  A    between atoms: C2_2  and  C4_4 
REMARK    2  A    between atoms: C4_4  and  N1_6 
REMARK    3  A    between atoms: N1_6  and  C8_9 
REMARK    4  A    between atoms: C8_9  and  C9_10 
REMARK    5  A    between atoms: C9_10  and  N2_11 
REMARK    6  A    between atoms: C12_14  and  C13_15 
REMARK    7  A    between atoms: C14_18  and  N4_19 
ROOT
HETATM    1  N2  UNL     1       3.405  19.413  50.105  1.00  0.00    -0.349 N 
HETATM    2  C10 UNL     1       4.563  19.167  49.497  1.00  0.00     0.092 A 
HETATM    3  C11 UNL     1       5.654  19.957  49.764  1.00  0.00     0.032 A 
HETATM    4  C12 UNL     1       5.576  21.023  50.666  1.00  0.00     0.014 A 
HETATM    5  C15 UNL     1       4.382  21.253  51.272  1.00  0.00     0.053 A 
HETATM    6  C16 UNL     1       3.294  20.428  50.976  1.00  0.00     0.082 A 
HETATM    7 BR1  UNL     1       1.676  20.860  51.895  1.00  0.00    -0.031 Br
ENDROOT
BRANCH   4   8
HETATM    8  C13 UNL     1       6.745  21.848  50.933  1.00  0.00     0.146 A 
HETATM    9  N3  UNL     1       7.616  22.318  50.036  1.00  0.00    -0.174 N 
HETATM   10  C14 UNL     1       8.542  23.034  50.727  1.00  0.00     0.692 A 
ATOM     11  H3  UNL     1       7.591  22.168  49.027  1.00  0.00     0.186 HD
HETATM   12  N5  UNL     1       8.241  23.003  52.037  1.00  0.00    -0.131 N 
HETATM   13  N6  UNL     1       7.137  22.272  52.144  1.00  0.00    -0.270 N 
ATOM     14  H5  UNL     1       8.757  23.451  52.794  1.00  0.00     0.205 HD
ATOM     15  H6  UNL     1       6.657  22.064  53.020  1.00  0.00     0.189 HD
BRANCH  10  16
HETATM   16  N4  UNL     1       9.548  23.643  50.196  1.00  0.00    -0.233 N 
ATOM     17  H42 UNL     1      10.525  23.364  50.278  1.00  0.00     0.174 HD
ATOM     18  H41 UNL     1       9.483  24.486  49.626  1.00  0.00     0.174 HD
ENDBRANCH  10  16
ENDBRANCH   4   8
BRANCH   1  19
HETATM   19  C9  UNL     1       2.258  18.594  49.837  1.00  0.00     0.157 C 
BRANCH  19  20
HETATM   20  C8  UNL     1       1.510  18.965  48.606  1.00  0.00     0.257 C 
BRANCH  20  21
HETATM   21  N1  UNL     1       1.345  17.787  47.785  1.00  0.00    -0.066 N 
HETATM   22  C6  UNL     1       1.075  16.691  48.734  1.00  0.00     0.272 C 
HETATM   23  C7  UNL     1       2.571  17.447  47.141  1.00  0.00     0.272 C 
BRANCH  21  24
HETATM   24  C4  UNL     1       0.207  17.871  46.909  1.00  0.00     0.213 C 
HETATM   25  C5  UNL     1      -0.935  17.087  47.499  1.00  0.00     0.045 C 
BRANCH  24  26
HETATM   26  C2  UNL     1      -0.176  19.230  46.526  1.00  0.00    -0.063 C 
HETATM   27  C1  UNL     1      -1.250  19.788  47.055  1.00  0.00     0.016 C 
HETATM   28  C3  UNL     1       0.591  20.051  45.553  1.00  0.00     0.044 C 
ENDBRANCH  24  26
ENDBRANCH  21  24
ENDBRANCH  20  21
ENDBRANCH  19  20
ENDBRANCH   1  19
TORSDOF 7
ENDMDL
MODEL 2
REMARK VINA RESULT: -7.317468118      0.835      1.424
REMARK  7 active torsions:
REMARK  status: ('A' for Active; 'I' for Inactive)
REMARK    1  A    between atoms: C2_2  and  C4_4 
REMARK    2  A    between atoms: C4_4  and  N1_6 
REMARK    3  A    between atoms: N1_6  and  C8_9 
REMARK    4  A    between atoms: C8_9  and  C9_10 
REMARK    5  A    between atoms: C9_10  and  N2_11 
REMARK    6  A    between atoms: C12_14  and  C13_15 
REMARK    7  A    between atoms: C14_18  and  N4_19 
ROOT
HETATM    1  N2  UNL     1       3.356  19.450  50.123  1.00  0.00    -0.349 N 
HETATM    2  C10 UNL     1       4.499  19.194  49.492  1.00  0.00     0.092 A 
HETATM    3  C11 UNL     1       5.603  19.970  49.740  1.00  0.00     0.032 A 
HETATM    4  C12 UNL     1       5.555  21.033  50.648  1.00  0.00     0.014 A 
HETATM    5  C15 UNL     1       4.376  21.274  51.279  1.00  0.00     0.053 A 
HETATM    6  C16 UNL     1       3.273  20.463  51.000  1.00  0.00     0.082 A 
HETATM    7 BR1  UNL     1       1.678  20.909  51.953  1.00  0.00    -0.031 Br
ENDROOT
BRANCH   4   8
HETATM    8  C13 UNL     1       6.739  21.843  50.897  1.00  0.00     0.146 A 
HETATM    9  N3  UNL     1       7.615  22.280  49.988  1.00  0.00    -0.174 N 
HETATM   10  C14 UNL     1       8.555  22.994  50.663  1.00  0.00     0.692 A 
ATOM     11  H3  UNL     1       7.585  22.111  48.983  1.00  0.00     0.186 HD
HETATM   12  N5  UNL     1       8.257  22.995  51.974  1.00  0.00    -0.131 N 
HETATM   13  N6  UNL     1       7.141  22.285  52.098  1.00  0.00    -0.270 N 
ATOM     14  H5  UNL     1       8.782  23.448  52.721  1.00  0.00     0.205 HD
ATOM     15  H6  UNL     1       6.659  22.102  52.979  1.00  0.00     0.189 HD
BRANCH  10  16
HETATM   16  N4  UNL     1       9.569  23.575  50.118  1.00  0.00    -0.233 N 
ATOM     17  H42 UNL     1      10.321  23.111  49.609  1.00  0.00     0.174 HD
ATOM     18  H41 UNL     1       9.741  24.581  50.133  1.00  0.00     0.174 HD
ENDBRANCH  10  16
ENDBRANCH   4   8
BRANCH   1  19
HETATM   19  C9  UNL     1       2.194  18.646  49.873  1.00  0.00     0.157 C 
BRANCH  19  20
HETATM   20  C8  UNL     1       2.344  17.675  48.757  1.00  0.00     0.257 C 
BRANCH  20  21
HETATM   21  N1  UNL     1       1.350  17.963  47.748  1.00  0.00    -0.066 N 
HETATM   22  C6  UNL     1       0.447  18.951  48.369  1.00  0.00     0.272 C 
HETATM   23  C7  UNL     1       0.546  16.814  47.492  1.00  0.00     0.272 C 
BRANCH  21  24
HETATM   24  C4  UNL     1       1.906  18.584  46.576  1.00  0.00     0.213 C 
HETATM   25  C5  UNL     1       2.892  17.644  45.935  1.00  0.00     0.045 C 
BRANCH  24  26
HETATM   26  C2  UNL     1       0.920  19.104  45.628  1.00  0.00    -0.063 C 
HETATM   27  C1  UNL     1       0.750  20.407  45.499  1.00  0.00     0.016 C 
HETATM   28  C3  UNL     1       0.075  18.233  44.770  1.00  0.00     0.044 C 
ENDBRANCH  24  26
ENDBRANCH  21  24
ENDBRANCH  20  21
ENDBRANCH  19  20
ENDBRANCH   1  19
TORSDOF 7
ENDMDL
MODEL 3
REMARK VINA RESULT: -7.223425224      5.112      6.655
REMARK  7 active torsions:
REMARK  status: ('A' for Active; 'I' for Inactive)
REMARK    1  A    between atoms: C2_2  and  C4_4 
REMARK    2  A    between atoms: C4_4  and  N1_6 
REMARK    3  A    between atoms: N1_6  and  C8_9 
REMARK    4  A    between atoms: C8_9  and  C9_10 
REMARK    5  A    between atoms: C9_10  and  N2_11 
REMARK    6  A    between atoms: C12_14  and  C13_15 
REMARK    7  A    between atoms: C14_18  and  N4_19 
ROOT
HETATM    1  N2  UNL     1       7.648  19.988  51.578  1.00  0.00    -0.349 N 
HETATM    2  C10 UNL     1       8.845  19.784  51.033  1.00  0.00     0.092 A 
HETATM    3  C11 UNL     1       9.338  20.679  50.117  1.00  0.00     0.032 A 
HETATM    4  C12 UNL     1       8.607  21.810  49.740  1.00  0.00     0.014 A 
HETATM    5  C15 UNL     1       7.388  21.995  50.310  1.00  0.00     0.053 A 
HETATM    6  C16 UNL     1       6.918  21.062  51.239  1.00  0.00     0.082 A 
HETATM    7 BR1  UNL     1       5.191  21.440  51.964  1.00  0.00    -0.031 Br
ENDROOT
BRANCH   4   8
HETATM    8  C13 UNL     1       9.150  22.747  48.766  1.00  0.00     0.146 A 
HETATM    9  N3  UNL     1       8.647  23.939  48.436  1.00  0.00    -0.174 N 
HETATM   10  C14 UNL     1       9.473  24.464  47.492  1.00  0.00     0.692 A 
ATOM     11  H3  UNL     1       7.807  24.373  48.818  1.00  0.00     0.186 HD
HETATM   12  N5  UNL     1      10.473  23.600  47.246  1.00  0.00    -0.131 N 
HETATM   13  N6  UNL     1      10.258  22.553  48.036  1.00  0.00    -0.270 N 
ATOM     14  H5  UNL     1      11.241  23.723  46.586  1.00  0.00     0.205 HD
ATOM     15  H6  UNL     1      10.851  21.723  48.081  1.00  0.00     0.189 HD
BRANCH  10  16
HETATM   16  N4  UNL     1       9.311  25.613  46.929  1.00  0.00    -0.233 N 
ATOM     17  H42 UNL     1      10.024  26.335  46.830  1.00  0.00     0.174 HD
ATOM     18  H41 UNL     1       8.440  25.938  46.510  1.00  0.00     0.174 HD
ENDBRANCH  10  16
ENDBRANCH   4   8
BRANCH   1  19
HETATM   19  C9  UNL     1       7.120  19.061  52.537  1.00  0.00     0.157 C 
BRANCH  19  20
HETATM   20  C8  UNL     1       7.865  17.777  52.628  1.00  0.00     0.257 C 
BRANCH  20  21
HETATM   21  N1  UNL     1       6.956  16.687  52.357  1.00  0.00    -0.066 N 
HETATM   22  C6  UNL     1       5.734  17.326  51.835  1.00  0.00     0.272 C 
HETATM   23  C7  UNL     1       6.567  16.042  53.568  1.00  0.00     0.272 C 
BRANCH  21  24
HETATM   24  C4  UNL     1       7.435  15.801  51.329  1.00  0.00     0.213 C 
HETATM   25  C5  UNL     1       7.383  16.507  50.000  1.00  0.00     0.045 C 
BRANCH  24  26
HETATM   26  C2  UNL     1       8.739  15.195  51.598  1.00  0.00    -0.063 C 
HETATM   27  C1  UNL     1       9.841  15.909  51.459  1.00  0.00     0.016 C 
HETATM   28  C3  UNL     1       8.909  13.785  52.035  1.00  0.00     0.044 C 
ENDBRANCH  24  26
ENDBRANCH  21  24
ENDBRANCH  20  21
ENDBRANCH  19  20
ENDBRANCH   1  19
TORSDOF 7
ENDMDL
MODEL 4
REMARK VINA RESULT: -7.162939355      5.129      6.525
REMARK  7 active torsions:
REMARK  status: ('A' for Active; 'I' for Inactive)
REMARK    1  A    between atoms: C2_2  and  C4_4 
REMARK    2  A    between atoms: C4_4  and  N1_6 
REMARK    3  A    between atoms: N1_6  and  C8_9 
REMARK    4  A    between atoms: C8_9  and  C9_10 
REMARK    5  A    between atoms: C9_10  and  N2_11 
REMARK    6  A    between atoms: C12_14  and  C13_15 
REMARK    7  A    between atoms: C14_18  and  N4_19 
ROOT
HETATM    1  N2  UNL     1       7.824  19.999  51.414  1.00  0.00    -0.349 N 
HETATM    2  C10 UNL     1       9.013  19.833  50.840  1.00  0.00     0.092 A 
HETATM    3  C11 UNL     1       9.472  20.766  49.943  1.00  0.00     0.032 A 
HETATM    4  C12 UNL     1       8.713  21.894  49.615  1.00  0.00     0.014 A 
HETATM    5  C15 UNL     1       7.503  22.039  50.215  1.00  0.00     0.053 A 
HETATM    6  C16 UNL     1       7.068  21.069  51.123  1.00  0.00     0.082 A 
HETATM    7 BR1  UNL     1       5.351  21.391  51.894  1.00  0.00    -0.031 Br
ENDROOT
BRANCH   4   8
HETATM    8  C13 UNL     1       9.219  22.870  48.661  1.00  0.00     0.146 A 
HETATM    9  N3  UNL     1       8.663  24.043  48.344  1.00  0.00    -0.174 N 
HETATM   10  C14 UNL     1       9.471  24.620  47.416  1.00  0.00     0.692 A 
ATOM     11  H3  UNL     1       7.800  24.430  48.725  1.00  0.00     0.186 HD
HETATM   12  N5  UNL     1      10.513  23.808  47.166  1.00  0.00    -0.131 N 
HETATM   13  N6  UNL     1      10.342  22.741  47.938  1.00  0.00    -0.270 N 
ATOM     14  H5  UNL     1      11.280  23.978  46.515  1.00  0.00     0.205 HD
ATOM     15  H6  UNL     1      10.972  21.939  47.976  1.00  0.00     0.189 HD
BRANCH  10  16
HETATM   16  N4  UNL     1       9.260  25.769  46.868  1.00  0.00    -0.233 N 
ATOM     17  H42 UNL     1       8.412  26.328  46.962  1.00  0.00     0.174 HD
ATOM     18  H41 UNL     1       9.924  26.259  46.269  1.00  0.00     0.174 HD
ENDBRANCH  10  16
ENDBRANCH   4   8
BRANCH   1  19
HETATM   19  C9  UNL     1       7.333  19.032  52.354  1.00  0.00     0.157 C 
BRANCH  19  20
HETATM   20  C8  UNL     1       8.024  17.716  52.304  1.00  0.00     0.257 C 
BRANCH  20  21
HETATM   21  N1  UNL     1       7.117  16.731  51.760  1.00  0.00    -0.066 N 
HETATM   22  C6  UNL     1       7.491  16.607  50.339  1.00  0.00     0.272 C 
HETATM   23  C7  UNL     1       5.778  17.223  51.764  1.00  0.00     0.272 C 
BRANCH  21  24
HETATM   24  C4  UNL     1       7.284  15.430  52.352  1.00  0.00     0.213 C 
HETATM   25  C5  UNL     1       8.592  15.386  53.096  1.00  0.00     0.045 C 
BRANCH  24  26
HETATM   26  C2  UNL     1       6.155  14.974  53.162  1.00  0.00    -0.063 C 
HETATM   27  C1  UNL     1       6.123  15.233  54.456  1.00  0.00     0.016 C 
HETATM   28  C3  UNL     1       5.004  14.216  52.605  1.00  0.00     0.044 C 
ENDBRANCH  24  26
ENDBRANCH  21  24
ENDBRANCH  20  21
ENDBRANCH  19  20
ENDBRANCH   1  19
TORSDOF 7
ENDMDL
MODEL 5
REMARK VINA RESULT: -7.152380393      5.467      7.310
REMARK  7 active torsions:
REMARK  status: ('A' for Active; 'I' for Inactive)
REMARK    1  A    between atoms: C2_2  and  C4_4 
REMARK    2  A    between atoms: C4_4  and  N1_6 
REMARK    3  A    between atoms: N1_6  and  C8_9 
REMARK    4  A    between atoms: C8_9  and  C9_10 
REMARK    5  A    between atoms: C9_10  and  N2_11 
REMARK    6  A    between atoms: C12_14  and  C13_15 
REMARK    7  A    between atoms: C14_18  and  N4_19 
ROOT
HETATM    1  N2  UNL     1       7.776  19.918  51.344  1.00  0.00    -0.349 N 
HETATM    2  C10 UNL     1       8.945  19.733  50.734  1.00  0.00     0.092 A 
HETATM    3  C11 UNL     1       9.414  20.680  49.859  1.00  0.00     0.032 A 
HETATM    4  C12 UNL     1       8.688  21.845  49.590  1.00  0.00     0.014 A 
HETATM    5  C15 UNL     1       7.498  22.009  50.224  1.00  0.00     0.053 A 
HETATM    6  C16 UNL     1       7.052  21.023  51.109  1.00  0.00     0.082 A 
HETATM    7 BR1  UNL     1       5.365  21.377  51.932  1.00  0.00    -0.031 Br
ENDROOT
BRANCH   4   8
HETATM    8  C13 UNL     1       9.205  22.836  48.657  1.00  0.00     0.146 A 
HETATM    9  N3  UNL     1       8.654  24.014  48.354  1.00  0.00    -0.174 N 
HETATM   10  C14 UNL     1       9.473  24.606  47.445  1.00  0.00     0.692 A 
ATOM     11  H3  UNL     1       7.787  24.396  48.732  1.00  0.00     0.186 HD
HETATM   12  N5  UNL     1      10.517  23.798  47.193  1.00  0.00    -0.131 N 
HETATM   13  N6  UNL     1      10.336  22.718  47.945  1.00  0.00    -0.270 N 
ATOM     14  H5  UNL     1      11.291  23.977  46.553  1.00  0.00     0.205 HD
ATOM     15  H6  UNL     1      10.965  21.915  47.976  1.00  0.00     0.189 HD
BRANCH  10  16
HETATM   16  N4  UNL     1       9.268  25.764  46.914  1.00  0.00    -0.233 N 
ATOM     17  H42 UNL     1       9.891  26.569  46.979  1.00  0.00     0.174 HD
ATOM     18  H41 UNL     1       8.449  26.014  46.359  1.00  0.00     0.174 HD
ENDBRANCH  10  16
ENDBRANCH   4   8
BRANCH   1  19
HETATM   19  C9  UNL     1       7.274  18.936  52.262  1.00  0.00     0.157 C 
BRANCH  19  20
HETATM   20  C8  UNL     1       8.254  17.881  52.633  1.00  0.00     0.257 C 
BRANCH  20  21
HETATM   21  N1  UNL     1       7.638  16.586  52.454  1.00  0.00    -0.066 N 
HETATM   22  C6  UNL     1       6.940  16.667  51.158  1.00  0.00     0.272 C 
HETATM   23  C7  UNL     1       6.617  16.375  53.428  1.00  0.00     0.272 C 
BRANCH  21  24
HETATM   24  C4  UNL     1       8.598  15.520  52.346  1.00  0.00     0.213 C 
HETATM   25  C5  UNL     1       9.598  15.858  51.273  1.00  0.00     0.045 C 
BRANCH  24  26
HETATM   26  C2  UNL     1       9.230  15.131  53.607  1.00  0.00    -0.063 C 
HETATM   27  C1  UNL     1       8.808  14.061  54.256  1.00  0.00     0.016 C 
HETATM   28  C3  UNL     1      10.355  15.883  54.223  1.00  0.00     0.044 C 
ENDBRANCH  24  26
ENDBRANCH  21  24
ENDBRANCH  20  21
ENDBRANCH  19  20
ENDBRANCH   1  19
TORSDOF 7
ENDMDL
