MODEL 1
REMARK VINA RESULT: -7.134469370      0.000      0.000
REMARK  5 active torsions:
REMARK  status: ('A' for Active; 'I' for Inactive)
REMARK    1  A    between atoms: C6_12  and  C7_13 
REMARK    2  A    between atoms: C7_13  and  C8_14 
REMARK    3  A    between atoms: C10_18  and  N4_19 
REMARK    4  A    between atoms: N4_19  and  C13_22 
REMARK    5  A    between atoms: C13_22  and  C14_23 
ROOT
HETATM    1  C1  UNL     1       7.824  17.398  50.266  1.00  0.00     0.019 C 
HETATM    2  C2  UNL     1       7.365  18.521  50.381  1.00  0.00    -0.059 C 
HETATM    3  C3  UNL     1       6.848  19.850  50.558  1.00  0.00     0.102 A 
HETATM    4  N1  UNL     1       7.711  20.838  50.263  1.00  0.00    -0.301 N 
ATOM      5  H1  UNL     1       8.623  20.623  49.861  1.00  0.00     0.171 HD
HETATM    6  C4  UNL     1       7.357  22.103  50.505  1.00  0.00     0.328 A 
HETATM    7  O1  UNL     1       8.186  23.011  50.217  1.00  0.00    -0.247 OA
HETATM    8  N2  UNL     1       6.159  22.367  51.031  1.00  0.00    -0.275 N 
ATOM      9  H2  UNL     1       5.908  23.340  51.208  1.00  0.00     0.173 HD
HETATM   10  C5  UNL     1       5.263  21.399  51.341  1.00  0.00     0.258 A 
HETATM   11  O2  UNL     1       4.197  21.814  51.832  1.00  0.00    -0.267 OA
HETATM   12  C6  UNL     1       5.574  20.092  51.111  1.00  0.00     0.050 A 
ENDROOT
BRANCH  12  13
HETATM   13  C7  UNL     1       4.667  18.981  51.365  1.00  0.00     0.088 C 
BRANCH  13  14
HETATM   14  C8  UNL     1       3.531  18.721  50.468  1.00  0.00    -0.029 A 
HETATM   15  C9  UNL     1       2.371  19.460  50.486  1.00  0.00     0.097 A 
HETATM   16  N3  UNL     1       1.532  18.927  49.583  1.00  0.00    -0.345 N 
HETATM   17  C10 UNL     1       2.110  17.867  48.973  1.00  0.00     0.213 A 
ATOM     18  H3  UNL     1       0.592  19.273  49.385  1.00  0.00     0.166 HD
HETATM   19  C15 UNL     1       3.367  17.706  49.505  1.00  0.00    -0.002 A 
HETATM   20  C16 UNL     1       4.388  16.730  49.178  1.00  0.00     0.052 C 
BRANCH  17  21
HETATM   21  N4  UNL     1       1.451  17.125  47.994  1.00  0.00    -0.029 N 
HETATM   22  C11 UNL     1       2.174  16.702  46.844  1.00  0.00     0.281 C 
HETATM   23  C12 UNL     1       0.898  15.886  48.679  1.00  0.00     0.281 C 
BRANCH  21  24
HETATM   24  C13 UNL     1       0.259  17.784  47.559  1.00  0.00     0.255 C 
BRANCH  24  25
HETATM   25  C14 UNL     1       0.215  18.219  46.133  1.00  0.00     0.113 C 
HETATM   26 BR1  UNL     1       0.639  20.073  45.822  1.00  0.00    -0.095 Br
ENDBRANCH  24  25
ENDBRANCH  21  24
ENDBRANCH  17  21
ENDBRANCH  13  14
ENDBRANCH  12  13
TORSDOF 5
ENDMDL
MODEL 2
REMARK VINA RESULT: -7.082250817      1.213      1.651
REMARK  5 active torsions:
REMARK  status: ('A' for Active; 'I' for Inactive)
REMARK    1  A    between atoms: C6_12  and  C7_13 
REMARK    2  A    between atoms: C7_13  and  C8_14 
REMARK    3  A    between atoms: C10_18  and  N4_19 
REMARK    4  A    between atoms: N4_19  and  C13_22 
REMARK    5  A    between atoms: C13_22  and  C14_23 
ROOT
HETATM    1  C1  UNL     1       8.779  17.928  51.987  1.00  0.00     0.019 C 
HETATM    2  C2  UNL     1       8.160  18.944  51.726  1.00  0.00    -0.059 C 
HETATM    3  C3  UNL     1       7.440  20.160  51.464  1.00  0.00     0.102 A 
HETATM    4  N1  UNL     1       8.211  21.237  51.232  1.00  0.00    -0.301 N 
ATOM      5  H1  UNL     1       9.224  21.142  51.165  1.00  0.00     0.171 HD
HETATM    6  C4  UNL     1       7.631  22.432  51.091  1.00  0.00     0.328 A 
HETATM    7  O1  UNL     1       8.378  23.426  50.872  1.00  0.00    -0.247 OA
HETATM    8  N2  UNL     1       6.303  22.540  51.181  1.00  0.00    -0.275 N 
ATOM      9  H2  UNL     1       5.880  23.461  51.070  1.00  0.00     0.173 HD
HETATM   10  C5  UNL     1       5.494  21.477  51.412  1.00  0.00     0.258 A 
HETATM   11  O2  UNL     1       4.281  21.750  51.475  1.00  0.00    -0.267 OA
HETATM   12  C6  UNL     1       6.036  20.235  51.561  1.00  0.00     0.050 A 
ENDROOT
BRANCH  12  13
HETATM   13  C7  UNL     1       5.254  19.024  51.767  1.00  0.00     0.088 C 
BRANCH  13  14
HETATM   14  C8  UNL     1       4.657  18.313  50.626  1.00  0.00    -0.029 A 
HETATM   15  C9  UNL     1       5.383  17.521  49.768  1.00  0.00     0.097 A 
HETATM   16  N3  UNL     1       4.545  17.069  48.820  1.00  0.00    -0.345 N 
HETATM   17  C10 UNL     1       3.295  17.538  49.037  1.00  0.00     0.213 A 
ATOM     18  H3  UNL     1       4.814  16.459  48.048  1.00  0.00     0.166 HD
HETATM   19  C15 UNL     1       3.327  18.325  50.163  1.00  0.00    -0.002 A 
HETATM   20  C16 UNL     1       2.248  19.038  50.820  1.00  0.00     0.052 C 
BRANCH  17  21
HETATM   21  N4  UNL     1       2.230  17.225  48.194  1.00  0.00    -0.029 N 
HETATM   22  C11 UNL     1       2.495  16.568  46.960  1.00  0.00     0.281 C 
HETATM   23  C12 UNL     1       1.279  16.349  48.994  1.00  0.00     0.281 C 
BRANCH  21  24
HETATM   24  C13 UNL     1       1.424  18.375  47.926  1.00  0.00     0.255 C 
BRANCH  24  25
HETATM   25  C14 UNL     1       1.927  19.322  46.891  1.00  0.00     0.113 C 
HETATM   26 BR1  UNL     1       0.682  19.741  45.480  1.00  0.00    -0.095 Br
ENDBRANCH  24  25
ENDBRANCH  21  24
ENDBRANCH  17  21
ENDBRANCH  13  14
ENDBRANCH  12  13
TORSDOF 5
ENDMDL
MODEL 3
REMARK VINA RESULT: -6.988987460      2.353      3.582
REMARK  5 active torsions:
REMARK  status: ('A' for Active; 'I' for Inactive)
REMARK    1  A    between atoms: C6_12  and  C7_13 
REMARK    2  A    between atoms: C7_13  and  C8_14 
REMARK    3  A    between atoms: C10_18  and  N4_19 
REMARK    4  A    between atoms: N4_19  and  C13_22 
REMARK    5  A    between atoms: C13_22  and  C14_23 
ROOT
HETATM    1  C1  UNL     1       9.103  18.075  51.870  1.00  0.00     0.019 C 
HETATM    2  C2  UNL     1       8.978  19.125  51.266  1.00  0.00    -0.059 C 
HETATM    3  C3  UNL     1       8.875  20.379  50.570  1.00  0.00     0.102 A 
HETATM    4  N1  UNL     1       9.597  20.459  49.439  1.00  0.00    -0.301 N 
ATOM      5  H1  UNL     1      10.095  19.643  49.084  1.00  0.00     0.171 HD
HETATM    6  C4  UNL     1       9.652  21.623  48.785  1.00  0.00     0.328 A 
HETATM    7  O1  UNL     1      10.336  21.671  47.725  1.00  0.00    -0.247 OA
HETATM    8  N2  UNL     1       8.994  22.683  49.261  1.00  0.00    -0.275 N 
ATOM      9  H2  UNL     1       9.049  23.562  48.748  1.00  0.00     0.173 HD
HETATM   10  C5  UNL     1       8.256  22.639  50.398  1.00  0.00     0.258 A 
HETATM   11  O2  UNL     1       7.713  23.715  50.707  1.00  0.00    -0.267 OA
HETATM   12  C6  UNL     1       8.165  21.474  51.100  1.00  0.00     0.050 A 
ENDROOT
BRANCH  12  13
HETATM   13  C7  UNL     1       7.364  21.310  52.304  1.00  0.00     0.088 C 
BRANCH  13  14
HETATM   14  C8  UNL     1       5.921  21.038  52.214  1.00  0.00    -0.029 A 
HETATM   15  C9  UNL     1       5.027  21.369  53.206  1.00  0.00     0.097 A 
HETATM   16  N3  UNL     1       3.814  20.938  52.825  1.00  0.00    -0.345 N 
HETATM   17  C10 UNL     1       3.887  20.340  51.614  1.00  0.00     0.213 A 
ATOM     18  H3  UNL     1       2.959  21.047  53.372  1.00  0.00     0.166 HD
HETATM   19  C15 UNL     1       5.197  20.383  51.199  1.00  0.00    -0.002 A 
HETATM   20  C16 UNL     1       5.789  19.896  49.969  1.00  0.00     0.052 C 
BRANCH  17  21
HETATM   21  N4  UNL     1       2.767  19.796  50.988  1.00  0.00    -0.029 N 
HETATM   22  C11 UNL     1       2.401  18.450  51.272  1.00  0.00     0.281 C 
HETATM   23  C12 UNL     1       1.587  20.685  51.347  1.00  0.00     0.281 C 
BRANCH  21  24
HETATM   24  C13 UNL     1       2.839  19.952  49.569  1.00  0.00     0.255 C 
BRANCH  24  25
HETATM   25  C14 UNL     1       2.159  18.913  48.743  1.00  0.00     0.113 C 
HETATM   26 BR1  UNL     1       1.773  19.425  46.926  1.00  0.00    -0.095 Br
ENDBRANCH  24  25
ENDBRANCH  21  24
ENDBRANCH  17  21
ENDBRANCH  13  14
ENDBRANCH  12  13
TORSDOF 5
ENDMDL
MODEL 4
REMARK VINA RESULT: -6.890620281      3.622      7.360
REMARK  5 active torsions:
REMARK  status: ('A' for Active; 'I' for Inactive)
REMARK    1  A    between atoms: C6_12  and  C7_13 
REMARK    2  A    between atoms: C7_13  and  C8_14 
REMARK    3  A    between atoms: C10_18  and  N4_19 
REMARK    4  A    between atoms: N4_19  and  C13_22 
REMARK    5  A    between atoms: C13_22  and  C14_23 
ROOT
HETATM    1  C1  UNL     1       0.729  20.016  44.872  1.00  0.00     0.019 C 
HETATM    2  C2  UNL     1       0.738  18.983  45.517  1.00  0.00    -0.059 C 
HETATM    3  C3  UNL     1       0.700  17.763  46.277  1.00  0.00     0.102 A 
HETATM    4  N1  UNL     1       0.441  16.657  45.559  1.00  0.00    -0.301 N 
ATOM      5  H1  UNL     1       0.372  16.704  44.543  1.00  0.00     0.171 HD
HETATM    6  C4  UNL     1       0.274  15.494  46.196  1.00  0.00     0.328 A 
HETATM    7  O1  UNL     1       0.033  14.470  45.498  1.00  0.00    -0.247 OA
HETATM    8  N2  UNL     1       0.368  15.448  47.527  1.00  0.00    -0.275 N 
ATOM      9  H2  UNL     1       0.237  14.551  47.994  1.00  0.00     0.173 HD
HETATM   10  C5  UNL     1       0.629  16.542  48.284  1.00  0.00     0.258 A 
HETATM   11  O2  UNL     1       0.674  16.329  49.508  1.00  0.00    -0.267 OA
HETATM   12  C6  UNL     1       0.810  17.752  47.682  1.00  0.00     0.050 A 
ENDROOT
BRANCH  12  13
HETATM   13  C7  UNL     1       1.138  18.976  48.397  1.00  0.00     0.088 C 
BRANCH  13  14
HETATM   14  C8  UNL     1       2.521  19.252  48.817  1.00  0.00    -0.029 A 
HETATM   15  C9  UNL     1       3.618  18.944  48.047  1.00  0.00     0.097 A 
HETATM   16  N3  UNL     1       4.716  19.281  48.745  1.00  0.00    -0.345 N 
HETATM   17  C10 UNL     1       4.368  19.803  49.943  1.00  0.00     0.213 A 
ATOM     18  H3  UNL     1       5.675  19.160  48.417  1.00  0.00     0.166 HD
HETATM   19  C15 UNL     1       2.996  19.800  50.024  1.00  0.00    -0.002 A 
HETATM   20  C16 UNL     1       2.135  20.270  51.092  1.00  0.00     0.052 C 
BRANCH  17  21
HETATM   21  N4  UNL     1       5.318  20.230  50.869  1.00  0.00    -0.029 N 
HETATM   22  C11 UNL     1       5.057  21.399  51.638  1.00  0.00     0.281 C 
HETATM   23  C12 UNL     1       5.542  19.077  51.834  1.00  0.00     0.281 C 
BRANCH  21  24
HETATM   24  C13 UNL     1       6.606  20.368  50.264  1.00  0.00     0.255 C 
BRANCH  24  25
HETATM   25  C14 UNL     1       7.245  21.714  50.343  1.00  0.00     0.113 C 
HETATM   26 BR1  UNL     1       9.016  21.832  49.592  1.00  0.00    -0.095 Br
ENDBRANCH  24  25
ENDBRANCH  21  24
ENDBRANCH  17  21
ENDBRANCH  13  14
ENDBRANCH  12  13
TORSDOF 5
ENDMDL
MODEL 5
REMARK VINA RESULT: -6.856918667      1.115      1.185
REMARK  5 active torsions:
REMARK  status: ('A' for Active; 'I' for Inactive)
REMARK    1  A    between atoms: C6_12  and  C7_13 
REMARK    2  A    between atoms: C7_13  and  C8_14 
REMARK    3  A    between atoms: C10_18  and  N4_19 
REMARK    4  A    between atoms: N4_19  and  C13_22 
REMARK    5  A    between atoms: C13_22  and  C14_23 
ROOT
HETATM    1  C1  UNL     1       8.798  17.663  51.483  1.00  0.00     0.019 C 
HETATM    2  C2  UNL     1       8.336  18.776  51.307  1.00  0.00    -0.059 C 
HETATM    3  C3  UNL     1       7.813  20.105  51.140  1.00  0.00     0.102 A 
HETATM    4  N1  UNL     1       8.694  21.006  50.673  1.00  0.00    -0.301 N 
ATOM      5  H1  UNL     1       9.628  20.714  50.384  1.00  0.00     0.171 HD
HETATM    6  C4  UNL     1       8.330  22.289  50.594  1.00  0.00     0.328 A 
HETATM    7  O1  UNL     1       9.176  23.114  50.150  1.00  0.00    -0.247 OA
HETATM    8  N2  UNL     1       7.105  22.655  50.975  1.00  0.00    -0.275 N 
ATOM      9  H2  UNL     1       6.846  23.639  50.906  1.00  0.00     0.173 HD
HETATM   10  C5  UNL     1       6.189  21.775  51.450  1.00  0.00     0.258 A 
HETATM   11  O2  UNL     1       5.098  22.281  51.770  1.00  0.00    -0.267 OA
HETATM   12  C6  UNL     1       6.510  20.454  51.549  1.00  0.00     0.050 A 
ENDROOT
BRANCH  12  13
HETATM   13  C7  UNL     1       5.587  19.423  52.002  1.00  0.00     0.088 C 
BRANCH  13  14
HETATM   14  C8  UNL     1       4.444  19.021  51.169  1.00  0.00    -0.029 A 
HETATM   15  C9  UNL     1       3.209  19.621  51.241  1.00  0.00     0.097 A 
HETATM   16  N3  UNL     1       2.392  18.983  50.388  1.00  0.00    -0.345 N 
HETATM   17  C10 UNL     1       3.056  17.987  49.758  1.00  0.00     0.213 A 
ATOM     18  H3  UNL     1       1.410  19.216  50.237  1.00  0.00     0.166 HD
HETATM   19  C15 UNL     1       4.350  17.980  50.224  1.00  0.00    -0.002 A 
HETATM   20  C16 UNL     1       5.458  17.123  49.852  1.00  0.00     0.052 C 
BRANCH  17  21
HETATM   21  N4  UNL     1       2.438  17.160  48.822  1.00  0.00    -0.029 N 
HETATM   22  C11 UNL     1       3.175  16.737  47.680  1.00  0.00     0.281 C 
HETATM   23  C12 UNL     1       1.979  15.917  49.567  1.00  0.00     0.281 C 
BRANCH  21  24
HETATM   24  C13 UNL     1       1.199  17.716  48.376  1.00  0.00     0.255 C 
BRANCH  24  25
HETATM   25  C14 UNL     1       1.015  17.852  46.903  1.00  0.00     0.113 C 
HETATM   26 BR1  UNL     1       1.118  19.652  46.220  1.00  0.00    -0.095 Br
ENDBRANCH  24  25
ENDBRANCH  21  24
ENDBRANCH  17  21
ENDBRANCH  13  14
ENDBRANCH  12  13
TORSDOF 5
ENDMDL
