MODEL 1
REMARK VINA RESULT: -5.863711494      0.000      0.000
REMARK  4 active torsions:
REMARK  status: ('A' for Active; 'I' for Inactive)
REMARK    1  A    between atoms: O1_1  and  C1_3 
REMARK    2  A    between atoms: C1_3  and  C2_4 
REMARK    3  A    between atoms: C2_4  and  O2_5 
REMARK    4  A    between atoms: C2_4  and  C3_7 
ROOT
HETATM    1  C3  UNL     1      -9.512 -40.330 -77.418  1.00  0.00     0.295 C 
HETATM    2  O3  UNL     1      -8.287 -40.894 -77.079  1.00  0.00    -0.352 OA
HETATM    3  C4  UNL     1      -7.616 -41.091 -78.285  1.00  0.00     0.252 C 
HETATM    4  C5  UNL     1      -8.802 -41.492 -79.142  1.00  0.00     0.241 C 
HETATM    5  O4  UNL     1      -8.497 -41.503 -80.486  1.00  0.00    -0.345 OA
HETATM    6  C6  UNL     1      -8.641 -42.734 -81.078  1.00  0.00     0.173 C 
HETATM    7  C7  UNL     1      -7.644 -43.760 -80.609  1.00  0.00     0.037 C 
HETATM    8  C8  UNL     1      -7.966 -44.257 -79.203  1.00  0.00     0.081 C 
HETATM    9  S1  UNL     1      -9.301 -43.154 -78.601  1.00  0.00    -0.100 SA
HETATM   10  O5  UNL     1      -9.713 -40.521 -78.772  1.00  0.00    -0.311 OA
ENDROOT
BRANCH   1  11
HETATM   11  C2  UNL     1      -9.430 -38.863 -77.052  1.00  0.00     0.197 C 
BRANCH  11  12
HETATM   12  C1  UNL     1     -10.247 -38.564 -75.794  1.00  0.00     0.200 C 
BRANCH  12  13
HETATM   13  O1  UNL     1      -9.795 -39.408 -74.794  1.00  0.00    -0.398 OA
ATOM     14  H1  UNL     1      -9.633 -38.876 -74.023  1.00  0.00     0.209 HD
ENDBRANCH  12  13
ENDBRANCH  11  12
BRANCH  11  15
HETATM   15  O2  UNL     1      -9.890 -38.049 -78.063  1.00  0.00    -0.389 OA
ATOM     16  H2  UNL     1      -9.140 -37.746 -78.562  1.00  0.00     0.210 HD
ENDBRANCH  11  15
ENDBRANCH   1  11
TORSDOF 4
ENDMDL
MODEL 2
REMARK VINA RESULT: -5.694852345      1.214      1.930
REMARK  4 active torsions:
REMARK  status: ('A' for Active; 'I' for Inactive)
REMARK    1  A    between atoms: O1_1  and  C1_3 
REMARK    2  A    between atoms: C1_3  and  C2_4 
REMARK    3  A    between atoms: C2_4  and  O2_5 
REMARK    4  A    between atoms: C2_4  and  C3_7 
ROOT
HETATM    1  C3  UNL     1      -8.434 -39.996 -77.852  1.00  0.00     0.295 C 
HETATM    2  O3  UNL     1      -8.992 -40.194 -79.110  1.00  0.00    -0.352 OA
HETATM    3  C4  UNL     1      -9.626 -41.434 -79.050  1.00  0.00     0.252 C 
HETATM    4  C5  UNL     1      -8.622 -42.161 -78.174  1.00  0.00     0.241 C 
HETATM    5  O4  UNL     1      -9.108 -43.364 -77.709  1.00  0.00    -0.345 OA
HETATM    6  C6  UNL     1      -8.375 -44.452 -78.114  1.00  0.00     0.173 C 
HETATM    7  C7  UNL     1      -8.454 -44.729 -79.591  1.00  0.00     0.037 C 
HETATM    8  C8  UNL     1      -7.642 -43.722 -80.399  1.00  0.00     0.081 C 
HETATM    9  S1  UNL     1      -7.141 -42.436 -79.191  1.00  0.00    -0.100 SA
HETATM   10  O5  UNL     1      -8.419 -41.210 -77.192  1.00  0.00    -0.311 OA
ENDROOT
BRANCH   1  11
HETATM   11  C2  UNL     1      -9.302 -38.973 -77.149  1.00  0.00     0.197 C 
BRANCH  11  12
HETATM   12  C1  UNL     1     -10.272 -39.649 -76.178  1.00  0.00     0.200 C 
BRANCH  12  13
HETATM   13  O1  UNL     1      -9.777 -39.466 -74.899  1.00  0.00    -0.398 OA
ATOM     14  H1  UNL     1      -9.919 -40.274 -74.418  1.00  0.00     0.209 HD
ENDBRANCH  12  13
ENDBRANCH  11  12
BRANCH  11  15
HETATM   15  O2  UNL     1     -10.040 -38.221 -78.035  1.00  0.00    -0.389 OA
ATOM     16  H2  UNL     1      -9.505 -37.487 -78.316  1.00  0.00     0.210 HD
ENDBRANCH  11  15
ENDBRANCH   1  11
TORSDOF 4
ENDMDL
MODEL 3
REMARK VINA RESULT: -5.687210839      0.996      1.154
REMARK  4 active torsions:
REMARK  status: ('A' for Active; 'I' for Inactive)
REMARK    1  A    between atoms: O1_1  and  C1_3 
REMARK    2  A    between atoms: C1_3  and  C2_4 
REMARK    3  A    between atoms: C2_4  and  O2_5 
REMARK    4  A    between atoms: C2_4  and  C3_7 
ROOT
HETATM    1  C3  UNL     1      -9.803 -40.390 -77.359  1.00  0.00     0.295 C 
HETATM    2  O3  UNL     1      -8.655 -41.174 -77.409  1.00  0.00    -0.352 OA
HETATM    3  C4  UNL     1      -8.123 -40.982 -78.683  1.00  0.00     0.252 C 
HETATM    4  C5  UNL     1      -9.423 -40.901 -79.462  1.00  0.00     0.241 C 
HETATM    5  O4  UNL     1      -9.235 -40.447 -80.750  1.00  0.00    -0.345 OA
HETATM    6  C6  UNL     1      -9.613 -41.345 -81.716  1.00  0.00     0.173 C 
HETATM    7  C7  UNL     1      -8.750 -42.576 -81.781  1.00  0.00     0.037 C 
HETATM    8  C8  UNL     1      -9.028 -43.520 -80.615  1.00  0.00     0.081 C 
HETATM    9  S1  UNL     1     -10.125 -42.577 -79.488  1.00  0.00    -0.100 SA
HETATM   10  O5  UNL     1     -10.140 -40.041 -78.653  1.00  0.00    -0.311 OA
ENDROOT
BRANCH   1  11
HETATM   11  C2  UNL     1      -9.468 -39.183 -76.509  1.00  0.00     0.197 C 
BRANCH  11  12
HETATM   12  C1  UNL     1     -10.541 -38.944 -75.446  1.00  0.00     0.200 C 
BRANCH  12  13
HETATM   13  O1  UNL     1     -10.118 -39.559 -74.281  1.00  0.00    -0.398 OA
ATOM     14  H1  UNL     1     -10.171 -40.499 -74.417  1.00  0.00     0.209 HD
ENDBRANCH  12  13
ENDBRANCH  11  12
BRANCH  11  15
HETATM   15  O2  UNL     1      -9.348 -38.035 -77.260  1.00  0.00    -0.389 OA
ATOM     16  H2  UNL     1      -8.754 -37.447 -76.808  1.00  0.00     0.210 HD
ENDBRANCH  11  15
ENDBRANCH   1  11
TORSDOF 4
ENDMDL
MODEL 4
REMARK VINA RESULT: -5.642599102      1.522      2.344
REMARK  4 active torsions:
REMARK  status: ('A' for Active; 'I' for Inactive)
REMARK    1  A    between atoms: O1_1  and  C1_3 
REMARK    2  A    between atoms: C1_3  and  C2_4 
REMARK    3  A    between atoms: C2_4  and  O2_5 
REMARK    4  A    between atoms: C2_4  and  C3_7 
ROOT
HETATM    1  C3  UNL     1      -8.579 -40.605 -78.016  1.00  0.00     0.295 C 
HETATM    2  O3  UNL     1      -9.661 -40.772 -78.872  1.00  0.00    -0.352 OA
HETATM    3  C4  UNL     1      -9.990 -42.124 -78.805  1.00  0.00     0.252 C 
HETATM    4  C5  UNL     1      -8.587 -42.694 -78.696  1.00  0.00     0.241 C 
HETATM    5  O4  UNL     1      -8.589 -44.027 -78.346  1.00  0.00    -0.345 OA
HETATM    6  C6  UNL     1      -8.013 -44.847 -79.284  1.00  0.00     0.173 C 
HETATM    7  C7  UNL     1      -8.789 -44.948 -80.570  1.00  0.00     0.037 C 
HETATM    8  C8  UNL     1      -8.655 -43.682 -81.410  1.00  0.00     0.081 C 
HETATM    9  S1  UNL     1      -7.804 -42.475 -80.322  1.00  0.00    -0.100 SA
HETATM   10  O5  UNL     1      -8.055 -41.853 -77.737  1.00  0.00    -0.311 OA
ENDROOT
BRANCH   1  11
HETATM   11  C2  UNL     1      -9.109 -39.916 -76.775  1.00  0.00     0.197 C 
BRANCH  11  12
HETATM   12  C1  UNL     1     -10.280 -38.995 -77.116  1.00  0.00     0.200 C 
BRANCH  12  13
HETATM   13  O1  UNL     1      -9.799 -37.998 -77.948  1.00  0.00    -0.398 OA
ATOM     14  H1  UNL     1     -10.501 -37.756 -78.541  1.00  0.00     0.209 HD
ENDBRANCH  12  13
ENDBRANCH  11  12
BRANCH  11  15
HETATM   15  O2  UNL     1      -8.143 -39.164 -76.145  1.00  0.00    -0.389 OA
ATOM     16  H2  UNL     1      -8.042 -39.495 -75.260  1.00  0.00     0.210 HD
ENDBRANCH  11  15
ENDBRANCH   1  11
TORSDOF 4
ENDMDL
MODEL 5
REMARK VINA RESULT: -5.442953642      2.534      4.091
REMARK  4 active torsions:
REMARK  status: ('A' for Active; 'I' for Inactive)
REMARK    1  A    between atoms: O1_1  and  C1_3 
REMARK    2  A    between atoms: C1_3  and  C2_4 
REMARK    3  A    between atoms: C2_4  and  O2_5 
REMARK    4  A    between atoms: C2_4  and  C3_7 
ROOT
HETATM    1  C3  UNL     1      -6.208 -41.783 -78.360  1.00  0.00     0.295 C 
HETATM    2  O3  UNL     1      -6.622 -42.116 -79.645  1.00  0.00    -0.352 OA
HETATM    3  C4  UNL     1      -7.906 -41.589 -79.776  1.00  0.00     0.252 C 
HETATM    4  C5  UNL     1      -8.404 -41.852 -78.367  1.00  0.00     0.241 C 
HETATM    5  O4  UNL     1      -9.586 -41.195 -78.098  1.00  0.00    -0.345 OA
HETATM    6  C6  UNL     1     -10.629 -42.032 -77.792  1.00  0.00     0.173 C 
HETATM    7  C7  UNL     1     -11.096 -42.878 -78.946  1.00  0.00     0.037 C 
HETATM    8  C8  UNL     1     -10.115 -44.005 -79.252  1.00  0.00     0.081 C 
HETATM    9  S1  UNL     1      -8.642 -43.648 -78.221  1.00  0.00    -0.100 SA
HETATM   10  O5  UNL     1      -7.322 -41.402 -77.635  1.00  0.00    -0.311 OA
ENDROOT
BRANCH   1  11
HETATM   11  C2  UNL     1      -5.206 -40.657 -78.504  1.00  0.00     0.197 C 
BRANCH  11  12
HETATM   12  C1  UNL     1      -3.929 -40.953 -77.716  1.00  0.00     0.200 C 
BRANCH  12  13
HETATM   13  O1  UNL     1      -2.857 -40.553 -78.494  1.00  0.00    -0.398 OA
ATOM     14  H1  UNL     1      -2.562 -41.310 -78.987  1.00  0.00     0.209 HD
ENDBRANCH  12  13
ENDBRANCH  11  12
BRANCH  11  15
HETATM   15  O2  UNL     1      -5.710 -39.454 -78.065  1.00  0.00    -0.389 OA
ATOM     16  H2  UNL     1      -5.780 -38.872 -78.814  1.00  0.00     0.210 HD
ENDBRANCH  11  15
ENDBRANCH   1  11
TORSDOF 4
ENDMDL
