MODEL 1
REMARK VINA RESULT: -6.761892817      0.000      0.000
REMARK  3 active torsions:
REMARK  status: ('A' for Active; 'I' for Inactive)
REMARK    1  A    between atoms: C5_6  and  O2_7 
REMARK    2  A    between atoms: C6_11  and  C8_13 
REMARK    3  A    between atoms: C8_13  and  O5_14 
ROOT
HETATM    1  C1  UNL     1     -11.649 -41.079 -79.137  1.00  0.00     0.078 C 
HETATM    2  C2  UNL     1     -10.486 -40.241 -79.595  1.00  0.00     0.158 C 
HETATM    3  C3  UNL     1     -10.918 -39.304 -80.669  1.00  0.00     0.078 C 
HETATM    4  O1  UNL     1      -9.992 -39.579 -78.455  1.00  0.00    -0.343 OA
HETATM    5  C4  UNL     1      -9.259 -40.568 -77.785  1.00  0.00     0.215 C 
HETATM    6  C5  UNL     1      -7.943 -39.946 -77.390  1.00  0.00     0.326 C 
HETATM    7  O3  UNL     1      -6.902 -40.835 -77.326  1.00  0.00    -0.204 OA
HETATM    8  O4  UNL     1      -7.228 -42.082 -77.449  1.00  0.00    -0.222 OA
HETATM    9  C6  UNL     1      -7.743 -42.301 -78.739  1.00  0.00     0.142 C 
HETATM   10  C7  UNL     1      -7.826 -43.816 -78.958  1.00  0.00     0.054 C 
HETATM   11  C9  UNL     1      -9.079 -41.669 -78.808  1.00  0.00     0.198 C 
HETATM   12  O6  UNL     1      -9.387 -41.041 -79.984  1.00  0.00    -0.345 OA
ENDROOT
BRANCH   9  13
HETATM   13  C8  UNL     1      -6.736 -41.769 -79.710  1.00  0.00     0.207 C 
BRANCH  13  14
HETATM   14  O5  UNL     1      -5.427 -41.982 -79.308  1.00  0.00    -0.398 OA
ATOM     15  H5  UNL     1      -5.074 -41.267 -78.791  1.00  0.00     0.209 HD
ENDBRANCH  13  14
ENDBRANCH   9  13
BRANCH   6  16
HETATM   16  O2  UNL     1      -8.088 -39.250 -76.191  1.00  0.00    -0.366 OA
ATOM     17  H2  UNL     1      -7.362 -38.649 -76.077  1.00  0.00     0.212 HD
ENDBRANCH   6  16
TORSDOF 3
ENDMDL
MODEL 2
REMARK VINA RESULT: -6.582929051      1.134      3.967
REMARK  3 active torsions:
REMARK  status: ('A' for Active; 'I' for Inactive)
REMARK    1  A    between atoms: C5_6  and  O2_7 
REMARK    2  A    between atoms: C6_11  and  C8_13 
REMARK    3  A    between atoms: C8_13  and  O5_14 
ROOT
HETATM    1  C1  UNL     1      -7.064 -42.342 -79.626  1.00  0.00     0.078 C 
HETATM    2  C2  UNL     1      -8.107 -42.524 -78.557  1.00  0.00     0.158 C 
HETATM    3  C3  UNL     1      -8.122 -43.937 -78.087  1.00  0.00     0.078 C 
HETATM    4  O1  UNL     1      -7.799 -41.609 -77.532  1.00  0.00    -0.343 OA
HETATM    5  C4  UNL     1      -8.254 -40.381 -78.032  1.00  0.00     0.215 C 
HETATM    6  C5  UNL     1      -9.025 -39.713 -76.921  1.00  0.00     0.326 C 
HETATM    7  O3  UNL     1     -10.032 -38.891 -77.355  1.00  0.00    -0.204 OA
HETATM    8  O4  UNL     1     -10.065 -38.681 -78.632  1.00  0.00    -0.222 OA
HETATM    9  C6  UNL     1     -10.348 -39.890 -79.293  1.00  0.00     0.142 C 
HETATM   10  C7  UNL     1     -10.687 -39.558 -80.751  1.00  0.00     0.054 C 
HETATM   11  C9  UNL     1      -9.148 -40.750 -79.197  1.00  0.00     0.198 C 
HETATM   12  O6  UNL     1      -9.380 -42.083 -78.988  1.00  0.00    -0.345 OA
ENDROOT
BRANCH   9  13
HETATM   13  C8  UNL     1     -11.586 -40.453 -78.669  1.00  0.00     0.207 C 
BRANCH  13  14
HETATM   14  O5  UNL     1     -12.220 -41.391 -79.469  1.00  0.00    -0.398 OA
ATOM     15  H5  UNL     1     -12.905 -41.867 -79.014  1.00  0.00     0.209 HD
ENDBRANCH  13  14
ENDBRANCH   9  13
BRANCH   6  16
HETATM   16  O2  UNL     1      -8.148 -39.037 -76.075  1.00  0.00    -0.366 OA
ATOM     17  H2  UNL     1      -7.376 -39.567 -75.919  1.00  0.00     0.212 HD
ENDBRANCH   6  16
TORSDOF 3
ENDMDL
MODEL 3
REMARK VINA RESULT: -6.533260895      1.487      4.313
REMARK  3 active torsions:
REMARK  status: ('A' for Active; 'I' for Inactive)
REMARK    1  A    between atoms: C5_6  and  O2_7 
REMARK    2  A    between atoms: C6_11  and  C8_13 
REMARK    3  A    between atoms: C8_13  and  O5_14 
ROOT
HETATM    1  C1  UNL     1      -7.862 -43.244 -78.107  1.00  0.00     0.078 C 
HETATM    2  C2  UNL     1      -7.437 -41.816 -78.319  1.00  0.00     0.158 C 
HETATM    3  C3  UNL     1      -5.961 -41.691 -78.178  1.00  0.00     0.078 C 
HETATM    4  O1  UNL     1      -7.900 -41.444 -79.596  1.00  0.00    -0.343 OA
HETATM    5  C4  UNL     1      -9.267 -41.207 -79.401  1.00  0.00     0.215 C 
HETATM    6  C5  UNL     1      -9.589 -39.904 -80.088  1.00  0.00     0.326 C 
HETATM    7  O3  UNL     1     -10.618 -39.207 -79.511  1.00  0.00    -0.204 OA
HETATM    8  O4  UNL     1     -11.261 -39.835 -78.579  1.00  0.00    -0.222 OA
HETATM    9  C6  UNL     1     -10.396 -40.064 -77.494  1.00  0.00     0.142 C 
HETATM   10  C7  UNL     1     -11.249 -40.520 -76.304  1.00  0.00     0.054 C 
HETATM   11  C9  UNL     1      -9.428 -41.108 -77.898  1.00  0.00     0.198 C 
HETATM   12  O6  UNL     1      -8.140 -40.930 -77.470  1.00  0.00    -0.345 OA
ENDROOT
BRANCH   9  13
HETATM   13  C8  UNL     1      -9.793 -38.745 -77.126  1.00  0.00     0.207 C 
BRANCH  13  14
HETATM   14  O5  UNL     1      -9.025 -38.801 -75.973  1.00  0.00    -0.398 OA
ATOM     15  H5  UNL     1      -8.780 -37.943 -75.646  1.00  0.00     0.209 HD
ENDBRANCH  13  14
ENDBRANCH   9  13
BRANCH   6  16
HETATM   16  O2  UNL     1      -9.828 -40.129 -81.443  1.00  0.00    -0.366 OA
ATOM     17  H2  UNL     1     -10.400 -39.454 -81.787  1.00  0.00     0.212 HD
ENDBRANCH   6  16
TORSDOF 3
ENDMDL
MODEL 4
REMARK VINA RESULT: -6.195232989      2.011      3.095
REMARK  3 active torsions:
REMARK  status: ('A' for Active; 'I' for Inactive)
REMARK    1  A    between atoms: C5_6  and  O2_7 
REMARK    2  A    between atoms: C6_11  and  C8_13 
REMARK    3  A    between atoms: C8_13  and  O5_14 
ROOT
HETATM    1  C1  UNL     1     -11.082 -39.941 -78.464  1.00  0.00     0.078 C 
HETATM    2  C2  UNL     1     -10.372 -40.627 -77.330  1.00  0.00     0.158 C 
HETATM    3  C3  UNL     1     -10.658 -39.930 -76.046  1.00  0.00     0.078 C 
HETATM    4  O1  UNL     1     -10.805 -41.967 -77.334  1.00  0.00    -0.343 OA
HETATM    5  C4  UNL     1     -10.085 -42.548 -78.387  1.00  0.00     0.215 C 
HETATM    6  C5  UNL     1      -9.537 -43.856 -77.874  1.00  0.00     0.326 C 
HETATM    7  O3  UNL     1      -8.356 -44.234 -78.457  1.00  0.00    -0.204 OA
HETATM    8  O4  UNL     1      -7.977 -43.512 -79.463  1.00  0.00    -0.222 OA
HETATM    9  C6  UNL     1      -7.697 -42.208 -79.018  1.00  0.00     0.142 C 
HETATM   10  C7  UNL     1      -6.965 -41.475 -80.147  1.00  0.00     0.054 C 
HETATM   11  C9  UNL     1      -8.984 -41.554 -78.691  1.00  0.00     0.198 C 
HETATM   12  O6  UNL     1      -8.986 -40.754 -77.581  1.00  0.00    -0.345 OA
ENDROOT
BRANCH   9  13
HETATM   13  C8  UNL     1      -6.738 -42.330 -77.876  1.00  0.00     0.207 C 
BRANCH  13  14
HETATM   14  O5  UNL     1      -6.120 -41.131 -77.554  1.00  0.00    -0.398 OA
ATOM     15  H5  UNL     1      -5.189 -41.224 -77.391  1.00  0.00     0.209 HD
ENDBRANCH  13  14
ENDBRANCH   9  13
BRANCH   6  16
HETATM   16  O2  UNL     1     -10.502 -44.854 -77.992  1.00  0.00    -0.366 OA
ATOM     17  H2  UNL     1     -10.870 -45.051 -77.139  1.00  0.00     0.212 HD
ENDBRANCH   6  16
TORSDOF 3
ENDMDL
MODEL 5
REMARK VINA RESULT: -6.152024243      1.929      4.219
REMARK  3 active torsions:
REMARK  status: ('A' for Active; 'I' for Inactive)
REMARK    1  A    between atoms: C5_6  and  O2_7 
REMARK    2  A    between atoms: C6_11  and  C8_13 
REMARK    3  A    between atoms: C8_13  and  O5_14 
ROOT
HETATM    1  C1  UNL     1     -10.459 -44.188 -78.011  1.00  0.00     0.078 C 
HETATM    2  C2  UNL     1      -9.278 -43.356 -78.429  1.00  0.00     0.158 C 
HETATM    3  C3  UNL     1      -8.062 -44.207 -78.542  1.00  0.00     0.078 C 
HETATM    4  O1  UNL     1      -9.629 -42.738 -79.645  1.00  0.00    -0.343 OA
HETATM    5  C4  UNL     1     -10.471 -41.688 -79.256  1.00  0.00     0.215 C 
HETATM    6  C5  UNL     1     -10.019 -40.461 -80.008  1.00  0.00     0.326 C 
HETATM    7  O3  UNL     1     -10.243 -39.284 -79.343  1.00  0.00    -0.204 OA
HETATM    8  O4  UNL     1     -10.949 -39.382 -78.262  1.00  0.00    -0.222 OA
HETATM    9  C6  UNL     1     -10.241 -40.141 -77.314  1.00  0.00     0.142 C 
HETATM   10  C7  UNL     1     -10.947 -39.980 -75.963  1.00  0.00     0.054 C 
HETATM   11  C9  UNL     1     -10.247 -41.551 -77.765  1.00  0.00     0.198 C 
HETATM   12  O6  UNL     1      -9.087 -42.249 -77.569  1.00  0.00    -0.345 OA
ENDROOT
BRANCH   9  13
HETATM   13  C8  UNL     1      -8.884 -39.523 -77.180  1.00  0.00     0.207 C 
BRANCH  13  14
HETATM   14  O5  UNL     1      -8.930 -38.150 -76.992  1.00  0.00    -0.398 OA
ATOM     15  H5  UNL     1      -9.208 -37.902 -76.118  1.00  0.00     0.209 HD
ENDBRANCH  13  14
ENDBRANCH   9  13
BRANCH   6  16
HETATM   16  O2  UNL     1     -10.594 -40.444 -81.277  1.00  0.00    -0.366 OA
ATOM     17  H2  UNL     1     -10.094 -40.994 -81.867  1.00  0.00     0.212 HD
ENDBRANCH   6  16
TORSDOF 3
ENDMDL
