MODEL 1
REMARK VINA RESULT: -6.544018100      0.000      0.000
REMARK  4 active torsions:
REMARK  status: ('A' for Active; 'I' for Inactive)
REMARK    1  A    between atoms: O1_3  and  C2_4 
REMARK    2  A    between atoms: C3_6  and  O3_7 
REMARK    3  A    between atoms: C8_14  and  C9_15 
REMARK    4  A    between atoms: C9_15  and  O4_16 
ROOT
HETATM    1  N1  UNL     1      -4.706 -41.108 -77.827  1.00  0.00    -0.164 NA
HETATM    2  C1  UNL     1      -5.836 -41.302 -77.743  1.00  0.00     0.231 C 
HETATM    3  O1  UNL     1      -7.156 -41.551 -77.651  1.00  0.00    -0.250 OA
ENDROOT
BRANCH   3   4
HETATM    4  C2  UNL     1      -8.091 -40.507 -77.845  1.00  0.00     0.288 C 
HETATM    5  O2  UNL     1      -8.616 -40.194 -76.598  1.00  0.00    -0.330 OA
HETATM    6  C3  UNL     1      -9.624 -39.238 -76.674  1.00  0.00     0.265 C 
HETATM    7  C4  UNL     1     -10.802 -39.771 -77.406  1.00  0.00     0.056 C 
HETATM    8  C5  UNL     1     -11.387 -40.911 -76.622  1.00  0.00     0.021 C 
HETATM    9  C7  UNL     1     -10.420 -40.292 -78.765  1.00  0.00     0.067 C 
HETATM   10  C6  UNL     1     -12.584 -41.424 -77.430  1.00  0.00     0.075 C 
HETATM   11  S1  UNL     1     -11.854 -41.387 -79.116  1.00  0.00    -0.163 SA
HETATM   12  C8  UNL     1      -9.140 -41.046 -78.793  1.00  0.00     0.080 C 
BRANCH   6  13
HETATM   13  O3  UNL     1      -9.195 -38.076 -77.303  1.00  0.00    -0.371 OA
ATOM     14  H3  UNL     1      -9.315 -38.116 -78.245  1.00  0.00     0.212 HD
ENDBRANCH   6  13
BRANCH  12  15
HETATM   15  C9  UNL     1      -8.550 -40.899 -80.202  1.00  0.00     0.174 C 
BRANCH  15  16
HETATM   16  O4  UNL     1      -7.919 -42.138 -80.458  1.00  0.00    -0.400 OA
ATOM     17  H4  UNL     1      -7.186 -41.923 -81.022  1.00  0.00     0.209 HD
ENDBRANCH  15  16
ENDBRANCH  12  15
ENDBRANCH   3   4
TORSDOF 4
ENDMDL
MODEL 2
REMARK VINA RESULT: -6.120686007      1.687      1.725
REMARK  4 active torsions:
REMARK  status: ('A' for Active; 'I' for Inactive)
REMARK    1  A    between atoms: O1_3  and  C2_4 
REMARK    2  A    between atoms: C3_6  and  O3_7 
REMARK    3  A    between atoms: C8_14  and  C9_15 
REMARK    4  A    between atoms: C9_15  and  O4_16 
ROOT
HETATM    1  N1  UNL     1      -8.316 -44.091 -77.836  1.00  0.00    -0.164 NA
HETATM    2  C1  UNL     1      -7.968 -43.041 -78.149  1.00  0.00     0.231 C 
HETATM    3  O1  UNL     1      -7.539 -41.817 -78.510  1.00  0.00    -0.250 OA
ENDROOT
BRANCH   3   4
HETATM    4  C2  UNL     1      -8.410 -40.705 -78.425  1.00  0.00     0.288 C 
HETATM    5  O2  UNL     1      -8.729 -40.541 -77.083  1.00  0.00    -0.330 OA
HETATM    6  C3  UNL     1      -9.663 -39.529 -76.883  1.00  0.00     0.265 C 
HETATM    7  C4  UNL     1     -10.969 -39.886 -77.494  1.00  0.00     0.056 C 
HETATM    8  C5  UNL     1     -11.523 -41.090 -76.787  1.00  0.00     0.021 C 
HETATM    9  C7  UNL     1     -10.821 -40.233 -78.951  1.00  0.00     0.067 C 
HETATM   10  C6  UNL     1     -12.857 -41.417 -77.468  1.00  0.00     0.075 C 
HETATM   11  S1  UNL     1     -12.370 -41.185 -79.224  1.00  0.00    -0.163 SA
HETATM   12  C8  UNL     1      -9.619 -41.047 -79.268  1.00  0.00     0.080 C 
BRANCH   6  13
HETATM   13  O3  UNL     1      -9.239 -38.316 -77.412  1.00  0.00    -0.371 OA
ATOM     14  H3  UNL     1      -9.498 -37.581 -76.869  1.00  0.00     0.212 HD
ENDBRANCH   6  13
BRANCH  12  15
HETATM   15  C9  UNL     1      -9.223 -40.736 -80.718  1.00  0.00     0.174 C 
BRANCH  15  16
HETATM   16  O4  UNL     1      -9.906 -39.537 -81.026  1.00  0.00    -0.400 OA
ATOM     17  H4  UNL     1     -10.382 -39.729 -81.826  1.00  0.00     0.209 HD
ENDBRANCH  15  16
ENDBRANCH  12  15
ENDBRANCH   3   4
TORSDOF 4
ENDMDL
MODEL 3
REMARK VINA RESULT: -6.084358322      2.566      4.171
REMARK  4 active torsions:
REMARK  status: ('A' for Active; 'I' for Inactive)
REMARK    1  A    between atoms: O1_3  and  C2_4 
REMARK    2  A    between atoms: C3_6  and  O3_7 
REMARK    3  A    between atoms: C8_14  and  C9_15 
REMARK    4  A    between atoms: C9_15  and  O4_16 
ROOT
HETATM    1  N1  UNL     1      -8.749 -38.388 -77.025  1.00  0.00    -0.164 NA
HETATM    2  C1  UNL     1      -8.876 -39.525 -77.144  1.00  0.00     0.231 C 
HETATM    3  O1  UNL     1      -9.032 -40.857 -77.263  1.00  0.00    -0.250 OA
ENDROOT
BRANCH   3   4
HETATM    4  C2  UNL     1      -8.176 -41.600 -78.109  1.00  0.00     0.288 C 
HETATM    5  O2  UNL     1      -7.449 -40.684 -78.858  1.00  0.00    -0.330 OA
HETATM    6  C3  UNL     1      -6.635 -41.301 -79.803  1.00  0.00     0.265 C 
HETATM    7  C4  UNL     1      -7.452 -41.998 -80.830  1.00  0.00     0.056 C 
HETATM    8  C5  UNL     1      -8.248 -40.976 -81.591  1.00  0.00     0.021 C 
HETATM    9  C7  UNL     1      -8.420 -42.966 -80.205  1.00  0.00     0.067 C 
HETATM   10  C6  UNL     1      -9.076 -41.752 -82.623  1.00  0.00     0.075 C 
HETATM   11  S1  UNL     1      -9.630 -43.157 -81.575  1.00  0.00    -0.163 SA
HETATM   12  C8  UNL     1      -9.073 -42.464 -78.968  1.00  0.00     0.080 C 
BRANCH   6  13
HETATM   13  O3  UNL     1      -5.768 -42.220 -79.224  1.00  0.00    -0.371 OA
ATOM     14  H3  UNL     1      -5.075 -42.480 -79.818  1.00  0.00     0.212 HD
ENDBRANCH   6  13
BRANCH  12  15
HETATM   15  C9  UNL     1      -9.429 -43.686 -78.109  1.00  0.00     0.174 C 
BRANCH  15  16
HETATM   16  O4  UNL     1      -8.180 -44.229 -77.725  1.00  0.00    -0.400 OA
ATOM     17  H4  UNL     1      -8.234 -44.311 -76.780  1.00  0.00     0.209 HD
ENDBRANCH  15  16
ENDBRANCH  12  15
ENDBRANCH   3   4
TORSDOF 4
ENDMDL
MODEL 4
REMARK VINA RESULT: -6.079451043      2.799      4.205
REMARK  4 active torsions:
REMARK  status: ('A' for Active; 'I' for Inactive)
REMARK    1  A    between atoms: O1_3  and  C2_4 
REMARK    2  A    between atoms: C3_6  and  O3_7 
REMARK    3  A    between atoms: C8_14  and  C9_15 
REMARK    4  A    between atoms: C9_15  and  O4_16 
ROOT
HETATM    1  N1  UNL     1      -9.143 -38.266 -76.993  1.00  0.00    -0.164 NA
HETATM    2  C1  UNL     1      -9.987 -38.856 -77.504  1.00  0.00     0.231 C 
HETATM    3  O1  UNL     1     -10.990 -39.537 -78.091  1.00  0.00    -0.250 OA
ENDROOT
BRANCH   3   4
HETATM    4  C2  UNL     1     -10.762 -40.834 -78.607  1.00  0.00     0.288 C 
HETATM    5  O2  UNL     1     -10.231 -41.595 -77.574  1.00  0.00    -0.330 OA
HETATM    6  C3  UNL     1      -9.873 -42.874 -77.989  1.00  0.00     0.265 C 
HETATM    7  C4  UNL     1      -8.758 -42.818 -78.969  1.00  0.00     0.056 C 
HETATM    8  C5  UNL     1      -7.540 -42.262 -78.287  1.00  0.00     0.021 C 
HETATM    9  C7  UNL     1      -9.086 -41.922 -80.132  1.00  0.00     0.067 C 
HETATM   10  C6  UNL     1      -6.432 -42.217 -79.345  1.00  0.00     0.075 C 
HETATM   11  S1  UNL     1      -7.398 -41.575 -80.771  1.00  0.00    -0.163 SA
HETATM   12  C8  UNL     1      -9.793 -40.669 -79.758  1.00  0.00     0.080 C 
BRANCH   6  13
HETATM   13  O3  UNL     1     -10.940 -43.552 -78.566  1.00  0.00    -0.371 OA
ATOM     14  H3  UNL     1     -10.650 -44.263 -79.126  1.00  0.00     0.212 HD
ENDBRANCH   6  13
BRANCH  12  15
HETATM   15  C9  UNL     1     -10.641 -40.243 -80.964  1.00  0.00     0.174 C 
BRANCH  15  16
HETATM   16  O4  UNL     1     -10.569 -38.831 -80.971  1.00  0.00    -0.400 OA
ATOM     17  H4  UNL     1     -11.280 -38.551 -80.406  1.00  0.00     0.209 HD
ENDBRANCH  15  16
ENDBRANCH  12  15
ENDBRANCH   3   4
TORSDOF 4
ENDMDL
MODEL 5
REMARK VINA RESULT: -5.985258972      1.908      3.607
REMARK  4 active torsions:
REMARK  status: ('A' for Active; 'I' for Inactive)
REMARK    1  A    between atoms: O1_3  and  C2_4 
REMARK    2  A    between atoms: C3_6  and  O3_7 
REMARK    3  A    between atoms: C8_14  and  C9_15 
REMARK    4  A    between atoms: C9_15  and  O4_16 
ROOT
HETATM    1  N1  UNL     1      -3.672 -40.915 -77.776  1.00  0.00    -0.164 NA
HETATM    2  C1  UNL     1      -4.747 -40.718 -78.132  1.00  0.00     0.231 C 
HETATM    3  O1  UNL     1      -6.003 -40.464 -78.546  1.00  0.00    -0.250 OA
ENDROOT
BRANCH   3   4
HETATM    4  C2  UNL     1      -7.029 -41.412 -78.323  1.00  0.00     0.288 C 
HETATM    5  O2  UNL     1      -6.724 -42.530 -79.090  1.00  0.00    -0.330 OA
HETATM    6  C3  UNL     1      -7.719 -43.501 -79.027  1.00  0.00     0.265 C 
HETATM    7  C4  UNL     1      -8.978 -43.008 -79.643  1.00  0.00     0.056 C 
HETATM    8  C5  UNL     1      -8.740 -42.769 -81.107  1.00  0.00     0.021 C 
HETATM    9  C7  UNL     1      -9.423 -41.708 -79.029  1.00  0.00     0.067 C 
HETATM   10  C6  UNL     1     -10.064 -42.252 -81.683  1.00  0.00     0.075 C 
HETATM   11  S1  UNL     1     -10.543 -41.085 -80.347  1.00  0.00    -0.163 SA
HETATM   12  C8  UNL     1      -8.320 -40.751 -78.756  1.00  0.00     0.080 C 
BRANCH   6  13
HETATM   13  O3  UNL     1      -7.985 -43.891 -77.721  1.00  0.00    -0.371 OA
ATOM     14  H3  UNL     1      -7.237 -44.313 -77.315  1.00  0.00     0.212 HD
ENDBRANCH   6  13
BRANCH  12  15
HETATM   15  C9  UNL     1      -8.757 -39.870 -77.578  1.00  0.00     0.174 C 
BRANCH  15  16
HETATM   16  O4  UNL     1      -7.806 -40.131 -76.564  1.00  0.00    -0.400 OA
ATOM     17  H4  UNL     1      -8.184 -40.839 -76.055  1.00  0.00     0.209 HD
ENDBRANCH  15  16
ENDBRANCH  12  15
ENDBRANCH   3   4
TORSDOF 4
ENDMDL
