MODEL 1
REMARK VINA RESULT: -5.398530951      0.000      0.000
REMARK  4 active torsions:
REMARK  status: ('A' for Active; 'I' for Inactive)
REMARK    1  A    between atoms: O1_2  and  C2_3 
REMARK    2  A    between atoms: C3_4  and  S1_5 
REMARK    3  A    between atoms: C7_11  and  O4_12 
REMARK    4  A    between atoms: C8_14  and  O5_15 
ROOT
HETATM    1  C2  UNL     1     -10.289 -40.530 -78.832  1.00  0.00     0.193 C 
HETATM    2  C3  UNL     1     -11.222 -41.117 -77.802  1.00  0.00     0.217 C 
HETATM    3  O2  UNL     1     -11.440 -40.098 -76.865  1.00  0.00    -0.343 OA
HETATM    4  C5  UNL     1     -10.565 -40.162 -75.805  1.00  0.00     0.260 C 
HETATM    5  C6  UNL     1     -11.270 -39.511 -74.612  1.00  0.00     0.071 C 
HETATM    6  O3  UNL     1      -9.366 -39.529 -75.966  1.00  0.00    -0.329 OA
HETATM    7  C7  UNL     1      -8.996 -39.217 -77.247  1.00  0.00     0.291 C 
HETATM    8  C8  UNL     1      -8.929 -40.392 -78.173  1.00  0.00     0.205 C 
ENDROOT
BRANCH   1   9
HETATM    9  O1  UNL     1     -10.191 -41.249 -79.995  1.00  0.00    -0.385 OA
HETATM   10  C1  UNL     1      -9.721 -40.407 -81.000  1.00  0.00     0.202 C 
ENDBRANCH   1   9
BRANCH   2  11
HETATM   11  S1  UNL     1     -12.794 -41.469 -78.604  1.00  0.00    -0.139 SA
HETATM   12  C4  UNL     1     -13.230 -43.210 -78.581  1.00  0.00     0.092 C 
ENDBRANCH   2  11
BRANCH   8  13
HETATM   13  O5  UNL     1      -8.561 -41.552 -77.530  1.00  0.00    -0.388 OA
ATOM     14  H5  UNL     1      -7.887 -41.390 -76.881  1.00  0.00     0.210 HD
ENDBRANCH   8  13
BRANCH   7  15
HETATM   15  O4  UNL     1      -9.734 -38.191 -77.827  1.00  0.00    -0.368 OA
ATOM     16  H4  UNL     1      -9.234 -37.408 -78.022  1.00  0.00     0.212 HD
ENDBRANCH   7  15
TORSDOF 4
ENDMDL
MODEL 2
REMARK VINA RESULT: -5.140532756      2.355      4.643
REMARK  4 active torsions:
REMARK  status: ('A' for Active; 'I' for Inactive)
REMARK    1  A    between atoms: O1_2  and  C2_3 
REMARK    2  A    between atoms: C3_4  and  S1_5 
REMARK    3  A    between atoms: C7_11  and  O4_12 
REMARK    4  A    between atoms: C8_14  and  O5_15 
ROOT
HETATM    1  C2  UNL     1      -9.282 -39.970 -77.571  1.00  0.00     0.193 C 
HETATM    2  C3  UNL     1      -8.428 -41.068 -78.153  1.00  0.00     0.217 C 
HETATM    3  O2  UNL     1      -8.533 -40.933 -79.544  1.00  0.00    -0.343 OA
HETATM    4  C5  UNL     1      -9.534 -41.715 -80.074  1.00  0.00     0.260 C 
HETATM    5  C6  UNL     1      -9.140 -42.010 -81.524  1.00  0.00     0.071 C 
HETATM    6  O3  UNL     1     -10.786 -41.171 -80.094  1.00  0.00    -0.329 OA
HETATM    7  C7  UNL     1     -11.007 -40.093 -79.279  1.00  0.00     0.291 C 
HETATM    8  C8  UNL     1     -10.729 -40.347 -77.830  1.00  0.00     0.205 C 
ENDROOT
BRANCH   1   9
HETATM    9  O1  UNL     1      -9.078 -39.727 -76.238  1.00  0.00    -0.385 OA
HETATM   10  C1  UNL     1      -9.961 -38.733 -75.825  1.00  0.00     0.202 C 
ENDBRANCH   1   9
BRANCH   2  11
HETATM   11  S1  UNL     1      -6.716 -40.748 -77.700  1.00  0.00    -0.139 SA
HETATM   12  C4  UNL     1      -5.586 -40.818 -79.093  1.00  0.00     0.092 C 
ENDBRANCH   2  11
BRANCH   8  13
HETATM   13  O5  UNL     1     -10.983 -41.649 -77.463  1.00  0.00    -0.388 OA
ATOM     14  H5  UNL     1     -11.000 -41.745 -76.518  1.00  0.00     0.210 HD
ENDBRANCH   8  13
BRANCH   7  15
HETATM   15  O4  UNL     1     -10.379 -38.922 -79.690  1.00  0.00    -0.368 OA
ATOM     16  H4  UNL     1     -10.884 -38.131 -79.542  1.00  0.00     0.212 HD
ENDBRANCH   7  15
TORSDOF 4
ENDMDL
MODEL 3
REMARK VINA RESULT: -5.110718378      2.560      4.248
REMARK  4 active torsions:
REMARK  status: ('A' for Active; 'I' for Inactive)
REMARK    1  A    between atoms: O1_2  and  C2_3 
REMARK    2  A    between atoms: C3_4  and  S1_5 
REMARK    3  A    between atoms: C7_11  and  O4_12 
REMARK    4  A    between atoms: C8_14  and  O5_15 
ROOT
HETATM    1  C2  UNL     1      -9.233 -41.240 -78.689  1.00  0.00     0.193 C 
HETATM    2  C3  UNL     1      -8.373 -40.668 -77.590  1.00  0.00     0.217 C 
HETATM    3  O2  UNL     1      -7.128 -40.411 -78.180  1.00  0.00    -0.343 OA
HETATM    4  C5  UNL     1      -6.251 -41.462 -78.035  1.00  0.00     0.260 C 
HETATM    5  C6  UNL     1      -4.841 -40.867 -78.079  1.00  0.00     0.071 C 
HETATM    6  O3  UNL     1      -6.311 -42.441 -78.985  1.00  0.00    -0.329 OA
HETATM    7  C7  UNL     1      -7.441 -42.487 -79.757  1.00  0.00     0.291 C 
HETATM    8  C8  UNL     1      -8.713 -42.636 -78.982  1.00  0.00     0.205 C 
ENDROOT
BRANCH   1   9
HETATM    9  O1  UNL     1     -10.575 -41.274 -78.411  1.00  0.00    -0.385 OA
HETATM   10  C1  UNL     1     -11.280 -41.029 -79.586  1.00  0.00     0.202 C 
ENDBRANCH   1   9
BRANCH   2  11
HETATM   11  S1  UNL     1      -9.078 -39.090 -77.089  1.00  0.00    -0.139 SA
HETATM   12  C4  UNL     1     -10.179 -39.220 -75.678  1.00  0.00     0.092 C 
ENDBRANCH   2  11
BRANCH   8  13
HETATM   13  O5  UNL     1      -8.546 -43.363 -77.825  1.00  0.00    -0.388 OA
ATOM     14  H5  UNL     1      -7.635 -43.593 -77.689  1.00  0.00     0.210 HD
ENDBRANCH   8  13
BRANCH   7  15
HETATM   15  O4  UNL     1      -7.556 -41.447 -80.673  1.00  0.00    -0.368 OA
ATOM     16  H4  UNL     1      -8.419 -41.356 -81.059  1.00  0.00     0.212 HD
ENDBRANCH   7  15
TORSDOF 4
ENDMDL
MODEL 4
REMARK VINA RESULT: -4.998952974      2.537      4.332
REMARK  4 active torsions:
REMARK  status: ('A' for Active; 'I' for Inactive)
REMARK    1  A    between atoms: O1_2  and  C2_3 
REMARK    2  A    between atoms: C3_4  and  S1_5 
REMARK    3  A    between atoms: C7_11  and  O4_12 
REMARK    4  A    between atoms: C8_14  and  O5_15 
ROOT
HETATM    1  C2  UNL     1      -7.443 -41.296 -78.233  1.00  0.00     0.193 C 
HETATM    2  C3  UNL     1      -8.775 -40.588 -78.237  1.00  0.00     0.217 C 
HETATM    3  O2  UNL     1      -9.718 -41.554 -77.861  1.00  0.00    -0.343 OA
HETATM    4  C5  UNL     1     -10.285 -42.184 -78.946  1.00  0.00     0.260 C 
HETATM    5  C6  UNL     1     -11.670 -42.661 -78.502  1.00  0.00     0.071 C 
HETATM    6  O3  UNL     1      -9.617 -43.268 -79.437  1.00  0.00    -0.329 OA
HETATM    7  C7  UNL     1      -8.306 -43.409 -79.069  1.00  0.00     0.291 C 
HETATM    8  C8  UNL     1      -7.437 -42.241 -79.421  1.00  0.00     0.205 C 
ENDROOT
BRANCH   1   9
HETATM    9  O1  UNL     1      -6.351 -40.469 -78.269  1.00  0.00    -0.385 OA
HETATM   10  C1  UNL     1      -5.210 -41.225 -78.013  1.00  0.00     0.202 C 
ENDBRANCH   1   9
BRANCH   2  11
HETATM   11  S1  UNL     1      -8.743 -39.326 -76.954  1.00  0.00    -0.139 SA
HETATM   12  C4  UNL     1     -10.372 -38.908 -76.328  1.00  0.00     0.092 C 
ENDBRANCH   2  11
BRANCH   8  13
HETATM   13  O5  UNL     1      -7.846 -41.605 -80.571  1.00  0.00    -0.388 OA
ATOM     14  H5  UNL     1      -8.741 -41.832 -80.793  1.00  0.00     0.210 HD
ENDBRANCH   8  13
BRANCH   7  15
HETATM   15  O4  UNL     1      -8.116 -43.765 -77.738  1.00  0.00    -0.368 OA
ATOM     16  H4  UNL     1      -8.887 -43.669 -77.191  1.00  0.00     0.212 HD
ENDBRANCH   7  15
TORSDOF 4
ENDMDL
MODEL 5
REMARK VINA RESULT: -4.992144746      2.743      5.002
REMARK  4 active torsions:
REMARK  status: ('A' for Active; 'I' for Inactive)
REMARK    1  A    between atoms: O1_2  and  C2_3 
REMARK    2  A    between atoms: C3_4  and  S1_5 
REMARK    3  A    between atoms: C7_11  and  O4_12 
REMARK    4  A    between atoms: C8_14  and  O5_15 
ROOT
HETATM    1  C2  UNL     1      -8.602 -40.745 -77.994  1.00  0.00     0.193 C 
HETATM    2  C3  UNL     1      -7.741 -41.974 -78.143  1.00  0.00     0.217 C 
HETATM    3  O2  UNL     1      -7.739 -42.271 -79.513  1.00  0.00    -0.343 OA
HETATM    4  C5  UNL     1      -8.722 -43.172 -79.856  1.00  0.00     0.260 C 
HETATM    5  C6  UNL     1      -8.231 -43.899 -81.111  1.00  0.00     0.071 C 
HETATM    6  O3  UNL     1      -9.951 -42.652 -80.141  1.00  0.00    -0.329 OA
HETATM    7  C7  UNL     1     -10.199 -41.375 -79.715  1.00  0.00     0.291 C 
HETATM    8  C8  UNL     1     -10.038 -41.174 -78.240  1.00  0.00     0.205 C 
ENDROOT
BRANCH   1   9
HETATM    9  O1  UNL     1      -8.490 -40.107 -76.786  1.00  0.00    -0.385 OA
HETATM   10  C1  UNL     1      -9.243 -38.936 -76.829  1.00  0.00     0.202 C 
ENDBRANCH   1   9
BRANCH   2  11
HETATM   11  S1  UNL     1      -6.058 -41.541 -77.674  1.00  0.00    -0.139 SA
HETATM   12  C4  UNL     1      -5.270 -40.409 -78.823  1.00  0.00     0.092 C 
ENDBRANCH   2  11
BRANCH   8  13
HETATM   13  O5  UNL     1     -10.357 -42.299 -77.514  1.00  0.00    -0.388 OA
ATOM     14  H5  UNL     1     -11.292 -42.466 -77.527  1.00  0.00     0.210 HD
ENDBRANCH   8  13
BRANCH   7  15
HETATM   15  O4  UNL     1      -9.507 -40.390 -80.412  1.00  0.00    -0.368 OA
ATOM     16  H4  UNL     1     -10.055 -39.698 -80.762  1.00  0.00     0.212 HD
ENDBRANCH   7  15
TORSDOF 4
ENDMDL
