MODEL 1
REMARK VINA RESULT: -6.190997938      0.000      0.000
REMARK  11 active torsions:
REMARK  status: ('A' for Active; 'I' for Inactive)
REMARK       I    between atoms: C2_2  and  N1_4 
REMARK    1  A    between atoms: N1_4  and  C3_6 
REMARK    2  A    between atoms: C3_6  and  C4_7 
REMARK    3  A    between atoms: C3_6  and  C20_34 
REMARK       I    between atoms: C4_7  and  N2_9 
REMARK    4  A    between atoms: N2_9  and  C5_11 
REMARK    5  A    between atoms: C5_11  and  C6_12 
REMARK    6  A    between atoms: C5_11  and  C16_30 
REMARK       I    between atoms: C6_12  and  N3_14 
REMARK    7  A    between atoms: N3_14  and  C7_16 
REMARK    8  A    between atoms: C7_16  and  C8_17 
REMARK    9  A    between atoms: C7_16  and  S1_26 
REMARK   10  A    between atoms: C8_17  and  C9_18 
REMARK   11  A    between atoms: C9_18  and  O4_19 
ROOT
HETATM    1  C5  UNL     1      -4.071  23.609  11.103  1.00  0.00     0.184 C 
ENDROOT
BRANCH   1   2
HETATM    2  N2  UNL     1      -4.585  22.839  10.042  1.00  0.00    -0.345 N 
HETATM    3  C4  UNL     1      -5.663  21.990   9.857  1.00  0.00     0.241 C 
HETATM    4  O2  UNL     1      -6.458  21.760  10.782  1.00  0.00    -0.271 OA
ATOM      5  H2  UNL     1      -4.022  22.930   9.196  1.00  0.00     0.163 HD
BRANCH   3   6
HETATM    6  C3  UNL     1      -5.963  21.302   8.583  1.00  0.00     0.179 C 
BRANCH   6   7
HETATM    7  N1  UNL     1      -7.389  21.329   8.289  1.00  0.00    -0.348 N 
HETATM    8  C2  UNL     1      -7.907  22.095   7.214  1.00  0.00     0.214 C 
HETATM    9  C1  UNL     1      -9.359  22.138   6.880  1.00  0.00     0.117 C 
HETATM   10  O1  UNL     1      -7.081  22.766   6.514  1.00  0.00    -0.274 OA
ATOM     11  H1  UNL     1      -8.029  20.786   8.869  1.00  0.00     0.163 HD
ENDBRANCH   6   7
BRANCH   6  12
HETATM   12  C20 UNL     1      -5.547  19.875   8.476  1.00  0.00     0.009 C 
HETATM   13  C21 UNL     1      -4.351  19.478   9.277  1.00  0.00     0.012 C 
HETATM   14  C22 UNL     1      -5.511  19.285   7.101  1.00  0.00     0.012 C 
ENDBRANCH   6  12
ENDBRANCH   3   6
ENDBRANCH   1   2
BRANCH   1  15
HETATM   15  C6  UNL     1      -2.569  23.609  10.995  1.00  0.00     0.242 C 
HETATM   16  O3  UNL     1      -1.965  24.107   9.989  1.00  0.00    -0.271 OA
HETATM   17  N3  UNL     1      -1.709  23.065  11.972  1.00  0.00    -0.341 N 
ATOM     18  H3  UNL     1      -2.117  22.632  12.801  1.00  0.00     0.163 HD
BRANCH  17  19
HETATM   19  C7  UNL     1      -0.230  23.098  11.836  1.00  0.00     0.209 C 
BRANCH  19  20
HETATM   20  C8  UNL     1       0.100  21.759  11.287  1.00  0.00     0.078 C 
BRANCH  20  21
HETATM   21  C9  UNL     1       0.542  21.583   9.898  1.00  0.00     0.060 C 
HETATM   22  C10 UNL     1       1.699  20.690   9.706  1.00  0.00     0.038 C 
HETATM   23  C11 UNL     1       1.389  19.436   8.871  1.00  0.00     0.003 C 
HETATM   24  C12 UNL     1       0.260  18.629   9.442  1.00  0.00     0.000 C 
HETATM   25  C13 UNL     1      -0.917  19.540   9.682  1.00  0.00     0.003 C 
HETATM   26  C14 UNL     1      -0.636  20.878   9.117  1.00  0.00     0.038 C 
BRANCH  21  27
HETATM   27  O4  UNL     1       0.591  22.806   9.188  1.00  0.00    -0.390 OA
ATOM     28  H4  UNL     1       0.624  22.677   8.248  1.00  0.00     0.210 HD
ENDBRANCH  21  27
ENDBRANCH  20  21
ENDBRANCH  19  20
BRANCH  19  29
HETATM   29  S1  UNL     1       0.432  23.633  13.343  1.00  0.00     0.162 S 
HETATM   30  C15 UNL     1      -0.491  24.820  14.238  1.00  0.00     0.163 C 
HETATM   31  O5  UNL     1       1.914  23.999  13.234  1.00  0.00    -0.226 OA
HETATM   32  O6  UNL     1       0.476  22.383  14.260  1.00  0.00    -0.226 OA
ENDBRANCH  19  29
ENDBRANCH  17  19
ENDBRANCH   1  15
BRANCH   1  33
HETATM   33  C16 UNL     1      -4.618  24.975  11.293  1.00  0.00    -0.022 C 
HETATM   34  C17 UNL     1      -5.073  25.751  10.125  1.00  0.00     0.017 C 
HETATM   35  C18 UNL     1      -5.915  24.848  12.161  1.00  0.00     0.017 C 
HETATM   36  C19 UNL     1      -3.748  25.841  12.153  1.00  0.00     0.017 C 
ENDBRANCH   1  33
TORSDOF 11
ENDMDL
MODEL 2
REMARK VINA RESULT: -5.846011334      1.432      1.731
REMARK  11 active torsions:
REMARK  status: ('A' for Active; 'I' for Inactive)
REMARK       I    between atoms: C2_2  and  N1_4 
REMARK    1  A    between atoms: N1_4  and  C3_6 
REMARK    2  A    between atoms: C3_6  and  C4_7 
REMARK    3  A    between atoms: C3_6  and  C20_34 
REMARK       I    between atoms: C4_7  and  N2_9 
REMARK    4  A    between atoms: N2_9  and  C5_11 
REMARK    5  A    between atoms: C5_11  and  C6_12 
REMARK    6  A    between atoms: C5_11  and  C16_30 
REMARK       I    between atoms: C6_12  and  N3_14 
REMARK    7  A    between atoms: N3_14  and  C7_16 
REMARK    8  A    between atoms: C7_16  and  C8_17 
REMARK    9  A    between atoms: C7_16  and  S1_26 
REMARK   10  A    between atoms: C8_17  and  C9_18 
REMARK   11  A    between atoms: C9_18  and  O4_19 
ROOT
HETATM    1  C5  UNL     1      -3.844  24.241  11.838  1.00  0.00     0.184 C 
ENDROOT
BRANCH   1   2
HETATM    2  N2  UNL     1      -4.703  23.672  10.878  1.00  0.00    -0.345 N 
HETATM    3  C4  UNL     1      -5.994  23.172  10.867  1.00  0.00     0.241 C 
HETATM    4  O2  UNL     1      -6.681  23.161  11.900  1.00  0.00    -0.271 OA
ATOM      5  H2  UNL     1      -4.264  23.614   9.959  1.00  0.00     0.163 HD
BRANCH   3   6
HETATM    6  C3  UNL     1      -6.657  22.625   9.664  1.00  0.00     0.179 C 
BRANCH   6   7
HETATM    7  N1  UNL     1      -7.941  22.022   9.995  1.00  0.00    -0.348 N 
HETATM    8  C2  UNL     1      -9.162  22.600   9.563  1.00  0.00     0.214 C 
HETATM    9  C1  UNL     1     -10.491  22.004   9.876  1.00  0.00     0.117 C 
HETATM   10  O1  UNL     1      -9.099  23.672   8.879  1.00  0.00    -0.274 OA
ATOM     11  H1  UNL     1      -7.962  21.165  10.548  1.00  0.00     0.163 HD
ENDBRANCH   6   7
BRANCH   6  12
HETATM   12  C20 UNL     1      -5.905  21.597   8.891  1.00  0.00     0.009 C 
HETATM   13  C21 UNL     1      -6.479  21.222   7.564  1.00  0.00     0.012 C 
HETATM   14  C22 UNL     1      -5.434  20.396   9.648  1.00  0.00     0.012 C 
ENDBRANCH   6  12
ENDBRANCH   3   6
ENDBRANCH   1   2
BRANCH   1  15
HETATM   15  C6  UNL     1      -2.427  23.900  11.457  1.00  0.00     0.242 C 
HETATM   16  O3  UNL     1      -1.960  24.155  10.299  1.00  0.00    -0.271 OA
HETATM   17  N3  UNL     1      -1.507  23.274  12.325  1.00  0.00    -0.341 N 
ATOM     18  H3  UNL     1      -1.811  23.024  13.266  1.00  0.00     0.163 HD
BRANCH  17  19
HETATM   19  C7  UNL     1      -0.112  22.968  11.917  1.00  0.00     0.209 C 
BRANCH  19  20
HETATM   20  C8  UNL     1      -0.139  21.508  11.651  1.00  0.00     0.078 C 
BRANCH  20  21
HETATM   21  C9  UNL     1       0.548  20.923  10.493  1.00  0.00     0.060 C 
HETATM   22  C10 UNL     1       0.594  19.450  10.457  1.00  0.00     0.038 C 
HETATM   23  C11 UNL     1      -0.143  18.832   9.257  1.00  0.00     0.003 C 
HETATM   24  C12 UNL     1      -1.579  19.260   9.181  1.00  0.00     0.000 C 
HETATM   25  C13 UNL     1      -1.642  20.766   9.258  1.00  0.00     0.003 C 
HETATM   26  C14 UNL     1      -0.274  21.325   9.206  1.00  0.00     0.038 C 
BRANCH  21  27
HETATM   27  O4  UNL     1       1.768  21.578  10.202  1.00  0.00    -0.390 OA
ATOM     28  H4  UNL     1       1.918  21.666   9.268  1.00  0.00     0.210 HD
ENDBRANCH  21  27
ENDBRANCH  20  21
ENDBRANCH  19  20
BRANCH  19  29
HETATM   29  S1  UNL     1       0.951  23.639  13.108  1.00  0.00     0.162 S 
HETATM   30  C15 UNL     1       0.854  25.365  13.375  1.00  0.00     0.163 C 
HETATM   31  O5  UNL     1       2.391  23.147  12.949  1.00  0.00    -0.226 OA
HETATM   32  O6  UNL     1       0.540  22.999  14.459  1.00  0.00    -0.226 OA
ENDBRANCH  19  29
ENDBRANCH  17  19
ENDBRANCH   1  15
BRANCH   1  33
HETATM   33  C16 UNL     1      -4.009  25.683  12.144  1.00  0.00    -0.022 C 
HETATM   34  C17 UNL     1      -4.589  26.585  11.132  1.00  0.00     0.017 C 
HETATM   35  C18 UNL     1      -5.013  25.801  13.340  1.00  0.00     0.017 C 
HETATM   36  C19 UNL     1      -2.770  26.308  12.711  1.00  0.00     0.017 C 
ENDBRANCH   1  33
TORSDOF 11
ENDMDL
MODEL 3
REMARK VINA RESULT: -5.763195195      1.692      2.012
REMARK  11 active torsions:
REMARK  status: ('A' for Active; 'I' for Inactive)
REMARK       I    between atoms: C2_2  and  N1_4 
REMARK    1  A    between atoms: N1_4  and  C3_6 
REMARK    2  A    between atoms: C3_6  and  C4_7 
REMARK    3  A    between atoms: C3_6  and  C20_34 
REMARK       I    between atoms: C4_7  and  N2_9 
REMARK    4  A    between atoms: N2_9  and  C5_11 
REMARK    5  A    between atoms: C5_11  and  C6_12 
REMARK    6  A    between atoms: C5_11  and  C16_30 
REMARK       I    between atoms: C6_12  and  N3_14 
REMARK    7  A    between atoms: N3_14  and  C7_16 
REMARK    8  A    between atoms: C7_16  and  C8_17 
REMARK    9  A    between atoms: C7_16  and  S1_26 
REMARK   10  A    between atoms: C8_17  and  C9_18 
REMARK   11  A    between atoms: C9_18  and  O4_19 
ROOT
HETATM    1  C5  UNL     1      -3.136  24.522  11.663  1.00  0.00     0.184 C 
ENDROOT
BRANCH   1   2
HETATM    2  N2  UNL     1      -4.018  24.093  10.652  1.00  0.00    -0.345 N 
HETATM    3  C4  UNL     1      -5.326  23.643  10.596  1.00  0.00     0.241 C 
HETATM    4  O2  UNL     1      -6.010  23.544  11.627  1.00  0.00    -0.271 OA
ATOM      5  H2  UNL     1      -3.585  24.120   9.730  1.00  0.00     0.163 HD
BRANCH   3   6
HETATM    6  C3  UNL     1      -6.013  23.254   9.345  1.00  0.00     0.179 C 
BRANCH   6   7
HETATM    7  N1  UNL     1      -7.301  23.921   9.218  1.00  0.00    -0.348 N 
HETATM    8  C2  UNL     1      -7.474  25.037   8.360  1.00  0.00     0.214 C 
HETATM    9  C1  UNL     1      -8.781  25.735   8.200  1.00  0.00     0.117 C 
HETATM   10  O1  UNL     1      -6.460  25.441   7.705  1.00  0.00    -0.274 OA
ATOM     11  H1  UNL     1      -8.096  23.578   9.759  1.00  0.00     0.163 HD
ENDBRANCH   6   7
BRANCH   6  12
HETATM   12  C20 UNL     1      -6.278  21.801   9.149  1.00  0.00     0.009 C 
HETATM   13  C21 UNL     1      -5.236  20.867   9.667  1.00  0.00     0.012 C 
HETATM   14  C22 UNL     1      -6.772  21.384   7.800  1.00  0.00     0.012 C 
ENDBRANCH   6  12
ENDBRANCH   3   6
ENDBRANCH   1   2
BRANCH   1  15
HETATM   15  C6  UNL     1      -1.762  24.001  11.336  1.00  0.00     0.242 C 
HETATM   16  O3  UNL     1      -1.168  24.301  10.249  1.00  0.00    -0.271 OA
HETATM   17  N3  UNL     1      -1.023  23.145  12.180  1.00  0.00    -0.341 N 
ATOM     18  H3  UNL     1      -1.438  22.846  13.063  1.00  0.00     0.163 HD
BRANCH  17  19
HETATM   19  C7  UNL     1       0.338  22.664  11.829  1.00  0.00     0.209 C 
BRANCH  19  20
HETATM   20  C8  UNL     1       0.156  21.202  11.651  1.00  0.00     0.078 C 
BRANCH  20  21
HETATM   21  C9  UNL     1       0.722  20.489  10.500  1.00  0.00     0.060 C 
HETATM   22  C10 UNL     1       0.399  19.052  10.418  1.00  0.00     0.038 C 
HETATM   23  C11 UNL     1      -0.419  18.666   9.174  1.00  0.00     0.003 C 
HETATM   24  C12 UNL     1      -1.697  19.444   9.062  1.00  0.00     0.000 C 
HETATM   25  C13 UNL     1      -1.385  20.915   9.186  1.00  0.00     0.003 C 
HETATM   26  C14 UNL     1       0.081  21.113   9.198  1.00  0.00     0.038 C 
BRANCH  21  27
HETATM   27  O4  UNL     1       2.078  20.822  10.272  1.00  0.00    -0.390 OA
ATOM     28  H4  UNL     1       2.521  21.100  11.065  1.00  0.00     0.210 HD
ENDBRANCH  21  27
ENDBRANCH  20  21
ENDBRANCH  19  20
BRANCH  19  29
HETATM   29  S1  UNL     1       1.445  23.290  13.004  1.00  0.00     0.162 S 
HETATM   30  C15 UNL     1       1.697  25.021  13.013  1.00  0.00     0.163 C 
HETATM   31  O5  UNL     1       2.756  22.503  13.049  1.00  0.00    -0.226 OA
HETATM   32  O6  UNL     1       0.827  22.966  14.389  1.00  0.00    -0.226 OA
ENDBRANCH  19  29
ENDBRANCH  17  19
ENDBRANCH   1  15
BRANCH   1  33
HETATM   33  C16 UNL     1      -3.121  25.968  11.997  1.00  0.00    -0.022 C 
HETATM   34  C17 UNL     1      -3.368  26.966  10.941  1.00  0.00     0.017 C 
HETATM   35  C18 UNL     1      -4.284  26.231  13.013  1.00  0.00     0.017 C 
HETATM   36  C19 UNL     1      -1.914  26.374  12.789  1.00  0.00     0.017 C 
ENDBRANCH   1  33
TORSDOF 11
ENDMDL
MODEL 4
REMARK VINA RESULT: -5.663648393      5.249      8.275
REMARK  11 active torsions:
REMARK  status: ('A' for Active; 'I' for Inactive)
REMARK       I    between atoms: C2_2  and  N1_4 
REMARK    1  A    between atoms: N1_4  and  C3_6 
REMARK    2  A    between atoms: C3_6  and  C4_7 
REMARK    3  A    between atoms: C3_6  and  C20_34 
REMARK       I    between atoms: C4_7  and  N2_9 
REMARK    4  A    between atoms: N2_9  and  C5_11 
REMARK    5  A    between atoms: C5_11  and  C6_12 
REMARK    6  A    between atoms: C5_11  and  C16_30 
REMARK       I    between atoms: C6_12  and  N3_14 
REMARK    7  A    between atoms: N3_14  and  C7_16 
REMARK    8  A    between atoms: C7_16  and  C8_17 
REMARK    9  A    between atoms: C7_16  and  S1_26 
REMARK   10  A    between atoms: C8_17  and  C9_18 
REMARK   11  A    between atoms: C9_18  and  O4_19 
ROOT
HETATM    1  C5  UNL     1       3.454  21.966   8.112  1.00  0.00     0.184 C 
ENDROOT
BRANCH   1   2
HETATM    2  N2  UNL     1       2.407  21.464   8.908  1.00  0.00    -0.345 N 
HETATM    3  C4  UNL     1       1.684  20.286   8.977  1.00  0.00     0.241 C 
HETATM    4  O2  UNL     1       1.915  19.351   8.194  1.00  0.00    -0.271 OA
ATOM      5  H2  UNL     1       2.105  22.138   9.611  1.00  0.00     0.163 HD
BRANCH   3   6
HETATM    6  C3  UNL     1       0.606  20.034   9.958  1.00  0.00     0.179 C 
BRANCH   6   7
HETATM    7  N1  UNL     1      -0.689  19.921   9.304  1.00  0.00    -0.348 N 
HETATM    8  C2  UNL     1      -1.331  18.666   9.147  1.00  0.00     0.214 C 
HETATM    9  C1  UNL     1      -2.662  18.517   8.492  1.00  0.00     0.117 C 
HETATM   10  O1  UNL     1      -0.732  17.635   9.594  1.00  0.00    -0.274 OA
ATOM     11  H1  UNL     1      -1.146  20.763   8.951  1.00  0.00     0.163 HD
ENDBRANCH   6   7
BRANCH   6  12
HETATM   12  C20 UNL     1       0.436  21.041  11.042  1.00  0.00     0.009 C 
HETATM   13  C21 UNL     1       0.470  20.515  12.439  1.00  0.00     0.012 C 
HETATM   14  C22 UNL     1      -0.653  22.051  10.858  1.00  0.00     0.012 C 
ENDBRANCH   6  12
ENDBRANCH   3   6
ENDBRANCH   1   2
BRANCH   1  15
HETATM   15  C6  UNL     1       3.004  23.276   7.519  1.00  0.00     0.242 C 
HETATM   16  O3  UNL     1       2.296  24.106   8.178  1.00  0.00    -0.271 OA
HETATM   17  N3  UNL     1       3.310  23.693   6.207  1.00  0.00    -0.341 N 
ATOM     18  H3  UNL     1       3.861  23.075   5.610  1.00  0.00     0.163 HD
BRANCH  17  19
HETATM   19  C7  UNL     1       2.860  25.001   5.663  1.00  0.00     0.209 C 
BRANCH  19  20
HETATM   20  C8  UNL     1       1.790  24.630   4.704  1.00  0.00     0.078 C 
BRANCH  20  21
HETATM   21  C9  UNL     1       0.372  24.869   5.001  1.00  0.00     0.060 C 
HETATM   22  C10 UNL     1      -0.096  26.252   4.798  1.00  0.00     0.038 C 
HETATM   23  C11 UNL     1      -1.178  26.392   3.713  1.00  0.00     0.003 C 
HETATM   24  C12 UNL     1      -0.737  25.844   2.387  1.00  0.00     0.000 C 
HETATM   25  C13 UNL     1      -0.216  24.443   2.589  1.00  0.00     0.003 C 
HETATM   26  C14 UNL     1      -0.473  24.010   3.980  1.00  0.00     0.038 C 
BRANCH  21  27
HETATM   27  O4  UNL     1      -0.037  24.258   6.210  1.00  0.00    -0.390 OA
ATOM     28  H4  UNL     1      -0.710  23.602   6.075  1.00  0.00     0.210 HD
ENDBRANCH  21  27
ENDBRANCH  20  21
ENDBRANCH  19  20
BRANCH  19  29
HETATM   29  S1  UNL     1       4.262  25.873   5.143  1.00  0.00     0.162 S 
HETATM   30  C15 UNL     1       5.453  26.262   6.365  1.00  0.00     0.163 C 
HETATM   31  O5  UNL     1       3.910  27.072   4.260  1.00  0.00    -0.226 OA
HETATM   32  O6  UNL     1       4.999  24.943   4.144  1.00  0.00    -0.226 OA
ENDBRANCH  19  29
ENDBRANCH  17  19
ENDBRANCH   1  15
BRANCH   1  33
HETATM   33  C16 UNL     1       4.802  22.064   8.725  1.00  0.00    -0.022 C 
HETATM   34  C17 UNL     1       5.440  23.384   8.884  1.00  0.00     0.017 C 
HETATM   35  C18 UNL     1       4.690  21.544  10.198  1.00  0.00     0.017 C 
HETATM   36  C19 UNL     1       5.789  21.107   8.128  1.00  0.00     0.017 C 
ENDBRANCH   1  33
TORSDOF 11
ENDMDL
MODEL 5
REMARK VINA RESULT: -5.658757393      2.778      5.861
REMARK  11 active torsions:
REMARK  status: ('A' for Active; 'I' for Inactive)
REMARK       I    between atoms: C2_2  and  N1_4 
REMARK    1  A    between atoms: N1_4  and  C3_6 
REMARK    2  A    between atoms: C3_6  and  C4_7 
REMARK    3  A    between atoms: C3_6  and  C20_34 
REMARK       I    between atoms: C4_7  and  N2_9 
REMARK    4  A    between atoms: N2_9  and  C5_11 
REMARK    5  A    between atoms: C5_11  and  C6_12 
REMARK    6  A    between atoms: C5_11  and  C16_30 
REMARK       I    between atoms: C6_12  and  N3_14 
REMARK    7  A    between atoms: N3_14  and  C7_16 
REMARK    8  A    between atoms: C7_16  and  C8_17 
REMARK    9  A    between atoms: C7_16  and  S1_26 
REMARK   10  A    between atoms: C8_17  and  C9_18 
REMARK   11  A    between atoms: C9_18  and  O4_19 
ROOT
HETATM    1  C5  UNL     1      -0.390  21.301   8.787  1.00  0.00     0.184 C 
ENDROOT
BRANCH   1   2
HETATM    2  N2  UNL     1      -1.497  20.471   8.526  1.00  0.00    -0.345 N 
HETATM    3  C4  UNL     1      -1.921  19.218   8.934  1.00  0.00     0.241 C 
HETATM    4  O2  UNL     1      -1.248  18.546   9.732  1.00  0.00    -0.271 OA
ATOM      5  H2  UNL     1      -2.151  20.900   7.871  1.00  0.00     0.163 HD
BRANCH   3   6
HETATM    6  C3  UNL     1      -3.176  18.581   8.478  1.00  0.00     0.179 C 
BRANCH   6   7
HETATM    7  N1  UNL     1      -3.019  17.986   7.159  1.00  0.00    -0.348 N 
HETATM    8  C2  UNL     1      -2.444  16.701   6.992  1.00  0.00     0.214 C 
HETATM    9  C1  UNL     1      -2.278  16.059   5.657  1.00  0.00     0.117 C 
HETATM   10  O1  UNL     1      -2.061  16.084   8.038  1.00  0.00    -0.274 OA
ATOM     11  H1  UNL     1      -3.331  18.505   6.337  1.00  0.00     0.163 HD
ENDBRANCH   6   7
BRANCH   6  12
HETATM   12  C20 UNL     1      -4.381  19.454   8.398  1.00  0.00     0.009 C 
HETATM   13  C21 UNL     1      -5.137  19.650   9.671  1.00  0.00     0.012 C 
HETATM   14  C22 UNL     1      -5.300  19.228   7.239  1.00  0.00     0.012 C 
ENDBRANCH   6  12
ENDBRANCH   3   6
ENDBRANCH   1   2
BRANCH   1  15
HETATM   15  C6  UNL     1      -0.885  22.521   9.519  1.00  0.00     0.242 C 
HETATM   16  O3  UNL     1      -0.383  23.676   9.321  1.00  0.00    -0.271 OA
HETATM   17  N3  UNL     1      -1.922  22.500  10.475  1.00  0.00    -0.341 N 
ATOM     18  H3  UNL     1      -2.364  21.608  10.702  1.00  0.00     0.163 HD
BRANCH  17  19
HETATM   19  C7  UNL     1      -2.392  23.729  11.165  1.00  0.00     0.209 C 
BRANCH  19  20
HETATM   20  C8  UNL     1      -1.918  23.549  12.560  1.00  0.00     0.078 C 
BRANCH  20  21
HETATM   21  C9  UNL     1      -0.682  24.178  13.041  1.00  0.00     0.060 C 
HETATM   22  C10 UNL     1      -0.860  25.253  14.034  1.00  0.00     0.038 C 
HETATM   23  C11 UNL     1      -0.231  24.948  15.404  1.00  0.00     0.003 C 
HETATM   24  C12 UNL     1      -0.741  23.668  15.999  1.00  0.00     0.000 C 
HETATM   25  C13 UNL     1      -0.603  22.567  14.977  1.00  0.00     0.003 C 
HETATM   26  C14 UNL     1       0.144  23.068  13.803  1.00  0.00     0.038 C 
BRANCH  21  27
HETATM   27  O4  UNL     1       0.223  24.461  11.992  1.00  0.00    -0.390 OA
ATOM     28  H4  UNL     1       1.127  24.321  12.246  1.00  0.00     0.210 HD
ENDBRANCH  21  27
ENDBRANCH  20  21
ENDBRANCH  19  20
BRANCH  19  29
HETATM   29  S1  UNL     1      -4.076  23.927  10.813  1.00  0.00     0.162 S 
HETATM   30  C15 UNL     1      -4.521  25.288   9.807  1.00  0.00     0.163 C 
HETATM   31  O5  UNL     1      -4.953  23.803  12.060  1.00  0.00    -0.226 OA
HETATM   32  O6  UNL     1      -4.494  22.673  10.001  1.00  0.00    -0.226 OA
ENDBRANCH  19  29
ENDBRANCH  17  19
ENDBRANCH   1  15
BRANCH   1  33
HETATM   33  C16 UNL     1       0.789  20.692   9.450  1.00  0.00    -0.022 C 
HETATM   34  C17 UNL     1       1.359  19.439   8.923  1.00  0.00     0.017 C 
HETATM   35  C18 UNL     1       1.978  21.703   9.323  1.00  0.00     0.017 C 
HETATM   36  C19 UNL     1       0.632  20.577  10.937  1.00  0.00     0.017 C 
ENDBRANCH   1  33
TORSDOF 11
ENDMDL
