MODEL 1
REMARK VINA RESULT: -7.624465042      0.000      0.000
REMARK  13 active torsions:
REMARK  status: ('A' for Active; 'I' for Inactive)
REMARK    1  A    between atoms: C2_2  and  N1_3 
REMARK    2  A    between atoms: N1_3  and  C3_5 
REMARK    3  A    between atoms: C4_8  and  N3_9 
REMARK    4  A    between atoms: N3_9  and  C5_11 
REMARK    5  A    between atoms: C11_19  and  N5_20 
REMARK    6  A    between atoms: N5_20  and  C12_22 
REMARK    7  A    between atoms: C12_22  and  C13_23 
REMARK    8  A    between atoms: C13_23  and  C14_24 
REMARK    9  A    between atoms: C14_24  and  C15_25 
REMARK   10  A    between atoms: C15_25  and  N6_26 
REMARK   11  A    between atoms: C21_32  and  N7_33 
REMARK   12  A    between atoms: N7_33  and  N8_34 
REMARK       I    between atoms: N8_34  and  C22_36 
REMARK   13  A    between atoms: C22_36  and  C23_38 
ROOT
HETATM    1  C3  UNL     1       7.083 -21.251  11.278  1.00  0.00     0.695 C 
HETATM    2  N2  UNL     1       6.235 -22.195  11.782  1.00  0.00    -0.022 N 
ATOM      3  H2  UNL     1       6.636 -23.122  11.925  1.00  0.00     0.203 HD
HETATM    4  C4  UNL     1       4.930 -22.055  12.117  1.00  0.00     0.694 C 
HETATM    5  N4  UNL     1       4.016 -21.284  11.440  1.00  0.00    -0.172 N 
ATOM      6  H4  UNL     1       3.046 -21.597  11.475  1.00  0.00     0.186 HD
HETATM    7  C11 UNL     1       4.257 -20.167  10.739  1.00  0.00     0.178 C 
HETATM    8  C21 UNL     1       5.487 -19.664  10.252  1.00  0.00     0.262 C 
HETATM    9  N9  UNL     1       6.708 -20.092  10.719  1.00  0.00    -0.159 N 
ATOM     10  H9  UNL     1       7.458 -19.408  10.624  1.00  0.00     0.187 HD
ENDROOT
BRANCH   7  11
HETATM   11  N5  UNL     1       3.264 -19.429  10.448  1.00  0.00    -0.372 N 
ATOM     12  H5  UNL     1       3.423 -18.617   9.849  1.00  0.00     0.161 HD
BRANCH  11  13
HETATM   13  C12 UNL     1       1.921 -19.680  10.923  1.00  0.00     0.121 C 
BRANCH  13  14
HETATM   14  C13 UNL     1       1.251 -18.395  11.378  1.00  0.00     0.021 C 
BRANCH  14  15
HETATM   15  C14 UNL     1      -0.197 -18.703  11.676  1.00  0.00     0.032 C 
BRANCH  15  16
HETATM   16  C15 UNL     1      -0.365 -19.612  12.864  1.00  0.00     0.272 C 
BRANCH  16  17
HETATM   17  N6  UNL     1      -1.281 -20.669  12.516  1.00  0.00     0.088 N 
HETATM   18  C16 UNL     1      -2.150 -20.295  11.411  1.00  0.00     0.272 C 
HETATM   19  C17 UNL     1      -3.220 -21.364  11.360  1.00  0.00     0.030 C 
HETATM   20  C18 UNL     1      -2.585 -22.596  10.778  1.00  0.00     0.003 C 
HETATM   21  C19 UNL     1      -1.150 -22.684  11.110  1.00  0.00     0.030 C 
HETATM   22  C20 UNL     1      -0.637 -21.928  12.270  1.00  0.00     0.272 C 
ENDBRANCH  16  17
ENDBRANCH  15  16
ENDBRANCH  14  15
ENDBRANCH  13  14
ENDBRANCH  11  13
ENDBRANCH   7  11
BRANCH   8  23
HETATM   23  N7  UNL     1       5.506 -18.827   9.400  1.00  0.00    -0.300 NA
BRANCH  23  24
HETATM   24  N8  UNL     1       5.573 -18.007   8.409  1.00  0.00    -0.201 N 
HETATM   25  C22 UNL     1       4.580 -17.045   7.989  1.00  0.00     0.245 C 
HETATM   26  O1  UNL     1       3.526 -17.005   8.669  1.00  0.00    -0.271 OA
ATOM     27  H8  UNL     1       6.429 -18.040   7.855  1.00  0.00     0.205 HD
BRANCH  25  28
HETATM   28  C23 UNL     1       4.735 -16.148   6.849  1.00  0.00     0.101 C 
HETATM   29  C24 UNL     1       3.473 -15.895   6.095  1.00  0.00     0.014 C 
ENDBRANCH  25  28
ENDBRANCH  23  24
ENDBRANCH   8  23
BRANCH   4  30
HETATM   30  N3  UNL     1       4.430 -22.627  13.117  1.00  0.00    -0.221 N 
ATOM     31  H3  UNL     1       4.417 -22.042  13.952  1.00  0.00     0.178 HD
BRANCH  30  32
HETATM   32  C5  UNL     1       3.880 -23.918  13.326  1.00  0.00     0.099 C 
HETATM   33  C6  UNL     1       2.449 -23.843  13.689  1.00  0.00     0.026 C 
HETATM   34  C7  UNL     1       1.527 -24.820  13.055  1.00  0.00     0.002 C 
HETATM   35  C8  UNL     1       2.105 -26.063  12.511  1.00  0.00     0.000 C 
HETATM   36  C9  UNL     1       3.598 -26.222  12.682  1.00  0.00     0.002 C 
HETATM   37  C10 UNL     1       4.198 -24.887  12.208  1.00  0.00     0.026 C 
ENDBRANCH  30  32
ENDBRANCH   4  30
BRANCH   1  38
HETATM   38  N1  UNL     1       8.312 -21.533  11.365  1.00  0.00    -0.226 N 
ATOM     39  H1  UNL     1       8.656 -21.812  12.284  1.00  0.00     0.177 HD
BRANCH  38  40
HETATM   40  C2  UNL     1       9.265 -21.500  10.306  1.00  0.00     0.133 C 
HETATM   41  C1  UNL     1       8.896 -22.546   9.255  1.00  0.00     0.027 C 
ENDBRANCH  38  40
ENDBRANCH   1  38
TORSDOF 13
ENDMDL
MODEL 2
REMARK VINA RESULT: -7.614532372      2.093      5.721
REMARK  13 active torsions:
REMARK  status: ('A' for Active; 'I' for Inactive)
REMARK    1  A    between atoms: C2_2  and  N1_3 
REMARK    2  A    between atoms: N1_3  and  C3_5 
REMARK    3  A    between atoms: C4_8  and  N3_9 
REMARK    4  A    between atoms: N3_9  and  C5_11 
REMARK    5  A    between atoms: C11_19  and  N5_20 
REMARK    6  A    between atoms: N5_20  and  C12_22 
REMARK    7  A    between atoms: C12_22  and  C13_23 
REMARK    8  A    between atoms: C13_23  and  C14_24 
REMARK    9  A    between atoms: C14_24  and  C15_25 
REMARK   10  A    between atoms: C15_25  and  N6_26 
REMARK   11  A    between atoms: C21_32  and  N7_33 
REMARK   12  A    between atoms: N7_33  and  N8_34 
REMARK       I    between atoms: N8_34  and  C22_36 
REMARK   13  A    between atoms: C22_36  and  C23_38 
ROOT
HETATM    1  C3  UNL     1       4.906 -18.089   9.030  1.00  0.00     0.695 C 
HETATM    2  N2  UNL     1       3.816 -17.736   9.772  1.00  0.00    -0.022 N 
ATOM      3  H2  UNL     1       3.481 -16.781   9.645  1.00  0.00     0.203 HD
HETATM    4  C4  UNL     1       3.122 -18.494  10.656  1.00  0.00     0.694 C 
HETATM    5  N4  UNL     1       3.673 -19.419  11.508  1.00  0.00    -0.172 N 
ATOM      6  H4  UNL     1       3.181 -19.572  12.389  1.00  0.00     0.186 HD
HETATM    7  C11 UNL     1       4.782 -20.145  11.313  1.00  0.00     0.178 C 
HETATM    8  C21 UNL     1       5.824 -19.951  10.374  1.00  0.00     0.262 C 
HETATM    9  N9  UNL     1       5.692 -19.148   9.265  1.00  0.00    -0.159 N 
ATOM     10  H9  UNL     1       6.299 -19.403   8.487  1.00  0.00     0.187 HD
ENDROOT
BRANCH   7  11
HETATM   11  N5  UNL     1       4.962 -21.159  12.057  1.00  0.00    -0.372 N 
ATOM     12  H5  UNL     1       5.606 -21.074  12.844  1.00  0.00     0.161 HD
BRANCH  11  13
HETATM   13  C12 UNL     1       4.300 -22.428  11.845  1.00  0.00     0.121 C 
BRANCH  13  14
HETATM   14  C13 UNL     1       3.234 -22.673  12.898  1.00  0.00     0.021 C 
BRANCH  14  15
HETATM   15  C14 UNL     1       3.094 -24.165  13.084  1.00  0.00     0.032 C 
BRANCH  15  16
HETATM   16  C15 UNL     1       1.882 -24.537  13.898  1.00  0.00     0.272 C 
BRANCH  16  17
HETATM   17  N6  UNL     1       1.610 -23.479  14.838  1.00  0.00     0.088 N 
HETATM   18  C16 UNL     1       0.183 -23.243  14.996  1.00  0.00     0.272 C 
HETATM   19  C17 UNL     1       0.072 -21.945  15.766  1.00  0.00     0.030 C 
HETATM   20  C18 UNL     1       0.440 -22.245  17.192  1.00  0.00     0.003 C 
HETATM   21  C19 UNL     1       1.425 -23.341  17.287  1.00  0.00     0.030 C 
HETATM   22  C20 UNL     1       2.253 -23.661  16.108  1.00  0.00     0.272 C 
ENDBRANCH  16  17
ENDBRANCH  15  16
ENDBRANCH  14  15
ENDBRANCH  13  14
ENDBRANCH  11  13
ENDBRANCH   7  11
BRANCH   8  23
HETATM   23  N7  UNL     1       6.879 -20.496  10.517  1.00  0.00    -0.300 NA
BRANCH  23  24
HETATM   24  N8  UNL     1       8.031 -21.068  10.553  1.00  0.00    -0.201 N 
HETATM   25  C22 UNL     1       8.779 -21.620   9.447  1.00  0.00     0.245 C 
HETATM   26  O1  UNL     1       8.241 -21.531   8.316  1.00  0.00    -0.271 OA
ATOM     27  H8  UNL     1       8.468 -21.142  11.472  1.00  0.00     0.205 HD
BRANCH  25  28
HETATM   28  C23 UNL     1      10.086 -22.256   9.574  1.00  0.00     0.101 C 
HETATM   29  C24 UNL     1      10.710 -22.635   8.274  1.00  0.00     0.014 C 
ENDBRANCH  25  28
ENDBRANCH  23  24
ENDBRANCH   8  23
BRANCH   4  30
HETATM   30  N3  UNL     1       1.874 -18.420  10.765  1.00  0.00    -0.221 N 
ATOM     31  H3  UNL     1       1.464 -17.660  10.222  1.00  0.00     0.178 HD
BRANCH  30  32
HETATM   32  C5  UNL     1       0.913 -19.175  11.487  1.00  0.00     0.099 C 
HETATM   33  C6  UNL     1      -0.373 -18.454  11.590  1.00  0.00     0.026 C 
HETATM   34  C7  UNL     1      -1.618 -19.236  11.381  1.00  0.00     0.002 C 
HETATM   35  C8  UNL     1      -1.555 -20.699  11.561  1.00  0.00     0.000 C 
HETATM   36  C9  UNL     1      -0.209 -21.251  11.972  1.00  0.00     0.002 C 
HETATM   37  C10 UNL     1       0.798 -20.605  11.004  1.00  0.00     0.026 C 
ENDBRANCH  30  32
ENDBRANCH   4  30
BRANCH   1  38
HETATM   38  N1  UNL     1       5.157 -17.329   8.051  1.00  0.00    -0.226 N 
ATOM     39  H1  UNL     1       6.133 -17.255   7.765  1.00  0.00     0.177 HD
BRANCH  38  40
HETATM   40  C2  UNL     1       4.211 -16.566   7.308  1.00  0.00     0.133 C 
HETATM   41  C1  UNL     1       4.865 -16.049   6.028  1.00  0.00     0.027 C 
ENDBRANCH  38  40
ENDBRANCH   1  38
TORSDOF 13
ENDMDL
MODEL 3
REMARK VINA RESULT: -7.555843308      1.237      1.593
REMARK  13 active torsions:
REMARK  status: ('A' for Active; 'I' for Inactive)
REMARK    1  A    between atoms: C2_2  and  N1_3 
REMARK    2  A    between atoms: N1_3  and  C3_5 
REMARK    3  A    between atoms: C4_8  and  N3_9 
REMARK    4  A    between atoms: N3_9  and  C5_11 
REMARK    5  A    between atoms: C11_19  and  N5_20 
REMARK    6  A    between atoms: N5_20  and  C12_22 
REMARK    7  A    between atoms: C12_22  and  C13_23 
REMARK    8  A    between atoms: C13_23  and  C14_24 
REMARK    9  A    between atoms: C14_24  and  C15_25 
REMARK   10  A    between atoms: C15_25  and  N6_26 
REMARK   11  A    between atoms: C21_32  and  N7_33 
REMARK   12  A    between atoms: N7_33  and  N8_34 
REMARK       I    between atoms: N8_34  and  C22_36 
REMARK   13  A    between atoms: C22_36  and  C23_38 
ROOT
HETATM    1  C3  UNL     1       6.843 -20.836  10.690  1.00  0.00     0.695 C 
HETATM    2  N2  UNL     1       6.137 -21.823  11.315  1.00  0.00    -0.022 N 
ATOM      3  H2  UNL     1       6.543 -22.757  11.269  1.00  0.00     0.203 HD
HETATM    4  C4  UNL     1       4.966 -21.717  11.987  1.00  0.00     0.694 C 
HETATM    5  N4  UNL     1       3.923 -20.895  11.637  1.00  0.00    -0.172 N 
ATOM      6  H4  UNL     1       2.989 -21.213  11.895  1.00  0.00     0.186 HD
HETATM    7  C11 UNL     1       3.995 -19.720  10.995  1.00  0.00     0.178 C 
HETATM    8  C21 UNL     1       5.067 -19.172  10.251  1.00  0.00     0.262 C 
HETATM    9  N9  UNL     1       6.359 -19.635  10.348  1.00  0.00    -0.159 N 
ATOM     10  H9  UNL     1       7.071 -18.942  10.120  1.00  0.00     0.187 HD
ENDROOT
BRANCH   7  11
HETATM   11  N5  UNL     1       2.975 -18.963  11.035  1.00  0.00    -0.372 N 
ATOM     12  H5  UNL     1       3.119 -17.954  10.993  1.00  0.00     0.161 HD
BRANCH  11  13
HETATM   13  C12 UNL     1       1.620 -19.460  11.136  1.00  0.00     0.121 C 
BRANCH  13  14
HETATM   14  C13 UNL     1       0.651 -18.344  11.489  1.00  0.00     0.021 C 
BRANCH  14  15
HETATM   15  C14 UNL     1      -0.680 -18.970  11.829  1.00  0.00     0.032 C 
BRANCH  15  16
HETATM   16  C15 UNL     1      -0.668 -20.470  11.690  1.00  0.00     0.272 C 
BRANCH  16  17
HETATM   17  N6  UNL     1      -1.200 -21.053  12.895  1.00  0.00     0.088 N 
HETATM   18  C16 UNL     1      -1.351 -22.496  12.782  1.00  0.00     0.272 C 
HETATM   19  C17 UNL     1      -2.172 -22.911  13.984  1.00  0.00     0.030 C 
HETATM   20  C18 UNL     1      -1.268 -22.842  15.182  1.00  0.00     0.003 C 
HETATM   21  C19 UNL     1      -0.237 -21.795  15.034  1.00  0.00     0.030 C 
HETATM   22  C20 UNL     1      -0.469 -20.695  14.077  1.00  0.00     0.272 C 
ENDBRANCH  16  17
ENDBRANCH  15  16
ENDBRANCH  14  15
ENDBRANCH  13  14
ENDBRANCH  11  13
ENDBRANCH   7  11
BRANCH   8  23
HETATM   23  N7  UNL     1       4.880 -18.264   9.496  1.00  0.00    -0.300 NA
BRANCH  23  24
HETATM   24  N8  UNL     1       4.677 -17.366   8.596  1.00  0.00    -0.201 N 
HETATM   25  C22 UNL     1       5.232 -17.309   7.264  1.00  0.00     0.245 C 
HETATM   26  O1  UNL     1       6.006 -18.244   6.946  1.00  0.00    -0.271 OA
ATOM     27  H8  UNL     1       4.049 -16.605   8.855  1.00  0.00     0.205 HD
BRANCH  25  28
HETATM   28  C23 UNL     1       4.949 -16.251   6.300  1.00  0.00     0.101 C 
HETATM   29  C24 UNL     1       3.500 -15.933   6.150  1.00  0.00     0.014 C 
ENDBRANCH  25  28
ENDBRANCH  23  24
ENDBRANCH   8  23
BRANCH   4  30
HETATM   30  N3  UNL     1       4.730 -22.376  13.029  1.00  0.00    -0.221 N 
ATOM     31  H3  UNL     1       5.007 -21.893  13.884  1.00  0.00     0.178 HD
BRANCH  30  32
HETATM   32  C5  UNL     1       4.159 -23.653  13.267  1.00  0.00     0.099 C 
HETATM   33  C6  UNL     1       2.792 -23.539  13.818  1.00  0.00     0.026 C 
HETATM   34  C7  UNL     1       1.756 -24.457  13.279  1.00  0.00     0.002 C 
HETATM   35  C8  UNL     1       2.205 -25.699  12.623  1.00  0.00     0.000 C 
HETATM   36  C9  UNL     1       3.701 -25.919  12.591  1.00  0.00     0.002 C 
HETATM   37  C10 UNL     1       4.288 -24.590  12.085  1.00  0.00     0.026 C 
ENDBRANCH  30  32
ENDBRANCH   4  30
BRANCH   1  38
HETATM   38  N1  UNL     1       8.048 -21.120  10.431  1.00  0.00    -0.226 N 
ATOM     39  H1  UNL     1       8.756 -20.460  10.754  1.00  0.00     0.177 HD
BRANCH  38  40
HETATM   40  C2  UNL     1       8.515 -22.271   9.733  1.00  0.00     0.133 C 
HETATM   41  C1  UNL     1       9.400 -21.835   8.566  1.00  0.00     0.027 C 
ENDBRANCH  38  40
ENDBRANCH   1  38
TORSDOF 13
ENDMDL
MODEL 4
REMARK VINA RESULT: -7.544371580      2.269      6.958
REMARK  13 active torsions:
REMARK  status: ('A' for Active; 'I' for Inactive)
REMARK    1  A    between atoms: C2_2  and  N1_3 
REMARK    2  A    between atoms: N1_3  and  C3_5 
REMARK    3  A    between atoms: C4_8  and  N3_9 
REMARK    4  A    between atoms: N3_9  and  C5_11 
REMARK    5  A    between atoms: C11_19  and  N5_20 
REMARK    6  A    between atoms: N5_20  and  C12_22 
REMARK    7  A    between atoms: C12_22  and  C13_23 
REMARK    8  A    between atoms: C13_23  and  C14_24 
REMARK    9  A    between atoms: C14_24  and  C15_25 
REMARK   10  A    between atoms: C15_25  and  N6_26 
REMARK   11  A    between atoms: C21_32  and  N7_33 
REMARK   12  A    between atoms: N7_33  and  N8_34 
REMARK       I    between atoms: N8_34  and  C22_36 
REMARK   13  A    between atoms: C22_36  and  C23_38 
ROOT
HETATM    1  C3  UNL     1       4.870 -18.064   9.091  1.00  0.00     0.695 C 
HETATM    2  N2  UNL     1       3.764 -17.767   9.833  1.00  0.00    -0.022 N 
ATOM      3  H2  UNL     1       3.411 -16.814   9.743  1.00  0.00     0.203 HD
HETATM    4  C4  UNL     1       3.077 -18.577  10.674  1.00  0.00     0.694 C 
HETATM    5  N4  UNL     1       3.637 -19.527  11.493  1.00  0.00    -0.172 N 
ATOM      6  H4  UNL     1       3.139 -19.728  12.360  1.00  0.00     0.186 HD
HETATM    7  C11 UNL     1       4.765 -20.220  11.281  1.00  0.00     0.178 C 
HETATM    8  C21 UNL     1       5.813 -19.964  10.365  1.00  0.00     0.262 C 
HETATM    9  N9  UNL     1       5.677 -19.116   9.290  1.00  0.00    -0.159 N 
ATOM     10  H9  UNL     1       6.298 -19.324   8.509  1.00  0.00     0.187 HD
ENDROOT
BRANCH   7  11
HETATM   11  N5  UNL     1       4.958 -21.262  11.982  1.00  0.00    -0.372 N 
ATOM     12  H5  UNL     1       5.891 -21.425  12.361  1.00  0.00     0.161 HD
BRANCH  11  13
HETATM   13  C12 UNL     1       3.920 -22.228  12.273  1.00  0.00     0.121 C 
BRANCH  13  14
HETATM   14  C13 UNL     1       4.452 -23.648  12.179  1.00  0.00     0.021 C 
BRANCH  14  15
HETATM   15  C14 UNL     1       5.783 -23.604  11.469  1.00  0.00     0.032 C 
BRANCH  15  16
HETATM   16  C15 UNL     1       5.668 -23.920  10.001  1.00  0.00     0.272 C 
BRANCH  16  17
HETATM   17  N6  UNL     1       6.689 -24.873   9.649  1.00  0.00     0.088 N 
HETATM   18  C16 UNL     1       7.730 -24.956  10.661  1.00  0.00     0.272 C 
HETATM   19  C17 UNL     1       8.848 -25.756  10.027  1.00  0.00     0.030 C 
HETATM   20  C18 UNL     1       8.402 -27.192  10.002  1.00  0.00     0.003 C 
HETATM   21  C19 UNL     1       6.936 -27.311   9.872  1.00  0.00     0.030 C 
HETATM   22  C20 UNL     1       6.173 -26.172   9.323  1.00  0.00     0.272 C 
ENDBRANCH  16  17
ENDBRANCH  15  16
ENDBRANCH  14  15
ENDBRANCH  13  14
ENDBRANCH  11  13
ENDBRANCH   7  11
BRANCH   8  23
HETATM   23  N7  UNL     1       6.877 -20.491  10.497  1.00  0.00    -0.300 NA
BRANCH  23  24
HETATM   24  N8  UNL     1       8.045 -21.032  10.525  1.00  0.00    -0.201 N 
HETATM   25  C22 UNL     1       8.761 -21.647   9.431  1.00  0.00     0.245 C 
HETATM   26  O1  UNL     1       8.174 -21.656   8.322  1.00  0.00    -0.271 OA
ATOM     27  H8  UNL     1       8.521 -21.027  11.428  1.00  0.00     0.205 HD
BRANCH  25  28
HETATM   28  C23 UNL     1      10.088 -22.242   9.548  1.00  0.00     0.101 C 
HETATM   29  C24 UNL     1      10.640 -22.760   8.263  1.00  0.00     0.014 C 
ENDBRANCH  25  28
ENDBRANCH  23  24
ENDBRANCH   8  23
BRANCH   4  30
HETATM   30  N3  UNL     1       1.826 -18.535  10.771  1.00  0.00    -0.221 N 
ATOM     31  H3  UNL     1       1.402 -17.796  10.211  1.00  0.00     0.178 HD
BRANCH  30  32
HETATM   32  C5  UNL     1       0.878 -19.302  11.497  1.00  0.00     0.099 C 
HETATM   33  C6  UNL     1      -0.409 -18.588  11.627  1.00  0.00     0.026 C 
HETATM   34  C7  UNL     1      -1.654 -19.373  11.425  1.00  0.00     0.002 C 
HETATM   35  C8  UNL     1      -1.582 -20.837  11.588  1.00  0.00     0.000 C 
HETATM   36  C9  UNL     1      -0.228 -21.388  11.974  1.00  0.00     0.002 C 
HETATM   37  C10 UNL     1       0.763 -20.727  11.000  1.00  0.00     0.026 C 
ENDBRANCH  30  32
ENDBRANCH   4  30
BRANCH   1  38
HETATM   38  N1  UNL     1       5.116 -17.257   8.149  1.00  0.00    -0.226 N 
ATOM     39  H1  UNL     1       6.098 -17.112   7.913  1.00  0.00     0.177 HD
BRANCH  38  40
HETATM   40  C2  UNL     1       4.158 -16.531   7.385  1.00  0.00     0.133 C 
HETATM   41  C1  UNL     1       4.779 -16.113   6.053  1.00  0.00     0.027 C 
ENDBRANCH  38  40
ENDBRANCH   1  38
TORSDOF 13
ENDMDL
MODEL 5
REMARK VINA RESULT: -7.492538804      2.160      5.919
REMARK  13 active torsions:
REMARK  status: ('A' for Active; 'I' for Inactive)
REMARK    1  A    between atoms: C2_2  and  N1_3 
REMARK    2  A    between atoms: N1_3  and  C3_5 
REMARK    3  A    between atoms: C4_8  and  N3_9 
REMARK    4  A    between atoms: N3_9  and  C5_11 
REMARK    5  A    between atoms: C11_19  and  N5_20 
REMARK    6  A    between atoms: N5_20  and  C12_22 
REMARK    7  A    between atoms: C12_22  and  C13_23 
REMARK    8  A    between atoms: C13_23  and  C14_24 
REMARK    9  A    between atoms: C14_24  and  C15_25 
REMARK   10  A    between atoms: C15_25  and  N6_26 
REMARK   11  A    between atoms: C21_32  and  N7_33 
REMARK   12  A    between atoms: N7_33  and  N8_34 
REMARK       I    between atoms: N8_34  and  C22_36 
REMARK   13  A    between atoms: C22_36  and  C23_38 
ROOT
HETATM    1  C3  UNL     1       4.883 -18.116   9.100  1.00  0.00     0.695 C 
HETATM    2  N2  UNL     1       3.774 -17.776   9.819  1.00  0.00    -0.022 N 
ATOM      3  H2  UNL     1       3.443 -16.818   9.701  1.00  0.00     0.203 HD
HETATM    4  C4  UNL     1       3.057 -18.550  10.670  1.00  0.00     0.694 C 
HETATM    5  N4  UNL     1       3.584 -19.491  11.520  1.00  0.00    -0.172 N 
ATOM      6  H4  UNL     1       3.070 -19.660  12.384  1.00  0.00     0.186 HD
HETATM    7  C11 UNL     1       4.699 -20.214  11.340  1.00  0.00     0.178 C 
HETATM    8  C21 UNL     1       5.765 -20.004  10.433  1.00  0.00     0.262 C 
HETATM    9  N9  UNL     1       5.662 -19.180   9.336  1.00  0.00    -0.159 N 
ATOM     10  H9  UNL     1       6.290 -19.421   8.569  1.00  0.00     0.187 HD
ENDROOT
BRANCH   7  11
HETATM   11  N5  UNL     1       4.859 -21.242  12.070  1.00  0.00    -0.372 N 
ATOM     12  H5  UNL     1       5.749 -21.358  12.556  1.00  0.00     0.161 HD
BRANCH  11  13
HETATM   13  C12 UNL     1       3.843 -22.257  12.247  1.00  0.00     0.121 C 
BRANCH  13  14
HETATM   14  C13 UNL     1       4.427 -23.517  12.861  1.00  0.00     0.021 C 
BRANCH  14  15
HETATM   15  C14 UNL     1       3.536 -23.937  14.005  1.00  0.00     0.032 C 
BRANCH  15  16
HETATM   16  C15 UNL     1       2.165 -23.317  13.931  1.00  0.00     0.272 C 
BRANCH  16  17
HETATM   17  N6  UNL     1       1.485 -23.540  15.181  1.00  0.00     0.088 N 
HETATM   18  C16 UNL     1       2.417 -23.720  16.284  1.00  0.00     0.272 C 
HETATM   19  C17 UNL     1       1.580 -24.224  17.441  1.00  0.00     0.030 C 
HETATM   20  C18 UNL     1       0.794 -23.053  17.960  1.00  0.00     0.003 C 
HETATM   21  C19 UNL     1       0.477 -22.085  16.891  1.00  0.00     0.030 C 
HETATM   22  C20 UNL     1       0.502 -22.540  15.486  1.00  0.00     0.272 C 
ENDBRANCH  16  17
ENDBRANCH  15  16
ENDBRANCH  14  15
ENDBRANCH  13  14
ENDBRANCH  11  13
ENDBRANCH   7  11
BRANCH   8  23
HETATM   23  N7  UNL     1       6.815 -20.551  10.593  1.00  0.00    -0.300 NA
BRANCH  23  24
HETATM   24  N8  UNL     1       7.983 -21.089  10.665  1.00  0.00    -0.201 N 
HETATM   25  C22 UNL     1       8.760 -21.660   9.589  1.00  0.00     0.245 C 
HETATM   26  O1  UNL     1       8.235 -21.630   8.450  1.00  0.00    -0.271 OA
ATOM     27  H8  UNL     1       8.409 -21.115  11.592  1.00  0.00     0.205 HD
BRANCH  25  28
HETATM   28  C23 UNL     1      10.083 -22.253   9.757  1.00  0.00     0.101 C 
HETATM   29  C24 UNL     1      10.701 -22.002  11.091  1.00  0.00     0.014 C 
ENDBRANCH  25  28
ENDBRANCH  23  24
ENDBRANCH   8  23
BRANCH   4  30
HETATM   30  N3  UNL     1       1.806 -18.478  10.748  1.00  0.00    -0.221 N 
ATOM     31  H3  UNL     1       1.406 -17.750  10.156  1.00  0.00     0.178 HD
BRANCH  30  32
HETATM   32  C5  UNL     1       0.832 -19.197  11.488  1.00  0.00     0.099 C 
HETATM   33  C6  UNL     1      -0.448 -18.461  11.555  1.00  0.00     0.026 C 
HETATM   34  C7  UNL     1      -1.698 -19.240  11.363  1.00  0.00     0.002 C 
HETATM   35  C8  UNL     1      -1.650 -20.695  11.596  1.00  0.00     0.000 C 
HETATM   36  C9  UNL     1      -0.312 -21.245  12.037  1.00  0.00     0.002 C 
HETATM   37  C10 UNL     1       0.708 -20.643  11.055  1.00  0.00     0.026 C 
ENDBRANCH  30  32
ENDBRANCH   4  30
BRANCH   1  38
HETATM   38  N1  UNL     1       5.160 -17.339   8.142  1.00  0.00    -0.226 N 
ATOM     39  H1  UNL     1       6.142 -17.272   7.874  1.00  0.00     0.177 HD
BRANCH  38  40
HETATM   40  C2  UNL     1       4.236 -16.547   7.401  1.00  0.00     0.133 C 
HETATM   41  C1  UNL     1       4.841 -16.195   6.042  1.00  0.00     0.027 C 
ENDBRANCH  38  40
ENDBRANCH   1  38
TORSDOF 13
ENDMDL
