MODEL 1
REMARK VINA RESULT: -6.881723196      0.000      0.000
REMARK  9 active torsions:
REMARK  status: ('A' for Active; 'I' for Inactive)
REMARK    1  A    between atoms: C2_2  and  C3_3 
REMARK    2  A    between atoms: C6_6  and  C7_7 
REMARK    3  A    between atoms: C7_7  and  N1_8 
REMARK    4  A    between atoms: C7_7  and  C12_19 
REMARK    5  A    between atoms: N1_8  and  S1_10 
REMARK    6  A    between atoms: S1_10  and  C8_13 
REMARK    7  A    between atoms: C10_15  and  C11_16 
REMARK       I    between atoms: C12_19  and  N2_21 
REMARK    8  A    between atoms: C14_23  and  C15_24 
REMARK    9  A    between atoms: C15_24  and  N3_26 
ROOT
HETATM    1  C7  UNL     1       7.530 -22.123  11.476  1.00  0.00     0.189 C 
ENDROOT
BRANCH   1   2
HETATM    2  C6  UNL     1       6.450 -21.232  10.848  1.00  0.00     0.018 C 
HETATM    3  C5  UNL     1       5.194 -21.963  10.514  1.00  0.00     0.007 C 
HETATM    4  C4  UNL     1       4.109 -21.854  11.565  1.00  0.00     0.005 C 
HETATM    5  C3  UNL     1       3.676 -20.409  11.737  1.00  0.00    -0.015 C 
HETATM    6  C22 UNL     1       4.826 -19.475  11.397  1.00  0.00     0.005 C 
HETATM    7  C21 UNL     1       6.073 -20.174  11.904  1.00  0.00     0.007 C 
BRANCH   5   8
HETATM    8  C2  UNL     1       2.519 -20.059  10.848  1.00  0.00     0.000 C 
HETATM    9  C1  UNL     1       2.593 -18.610  10.441  1.00  0.00     0.005 C 
ENDBRANCH   5   8
ENDBRANCH   1   2
BRANCH   1  10
HETATM   10  N1  UNL     1       7.842 -21.511  12.728  1.00  0.00    -0.305 N 
ATOM     11  H1  UNL     1       7.905 -20.498  12.824  1.00  0.00     0.173 HD
BRANCH  10  12
HETATM   12  S1  UNL     1       8.101 -22.539  14.045  1.00  0.00     0.232 S 
HETATM   13  O1  UNL     1       6.745 -22.940  14.609  1.00  0.00    -0.206 OA
HETATM   14  O2  UNL     1       8.834 -23.787  13.785  1.00  0.00    -0.206 OA
BRANCH  12  15
HETATM   15  C8  UNL     1       9.017 -21.620  15.282  1.00  0.00     0.144 A 
HETATM   16  C9  UNL     1       9.335 -22.334  16.517  1.00  0.00     0.039 A 
HETATM   17  C10 UNL     1       8.332 -21.177  16.521  1.00  0.00     0.108 A 
BRANCH  17  18
HETATM   18  C11 UNL     1       8.847 -19.940  17.141  1.00  0.00     0.178 C 
HETATM   19  O3  UNL     1       8.624 -18.843  16.593  1.00  0.00    -0.648 OA
HETATM   20  O4  UNL     1       9.563 -20.002  18.306  1.00  0.00    -0.648 OA
ENDBRANCH  17  18
ENDBRANCH  12  15
ENDBRANCH  10  12
ENDBRANCH   1  10
BRANCH   1  21
HETATM   21  C12 UNL     1       8.726 -21.946  10.560  1.00  0.00     0.244 C 
HETATM   22  O5  UNL     1       8.999 -20.783  10.157  1.00  0.00    -0.271 OA
HETATM   23  N2  UNL     1       9.541 -23.011  10.144  1.00  0.00    -0.342 N 
HETATM   24  C13 UNL     1       9.413 -24.395  10.536  1.00  0.00     0.161 C 
HETATM   25  C19 UNL     1      10.640 -22.729   9.219  1.00  0.00     0.108 C 
HETATM   26  C14 UNL     1       9.377 -25.319   9.351  1.00  0.00     0.233 C 
HETATM   27  N4  UNL     1      10.263 -24.898   8.294  1.00  0.00    -0.065 N 
HETATM   28  C18 UNL     1      11.300 -24.067   8.874  1.00  0.00     0.257 C 
ATOM     29  H42 UNL     1      10.639 -25.682   7.761  1.00  0.00     0.277 HD
ATOM     30  H41 UNL     1       9.770 -24.435   7.531  1.00  0.00     0.277 HD
HETATM   31  C20 UNL     1      10.087 -22.201   7.925  1.00  0.00     0.034 C 
BRANCH  26  32
HETATM   32  C15 UNL     1       9.751 -26.736   9.736  1.00  0.00     0.213 C 
HETATM   33  C16 UNL     1       8.523 -27.529  10.072  1.00  0.00     0.042 C 
BRANCH  32  34
HETATM   34  N3  UNL     1      10.688 -26.709  10.851  1.00  0.00    -0.073 N 
HETATM   35  C17 UNL     1      11.863 -27.450  10.509  1.00  0.00     0.267 C 
ATOM     36  H32 UNL     1      10.905 -25.758  11.147  1.00  0.00     0.277 HD
ATOM     37  H31 UNL     1      10.263 -27.040  11.718  1.00  0.00     0.277 HD
ENDBRANCH  32  34
ENDBRANCH  26  32
ENDBRANCH   1  21
TORSDOF 9
ENDMDL
MODEL 2
REMARK VINA RESULT: -6.794171083      8.221     11.458
REMARK  9 active torsions:
REMARK  status: ('A' for Active; 'I' for Inactive)
REMARK    1  A    between atoms: C2_2  and  C3_3 
REMARK    2  A    between atoms: C6_6  and  C7_7 
REMARK    3  A    between atoms: C7_7  and  N1_8 
REMARK    4  A    between atoms: C7_7  and  C12_19 
REMARK    5  A    between atoms: N1_8  and  S1_10 
REMARK    6  A    between atoms: S1_10  and  C8_13 
REMARK    7  A    between atoms: C10_15  and  C11_16 
REMARK       I    between atoms: C12_19  and  N2_21 
REMARK    8  A    between atoms: C14_23  and  C15_24 
REMARK    9  A    between atoms: C15_24  and  N3_26 
ROOT
HETATM    1  C7  UNL     1      -2.100 -22.115  12.173  1.00  0.00     0.189 C 
ENDROOT
BRANCH   1   2
HETATM    2  C6  UNL     1      -1.187 -21.236  11.307  1.00  0.00     0.018 C 
HETATM    3  C5  UNL     1      -1.441 -19.775  11.465  1.00  0.00     0.007 C 
HETATM    4  C4  UNL     1      -0.515 -19.081  12.443  1.00  0.00     0.005 C 
HETATM    5  C3  UNL     1       0.924 -19.170  11.969  1.00  0.00    -0.015 C 
HETATM    6  C22 UNL     1       1.123 -20.423  11.132  1.00  0.00     0.005 C 
HETATM    7  C21 UNL     1       0.258 -21.483  11.786  1.00  0.00     0.007 C 
BRANCH   5   8
HETATM    8  C2  UNL     1       1.313 -17.988  11.130  1.00  0.00     0.000 C 
HETATM    9  C1  UNL     1       2.624 -18.251  10.434  1.00  0.00     0.005 C 
ENDBRANCH   5   8
ENDBRANCH   1   2
BRANCH   1  10
HETATM   10  N1  UNL     1      -1.266 -22.600  13.226  1.00  0.00    -0.305 N 
ATOM     11  H1  UNL     1      -0.282 -22.814  13.070  1.00  0.00     0.173 HD
BRANCH  10  12
HETATM   12  S1  UNL     1      -1.984 -22.804  14.743  1.00  0.00     0.232 S 
HETATM   13  O1  UNL     1      -3.189 -21.877  14.828  1.00  0.00    -0.206 OA
HETATM   14  O2  UNL     1      -2.465 -24.151  15.080  1.00  0.00    -0.206 OA
BRANCH  12  15
HETATM   15  C8  UNL     1      -0.778 -22.333  15.983  1.00  0.00     0.144 A 
HETATM   16  C9  UNL     1       0.037 -21.158  15.681  1.00  0.00     0.039 A 
HETATM   17  C10 UNL     1       0.666 -22.553  15.722  1.00  0.00     0.108 A 
BRANCH  17  18
HETATM   18  C11 UNL     1       1.511 -22.795  16.907  1.00  0.00     0.178 C 
HETATM   19  O3  UNL     1       2.716 -23.073  16.752  1.00  0.00    -0.648 OA
HETATM   20  O4  UNL     1       0.972 -22.715  18.163  1.00  0.00    -0.648 OA
ENDBRANCH  17  18
ENDBRANCH  12  15
ENDBRANCH  10  12
ENDBRANCH   1  10
BRANCH   1  21
HETATM   21  C12 UNL     1      -2.439 -23.286  11.270  1.00  0.00     0.244 C 
HETATM   22  O5  UNL     1      -1.662 -24.279  11.267  1.00  0.00    -0.271 OA
HETATM   23  N2  UNL     1      -3.574 -23.317  10.443  1.00  0.00    -0.342 N 
HETATM   24  C13 UNL     1      -4.594 -22.301  10.347  1.00  0.00     0.161 C 
HETATM   25  C19 UNL     1      -3.774 -24.480   9.577  1.00  0.00     0.108 C 
HETATM   26  C14 UNL     1      -4.845 -21.883   8.924  1.00  0.00     0.233 C 
HETATM   27  N4  UNL     1      -4.771 -22.988   8.002  1.00  0.00    -0.065 N 
HETATM   28  C18 UNL     1      -5.026 -24.212   8.737  1.00  0.00     0.257 C 
ATOM     29  H42 UNL     1      -5.392 -22.874   7.201  1.00  0.00     0.277 HD
ATOM     30  H41 UNL     1      -3.889 -23.013   7.490  1.00  0.00     0.277 HD
HETATM   31  C20 UNL     1      -2.639 -24.582   8.598  1.00  0.00     0.034 C 
BRANCH  26  32
HETATM   32  C15 UNL     1      -6.204 -21.233   8.765  1.00  0.00     0.213 C 
HETATM   33  C16 UNL     1      -6.530 -21.050   7.312  1.00  0.00     0.042 C 
BRANCH  32  34
HETATM   34  N3  UNL     1      -6.226 -19.963   9.477  1.00  0.00    -0.073 N 
HETATM   35  C17 UNL     1      -7.501 -19.783  10.100  1.00  0.00     0.267 C 
ATOM     36  H32 UNL     1      -5.458 -19.883  10.143  1.00  0.00     0.277 HD
ATOM     37  H31 UNL     1      -5.979 -19.178   8.873  1.00  0.00     0.277 HD
ENDBRANCH  32  34
ENDBRANCH  26  32
ENDBRANCH   1  21
TORSDOF 9
ENDMDL
MODEL 3
REMARK VINA RESULT: -6.769216871      7.788     10.887
REMARK  9 active torsions:
REMARK  status: ('A' for Active; 'I' for Inactive)
REMARK    1  A    between atoms: C2_2  and  C3_3 
REMARK    2  A    between atoms: C6_6  and  C7_7 
REMARK    3  A    between atoms: C7_7  and  N1_8 
REMARK    4  A    between atoms: C7_7  and  C12_19 
REMARK    5  A    between atoms: N1_8  and  S1_10 
REMARK    6  A    between atoms: S1_10  and  C8_13 
REMARK    7  A    between atoms: C10_15  and  C11_16 
REMARK       I    between atoms: C12_19  and  N2_21 
REMARK    8  A    between atoms: C14_23  and  C15_24 
REMARK    9  A    between atoms: C15_24  and  N3_26 
ROOT
HETATM    1  C7  UNL     1      -1.171 -21.664  12.541  1.00  0.00     0.189 C 
ENDROOT
BRANCH   1   2
HETATM    2  C6  UNL     1      -0.345 -20.947  11.464  1.00  0.00     0.018 C 
HETATM    3  C5  UNL     1      -0.718 -19.515  11.282  1.00  0.00     0.007 C 
HETATM    4  C4  UNL     1       0.160 -18.539  12.039  1.00  0.00     0.005 C 
HETATM    5  C3  UNL     1       1.595 -18.626  11.554  1.00  0.00    -0.015 C 
HETATM    6  C22 UNL     1       1.887 -20.022  11.029  1.00  0.00     0.005 C 
HETATM    7  C21 UNL     1       1.121 -20.960  11.942  1.00  0.00     0.007 C 
BRANCH   5   8
HETATM    8  C2  UNL     1       1.874 -17.650  10.448  1.00  0.00     0.000 C 
HETATM    9  C1  UNL     1       1.174 -16.343  10.715  1.00  0.00     0.005 C 
ENDBRANCH   5   8
ENDBRANCH   1   2
BRANCH   1  10
HETATM   10  N1  UNL     1      -0.254 -21.930  13.603  1.00  0.00    -0.305 N 
ATOM     11  H1  UNL     1       0.722 -22.156  13.419  1.00  0.00     0.173 HD
BRANCH  10  12
HETATM   12  S1  UNL     1      -0.860 -21.852  15.180  1.00  0.00     0.232 S 
HETATM   13  O1  UNL     1      -0.728 -20.417  15.671  1.00  0.00    -0.206 OA
HETATM   14  O2  UNL     1      -2.266 -22.236  15.376  1.00  0.00    -0.206 OA
BRANCH  12  15
HETATM   15  C8  UNL     1       0.143 -22.930  16.202  1.00  0.00     0.144 A 
HETATM   16  C9  UNL     1       0.581 -22.384  17.485  1.00  0.00     0.039 A 
HETATM   17  C10 UNL     1       1.591 -22.647  16.365  1.00  0.00     0.108 A 
BRANCH  17  18
HETATM   18  C11 UNL     1       2.459 -23.816  16.602  1.00  0.00     0.178 C 
HETATM   19  O3  UNL     1       3.584 -23.649  17.113  1.00  0.00    -0.648 OA
HETATM   20  O4  UNL     1       2.030 -25.071  16.262  1.00  0.00    -0.648 OA
ENDBRANCH  17  18
ENDBRANCH  12  15
ENDBRANCH  10  12
ENDBRANCH   1  10
BRANCH   1  21
HETATM   21  C12 UNL     1      -1.536 -22.989  11.898  1.00  0.00     0.244 C 
HETATM   22  O5  UNL     1      -0.696 -23.927  11.953  1.00  0.00    -0.271 OA
HETATM   23  N2  UNL     1      -2.760 -23.218  11.249  1.00  0.00    -0.342 N 
HETATM   24  C13 UNL     1      -3.854 -22.285  11.125  1.00  0.00     0.161 C 
HETATM   25  C19 UNL     1      -2.983 -24.521  10.621  1.00  0.00     0.108 C 
HETATM   26  C14 UNL     1      -4.311 -22.132   9.701  1.00  0.00     0.233 C 
HETATM   27  N4  UNL     1      -4.273 -23.375   8.972  1.00  0.00    -0.065 N 
HETATM   28  C18 UNL     1      -4.346 -24.464   9.925  1.00  0.00     0.257 C 
ATOM     29  H42 UNL     1      -4.997 -23.431   8.254  1.00  0.00     0.277 HD
ATOM     30  H41 UNL     1      -3.463 -23.444   8.357  1.00  0.00     0.277 HD
HETATM   31  C20 UNL     1      -1.975 -24.734   9.527  1.00  0.00     0.034 C 
BRANCH  26  32
HETATM   32  C15 UNL     1      -5.722 -21.587   9.622  1.00  0.00     0.213 C 
HETATM   33  C16 UNL     1      -5.975 -20.981   8.274  1.00  0.00     0.042 C 
BRANCH  32  34
HETATM   34  N3  UNL     1      -5.933 -20.618  10.688  1.00  0.00    -0.073 N 
HETATM   35  C17 UNL     1      -7.278 -20.133  10.639  1.00  0.00     0.267 C 
ATOM     36  H32 UNL     1      -5.694 -20.996  11.604  1.00  0.00     0.277 HD
ATOM     37  H31 UNL     1      -5.250 -19.860  10.660  1.00  0.00     0.277 HD
ENDBRANCH  32  34
ENDBRANCH  26  32
ENDBRANCH   1  21
TORSDOF 9
ENDMDL
MODEL 4
REMARK VINA RESULT: -6.763250372      8.205     12.187
REMARK  9 active torsions:
REMARK  status: ('A' for Active; 'I' for Inactive)
REMARK    1  A    between atoms: C2_2  and  C3_3 
REMARK    2  A    between atoms: C6_6  and  C7_7 
REMARK    3  A    between atoms: C7_7  and  N1_8 
REMARK    4  A    between atoms: C7_7  and  C12_19 
REMARK    5  A    between atoms: N1_8  and  S1_10 
REMARK    6  A    between atoms: S1_10  and  C8_13 
REMARK    7  A    between atoms: C10_15  and  C11_16 
REMARK       I    between atoms: C12_19  and  N2_21 
REMARK    8  A    between atoms: C14_23  and  C15_24 
REMARK    9  A    between atoms: C15_24  and  N3_26 
ROOT
HETATM    1  C7  UNL     1      -2.311 -21.677  12.260  1.00  0.00     0.189 C 
ENDROOT
BRANCH   1   2
HETATM    2  C6  UNL     1      -1.312 -20.938  11.357  1.00  0.00     0.018 C 
HETATM    3  C5  UNL     1      -1.372 -19.455  11.492  1.00  0.00     0.007 C 
HETATM    4  C4  UNL     1      -0.341 -18.870  12.436  1.00  0.00     0.005 C 
HETATM    5  C3  UNL     1       1.063 -19.153  11.933  1.00  0.00    -0.015 C 
HETATM    6  C22 UNL     1       1.078 -20.435  11.117  1.00  0.00     0.005 C 
HETATM    7  C21 UNL     1       0.099 -21.362  11.811  1.00  0.00     0.007 C 
BRANCH   5   8
HETATM    8  C2  UNL     1       1.581 -18.046  11.062  1.00  0.00     0.000 C 
HETATM    9  C1  UNL     1       3.036 -18.272  10.740  1.00  0.00     0.005 C 
ENDBRANCH   5   8
ENDBRANCH   1   2
BRANCH   1  10
HETATM   10  N1  UNL     1      -1.511 -22.493  13.117  1.00  0.00    -0.305 N 
ATOM     11  H1  UNL     1      -0.623 -22.883  12.803  1.00  0.00     0.173 HD
BRANCH  10  12
HETATM   12  S1  UNL     1      -2.102 -22.784  14.674  1.00  0.00     0.232 S 
HETATM   13  O1  UNL     1      -3.363 -21.953  14.867  1.00  0.00    -0.206 OA
HETATM   14  O2  UNL     1      -2.456 -24.171  15.007  1.00  0.00    -0.206 OA
BRANCH  12  15
HETATM   15  C8  UNL     1      -0.849 -22.249  15.840  1.00  0.00     0.144 A 
HETATM   16  C9  UNL     1       0.034 -21.172  15.395  1.00  0.00     0.039 A 
HETATM   17  C10 UNL     1       0.574 -22.591  15.594  1.00  0.00     0.108 A 
BRANCH  17  18
HETATM   18  C11 UNL     1       1.421 -22.747  16.792  1.00  0.00     0.178 C 
HETATM   19  O3  UNL     1       2.635 -22.995  16.654  1.00  0.00    -0.648 OA
HETATM   20  O4  UNL     1       0.875 -22.620  18.041  1.00  0.00    -0.648 OA
ENDBRANCH  17  18
ENDBRANCH  12  15
ENDBRANCH  10  12
ENDBRANCH   1  10
BRANCH   1  21
HETATM   21  C12 UNL     1      -3.055 -22.592  11.307  1.00  0.00     0.244 C 
HETATM   22  O5  UNL     1      -2.378 -23.303  10.515  1.00  0.00    -0.271 OA
HETATM   23  N2  UNL     1      -4.455 -22.687  11.266  1.00  0.00    -0.342 N 
HETATM   24  C13 UNL     1      -5.388 -21.990  12.120  1.00  0.00     0.161 C 
HETATM   25  C19 UNL     1      -5.066 -23.568  10.270  1.00  0.00     0.108 C 
HETATM   26  C14 UNL     1      -6.448 -21.270  11.333  1.00  0.00     0.233 C 
HETATM   27  N4  UNL     1      -6.873 -22.010  10.172  1.00  0.00    -0.065 N 
HETATM   28  C18 UNL     1      -6.585 -23.413  10.395  1.00  0.00     0.257 C 
ATOM     29  H42 UNL     1      -7.851 -21.842   9.935  1.00  0.00     0.277 HD
ATOM     30  H41 UNL     1      -6.460 -21.656   9.309  1.00  0.00     0.277 HD
HETATM   31  C20 UNL     1      -4.720 -23.086   8.889  1.00  0.00     0.034 C 
BRANCH  26  32
HETATM   32  C15 UNL     1      -7.672 -20.983  12.178  1.00  0.00     0.213 C 
HETATM   33  C16 UNL     1      -8.216 -19.620  11.867  1.00  0.00     0.042 C 
BRANCH  32  34
HETATM   34  N3  UNL     1      -7.335 -21.111  13.589  1.00  0.00    -0.073 N 
HETATM   35  C17 UNL     1      -8.347 -21.868  14.259  1.00  0.00     0.267 C 
ATOM     36  H32 UNL     1      -6.405 -21.506  13.727  1.00  0.00     0.277 HD
ATOM     37  H31 UNL     1      -7.177 -20.205  14.030  1.00  0.00     0.277 HD
ENDBRANCH  32  34
ENDBRANCH  26  32
ENDBRANCH   1  21
TORSDOF 9
ENDMDL
MODEL 5
REMARK VINA RESULT: -6.756204475      6.963     10.403
REMARK  9 active torsions:
REMARK  status: ('A' for Active; 'I' for Inactive)
REMARK    1  A    between atoms: C2_2  and  C3_3 
REMARK    2  A    between atoms: C6_6  and  C7_7 
REMARK    3  A    between atoms: C7_7  and  N1_8 
REMARK    4  A    between atoms: C7_7  and  C12_19 
REMARK    5  A    between atoms: N1_8  and  S1_10 
REMARK    6  A    between atoms: S1_10  and  C8_13 
REMARK    7  A    between atoms: C10_15  and  C11_16 
REMARK       I    between atoms: C12_19  and  N2_21 
REMARK    8  A    between atoms: C14_23  and  C15_24 
REMARK    9  A    between atoms: C15_24  and  N3_26 
ROOT
HETATM    1  C7  UNL     1      -0.710 -21.151  12.551  1.00  0.00     0.189 C 
ENDROOT
BRANCH   1   2
HETATM    2  C6  UNL     1       0.344 -20.036  12.607  1.00  0.00     0.018 C 
HETATM    3  C5  UNL     1       1.702 -20.477  12.178  1.00  0.00     0.007 C 
HETATM    4  C4  UNL     1       2.031 -20.170  10.732  1.00  0.00     0.005 C 
HETATM    5  C3  UNL     1       2.021 -18.672  10.488  1.00  0.00    -0.015 C 
HETATM    6  C22 UNL     1       1.065 -17.992  11.454  1.00  0.00     0.005 C 
HETATM    7  C21 UNL     1      -0.101 -18.951  11.605  1.00  0.00     0.007 C 
BRANCH   5   8
HETATM    8  C2  UNL     1       3.379 -18.063  10.679  1.00  0.00     0.000 C 
HETATM    9  C1  UNL     1       4.453 -19.079  10.386  1.00  0.00     0.005 C 
ENDBRANCH   5   8
ENDBRANCH   1   2
BRANCH   1  10
HETATM   10  N1  UNL     1      -1.948 -20.486  12.296  1.00  0.00    -0.305 N 
ATOM     11  H1  UNL     1      -2.136 -19.553  12.660  1.00  0.00     0.173 HD
BRANCH  10  12
HETATM   12  S1  UNL     1      -3.088 -21.316  11.362  1.00  0.00     0.232 S 
HETATM   13  O1  UNL     1      -3.733 -20.323  10.405  1.00  0.00    -0.206 OA
HETATM   14  O2  UNL     1      -2.596 -22.432  10.542  1.00  0.00    -0.206 OA
BRANCH  12  15
HETATM   15  C8  UNL     1      -4.332 -21.969  12.476  1.00  0.00     0.144 A 
HETATM   16  C9  UNL     1      -5.561 -22.463  11.858  1.00  0.00     0.039 A 
HETATM   17  C10 UNL     1      -5.576 -21.198  12.719  1.00  0.00     0.108 A 
BRANCH  17  18
HETATM   18  C11 UNL     1      -6.205 -21.380  14.041  1.00  0.00     0.178 C 
HETATM   19  O3  UNL     1      -5.484 -21.470  15.054  1.00  0.00    -0.648 OA
HETATM   20  O4  UNL     1      -7.568 -21.450  14.149  1.00  0.00    -0.648 OA
ENDBRANCH  17  18
ENDBRANCH  12  15
ENDBRANCH  10  12
ENDBRANCH   1  10
BRANCH   1  21
HETATM   21  C12 UNL     1      -0.752 -21.683  13.972  1.00  0.00     0.244 C 
HETATM   22  O5  UNL     1      -1.600 -21.194  14.765  1.00  0.00    -0.271 OA
HETATM   23  N2  UNL     1       0.105 -22.691  14.441  1.00  0.00    -0.342 N 
HETATM   24  C13 UNL     1       1.103 -23.398  13.672  1.00  0.00     0.161 C 
HETATM   25  C19 UNL     1       0.008 -23.091  15.845  1.00  0.00     0.108 C 
HETATM   26  C14 UNL     1       2.451 -23.378  14.338  1.00  0.00     0.233 C 
HETATM   27  N4  UNL     1       2.360 -23.494  15.772  1.00  0.00    -0.065 N 
HETATM   28  C18 UNL     1       1.102 -24.134  16.099  1.00  0.00     0.257 C 
ATOM     29  H42 UNL     1       3.163 -23.975  16.179  1.00  0.00     0.277 HD
ATOM     30  H41 UNL     1       2.481 -22.599  16.246  1.00  0.00     0.277 HD
HETATM   31  C20 UNL     1       0.345 -21.923  16.728  1.00  0.00     0.034 C 
BRANCH  26  32
HETATM   32  C15 UNL     1       3.339 -24.497  13.835  1.00  0.00     0.213 C 
HETATM   33  C16 UNL     1       4.460 -24.750  14.799  1.00  0.00     0.042 C 
BRANCH  32  34
HETATM   34  N3  UNL     1       3.842 -24.164  12.510  1.00  0.00    -0.073 N 
HETATM   35  C17 UNL     1       4.543 -22.919  12.560  1.00  0.00     0.267 C 
ATOM     36  H32 UNL     1       4.414 -24.912  12.117  1.00  0.00     0.277 HD
ATOM     37  H31 UNL     1       3.102 -24.162  11.807  1.00  0.00     0.277 HD
ENDBRANCH  32  34
ENDBRANCH  26  32
ENDBRANCH   1  21
TORSDOF 9
ENDMDL
