MODEL 1
REMARK VINA RESULT: -7.296906067      0.000      0.000
REMARK  11 active torsions:
REMARK  status: ('A' for Active; 'I' for Inactive)
REMARK    1  A    between atoms: C2_2  and  C4_4 
REMARK    2  A    between atoms: C4_4  and  C5_5 
REMARK    3  A    between atoms: C5_5  and  N1_6 
REMARK    4  A    between atoms: C5_5  and  C11_15 
REMARK       I    between atoms: N1_6  and  C6_8 
REMARK    5  A    between atoms: C6_8  and  O2_10 
REMARK    6  A    between atoms: O2_10  and  C7_11 
REMARK       I    between atoms: C11_15  and  N2_17 
REMARK    7  A    between atoms: N2_17  and  C12_19 
REMARK    8  A    between atoms: C12_19  and  C13_20 
REMARK    9  A    between atoms: C12_19  and  C22_32 
REMARK       I    between atoms: C13_20  and  N3_22 
REMARK   10  A    between atoms: N3_22  and  C14_24 
REMARK   11  A    between atoms: C22_32  and  C23_34 
ROOT
HETATM    1  C11 UNL     1       3.922 -18.710  10.399  1.00  0.00     0.241 C 
HETATM    2  O3  UNL     1       4.383 -18.404  11.550  1.00  0.00    -0.271 OA
HETATM    3  N2  UNL     1       2.531 -18.860  10.319  1.00  0.00    -0.339 N 
ATOM      4  H2  UNL     1       2.125 -19.112   9.418  1.00  0.00     0.163 HD
ENDROOT
BRANCH   3   5
HETATM    5  C12 UNL     1       1.629 -18.674  11.459  1.00  0.00     0.256 C 
BRANCH   5   6
HETATM    6  C13 UNL     1       0.887 -19.938  11.716  1.00  0.00     0.249 C 
HETATM    7  O4  UNL     1       0.793 -20.757  10.771  1.00  0.00    -0.271 OA
HETATM    8  N3  UNL     1       0.320 -20.205  12.950  1.00  0.00    -0.349 N 
ATOM      9  H3  UNL     1       0.439 -19.492  13.670  1.00  0.00     0.163 HD
BRANCH   8  10
HETATM   10  C14 UNL     1      -0.420 -21.381  13.327  1.00  0.00     0.037 C 
HETATM   11  C15 UNL     1       0.282 -22.711  13.151  1.00  0.00     0.036 C 
HETATM   12  C16 UNL     1      -0.883 -23.641  12.953  1.00  0.00    -0.011 C 
HETATM   13  C17 UNL     1      -1.757 -23.576  14.183  1.00  0.00     0.010 C 
HETATM   14  C21 UNL     1      -1.755 -22.811  12.003  1.00  0.00     0.012 C 
HETATM   15  C18 UNL     1      -2.169 -22.105  14.185  1.00  0.00    -0.005 C 
HETATM   16  C19 UNL     1      -1.015 -21.297  14.746  1.00  0.00     0.036 C 
HETATM   17  C20 UNL     1      -1.804 -21.553  12.828  1.00  0.00     0.018 C 
ENDBRANCH   8  10
ENDBRANCH   5   6
BRANCH   5  18
HETATM   18  C22 UNL     1       0.685 -17.622  11.040  1.00  0.00     0.245 C 
HETATM   19  O5  UNL     1      -0.542 -17.834  11.113  1.00  0.00    -0.285 OA
BRANCH  18  20
HETATM   20  C23 UNL     1       1.163 -16.356  10.544  1.00  0.00     0.303 C 
HETATM   21  N4  UNL     1       1.803 -16.256   9.272  1.00  0.00    -0.054 NA
HETATM   22  O6  UNL     1       1.040 -15.296  11.200  1.00  0.00    -0.268 OA
ENDBRANCH  18  20
ENDBRANCH   5  18
ENDBRANCH   3   5
BRANCH   1  23
HETATM   23  C5  UNL     1       4.869 -18.876   9.288  1.00  0.00     0.179 C 
BRANCH  23  24
HETATM   24  C4  UNL     1       5.256 -17.587   8.598  1.00  0.00     0.038 C 
BRANCH  24  25
HETATM   25  C2  UNL     1       5.066 -17.538   7.133  1.00  0.00    -0.020 C 
HETATM   26  C1  UNL     1       5.357 -16.078   6.708  1.00  0.00     0.009 C 
HETATM   27  C3  UNL     1       6.071 -18.378   6.367  1.00  0.00     0.009 C 
ENDBRANCH  24  25
ENDBRANCH  23  24
BRANCH  23  28
HETATM   28  N1  UNL     1       6.152 -19.341   9.875  1.00  0.00    -0.324 N 
HETATM   29  C6  UNL     1       6.466 -20.736   9.855  1.00  0.00     0.362 C 
HETATM   30  O1  UNL     1       5.646 -21.539   9.338  1.00  0.00    -0.238 OA
ATOM     31  H1  UNL     1       6.802 -18.673  10.288  1.00  0.00     0.165 HD
BRANCH  29  32
HETATM   32  O2  UNL     1       7.632 -21.243  10.377  1.00  0.00    -0.294 OA
BRANCH  32  33
HETATM   33  C7  UNL     1       7.677 -22.043  11.548  1.00  0.00     0.061 C 
HETATM   34  C8  UNL     1       9.075 -21.954  12.107  1.00  0.00     0.046 C 
HETATM   35  C9  UNL     1       6.695 -21.590  12.600  1.00  0.00     0.046 C 
HETATM   36  C10 UNL     1       7.398 -23.498  11.224  1.00  0.00     0.046 C 
ENDBRANCH  32  33
ENDBRANCH  29  32
ENDBRANCH  23  28
ENDBRANCH   1  23
TORSDOF 11
ENDMDL
MODEL 2
REMARK VINA RESULT: -7.237218562      2.335      8.565
REMARK  11 active torsions:
REMARK  status: ('A' for Active; 'I' for Inactive)
REMARK    1  A    between atoms: C2_2  and  C4_4 
REMARK    2  A    between atoms: C4_4  and  C5_5 
REMARK    3  A    between atoms: C5_5  and  N1_6 
REMARK    4  A    between atoms: C5_5  and  C11_15 
REMARK       I    between atoms: N1_6  and  C6_8 
REMARK    5  A    between atoms: C6_8  and  O2_10 
REMARK    6  A    between atoms: O2_10  and  C7_11 
REMARK       I    between atoms: C11_15  and  N2_17 
REMARK    7  A    between atoms: N2_17  and  C12_19 
REMARK    8  A    between atoms: C12_19  and  C13_20 
REMARK    9  A    between atoms: C12_19  and  C22_32 
REMARK       I    between atoms: C13_20  and  N3_22 
REMARK   10  A    between atoms: N3_22  and  C14_24 
REMARK   11  A    between atoms: C22_32  and  C23_34 
ROOT
HETATM    1  C11 UNL     1       0.174 -20.761  11.989  1.00  0.00     0.241 C 
HETATM    2  O3  UNL     1       0.054 -21.442  10.916  1.00  0.00    -0.271 OA
HETATM    3  N2  UNL     1       1.205 -19.811  11.996  1.00  0.00    -0.339 N 
ATOM      4  H2  UNL     1       1.339 -19.252  12.839  1.00  0.00     0.163 HD
ENDROOT
BRANCH   3   5
HETATM    5  C12 UNL     1       2.100 -19.578  10.860  1.00  0.00     0.256 C 
BRANCH   5   6
HETATM    6  C13 UNL     1       3.343 -20.377  11.035  1.00  0.00     0.249 C 
HETATM    7  O4  UNL     1       3.454 -21.053  12.085  1.00  0.00    -0.271 OA
HETATM    8  N3  UNL     1       4.343 -20.378  10.078  1.00  0.00    -0.349 N 
ATOM      9  H3  UNL     1       4.181 -19.804   9.250  1.00  0.00     0.163 HD
BRANCH   8  10
HETATM   10  C14 UNL     1       5.587 -21.101  10.125  1.00  0.00     0.037 C 
HETATM   11  C15 UNL     1       6.399 -21.142   8.848  1.00  0.00     0.036 C 
HETATM   12  C16 UNL     1       7.155 -22.432   9.013  1.00  0.00    -0.011 C 
HETATM   13  C17 UNL     1       7.997 -22.329  10.263  1.00  0.00     0.010 C 
HETATM   14  C21 UNL     1       6.048 -23.346   9.553  1.00  0.00     0.012 C 
HETATM   15  C18 UNL     1       6.928 -22.129  11.335  1.00  0.00    -0.005 C 
HETATM   16  C19 UNL     1       6.493 -20.677  11.297  1.00  0.00     0.036 C 
HETATM   17  C20 UNL     1       5.604 -22.469  10.693  1.00  0.00     0.018 C 
ENDBRANCH   8  10
ENDBRANCH   5   6
BRANCH   5  18
HETATM   18  C22 UNL     1       2.424 -18.140  10.908  1.00  0.00     0.245 C 
HETATM   19  O5  UNL     1       3.612 -17.784  11.040  1.00  0.00    -0.285 OA
BRANCH  18  20
HETATM   20  C23 UNL     1       1.386 -17.146  10.810  1.00  0.00     0.303 C 
HETATM   21  N4  UNL     1       1.489 -16.061   9.888  1.00  0.00    -0.054 NA
HETATM   22  O6  UNL     1       0.355 -17.189  11.520  1.00  0.00    -0.268 OA
ENDBRANCH  18  20
ENDBRANCH   5  18
ENDBRANCH   3   5
BRANCH   1  23
HETATM   23  C5  UNL     1      -0.755 -21.028  13.096  1.00  0.00     0.179 C 
BRANCH  23  24
HETATM   24  C4  UNL     1      -0.504 -20.200  14.336  1.00  0.00     0.038 C 
BRANCH  24  25
HETATM   25  C2  UNL     1      -0.947 -20.781  15.621  1.00  0.00    -0.020 C 
HETATM   26  C1  UNL     1      -0.470 -22.254  15.618  1.00  0.00     0.009 C 
HETATM   27  C3  UNL     1      -0.276 -20.153  16.828  1.00  0.00     0.009 C 
ENDBRANCH  24  25
ENDBRANCH  23  24
BRANCH  23  28
HETATM   28  N1  UNL     1      -2.099 -20.574  12.655  1.00  0.00    -0.324 N 
HETATM   29  C6  UNL     1      -3.110 -21.547  12.376  1.00  0.00     0.362 C 
HETATM   30  O1  UNL     1      -2.835 -22.768  12.512  1.00  0.00    -0.238 OA
ATOM     31  H1  UNL     1      -2.299 -19.579  12.552  1.00  0.00     0.165 HD
BRANCH  29  32
HETATM   32  O2  UNL     1      -4.376 -21.206  11.966  1.00  0.00    -0.294 OA
BRANCH  32  33
HETATM   33  C7  UNL     1      -5.534 -21.422  12.756  1.00  0.00     0.061 C 
HETATM   34  C8  UNL     1      -6.156 -22.720  12.306  1.00  0.00     0.046 C 
HETATM   35  C9  UNL     1      -5.225 -21.508  14.230  1.00  0.00     0.046 C 
HETATM   36  C10 UNL     1      -6.553 -20.320  12.541  1.00  0.00     0.046 C 
ENDBRANCH  32  33
ENDBRANCH  29  32
ENDBRANCH  23  28
ENDBRANCH   1  23
TORSDOF 11
ENDMDL
MODEL 3
REMARK VINA RESULT: -6.803879195      2.420      7.196
REMARK  11 active torsions:
REMARK  status: ('A' for Active; 'I' for Inactive)
REMARK    1  A    between atoms: C2_2  and  C4_4 
REMARK    2  A    between atoms: C4_4  and  C5_5 
REMARK    3  A    between atoms: C5_5  and  N1_6 
REMARK    4  A    between atoms: C5_5  and  C11_15 
REMARK       I    between atoms: N1_6  and  C6_8 
REMARK    5  A    between atoms: C6_8  and  O2_10 
REMARK    6  A    between atoms: O2_10  and  C7_11 
REMARK       I    between atoms: C11_15  and  N2_17 
REMARK    7  A    between atoms: N2_17  and  C12_19 
REMARK    8  A    between atoms: C12_19  and  C13_20 
REMARK    9  A    between atoms: C12_19  and  C22_32 
REMARK       I    between atoms: C13_20  and  N3_22 
REMARK   10  A    between atoms: N3_22  and  C14_24 
REMARK   11  A    between atoms: C22_32  and  C23_34 
ROOT
HETATM    1  C11 UNL     1      -0.150 -20.273  11.516  1.00  0.00     0.241 C 
HETATM    2  O3  UNL     1      -0.024 -21.187  10.632  1.00  0.00    -0.271 OA
HETATM    3  N2  UNL     1       0.869 -19.312  11.549  1.00  0.00    -0.339 N 
ATOM      4  H2  UNL     1       0.808 -18.569  12.246  1.00  0.00     0.163 HD
ENDROOT
BRANCH   3   5
HETATM    5  C12 UNL     1       2.016 -19.314  10.637  1.00  0.00     0.256 C 
BRANCH   5   6
HETATM    6  C13 UNL     1       3.048 -20.262  11.139  1.00  0.00     0.249 C 
HETATM    7  O4  UNL     1       2.818 -20.847  12.225  1.00  0.00    -0.271 OA
HETATM    8  N3  UNL     1       4.219 -20.493  10.439  1.00  0.00    -0.349 N 
ATOM      9  H3  UNL     1       4.334 -19.981   9.564  1.00  0.00     0.163 HD
BRANCH   8  10
HETATM   10  C14 UNL     1       5.291 -21.378  10.812  1.00  0.00     0.037 C 
HETATM   11  C15 UNL     1       6.213 -21.835   9.702  1.00  0.00     0.036 C 
HETATM   12  C16 UNL     1       6.690 -23.159  10.233  1.00  0.00    -0.011 C 
HETATM   13  C17 UNL     1       7.397 -22.916  11.546  1.00  0.00     0.010 C 
HETATM   14  C21 UNL     1       5.379 -23.738  10.779  1.00  0.00     0.012 C 
HETATM   15  C18 UNL     1       6.275 -22.310  12.388  1.00  0.00    -0.005 C 
HETATM   16  C19 UNL     1       6.129 -20.853  11.994  1.00  0.00     0.036 C 
HETATM   17  C20 UNL     1       4.988 -22.568  11.641  1.00  0.00     0.018 C 
ENDBRANCH   8  10
ENDBRANCH   5   6
BRANCH   5  18
HETATM   18  C22 UNL     1       2.546 -17.938  10.676  1.00  0.00     0.245 C 
HETATM   19  O5  UNL     1       3.765 -17.757  10.864  1.00  0.00    -0.285 OA
BRANCH  18  20
HETATM   20  C23 UNL     1       1.672 -16.806  10.503  1.00  0.00     0.303 C 
HETATM   21  N4  UNL     1       1.789 -15.951   9.364  1.00  0.00    -0.054 NA
HETATM   22  O6  UNL     1       0.778 -16.523  11.333  1.00  0.00    -0.268 OA
ENDBRANCH  18  20
ENDBRANCH   5  18
ENDBRANCH   3   5
BRANCH   1  23
HETATM   23  C5  UNL     1      -1.323 -20.313  12.399  1.00  0.00     0.179 C 
BRANCH  23  24
HETATM   24  C4  UNL     1      -2.646 -20.437  11.677  1.00  0.00     0.038 C 
BRANCH  24  25
HETATM   25  C2  UNL     1      -3.350 -21.731  11.803  1.00  0.00    -0.020 C 
HETATM   26  C1  UNL     1      -4.793 -21.396  12.255  1.00  0.00     0.009 C 
HETATM   27  C3  UNL     1      -3.510 -22.459  10.482  1.00  0.00     0.009 C 
ENDBRANCH  24  25
ENDBRANCH  23  24
BRANCH  23  28
HETATM   28  N1  UNL     1      -1.242 -21.578  13.174  1.00  0.00    -0.324 N 
HETATM   29  C6  UNL     1      -0.835 -21.535  14.544  1.00  0.00     0.362 C 
HETATM   30  O1  UNL     1      -0.554 -20.423  15.063  1.00  0.00    -0.238 OA
ATOM     31  H1  UNL     1      -1.475 -22.468  12.733  1.00  0.00     0.165 HD
BRANCH  29  32
HETATM   32  O2  UNL     1      -0.737 -22.661  15.326  1.00  0.00    -0.294 OA
BRANCH  32  33
HETATM   33  C7  UNL     1       0.498 -23.283  15.643  1.00  0.00     0.061 C 
HETATM   34  C8  UNL     1       0.215 -24.736  15.931  1.00  0.00     0.046 C 
HETATM   35  C9  UNL     1       1.502 -23.188  14.521  1.00  0.00     0.046 C 
HETATM   36  C10 UNL     1       1.110 -22.673  16.889  1.00  0.00     0.046 C 
ENDBRANCH  32  33
ENDBRANCH  29  32
ENDBRANCH  23  28
ENDBRANCH   1  23
TORSDOF 11
ENDMDL
MODEL 4
REMARK VINA RESULT: -6.711259615      2.329      8.007
REMARK  11 active torsions:
REMARK  status: ('A' for Active; 'I' for Inactive)
REMARK    1  A    between atoms: C2_2  and  C4_4 
REMARK    2  A    between atoms: C4_4  and  C5_5 
REMARK    3  A    between atoms: C5_5  and  N1_6 
REMARK    4  A    between atoms: C5_5  and  C11_15 
REMARK       I    between atoms: N1_6  and  C6_8 
REMARK    5  A    between atoms: C6_8  and  O2_10 
REMARK    6  A    between atoms: O2_10  and  C7_11 
REMARK       I    between atoms: C11_15  and  N2_17 
REMARK    7  A    between atoms: N2_17  and  C12_19 
REMARK    8  A    between atoms: C12_19  and  C13_20 
REMARK    9  A    between atoms: C12_19  and  C22_32 
REMARK       I    between atoms: C13_20  and  N3_22 
REMARK   10  A    between atoms: N3_22  and  C14_24 
REMARK   11  A    between atoms: C22_32  and  C23_34 
ROOT
HETATM    1  C11 UNL     1       4.211 -18.362  10.571  1.00  0.00     0.241 C 
HETATM    2  O3  UNL     1       4.839 -17.786  11.522  1.00  0.00    -0.271 OA
HETATM    3  N2  UNL     1       4.598 -19.679  10.292  1.00  0.00    -0.339 N 
ATOM      4  H2  UNL     1       4.126 -20.171   9.534  1.00  0.00     0.163 HD
ENDROOT
BRANCH   3   5
HETATM    5  C12 UNL     1       5.646 -20.389  11.031  1.00  0.00     0.256 C 
BRANCH   5   6
HETATM    6  C13 UNL     1       6.489 -21.162  10.079  1.00  0.00     0.249 C 
HETATM    7  O4  UNL     1       5.938 -21.596   9.039  1.00  0.00    -0.271 OA
HETATM    8  N3  UNL     1       7.830 -21.396  10.326  1.00  0.00    -0.349 N 
ATOM      9  H3  UNL     1       8.208 -21.010  11.192  1.00  0.00     0.163 HD
BRANCH   8  10
HETATM   10  C14 UNL     1       8.751 -22.124   9.492  1.00  0.00     0.037 C 
HETATM   11  C15 UNL     1       8.492 -23.607   9.328  1.00  0.00     0.036 C 
HETATM   12  C16 UNL     1       9.876 -24.125   9.053  1.00  0.00    -0.011 C 
HETATM   13  C17 UNL     1      10.392 -23.459   7.800  1.00  0.00     0.010 C 
HETATM   14  C21 UNL     1      10.688 -23.337  10.088  1.00  0.00     0.012 C 
HETATM   15  C18 UNL     1      10.382 -21.987   8.212  1.00  0.00    -0.005 C 
HETATM   16  C19 UNL     1       8.957 -21.481   8.107  1.00  0.00     0.036 C 
HETATM   17  C20 UNL     1      10.207 -21.961   9.712  1.00  0.00     0.018 C 
ENDBRANCH   8  10
ENDBRANCH   5   6
BRANCH   5  18
HETATM   18  C22 UNL     1       4.930 -21.318  11.925  1.00  0.00     0.245 C 
HETATM   19  O5  UNL     1       3.687 -21.396  11.859  1.00  0.00    -0.285 OA
BRANCH  18  20
HETATM   20  C23 UNL     1       5.648 -22.129  12.875  1.00  0.00     0.303 C 
HETATM   21  N4  UNL     1       5.091 -23.345  13.376  1.00  0.00    -0.054 NA
HETATM   22  O6  UNL     1       6.782 -21.810  13.299  1.00  0.00    -0.268 OA
ENDBRANCH  18  20
ENDBRANCH   5  18
ENDBRANCH   3   5
BRANCH   1  23
HETATM   23  C5  UNL     1       3.164 -17.608   9.868  1.00  0.00     0.179 C 
BRANCH  23  24
HETATM   24  C4  UNL     1       3.278 -17.636   8.361  1.00  0.00     0.038 C 
BRANCH  24  25
HETATM   25  C2  UNL     1       3.885 -16.449   7.721  1.00  0.00    -0.020 C 
HETATM   26  C1  UNL     1       5.240 -16.918   7.137  1.00  0.00     0.009 C 
HETATM   27  C3  UNL     1       3.097 -15.942   6.527  1.00  0.00     0.009 C 
ENDBRANCH  24  25
ENDBRANCH  23  24
BRANCH  23  28
HETATM   28  N1  UNL     1       1.878 -18.310  10.121  1.00  0.00    -0.324 N 
HETATM   29  C6  UNL     1       0.872 -17.666  10.907  1.00  0.00     0.362 C 
HETATM   30  O1  UNL     1       1.099 -16.516  11.367  1.00  0.00    -0.238 OA
ATOM     31  H1  UNL     1       1.716 -19.241   9.737  1.00  0.00     0.165 HD
BRANCH  29  32
HETATM   32  O2  UNL     1      -0.341 -18.249  11.182  1.00  0.00    -0.294 OA
BRANCH  32  33
HETATM   33  C7  UNL     1      -0.471 -19.551  11.732  1.00  0.00     0.061 C 
HETATM   34  C8  UNL     1      -1.888 -20.006  11.492  1.00  0.00     0.046 C 
HETATM   35  C9  UNL     1       0.479 -20.543  11.108  1.00  0.00     0.046 C 
HETATM   36  C10 UNL     1      -0.236 -19.536  13.230  1.00  0.00     0.046 C 
ENDBRANCH  32  33
ENDBRANCH  29  32
ENDBRANCH  23  28
ENDBRANCH   1  23
TORSDOF 11
ENDMDL
MODEL 5
REMARK VINA RESULT: -6.646629826      2.403      3.615
REMARK  11 active torsions:
REMARK  status: ('A' for Active; 'I' for Inactive)
REMARK    1  A    between atoms: C2_2  and  C4_4 
REMARK    2  A    between atoms: C4_4  and  C5_5 
REMARK    3  A    between atoms: C5_5  and  N1_6 
REMARK    4  A    between atoms: C5_5  and  C11_15 
REMARK       I    between atoms: N1_6  and  C6_8 
REMARK    5  A    between atoms: C6_8  and  O2_10 
REMARK    6  A    between atoms: O2_10  and  C7_11 
REMARK       I    between atoms: C11_15  and  N2_17 
REMARK    7  A    between atoms: N2_17  and  C12_19 
REMARK    8  A    between atoms: C12_19  and  C13_20 
REMARK    9  A    between atoms: C12_19  and  C22_32 
REMARK       I    between atoms: C13_20  and  N3_22 
REMARK   10  A    between atoms: N3_22  and  C14_24 
REMARK   11  A    between atoms: C22_32  and  C23_34 
ROOT
HETATM    1  C11 UNL     1       1.427 -19.048  11.455  1.00  0.00     0.241 C 
HETATM    2  O3  UNL     1       0.854 -17.970  11.829  1.00  0.00    -0.271 OA
HETATM    3  N2  UNL     1       0.828 -20.239  11.888  1.00  0.00    -0.339 N 
ATOM      4  H2  UNL     1       1.260 -21.122  11.617  1.00  0.00     0.163 HD
ENDROOT
BRANCH   3   5
HETATM    5  C12 UNL     1      -0.385 -20.284  12.709  1.00  0.00     0.256 C 
BRANCH   5   6
HETATM    6  C13 UNL     1      -0.151 -21.155  13.893  1.00  0.00     0.249 C 
HETATM    7  O4  UNL     1      -0.734 -20.849  14.961  1.00  0.00    -0.271 OA
HETATM    8  N3  UNL     1       0.677 -22.261  13.824  1.00  0.00    -0.349 N 
ATOM      9  H3  UNL     1       1.115 -22.447  12.922  1.00  0.00     0.163 HD
BRANCH   8  10
HETATM   10  C14 UNL     1       0.987 -23.179  14.889  1.00  0.00     0.037 C 
HETATM   11  C15 UNL     1      -0.107 -24.143  15.296  1.00  0.00     0.036 C 
HETATM   12  C16 UNL     1       0.241 -24.405  16.735  1.00  0.00    -0.011 C 
HETATM   13  C17 UNL     1       1.627 -25.004  16.786  1.00  0.00     0.010 C 
HETATM   14  C21 UNL     1       0.583 -22.987  17.209  1.00  0.00     0.012 C 
HETATM   15  C18 UNL     1       2.465 -23.886  16.168  1.00  0.00    -0.005 C 
HETATM   16  C19 UNL     1       2.299 -23.954  14.663  1.00  0.00     0.036 C 
HETATM   17  C20 UNL     1       1.588 -22.656  16.139  1.00  0.00     0.018 C 
ENDBRANCH   8  10
ENDBRANCH   5   6
BRANCH   5  18
HETATM   18  C22 UNL     1      -1.416 -20.889  11.845  1.00  0.00     0.245 C 
HETATM   19  O5  UNL     1      -1.508 -22.131  11.778  1.00  0.00    -0.285 OA
BRANCH  18  20
HETATM   20  C23 UNL     1      -2.313 -20.063  11.077  1.00  0.00     0.303 C 
HETATM   21  N4  UNL     1      -3.615 -20.525  10.716  1.00  0.00    -0.054 NA
HETATM   22  O6  UNL     1      -1.996 -18.913  10.696  1.00  0.00    -0.268 OA
ENDBRANCH  18  20
ENDBRANCH   5  18
ENDBRANCH   3   5
BRANCH   1  23
HETATM   23  C5  UNL     1       2.636 -18.947  10.626  1.00  0.00     0.179 C 
BRANCH  23  24
HETATM   24  C4  UNL     1       2.981 -17.540  10.193  1.00  0.00     0.038 C 
BRANCH  24  25
HETATM   25  C2  UNL     1       2.958 -17.270   8.740  1.00  0.00    -0.020 C 
HETATM   26  C1  UNL     1       2.149 -15.963   8.555  1.00  0.00     0.009 C 
HETATM   27  C3  UNL     1       4.329 -16.969   8.163  1.00  0.00     0.009 C 
ENDBRANCH  24  25
ENDBRANCH  23  24
BRANCH  23  28
HETATM   28  N1  UNL     1       3.786 -19.326  11.487  1.00  0.00    -0.324 N 
HETATM   29  C6  UNL     1       4.887 -20.036  10.912  1.00  0.00     0.362 C 
HETATM   30  O1  UNL     1       4.854 -20.323   9.686  1.00  0.00    -0.238 OA
ATOM     31  H1  UNL     1       3.792 -19.082  12.477  1.00  0.00     0.165 HD
BRANCH  29  32
HETATM   32  O2  UNL     1       5.986 -20.419  11.641  1.00  0.00    -0.294 OA
BRANCH  32  33
HETATM   33  C7  UNL     1       6.215 -21.756  12.058  1.00  0.00     0.061 C 
HETATM   34  C8  UNL     1       7.170 -21.711  13.225  1.00  0.00     0.046 C 
HETATM   35  C9  UNL     1       4.950 -22.458  12.482  1.00  0.00     0.046 C 
HETATM   36  C10 UNL     1       6.868 -22.565  10.955  1.00  0.00     0.046 C 
ENDBRANCH  32  33
ENDBRANCH  29  32
ENDBRANCH  23  28
ENDBRANCH   1  23
TORSDOF 11
ENDMDL
