MODEL 1
REMARK VINA RESULT: -8.340906762      0.000      0.000
REMARK  10 active torsions:
REMARK  status: ('A' for Active; 'I' for Inactive)
REMARK    1  A    between atoms: C2_2  and  O1_3 
REMARK    2  A    between atoms: C2_2  and  C3_5 
REMARK    3  A    between atoms: C3_5  and  C5_7 
REMARK    4  A    between atoms: C3_5  and  O3_42 
REMARK    5  A    between atoms: N1_8  and  N2_10 
REMARK    6  A    between atoms: N2_10  and  C6_12 
REMARK    7  A    between atoms: C9_19  and  C10_20 
REMARK    8  A    between atoms: N5_21  and  N6_23 
REMARK       I    between atoms: N6_23  and  C11_25 
REMARK       I    between atoms: C11_25  and  N7_27 
REMARK    9  A    between atoms: N7_27  and  C12_29 
REMARK   10  A    between atoms: O3_42  and  C14_43 
ROOT
HETATM    1  C6  UNL     1      26.903 -55.961   5.400  1.00  0.00     0.717 A 
HETATM    2  N3  UNL     1      25.770 -56.516   5.282  1.00  0.00    -0.207 N 
ATOM      3  H3  UNL     1      25.254 -56.353   4.418  1.00  0.00     0.179 HD
HETATM    4  C7  UNL     1      25.162 -57.345   6.257  1.00  0.00     0.263 A 
HETATM    5  N4  UNL     1      25.965 -57.509   7.425  1.00  0.00    -0.357 N 
ATOM      6  H4  UNL     1      25.611 -58.090   8.185  1.00  0.00     0.162 HD
HETATM    7  C8  UNL     1      27.228 -56.900   7.572  1.00  0.00     0.155 A 
HETATM    8  C9  UNL     1      28.152 -56.937   8.623  1.00  0.00     0.044 A 
HETATM    9  C13 UNL     1      29.207 -56.130   8.165  1.00  0.00     0.125 A 
HETATM   10  N12 UNL     1      28.883 -55.683   6.949  1.00  0.00    -0.288 N 
ATOM     11  H12 UNL     1      29.472 -55.072   6.383  1.00  0.00     0.187 HD
HETATM   12  N13 UNL     1      27.704 -56.131   6.577  1.00  0.00    -0.068 N 
ENDROOT
BRANCH   8  13
HETATM   13  C10 UNL     1      28.087 -57.624   9.893  1.00  0.00     0.124 C 
HETATM   14  N5  UNL     1      29.113 -58.013  10.539  1.00  0.00    -0.307 N 
ATOM     15  H5  UNL     1      30.030 -57.827  10.132  1.00  0.00     0.186 HD
BRANCH  14  16
HETATM   16  N6  UNL     1      29.068 -58.669  11.750  1.00  0.00    -0.251 N 
HETATM   17  C11 UNL     1      30.025 -58.372  12.745  1.00  0.00     0.353 C 
HETATM   18  O2  UNL     1      30.913 -57.508  12.517  1.00  0.00    -0.245 OA
HETATM   19  N7  UNL     1      29.984 -59.044  13.994  1.00  0.00    -0.137 N 
ATOM     20  H7  UNL     1      29.795 -58.505  14.840  1.00  0.00     0.189 HD
ATOM     21  H6  UNL     1      28.346 -59.367  11.927  1.00  0.00     0.191 HD
BRANCH  19  22
HETATM   22  C12 UNL     1      30.181 -60.326  14.093  1.00  0.00     0.717 A 
HETATM   23  N8  UNL     1      29.306 -61.318  13.940  1.00  0.00    -0.115 N 
HETATM   24  N9  UNL     1      29.933 -62.452  14.127  1.00  0.00    -0.213 N 
ATOM     25  H8  UNL     1      28.316 -61.213  13.715  1.00  0.00     0.207 HD
HETATM   26  N10 UNL     1      31.192 -62.174  14.395  1.00  0.00    -0.213 N 
ATOM     27  H9  UNL     1      29.520 -63.383  14.075  1.00  0.00     0.210 HD
HETATM   28  N11 UNL     1      31.364 -60.866  14.379  1.00  0.00    -0.115 N 
ATOM     29  H10 UNL     1      31.920 -62.862  14.584  1.00  0.00     0.210 HD
ATOM     30  H11 UNL     1      32.235 -60.365  14.552  1.00  0.00     0.207 HD
ENDBRANCH  19  22
ENDBRANCH  14  16
ENDBRANCH   8  13
BRANCH   1  31
HETATM   31  N2  UNL     1      27.460 -55.128   4.363  1.00  0.00    -0.131 N 
ATOM     32  H2  UNL     1      27.479 -55.431   3.390  1.00  0.00     0.205 HD
BRANCH  31  33
HETATM   33  N1  UNL     1      27.970 -53.897   4.749  1.00  0.00    -0.298 N 
HETATM   34  C5  UNL     1      27.090 -52.967   5.041  1.00  0.00     0.125 C 
ATOM     35  H1  UNL     1      28.974 -53.724   4.803  1.00  0.00     0.186 HD
BRANCH  34  36
HETATM   36  C3  UNL     1      27.619 -51.664   5.449  1.00  0.00     0.137 C 
HETATM   37  C4  UNL     1      26.540 -50.623   5.116  1.00  0.00     0.060 C 
BRANCH  36  38
HETATM   38  C2  UNL     1      28.883 -51.325   4.755  1.00  0.00     0.073 C 
HETATM   39  C1  UNL     1      28.903 -50.686   3.614  1.00  0.00     0.049 C 
BRANCH  38  40
HETATM   40  O1  UNL     1      30.066 -51.709   5.354  1.00  0.00    -0.362 OA
ATOM     41  H1  UNL     1      30.088 -51.902   6.283  1.00  0.00     0.217 HD
ENDBRANCH  38  40
ENDBRANCH  36  38
BRANCH  36  42
HETATM   42  O3  UNL     1      27.793 -51.637   6.818  1.00  0.00    -0.369 OA
BRANCH  42  43
HETATM   43  C14 UNL     1      26.658 -51.194   7.472  1.00  0.00     0.165 C 
HETATM   44  C15 UNL     1      27.054 -50.622   8.823  1.00  0.00     0.033 C 
ENDBRANCH  42  43
ENDBRANCH  36  42
ENDBRANCH  34  36
ENDBRANCH  31  33
ENDBRANCH   1  31
TORSDOF 10
ENDMDL
MODEL 2
REMARK VINA RESULT: -8.267974058      0.883      1.187
REMARK  10 active torsions:
REMARK  status: ('A' for Active; 'I' for Inactive)
REMARK    1  A    between atoms: C2_2  and  O1_3 
REMARK    2  A    between atoms: C2_2  and  C3_5 
REMARK    3  A    between atoms: C3_5  and  C5_7 
REMARK    4  A    between atoms: C3_5  and  O3_42 
REMARK    5  A    between atoms: N1_8  and  N2_10 
REMARK    6  A    between atoms: N2_10  and  C6_12 
REMARK    7  A    between atoms: C9_19  and  C10_20 
REMARK    8  A    between atoms: N5_21  and  N6_23 
REMARK       I    between atoms: N6_23  and  C11_25 
REMARK       I    between atoms: C11_25  and  N7_27 
REMARK    9  A    between atoms: N7_27  and  C12_29 
REMARK   10  A    between atoms: O3_42  and  C14_43 
ROOT
HETATM    1  C6  UNL     1      26.743 -56.061   5.425  1.00  0.00     0.717 A 
HETATM    2  N3  UNL     1      25.618 -56.638   5.332  1.00  0.00    -0.207 N 
ATOM      3  H3  UNL     1      25.088 -56.496   4.472  1.00  0.00     0.179 HD
HETATM    4  C7  UNL     1      25.040 -57.463   6.327  1.00  0.00     0.263 A 
HETATM    5  N4  UNL     1      25.862 -57.597   7.485  1.00  0.00    -0.357 N 
ATOM      6  H4  UNL     1      25.530 -58.174   8.257  1.00  0.00     0.162 HD
HETATM    7  C8  UNL     1      27.116 -56.963   7.605  1.00  0.00     0.155 A 
HETATM    8  C9  UNL     1      28.056 -56.969   8.642  1.00  0.00     0.044 A 
HETATM    9  C13 UNL     1      29.090 -56.151   8.158  1.00  0.00     0.125 A 
HETATM   10  N12 UNL     1      28.739 -55.726   6.941  1.00  0.00    -0.288 N 
ATOM     11  H12 UNL     1      29.310 -55.113   6.357  1.00  0.00     0.187 HD
HETATM   12  N13 UNL     1      27.563 -56.200   6.592  1.00  0.00    -0.068 N 
ENDROOT
BRANCH   8  13
HETATM   13  C10 UNL     1      28.022 -57.640   9.922  1.00  0.00     0.124 C 
HETATM   14  N5  UNL     1      29.062 -58.047  10.534  1.00  0.00    -0.307 N 
ATOM     15  H5  UNL     1      29.967 -57.888  10.091  1.00  0.00     0.186 HD
BRANCH  14  16
HETATM   16  N6  UNL     1      29.046 -58.687  11.754  1.00  0.00    -0.251 N 
HETATM   17  C11 UNL     1      30.023 -58.373  12.725  1.00  0.00     0.353 C 
HETATM   18  O2  UNL     1      30.902 -57.508  12.466  1.00  0.00    -0.245 OA
HETATM   19  N7  UNL     1      30.013 -59.029  13.983  1.00  0.00    -0.137 N 
ATOM     20  H7  UNL     1      29.839 -58.481  14.826  1.00  0.00     0.189 HD
ATOM     21  H6  UNL     1      28.331 -59.386  11.956  1.00  0.00     0.191 HD
BRANCH  19  22
HETATM   22  C12 UNL     1      30.218 -60.309  14.093  1.00  0.00     0.717 A 
HETATM   23  N8  UNL     1      29.338 -61.305  14.002  1.00  0.00    -0.115 N 
HETATM   24  N9  UNL     1      29.977 -62.434  14.177  1.00  0.00    -0.213 N 
ATOM     25  H8  UNL     1      28.338 -61.206  13.826  1.00  0.00     0.207 HD
HETATM   26  N10 UNL     1      31.247 -62.149  14.376  1.00  0.00    -0.213 N 
ATOM     27  H9  UNL     1      29.565 -63.367  14.162  1.00  0.00     0.210 HD
HETATM   28  N11 UNL     1      31.415 -60.842  14.329  1.00  0.00    -0.115 N 
ATOM     29  H10 UNL     1      31.986 -62.833  14.540  1.00  0.00     0.210 HD
ATOM     30  H11 UNL     1      32.293 -60.337  14.449  1.00  0.00     0.207 HD
ENDBRANCH  19  22
ENDBRANCH  14  16
ENDBRANCH   8  13
BRANCH   1  31
HETATM   31  N2  UNL     1      27.270 -55.233   4.369  1.00  0.00    -0.131 N 
ATOM     32  H2  UNL     1      27.350 -55.577   3.412  1.00  0.00     0.205 HD
BRANCH  31  33
HETATM   33  N1  UNL     1      27.663 -53.948   4.712  1.00  0.00    -0.298 N 
HETATM   34  C5  UNL     1      28.837 -53.560   4.271  1.00  0.00     0.125 C 
ATOM     35  H1  UNL     1      27.072 -53.337   5.276  1.00  0.00     0.186 HD
BRANCH  34  36
HETATM   36  C3  UNL     1      29.262 -52.204   4.629  1.00  0.00     0.137 C 
HETATM   37  C4  UNL     1      28.803 -51.281   3.490  1.00  0.00     0.060 C 
BRANCH  36  38
HETATM   38  C2  UNL     1      30.729 -52.101   4.807  1.00  0.00     0.073 C 
HETATM   39  C1  UNL     1      31.559 -52.146   3.796  1.00  0.00     0.049 C 
BRANCH  38  40
HETATM   40  O1  UNL     1      31.210 -51.953   6.092  1.00  0.00    -0.362 OA
ATOM     41  H1  UNL     1      30.658 -51.576   6.766  1.00  0.00     0.217 HD
ENDBRANCH  38  40
ENDBRANCH  36  38
BRANCH  36  42
HETATM   42  O3  UNL     1      28.603 -51.793   5.770  1.00  0.00    -0.369 OA
BRANCH  42  43
HETATM   43  C14 UNL     1      27.778 -50.711   5.525  1.00  0.00     0.165 C 
HETATM   44  C15 UNL     1      26.678 -50.678   6.572  1.00  0.00     0.033 C 
ENDBRANCH  42  43
ENDBRANCH  36  42
ENDBRANCH  34  36
ENDBRANCH  31  33
ENDBRANCH   1  31
TORSDOF 10
ENDMDL
MODEL 3
REMARK VINA RESULT: -8.102566120      1.017      1.588
REMARK  10 active torsions:
REMARK  status: ('A' for Active; 'I' for Inactive)
REMARK    1  A    between atoms: C2_2  and  O1_3 
REMARK    2  A    between atoms: C2_2  and  C3_5 
REMARK    3  A    between atoms: C3_5  and  C5_7 
REMARK    4  A    between atoms: C3_5  and  O3_42 
REMARK    5  A    between atoms: N1_8  and  N2_10 
REMARK    6  A    between atoms: N2_10  and  C6_12 
REMARK    7  A    between atoms: C9_19  and  C10_20 
REMARK    8  A    between atoms: N5_21  and  N6_23 
REMARK       I    between atoms: N6_23  and  C11_25 
REMARK       I    between atoms: C11_25  and  N7_27 
REMARK    9  A    between atoms: N7_27  and  C12_29 
REMARK   10  A    between atoms: O3_42  and  C14_43 
ROOT
HETATM    1  C6  UNL     1      26.563 -56.062   5.193  1.00  0.00     0.717 A 
HETATM    2  N3  UNL     1      25.463 -56.682   5.087  1.00  0.00    -0.207 N 
ATOM      3  H3  UNL     1      24.938 -56.562   4.221  1.00  0.00     0.179 HD
HETATM    4  C7  UNL     1      24.905 -57.528   6.076  1.00  0.00     0.263 A 
HETATM    5  N4  UNL     1      25.718 -57.629   7.245  1.00  0.00    -0.357 N 
ATOM      6  H4  UNL     1      25.399 -58.217   8.014  1.00  0.00     0.162 HD
HETATM    7  C8  UNL     1      26.944 -56.946   7.379  1.00  0.00     0.155 A 
HETATM    8  C9  UNL     1      27.870 -56.913   8.428  1.00  0.00     0.044 A 
HETATM    9  C13 UNL     1      28.877 -56.055   7.955  1.00  0.00     0.125 A 
HETATM   10  N12 UNL     1      28.526 -55.646   6.733  1.00  0.00    -0.288 N 
ATOM     11  H12 UNL     1      29.079 -55.012   6.156  1.00  0.00     0.187 HD
HETATM   12  N13 UNL     1      27.374 -56.167   6.371  1.00  0.00    -0.068 N 
ENDROOT
BRANCH   8  13
HETATM   13  C10 UNL     1      27.847 -57.583   9.709  1.00  0.00     0.124 C 
HETATM   14  N5  UNL     1      28.890 -57.834  10.394  1.00  0.00    -0.307 N 
ATOM     15  H5  UNL     1      29.790 -57.544  10.013  1.00  0.00     0.186 HD
BRANCH  14  16
HETATM   16  N6  UNL     1      28.885 -58.471  11.616  1.00  0.00    -0.251 N 
HETATM   17  C11 UNL     1      29.814 -58.093  12.609  1.00  0.00     0.353 C 
HETATM   18  O2  UNL     1      30.642 -57.174  12.369  1.00  0.00    -0.245 OA
HETATM   19  N7  UNL     1      29.813 -58.745  13.870  1.00  0.00    -0.137 N 
ATOM     20  H7  UNL     1      29.584 -58.207  14.706  1.00  0.00     0.189 HD
ATOM     21  H6  UNL     1      28.210 -59.214  11.802  1.00  0.00     0.191 HD
BRANCH  19  22
HETATM   22  C12 UNL     1      30.097 -60.010  13.990  1.00  0.00     0.717 A 
HETATM   23  N8  UNL     1      29.268 -61.052  14.009  1.00  0.00    -0.115 N 
HETATM   24  N9  UNL     1      29.980 -62.141  14.148  1.00  0.00    -0.213 N 
ATOM     25  H8  UNL     1      28.252 -61.009  13.928  1.00  0.00     0.207 HD
HETATM   26  N10 UNL     1      31.246 -61.785  14.215  1.00  0.00    -0.213 N 
ATOM     27  H9  UNL     1      29.620 -63.094  14.196  1.00  0.00     0.210 HD
HETATM   28  N11 UNL     1      31.338 -60.473  14.121  1.00  0.00    -0.115 N 
ATOM     29  H10 UNL     1      32.033 -62.425  14.324  1.00  0.00     0.210 HD
ATOM     30  H11 UNL     1      32.195 -59.920  14.143  1.00  0.00     0.207 HD
ENDBRANCH  19  22
ENDBRANCH  14  16
ENDBRANCH   8  13
BRANCH   1  31
HETATM   31  N2  UNL     1      27.070 -55.214   4.142  1.00  0.00    -0.131 N 
ATOM     32  H2  UNL     1      27.331 -55.593   3.232  1.00  0.00     0.205 HD
BRANCH  31  33
HETATM   33  N1  UNL     1      27.188 -53.861   4.425  1.00  0.00    -0.298 N 
HETATM   34  C5  UNL     1      26.109 -53.262   4.872  1.00  0.00     0.125 C 
ATOM     35  H1  UNL     1      28.066 -53.359   4.292  1.00  0.00     0.186 HD
BRANCH  34  36
HETATM   36  C3  UNL     1      26.224 -51.834   5.172  1.00  0.00     0.137 C 
HETATM   37  C4  UNL     1      26.685 -51.144   3.880  1.00  0.00     0.060 C 
BRANCH  36  38
HETATM   38  C2  UNL     1      27.187 -51.562   6.265  1.00  0.00     0.073 C 
HETATM   39  C1  UNL     1      26.802 -51.347   7.497  1.00  0.00     0.049 C 
BRANCH  38  40
HETATM   40  O1  UNL     1      28.530 -51.540   5.945  1.00  0.00    -0.362 OA
ATOM     41  H1  UNL     1      28.802 -51.434   5.042  1.00  0.00     0.217 HD
ENDBRANCH  38  40
ENDBRANCH  36  38
BRANCH  36  42
HETATM   42  O3  UNL     1      24.980 -51.319   5.481  1.00  0.00    -0.369 OA
BRANCH  42  43
HETATM   43  C14 UNL     1      24.727 -50.143   4.799  1.00  0.00     0.165 C 
HETATM   44  C15 UNL     1      24.178 -49.113   5.771  1.00  0.00     0.033 C 
ENDBRANCH  42  43
ENDBRANCH  36  42
ENDBRANCH  34  36
ENDBRANCH  31  33
ENDBRANCH   1  31
TORSDOF 10
ENDMDL
MODEL 4
REMARK VINA RESULT: -7.986048298      1.027      1.842
REMARK  10 active torsions:
REMARK  status: ('A' for Active; 'I' for Inactive)
REMARK    1  A    between atoms: C2_2  and  O1_3 
REMARK    2  A    between atoms: C2_2  and  C3_5 
REMARK    3  A    between atoms: C3_5  and  C5_7 
REMARK    4  A    between atoms: C3_5  and  O3_42 
REMARK    5  A    between atoms: N1_8  and  N2_10 
REMARK    6  A    between atoms: N2_10  and  C6_12 
REMARK    7  A    between atoms: C9_19  and  C10_20 
REMARK    8  A    between atoms: N5_21  and  N6_23 
REMARK       I    between atoms: N6_23  and  C11_25 
REMARK       I    between atoms: C11_25  and  N7_27 
REMARK    9  A    between atoms: N7_27  and  C12_29 
REMARK   10  A    between atoms: O3_42  and  C14_43 
ROOT
HETATM    1  C6  UNL     1      26.808 -55.992   5.428  1.00  0.00     0.717 A 
HETATM    2  N3  UNL     1      25.690 -56.576   5.302  1.00  0.00    -0.207 N 
ATOM      3  H3  UNL     1      25.172 -56.416   4.438  1.00  0.00     0.179 HD
HETATM    4  C7  UNL     1      25.104 -57.432   6.265  1.00  0.00     0.263 A 
HETATM    5  N4  UNL     1      25.908 -57.589   7.433  1.00  0.00    -0.357 N 
ATOM      6  H4  UNL     1      25.569 -58.188   8.185  1.00  0.00     0.162 HD
HETATM    7  C8  UNL     1      27.154 -56.947   7.590  1.00  0.00     0.155 A 
HETATM    8  C9  UNL     1      28.077 -56.972   8.642  1.00  0.00     0.044 A 
HETATM    9  C13 UNL     1      29.111 -56.132   8.196  1.00  0.00     0.125 A 
HETATM   10  N12 UNL     1      28.777 -55.679   6.984  1.00  0.00    -0.288 N 
ATOM     11  H12 UNL     1      29.351 -55.047   6.426  1.00  0.00     0.187 HD
HETATM   12  N13 UNL     1      27.611 -56.155   6.605  1.00  0.00    -0.068 N 
ENDROOT
BRANCH   8  13
HETATM   13  C10 UNL     1      28.029 -57.676   9.903  1.00  0.00     0.124 C 
HETATM   14  N5  UNL     1      29.063 -58.007  10.568  1.00  0.00    -0.307 N 
ATOM     15  H5  UNL     1      29.975 -57.759  10.183  1.00  0.00     0.186 HD
BRANCH  14  16
HETATM   16  N6  UNL     1      29.034 -58.677  11.771  1.00  0.00    -0.251 N 
HETATM   17  C11 UNL     1      29.984 -58.369  12.770  1.00  0.00     0.353 C 
HETATM   18  O2  UNL     1      30.851 -57.482  12.552  1.00  0.00    -0.245 OA
HETATM   19  N7  UNL     1      29.959 -59.056  14.012  1.00  0.00    -0.137 N 
ATOM     20  H7  UNL     1      29.757 -58.532  14.864  1.00  0.00     0.189 HD
ATOM     21  H6  UNL     1      28.328 -59.394  11.940  1.00  0.00     0.191 HD
BRANCH  19  22
HETATM   22  C12 UNL     1      30.186 -60.335  14.095  1.00  0.00     0.717 A 
HETATM   23  N8  UNL     1      29.327 -61.345  13.960  1.00  0.00    -0.115 N 
HETATM   24  N9  UNL     1      29.984 -62.465  14.121  1.00  0.00    -0.213 N 
ATOM     25  H8  UNL     1      28.330 -61.259  13.763  1.00  0.00     0.207 HD
HETATM   26  N10 UNL     1      31.243 -62.162  14.356  1.00  0.00    -0.213 N 
ATOM     27  H9  UNL     1      29.590 -63.405  14.074  1.00  0.00     0.210 HD
HETATM   28  N11 UNL     1      31.387 -60.851  14.345  1.00  0.00    -0.115 N 
ATOM     29  H10 UNL     1      31.991 -62.836  14.520  1.00  0.00     0.210 HD
ATOM     30  H11 UNL     1      32.252 -60.333  14.498  1.00  0.00     0.207 HD
ENDBRANCH  19  22
ENDBRANCH  14  16
ENDBRANCH   8  13
BRANCH   1  31
HETATM   31  N2  UNL     1      27.345 -55.132   4.402  1.00  0.00    -0.131 N 
ATOM     32  H2  UNL     1      27.562 -55.486   3.471  1.00  0.00     0.205 HD
BRANCH  31  33
HETATM   33  N1  UNL     1      27.553 -53.803   4.739  1.00  0.00    -0.298 N 
HETATM   34  C5  UNL     1      28.681 -53.268   4.334  1.00  0.00     0.125 C 
ATOM     35  H1  UNL     1      26.866 -53.270   5.272  1.00  0.00     0.186 HD
BRANCH  34  36
HETATM   36  C3  UNL     1      28.910 -51.865   4.685  1.00  0.00     0.137 C 
HETATM   37  C4  UNL     1      27.824 -51.478   5.699  1.00  0.00     0.060 C 
BRANCH  36  38
HETATM   38  C2  UNL     1      28.845 -50.970   3.505  1.00  0.00     0.073 C 
HETATM   39  C1  UNL     1      28.526 -51.409   2.314  1.00  0.00     0.049 C 
BRANCH  38  40
HETATM   40  O1  UNL     1      29.136 -49.635   3.696  1.00  0.00    -0.362 OA
ATOM     41  H1  UNL     1      29.283 -49.300   4.573  1.00  0.00     0.217 HD
ENDBRANCH  38  40
ENDBRANCH  36  38
BRANCH  36  42
HETATM   42  O3  UNL     1      30.125 -51.735   5.327  1.00  0.00    -0.369 OA
BRANCH  42  43
HETATM   43  C14 UNL     1      31.022 -52.711   4.932  1.00  0.00     0.165 C 
HETATM   44  C15 UNL     1      32.228 -52.047   4.289  1.00  0.00     0.033 C 
ENDBRANCH  42  43
ENDBRANCH  36  42
ENDBRANCH  34  36
ENDBRANCH  31  33
ENDBRANCH   1  31
TORSDOF 10
ENDMDL
MODEL 5
REMARK VINA RESULT: -7.958319057      2.466      3.237
REMARK  10 active torsions:
REMARK  status: ('A' for Active; 'I' for Inactive)
REMARK    1  A    between atoms: C2_2  and  O1_3 
REMARK    2  A    between atoms: C2_2  and  C3_5 
REMARK    3  A    between atoms: C3_5  and  C5_7 
REMARK    4  A    between atoms: C3_5  and  O3_42 
REMARK    5  A    between atoms: N1_8  and  N2_10 
REMARK    6  A    between atoms: N2_10  and  C6_12 
REMARK    7  A    between atoms: C9_19  and  C10_20 
REMARK    8  A    between atoms: N5_21  and  N6_23 
REMARK       I    between atoms: N6_23  and  C11_25 
REMARK       I    between atoms: C11_25  and  N7_27 
REMARK    9  A    between atoms: N7_27  and  C12_29 
REMARK   10  A    between atoms: O3_42  and  C14_43 
ROOT
HETATM    1  C6  UNL     1      25.610 -56.775   5.615  1.00  0.00     0.717 A 
HETATM    2  N3  UNL     1      24.651 -57.602   5.673  1.00  0.00    -0.207 N 
ATOM      3  H3  UNL     1      23.994 -57.614   4.893  1.00  0.00     0.179 HD
HETATM    4  C7  UNL     1      24.420 -58.510   6.735  1.00  0.00     0.263 A 
HETATM    5  N4  UNL     1      25.395 -58.412   7.772  1.00  0.00    -0.357 N 
ATOM      6  H4  UNL     1      25.312 -59.027   8.581  1.00  0.00     0.162 HD
HETATM    7  C8  UNL     1      26.468 -57.499   7.724  1.00  0.00     0.155 A 
HETATM    8  C9  UNL     1      27.510 -57.253   8.625  1.00  0.00     0.044 A 
HETATM    9  C13 UNL     1      28.249 -56.230   8.008  1.00  0.00     0.125 A 
HETATM   10  N12 UNL     1      27.652 -55.936   6.849  1.00  0.00    -0.288 N 
ATOM     11  H12 UNL     1      27.979 -55.224   6.196  1.00  0.00     0.187 HD
HETATM   12  N13 UNL     1      26.586 -56.683   6.662  1.00  0.00    -0.068 N 
ENDROOT
BRANCH   8  13
HETATM   13  C10 UNL     1      27.803 -57.874   9.897  1.00  0.00     0.124 C 
HETATM   14  N5  UNL     1      28.650 -57.414  10.729  1.00  0.00    -0.307 N 
ATOM     15  H5  UNL     1      29.147 -56.559  10.478  1.00  0.00     0.186 HD
BRANCH  14  16
HETATM   16  N6  UNL     1      28.941 -57.993  11.945  1.00  0.00    -0.251 N 
HETATM   17  C11 UNL     1      30.254 -57.924  12.460  1.00  0.00     0.353 C 
HETATM   18  O2  UNL     1      31.150 -57.331  11.802  1.00  0.00    -0.245 OA
HETATM   19  N7  UNL     1      30.560 -58.519  13.712  1.00  0.00    -0.137 N 
ATOM     20  H7  UNL     1      30.850 -57.921  14.487  1.00  0.00     0.189 HD
ATOM     21  H6  UNL     1      28.210 -58.471  12.472  1.00  0.00     0.191 HD
BRANCH  19  22
HETATM   22  C12 UNL     1      30.482 -59.804  13.900  1.00  0.00     0.717 A 
HETATM   23  N8  UNL     1      29.399 -60.579  13.924  1.00  0.00    -0.115 N 
HETATM   24  N9  UNL     1      29.780 -61.811  14.144  1.00  0.00    -0.213 N 
ATOM     25  H8  UNL     1      28.437 -60.266  13.793  1.00  0.00     0.207 HD
HETATM   26  N10 UNL     1      31.092 -61.810  14.257  1.00  0.00    -0.213 N 
ATOM     27  H9  UNL     1      29.171 -62.626  14.215  1.00  0.00     0.210 HD
HETATM   28  N11 UNL     1      31.543 -60.580  14.110  1.00  0.00    -0.115 N 
ATOM     29  H10 UNL     1      31.669 -62.633  14.430  1.00  0.00     0.210 HD
ATOM     30  H11 UNL     1      32.517 -60.280  14.150  1.00  0.00     0.207 HD
ENDBRANCH  19  22
ENDBRANCH  14  16
ENDBRANCH   8  13
BRANCH   1  31
HETATM   31  N2  UNL     1      25.783 -55.879   4.499  1.00  0.00    -0.131 N 
ATOM     32  H2  UNL     1      25.037 -55.253   4.198  1.00  0.00     0.205 HD
BRANCH  31  33
HETATM   33  N1  UNL     1      27.011 -55.905   3.854  1.00  0.00    -0.298 N 
HETATM   34  C5  UNL     1      27.504 -54.744   3.490  1.00  0.00     0.125 C 
ATOM     35  H1  UNL     1      27.503 -56.780   3.672  1.00  0.00     0.186 HD
BRANCH  34  36
HETATM   36  C3  UNL     1      28.799 -54.761   2.807  1.00  0.00     0.137 C 
HETATM   37  C4  UNL     1      28.859 -56.068   2.002  1.00  0.00     0.060 C 
BRANCH  36  38
HETATM   38  C2  UNL     1      29.937 -54.695   3.754  1.00  0.00     0.073 C 
HETATM   39  C1  UNL     1      30.811 -53.722   3.727  1.00  0.00     0.049 C 
BRANCH  38  40
HETATM   40  O1  UNL     1      30.056 -55.707   4.685  1.00  0.00    -0.362 OA
ATOM     41  H1  UNL     1      30.894 -55.877   5.099  1.00  0.00     0.217 HD
ENDBRANCH  38  40
ENDBRANCH  36  38
BRANCH  36  42
HETATM   42  O3  UNL     1      28.862 -53.725   1.897  1.00  0.00    -0.369 OA
BRANCH  42  43
HETATM   43  C14 UNL     1      29.011 -54.187   0.602  1.00  0.00     0.165 C 
HETATM   44  C15 UNL     1      29.421 -53.031  -0.294  1.00  0.00     0.033 C 
ENDBRANCH  42  43
ENDBRANCH  36  42
ENDBRANCH  34  36
ENDBRANCH  31  33
ENDBRANCH   1  31
TORSDOF 10
ENDMDL
