MODEL 1
REMARK VINA RESULT: -7.573719175      0.000      0.000
REMARK  7 active torsions:
REMARK  status: ('A' for Active; 'I' for Inactive)
REMARK    1  A    between atoms: C2_2  and  C3_4 
REMARK    2  A    between atoms: C4_5  and  C5_6 
REMARK    3  A    between atoms: C5_6  and  C7_14 
REMARK    4  A    between atoms: N1_7  and  N2_9 
REMARK       I    between atoms: N2_9  and  C6_11 
REMARK    5  A    between atoms: C8_17  and  C9_18 
REMARK    6  A    between atoms: C10_21  and  N5_22 
REMARK       I    between atoms: N6_24  and  C11_26 
REMARK    7  A    between atoms: N9_32  and  N10_33 
ROOT
HETATM    1  C5  UNL     1      29.214 -52.961   4.535  1.00  0.00     0.130 C 
HETATM    2  N1  UNL     1      28.611 -51.957   5.206  1.00  0.00    -0.291 N 
ATOM      3  H1  UNL     1      29.222 -51.203   5.518  1.00  0.00     0.187 HD
ENDROOT
BRANCH   1   4
HETATM    4  C4  UNL     1      30.630 -52.747   4.400  1.00  0.00     0.112 A 
HETATM    5  C3  UNL     1      31.285 -51.860   3.628  1.00  0.00     0.109 A 
HETATM    6  C13 UNL     1      32.712 -51.785   3.562  1.00  0.00     0.265 A 
HETATM    7  N11 UNL     1      33.405 -52.627   4.299  1.00  0.00    -0.273 N 
HETATM    8  O7  UNL     1      33.294 -50.954   2.837  1.00  0.00    -0.267 OA
HETATM    9  C12 UNL     1      32.784 -53.512   5.071  1.00  0.00     0.348 A 
ATOM     10  H11 UNL     1      34.424 -52.600   4.276  1.00  0.00     0.173 HD
HETATM   11  N9  UNL     1      31.467 -53.587   5.136  1.00  0.00    -0.208 N 
HETATM   12  O6  UNL     1      33.490 -54.316   5.776  1.00  0.00    -0.245 OA
BRANCH   5  13
HETATM   13  C2  UNL     1      30.698 -50.847   2.774  1.00  0.00     0.163 C 
HETATM   14  C1  UNL     1      30.328 -51.230   1.375  1.00  0.00     0.097 C 
HETATM   15  O1  UNL     1      30.494 -49.696   3.182  1.00  0.00    -0.292 OA
ENDBRANCH   5  13
BRANCH  11  16
HETATM   16  N10 UNL     1      30.855 -54.540   5.963  1.00  0.00    -0.334 N 
ATOM     17 2H10 UNL     1      30.582 -54.293   6.914  1.00  0.00     0.177 HD
ATOM     18 1H10 UNL     1      30.704 -55.469   5.572  1.00  0.00     0.177 HD
ENDBRANCH  11  16
ENDBRANCH   1   4
BRANCH   1  19
HETATM   19  C7  UNL     1      28.301 -53.990   4.150  1.00  0.00     0.181 A 
HETATM   20  N4  UNL     1      27.836 -54.548   3.048  1.00  0.00    -0.326 N 
HETATM   21  C8  UNL     1      26.957 -55.512   3.247  1.00  0.00     0.165 A 
ATOM     22  H4  UNL     1      28.132 -54.257   2.117  1.00  0.00     0.168 HD
HETATM   23  C10 UNL     1      26.856 -55.570   4.621  1.00  0.00     0.198 A 
HETATM   24  O5  UNL     1      27.644 -54.680   5.115  1.00  0.00    -0.271 OA
BRANCH  21  25
HETATM   25  C9  UNL     1      26.234 -56.348   2.288  1.00  0.00     0.231 C 
HETATM   26  O3  UNL     1      26.442 -56.150   1.066  1.00  0.00    -0.643 OA
HETATM   27  O4  UNL     1      25.351 -57.325   2.725  1.00  0.00    -0.643 OA
ENDBRANCH  21  25
BRANCH  23  28
HETATM   28  N5  UNL     1      26.013 -56.474   5.346  1.00  0.00    -0.275 N 
HETATM   29  N6  UNL     1      24.836 -56.233   5.687  1.00  0.00    -0.272 N 
HETATM   30  C11 UNL     1      24.101 -55.061   5.442  1.00  0.00     0.200 C 
ATOM     31  H6  UNL     1      24.353 -56.971   6.200  1.00  0.00     0.189 HD
HETATM   32  N7  UNL     1      24.126 -54.061   6.264  1.00  0.00    -0.372 N 
HETATM   33  N8  UNL     1      23.296 -54.945   4.259  1.00  0.00    -0.062 NA
ATOM     34  H72 UNL     1      24.698 -54.143   7.105  1.00  0.00     0.158 HD
ATOM     35  H71 UNL     1      23.592 -53.209   6.086  1.00  0.00     0.158 HD
ATOM     36  H5  UNL     1      26.403 -57.381   5.604  1.00  0.00     0.189 HD
ENDBRANCH  23  28
ENDBRANCH   1  19
BRANCH   2  37
HETATM   37  N2  UNL     1      27.319 -51.821   5.514  1.00  0.00    -0.253 N 
HETATM   38  C6  UNL     1      26.951 -51.426   6.851  1.00  0.00     0.347 C 
HETATM   39  N3  UNL     1      25.590 -51.285   7.163  1.00  0.00    -0.038 NA
HETATM   40  O2  UNL     1      27.842 -51.218   7.702  1.00  0.00    -0.249 OA
ATOM     41  H2  UNL     1      26.601 -51.993   4.812  1.00  0.00     0.191 HD
ENDBRANCH   2  37
TORSDOF 7
ENDMDL
MODEL 2
REMARK VINA RESULT: -7.195690494      2.619      5.953
REMARK  7 active torsions:
REMARK  status: ('A' for Active; 'I' for Inactive)
REMARK    1  A    between atoms: C2_2  and  C3_4 
REMARK    2  A    between atoms: C4_5  and  C5_6 
REMARK    3  A    between atoms: C5_6  and  C7_14 
REMARK    4  A    between atoms: N1_7  and  N2_9 
REMARK       I    between atoms: N2_9  and  C6_11 
REMARK    5  A    between atoms: C8_17  and  C9_18 
REMARK    6  A    between atoms: C10_21  and  N5_22 
REMARK       I    between atoms: N6_24  and  C11_26 
REMARK    7  A    between atoms: N9_32  and  N10_33 
ROOT
HETATM    1  C5  UNL     1      25.636 -52.240   5.939  1.00  0.00     0.130 C 
HETATM    2  N1  UNL     1      24.449 -52.800   6.254  1.00  0.00    -0.291 N 
ATOM      3  H1  UNL     1      23.768 -52.179   6.690  1.00  0.00     0.187 HD
ENDROOT
BRANCH   1   4
HETATM    4  C4  UNL     1      25.687 -50.847   6.294  1.00  0.00     0.112 A 
HETATM    5  C3  UNL     1      25.111 -49.793   5.685  1.00  0.00     0.109 A 
HETATM    6  C13 UNL     1      25.282 -48.445   6.129  1.00  0.00     0.265 A 
HETATM    7  N11 UNL     1      26.040 -48.238   7.185  1.00  0.00    -0.273 N 
HETATM    8  O7  UNL     1      24.738 -47.486   5.546  1.00  0.00    -0.267 OA
HETATM    9  C12 UNL     1      26.620 -49.260   7.806  1.00  0.00     0.348 A 
ATOM     10  H11 UNL     1      26.182 -47.289   7.529  1.00  0.00     0.173 HD
HETATM   11  N9  UNL     1      26.466 -50.507   7.401  1.00  0.00    -0.208 N 
HETATM   12  O6  UNL     1      27.350 -49.023   8.832  1.00  0.00    -0.245 OA
BRANCH   5  13
HETATM   13  C2  UNL     1      24.232 -49.826   4.533  1.00  0.00     0.163 C 
HETATM   14  C1  UNL     1      24.810 -49.489   3.194  1.00  0.00     0.097 C 
HETATM   15  O1  UNL     1      23.037 -50.131   4.639  1.00  0.00    -0.292 OA
ENDBRANCH   5  13
BRANCH  11  16
HETATM   16  N10 UNL     1      27.100 -51.554   8.085  1.00  0.00    -0.334 N 
ATOM     17 2H10 UNL     1      28.116 -51.565   8.177  1.00  0.00     0.177 HD
ATOM     18 1H10 UNL     1      26.505 -52.286   8.473  1.00  0.00     0.177 HD
ENDBRANCH  11  16
ENDBRANCH   1   4
BRANCH   1  19
HETATM   19  C7  UNL     1      26.546 -53.173   5.355  1.00  0.00     0.181 A 
HETATM   20  N4  UNL     1      26.692 -53.854   4.232  1.00  0.00    -0.326 N 
HETATM   21  C8  UNL     1      27.763 -54.624   4.191  1.00  0.00     0.165 A 
ATOM     22  H4  UNL     1      26.030 -53.789   3.460  1.00  0.00     0.168 HD
HETATM   23  C10 UNL     1      28.357 -54.407   5.416  1.00  0.00     0.198 A 
HETATM   24  O5  UNL     1      27.632 -53.565   6.066  1.00  0.00    -0.271 OA
BRANCH  21  25
HETATM   25  C9  UNL     1      28.252 -55.510   3.134  1.00  0.00     0.231 C 
HETATM   26  O3  UNL     1      29.449 -55.389   2.777  1.00  0.00    -0.643 OA
HETATM   27  O4  UNL     1      27.412 -56.449   2.553  1.00  0.00    -0.643 OA
ENDBRANCH  21  25
BRANCH  23  28
HETATM   28  N5  UNL     1      29.571 -55.025   5.862  1.00  0.00    -0.275 N 
HETATM   29  N6  UNL     1      30.712 -54.538   5.722  1.00  0.00    -0.272 N 
HETATM   30  C11 UNL     1      31.049 -53.316   5.115  1.00  0.00     0.200 C 
ATOM     31  H6  UNL     1      31.488 -55.089   6.089  1.00  0.00     0.189 HD
HETATM   32  N7  UNL     1      31.287 -53.231   3.845  1.00  0.00    -0.372 N 
HETATM   33  N8  UNL     1      31.136 -52.118   5.901  1.00  0.00    -0.062 NA
ATOM     34  H72 UNL     1      31.225 -54.083   3.287  1.00  0.00     0.158 HD
ATOM     35  H71 UNL     1      31.531 -52.344   3.405  1.00  0.00     0.158 HD
ATOM     36  H5  UNL     1      29.497 -55.929   6.329  1.00  0.00     0.189 HD
ENDBRANCH  23  28
ENDBRANCH   1  19
BRANCH   2  37
HETATM   37  N2  UNL     1      24.050 -54.061   6.071  1.00  0.00    -0.253 N 
HETATM   38  C6  UNL     1      23.196 -54.375   4.953  1.00  0.00     0.347 C 
HETATM   39  N3  UNL     1      22.783 -55.703   4.771  1.00  0.00    -0.038 NA
HETATM   40  O2  UNL     1      22.841 -53.467   4.172  1.00  0.00    -0.249 OA
ATOM     41  H2  UNL     1      24.346 -54.793   6.716  1.00  0.00     0.191 HD
ENDBRANCH   2  37
TORSDOF 7
ENDMDL
MODEL 3
REMARK VINA RESULT: -7.003799653      1.443      3.889
REMARK  7 active torsions:
REMARK  status: ('A' for Active; 'I' for Inactive)
REMARK    1  A    between atoms: C2_2  and  C3_4 
REMARK    2  A    between atoms: C4_5  and  C5_6 
REMARK    3  A    between atoms: C5_6  and  C7_14 
REMARK    4  A    between atoms: N1_7  and  N2_9 
REMARK       I    between atoms: N2_9  and  C6_11 
REMARK    5  A    between atoms: C8_17  and  C9_18 
REMARK    6  A    between atoms: C10_21  and  N5_22 
REMARK       I    between atoms: N6_24  and  C11_26 
REMARK    7  A    between atoms: N9_32  and  N10_33 
ROOT
HETATM    1  C5  UNL     1      29.295 -52.962   4.314  1.00  0.00     0.130 C 
HETATM    2  N1  UNL     1      28.888 -53.922   3.456  1.00  0.00    -0.291 N 
ATOM      3  H1  UNL     1      29.620 -54.350   2.890  1.00  0.00     0.187 HD
ENDROOT
BRANCH   1   4
HETATM    4  C4  UNL     1      30.715 -52.743   4.243  1.00  0.00     0.112 A 
HETATM    5  C3  UNL     1      31.400 -51.827   3.531  1.00  0.00     0.109 A 
HETATM    6  C13 UNL     1      32.827 -51.749   3.526  1.00  0.00     0.265 A 
HETATM    7  N11 UNL     1      33.491 -52.618   4.258  1.00  0.00    -0.273 N 
HETATM    8  O7  UNL     1      33.436 -50.892   2.857  1.00  0.00    -0.267 OA
HETATM    9  C12 UNL     1      32.842 -53.531   4.972  1.00  0.00     0.348 A 
ATOM     10  H11 UNL     1      34.511 -52.590   4.278  1.00  0.00     0.173 HD
HETATM   11  N9  UNL     1      31.524 -53.609   4.980  1.00  0.00    -0.208 N 
HETATM   12  O6  UNL     1      33.520 -54.361   5.674  1.00  0.00    -0.245 OA
BRANCH   5  13
HETATM   13  C2  UNL     1      30.845 -50.783   2.693  1.00  0.00     0.163 C 
HETATM   14  C1  UNL     1      30.485 -51.127   1.281  1.00  0.00     0.097 C 
HETATM   15  O1  UNL     1      30.660 -49.637   3.124  1.00  0.00    -0.292 OA
ENDBRANCH   5  13
BRANCH  11  16
HETATM   16  N10 UNL     1      30.880 -54.592   5.746  1.00  0.00    -0.334 N 
ATOM     17 2H10 UNL     1      30.986 -55.578   5.508  1.00  0.00     0.177 HD
ATOM     18 1H10 UNL     1      30.313 -54.274   6.532  1.00  0.00     0.177 HD
ENDBRANCH  11  16
ENDBRANCH   1   4
BRANCH   1  19
HETATM   19  C7  UNL     1      28.215 -52.395   5.055  1.00  0.00     0.181 A 
HETATM   20  N4  UNL     1      27.841 -51.221   5.532  1.00  0.00    -0.326 N 
HETATM   21  C8  UNL     1      26.694 -51.232   6.185  1.00  0.00     0.165 A 
ATOM     22  H4  UNL     1      28.395 -50.374   5.404  1.00  0.00     0.168 HD
HETATM   23  C10 UNL     1      26.301 -52.552   6.114  1.00  0.00     0.198 A 
HETATM   24  O5  UNL     1      27.199 -53.199   5.456  1.00  0.00    -0.271 OA
BRANCH  21  25
HETATM   25  C9  UNL     1      25.969 -50.145   6.844  1.00  0.00     0.231 C 
HETATM   26  O3  UNL     1      24.787 -49.929   6.482  1.00  0.00    -0.643 OA
HETATM   27  O4  UNL     1      26.577 -49.386   7.832  1.00  0.00    -0.643 OA
ENDBRANCH  21  25
BRANCH  23  28
HETATM   28  N5  UNL     1      25.098 -53.084   6.683  1.00  0.00    -0.275 N 
HETATM   29  N6  UNL     1      24.003 -53.162   6.089  1.00  0.00    -0.272 N 
HETATM   30  C11 UNL     1      23.716 -52.760   4.773  1.00  0.00     0.200 C 
ATOM     31  H6  UNL     1      23.228 -53.564   6.618  1.00  0.00     0.189 HD
HETATM   32  N7  UNL     1      23.328 -51.555   4.501  1.00  0.00    -0.372 N 
HETATM   33  N8  UNL     1      23.849 -53.689   3.687  1.00  0.00    -0.062 NA
ATOM     34  H72 UNL     1      23.234 -50.894   5.272  1.00  0.00     0.158 HD
ATOM     35  H71 UNL     1      23.121 -51.263   3.546  1.00  0.00     0.158 HD
ATOM     36  H5  UNL     1      25.140 -53.423   7.644  1.00  0.00     0.189 HD
ENDBRANCH  23  28
ENDBRANCH   1  19
BRANCH   2  37
HETATM   37  N2  UNL     1      27.653 -54.385   3.252  1.00  0.00    -0.253 N 
HETATM   38  C6  UNL     1      27.438 -55.808   3.166  1.00  0.00     0.347 C 
HETATM   39  N3  UNL     1      26.135 -56.283   2.952  1.00  0.00    -0.038 NA
HETATM   40  O2  UNL     1      28.407 -56.588   3.283  1.00  0.00    -0.249 OA
ATOM     41  H2  UNL     1      26.869 -53.739   3.158  1.00  0.00     0.191 HD
ENDBRANCH   2  37
TORSDOF 7
ENDMDL
MODEL 4
REMARK VINA RESULT: -6.991393130      1.012      1.280
REMARK  7 active torsions:
REMARK  status: ('A' for Active; 'I' for Inactive)
REMARK    1  A    between atoms: C2_2  and  C3_4 
REMARK    2  A    between atoms: C4_5  and  C5_6 
REMARK    3  A    between atoms: C5_6  and  C7_14 
REMARK    4  A    between atoms: N1_7  and  N2_9 
REMARK       I    between atoms: N2_9  and  C6_11 
REMARK    5  A    between atoms: C8_17  and  C9_18 
REMARK    6  A    between atoms: C10_21  and  N5_22 
REMARK       I    between atoms: N6_24  and  C11_26 
REMARK    7  A    between atoms: N9_32  and  N10_33 
ROOT
HETATM    1  C5  UNL     1      29.259 -53.114   4.297  1.00  0.00     0.130 C 
HETATM    2  N1  UNL     1      28.681 -52.577   5.392  1.00  0.00    -0.291 N 
ATOM      3  H1  UNL     1      29.305 -52.070   6.019  1.00  0.00     0.187 HD
ENDROOT
BRANCH   1   4
HETATM    4  C4  UNL     1      30.672 -52.847   4.246  1.00  0.00     0.112 A 
HETATM    5  C3  UNL     1      31.333 -51.891   3.565  1.00  0.00     0.109 A 
HETATM    6  C13 UNL     1      32.757 -51.767   3.576  1.00  0.00     0.265 A 
HETATM    7  N11 UNL     1      33.443 -52.634   4.291  1.00  0.00    -0.273 N 
HETATM    8  O7  UNL     1      33.344 -50.873   2.935  1.00  0.00    -0.267 OA
HETATM    9  C12 UNL     1      32.816 -53.587   4.973  1.00  0.00     0.348 A 
ATOM     10  H11 UNL     1      34.460 -52.573   4.321  1.00  0.00     0.173 HD
HETATM   11  N9  UNL     1      31.501 -53.706   4.967  1.00  0.00    -0.208 N 
HETATM   12  O6  UNL     1      33.515 -54.413   5.659  1.00  0.00    -0.245 OA
BRANCH   5  13
HETATM   13  C2  UNL     1      30.752 -50.843   2.750  1.00  0.00     0.163 C 
HETATM   14  C1  UNL     1      30.447 -51.150   1.317  1.00  0.00     0.097 C 
HETATM   15  O1  UNL     1      30.502 -49.724   3.217  1.00  0.00    -0.292 OA
ENDBRANCH   5  13
BRANCH  11  16
HETATM   16  N10 UNL     1      30.884 -54.730   5.700  1.00  0.00    -0.334 N 
ATOM     17 2H10 UNL     1      31.168 -54.915   6.662  1.00  0.00     0.177 HD
ATOM     18 1H10 UNL     1      30.156 -55.267   5.230  1.00  0.00     0.177 HD
ENDBRANCH  11  16
ENDBRANCH   1   4
BRANCH   1  19
HETATM   19  C7  UNL     1      28.330 -53.826   3.479  1.00  0.00     0.181 A 
HETATM   20  N4  UNL     1      27.800 -53.748   2.273  1.00  0.00    -0.326 N 
HETATM   21  C8  UNL     1      26.942 -54.708   1.985  1.00  0.00     0.165 A 
ATOM     22  H4  UNL     1      28.035 -53.005   1.616  1.00  0.00     0.168 HD
HETATM   23  C10 UNL     1      26.928 -55.476   3.131  1.00  0.00     0.198 A 
HETATM   24  O5  UNL     1      27.740 -54.942   3.975  1.00  0.00    -0.271 OA
BRANCH  21  25
HETATM   25  C9  UNL     1      26.165 -54.952   0.769  1.00  0.00     0.231 C 
HETATM   26  O3  UNL     1      26.724 -54.737  -0.335  1.00  0.00    -0.643 OA
HETATM   27  O4  UNL     1      24.856 -55.404   0.844  1.00  0.00    -0.643 OA
ENDBRANCH  21  25
BRANCH  23  28
HETATM   28  N5  UNL     1      26.139 -56.656   3.321  1.00  0.00    -0.275 N 
HETATM   29  N6  UNL     1      25.553 -56.959   4.381  1.00  0.00    -0.272 N 
HETATM   30  C11 UNL     1      25.540 -56.234   5.585  1.00  0.00     0.200 C 
ATOM     31  H6  UNL     1      25.025 -57.832   4.373  1.00  0.00     0.189 HD
HETATM   32  N7  UNL     1      26.442 -56.412   6.495  1.00  0.00    -0.372 N 
HETATM   33  N8  UNL     1      24.510 -55.265   5.833  1.00  0.00    -0.062 NA
ATOM     34  H72 UNL     1      27.174 -57.101   6.319  1.00  0.00     0.158 HD
ATOM     35  H71 UNL     1      26.432 -55.885   7.369  1.00  0.00     0.158 HD
ATOM     36  H5  UNL     1      26.048 -57.296   2.531  1.00  0.00     0.189 HD
ENDBRANCH  23  28
ENDBRANCH   1  19
BRANCH   2  37
HETATM   37  N2  UNL     1      27.400 -52.623   5.763  1.00  0.00    -0.253 N 
HETATM   38  C6  UNL     1      26.956 -51.813   6.869  1.00  0.00     0.347 C 
HETATM   39  N3  UNL     1      25.606 -51.869   7.250  1.00  0.00    -0.038 NA
HETATM   40  O2  UNL     1      27.773 -51.079   7.466  1.00  0.00    -0.249 OA
ATOM     41  H2  UNL     1      26.742 -53.226   5.269  1.00  0.00     0.191 HD
ENDBRANCH   2  37
TORSDOF 7
ENDMDL
MODEL 5
REMARK VINA RESULT: -6.873119408      1.375      1.919
REMARK  7 active torsions:
REMARK  status: ('A' for Active; 'I' for Inactive)
REMARK    1  A    between atoms: C2_2  and  C3_4 
REMARK    2  A    between atoms: C4_5  and  C5_6 
REMARK    3  A    between atoms: C5_6  and  C7_14 
REMARK    4  A    between atoms: N1_7  and  N2_9 
REMARK       I    between atoms: N2_9  and  C6_11 
REMARK    5  A    between atoms: C8_17  and  C9_18 
REMARK    6  A    between atoms: C10_21  and  N5_22 
REMARK       I    between atoms: N6_24  and  C11_26 
REMARK    7  A    between atoms: N9_32  and  N10_33 
ROOT
HETATM    1  C5  UNL     1      29.260 -52.920   4.861  1.00  0.00     0.130 C 
HETATM    2  N1  UNL     1      28.638 -51.735   5.033  1.00  0.00    -0.291 N 
ATOM      3  H1  UNL     1      29.224 -50.907   4.926  1.00  0.00     0.187 HD
ENDROOT
BRANCH   1   4
HETATM    4  C4  UNL     1      30.656 -52.758   4.554  1.00  0.00     0.112 A 
HETATM    5  C3  UNL     1      31.244 -51.903   3.696  1.00  0.00     0.109 A 
HETATM    6  C13 UNL     1      32.654 -51.879   3.459  1.00  0.00     0.265 A 
HETATM    7  N11 UNL     1      33.401 -52.739   4.118  1.00  0.00    -0.273 N 
HETATM    8  O7  UNL     1      33.173 -51.077   2.658  1.00  0.00    -0.267 OA
HETATM    9  C12 UNL     1      32.848 -53.594   4.972  1.00  0.00     0.348 A 
ATOM     10  H11 UNL     1      34.410 -52.748   3.973  1.00  0.00     0.173 HD
HETATM   11  N9  UNL     1      31.547 -53.620   5.195  1.00  0.00    -0.208 N 
HETATM   12  O6  UNL     1      33.605 -54.416   5.598  1.00  0.00    -0.245 OA
BRANCH   5  13
HETATM   13  C2  UNL     1      30.593 -50.877   2.905  1.00  0.00     0.163 C 
HETATM   14  C1  UNL     1      30.139 -51.233   1.523  1.00  0.00     0.097 C 
HETATM   15  O1  UNL     1      30.404 -49.738   3.352  1.00  0.00    -0.292 OA
ENDBRANCH   5  13
BRANCH  11  16
HETATM   16  N10 UNL     1      31.006 -54.543   6.103  1.00  0.00    -0.334 N 
ATOM     17 2H10 UNL     1      30.284 -55.196   5.800  1.00  0.00     0.177 HD
ATOM     18 1H10 UNL     1      31.363 -54.521   7.058  1.00  0.00     0.177 HD
ENDBRANCH  11  16
ENDBRANCH   1   4
BRANCH   1  19
HETATM   19  C7  UNL     1      28.384 -54.032   5.048  1.00  0.00     0.181 A 
HETATM   20  N4  UNL     1      27.898 -54.763   6.034  1.00  0.00    -0.326 N 
HETATM   21  C8  UNL     1      27.084 -55.730   5.654  1.00  0.00     0.165 A 
ATOM     22  H4  UNL     1      28.132 -54.594   7.012  1.00  0.00     0.168 HD
HETATM   23  C10 UNL     1      27.052 -55.596   4.281  1.00  0.00     0.198 A 
HETATM   24  O5  UNL     1      27.812 -54.608   3.961  1.00  0.00    -0.271 OA
BRANCH  21  25
HETATM   25  C9  UNL     1      26.364 -56.729   6.445  1.00  0.00     0.231 C 
HETATM   26  O3  UNL     1      26.867 -57.080   7.540  1.00  0.00    -0.643 OA
HETATM   27  O4  UNL     1      25.167 -57.263   5.990  1.00  0.00    -0.643 OA
ENDBRANCH  21  25
BRANCH  23  28
HETATM   28  N5  UNL     1      26.296 -56.427   3.392  1.00  0.00    -0.275 N 
HETATM   29  N6  UNL     1      25.123 -56.198   3.027  1.00  0.00    -0.272 N 
HETATM   30  C11 UNL     1      24.312 -55.111   3.395  1.00  0.00     0.200 C 
ATOM     31  H6  UNL     1      24.708 -56.877   2.388  1.00  0.00     0.189 HD
HETATM   32  N7  UNL     1      23.557 -55.154   4.446  1.00  0.00    -0.372 N 
HETATM   33  N8  UNL     1      24.303 -53.914   2.604  1.00  0.00    -0.062 NA
ATOM     34  H72 UNL     1      23.564 -56.005   5.009  1.00  0.00     0.158 HD
ATOM     35  H71 UNL     1      22.969 -54.364   4.714  1.00  0.00     0.158 HD
ATOM     36  H5  UNL     1      26.748 -57.266   3.030  1.00  0.00     0.189 HD
ENDBRANCH  23  28
ENDBRANCH   1  19
BRANCH   2  37
HETATM   37  N2  UNL     1      27.357 -51.503   5.325  1.00  0.00    -0.253 N 
HETATM   38  C6  UNL     1      26.981 -51.238   6.692  1.00  0.00     0.347 C 
HETATM   39  N3  UNL     1      25.631 -50.995   6.987  1.00  0.00    -0.038 NA
HETATM   40  O2  UNL     1      27.857 -51.229   7.583  1.00  0.00    -0.249 OA
ATOM     41  H2  UNL     1      26.651 -51.513   4.590  1.00  0.00     0.191 HD
ENDBRANCH   2  37
TORSDOF 7
ENDMDL
