MODEL 1
REMARK VINA RESULT: -4.490494892      0.000      0.000
REMARK  1 active torsions:
REMARK  status: ('A' for Active; 'I' for Inactive)
REMARK    1  A    between atoms: C2_2  and  N1_5 
ROOT
HETATM    1  N1  UNL     1     -33.328   1.510 -38.663  1.00  0.00    -0.394 N 
HETATM    2  C5  UNL     1     -34.023   2.728 -38.947  1.00  0.00     0.118 C 
HETATM    3  C6  UNL     1     -34.464   2.509 -40.377  1.00  0.00     0.022 C 
HETATM    4  C7  UNL     1     -34.886   1.032 -40.283  1.00  0.00     0.034 C 
HETATM    5  C8  UNL     1     -33.836   0.433 -39.325  1.00  0.00     0.054 C 
HETATM    6  C9  UNL     1     -34.590  -0.610 -38.511  1.00  0.00     0.060 C 
HETATM    7  C10 UNL     1     -34.233  -1.927 -39.151  1.00  0.00     0.235 C 
HETATM    8  N2  UNL     1     -33.925  -1.500 -40.526  1.00  0.00    -0.073 N 
ATOM      9  H21 UNL     1     -34.717  -1.242 -41.115  1.00  0.00     0.277 HD
ATOM     10  H22 UNL     1     -33.599  -2.221 -41.169  1.00  0.00     0.277 HD
HETATM   11  C11 UNL     1     -32.967  -0.425 -40.191  1.00  0.00     0.263 C 
ENDROOT
BRANCH   1  12
HETATM   12  C2  UNL     1     -31.995   1.637 -38.256  1.00  0.00     0.018 C 
HETATM   13  C1  UNL     1     -31.000   1.906 -39.349  1.00  0.00     0.037 C 
HETATM   14  C3  UNL     1     -31.962   2.950 -37.427  1.00  0.00     0.037 C 
HETATM   15  C4  UNL     1     -31.437   0.595 -37.346  1.00  0.00     0.037 C 
ENDBRANCH   1  12
TORSDOF 1
ENDMDL
MODEL 2
REMARK VINA RESULT: -4.473213131      1.714      2.951
REMARK  1 active torsions:
REMARK  status: ('A' for Active; 'I' for Inactive)
REMARK    1  A    between atoms: C2_2  and  N1_5 
ROOT
HETATM    1  N1  UNL     1     -33.071   0.563 -38.706  1.00  0.00    -0.394 N 
HETATM    2  C5  UNL     1     -34.027   0.062 -39.646  1.00  0.00     0.118 C 
HETATM    3  C6  UNL     1     -33.272  -1.087 -40.276  1.00  0.00     0.022 C 
HETATM    4  C7  UNL     1     -32.603  -1.665 -39.016  1.00  0.00     0.034 C 
HETATM    5  C8  UNL     1     -32.257  -0.404 -38.199  1.00  0.00     0.054 C 
HETATM    6  C9  UNL     1     -32.453  -0.807 -36.744  1.00  0.00     0.060 C 
HETATM    7  C10 UNL     1     -31.062  -1.084 -36.232  1.00  0.00     0.235 C 
HETATM    8  N2  UNL     1     -30.371  -1.458 -37.477  1.00  0.00    -0.073 N 
ATOM      9  H21 UNL     1     -30.588  -2.376 -37.865  1.00  0.00     0.277 HD
ATOM     10  H22 UNL     1     -29.372  -1.651 -37.408  1.00  0.00     0.277 HD
HETATM   11  C11 UNL     1     -30.766  -0.284 -38.285  1.00  0.00     0.263 C 
ENDROOT
BRANCH   1  12
HETATM   12  C2  UNL     1     -32.719   1.911 -38.839  1.00  0.00     0.018 C 
HETATM   13  C1  UNL     1     -31.922   2.261 -40.065  1.00  0.00     0.037 C 
HETATM   14  C3  UNL     1     -34.066   2.646 -39.081  1.00  0.00     0.037 C 
HETATM   15  C4  UNL     1     -32.114   2.597 -37.661  1.00  0.00     0.037 C 
ENDBRANCH   1  12
TORSDOF 1
ENDMDL
MODEL 3
REMARK VINA RESULT: -4.382971017      1.454      2.896
REMARK  1 active torsions:
REMARK  status: ('A' for Active; 'I' for Inactive)
REMARK    1  A    between atoms: C2_2  and  N1_5 
ROOT
HETATM    1  N1  UNL     1     -31.797   0.393 -38.595  1.00  0.00    -0.394 N 
HETATM    2  C5  UNL     1     -31.017  -0.126 -37.513  1.00  0.00     0.118 C 
HETATM    3  C6  UNL     1     -32.084  -0.702 -36.608  1.00  0.00     0.022 C 
HETATM    4  C7  UNL     1     -32.995  -1.338 -37.673  1.00  0.00     0.034 C 
HETATM    5  C8  UNL     1     -32.931  -0.324 -38.833  1.00  0.00     0.054 C 
HETATM    6  C9  UNL     1     -32.985  -1.166 -40.101  1.00  0.00     0.060 C 
HETATM    7  C10 UNL     1     -34.416  -1.066 -40.567  1.00  0.00     0.235 C 
HETATM    8  N2  UNL     1     -35.110  -0.800 -39.295  1.00  0.00    -0.073 N 
ATOM      9  H21 UNL     1     -35.203  -1.585 -38.650  1.00  0.00     0.277 HD
ATOM     10  H22 UNL     1     -36.115  -0.638 -39.346  1.00  0.00     0.277 HD
HETATM   11  C11 UNL     1     -34.275   0.335 -38.846  1.00  0.00     0.263 C 
ENDROOT
BRANCH   1  12
HETATM   12  C2  UNL     1     -31.644   1.756 -38.872  1.00  0.00     0.018 C 
HETATM   13  C1  UNL     1     -32.107   2.698 -37.795  1.00  0.00     0.037 C 
HETATM   14  C3  UNL     1     -30.108   1.983 -38.891  1.00  0.00     0.037 C 
HETATM   15  C4  UNL     1     -32.124   2.262 -40.190  1.00  0.00     0.037 C 
ENDBRANCH   1  12
TORSDOF 1
ENDMDL
MODEL 4
REMARK VINA RESULT: -4.329189430      1.292      3.987
REMARK  1 active torsions:
REMARK  status: ('A' for Active; 'I' for Inactive)
REMARK    1  A    between atoms: C2_2  and  N1_5 
ROOT
HETATM    1  N1  UNL     1     -33.312   0.559 -38.739  1.00  0.00    -0.394 N 
HETATM    2  C5  UNL     1     -32.452   0.042 -37.718  1.00  0.00     0.118 C 
HETATM    3  C6  UNL     1     -31.145   0.736 -38.032  1.00  0.00     0.022 C 
HETATM    4  C7  UNL     1     -31.684   2.138 -38.371  1.00  0.00     0.034 C 
HETATM    5  C8  UNL     1     -33.002   1.831 -39.111  1.00  0.00     0.054 C 
HETATM    6  C9  UNL     1     -33.956   2.945 -38.700  1.00  0.00     0.060 C 
HETATM    7  C10 UNL     1     -33.945   3.907 -39.861  1.00  0.00     0.235 C 
HETATM    8  N2  UNL     1     -32.614   3.644 -40.434  1.00  0.00    -0.073 N 
ATOM      9  H21 UNL     1     -31.812   4.005 -39.916  1.00  0.00     0.277 HD
ATOM     10  H22 UNL     1     -32.373   4.150 -41.286  1.00  0.00     0.277 HD
HETATM   11  C11 UNL     1     -32.730   2.175 -40.543  1.00  0.00     0.263 C 
ENDROOT
BRANCH   1  12
HETATM   12  C2  UNL     1     -33.927  -0.386 -39.568  1.00  0.00     0.018 C 
HETATM   13  C1  UNL     1     -33.015  -1.119 -40.512  1.00  0.00     0.037 C 
HETATM   14  C3  UNL     1     -34.399  -1.508 -38.603  1.00  0.00     0.037 C 
HETATM   15  C4  UNL     1     -35.155   0.025 -40.309  1.00  0.00     0.037 C 
ENDBRANCH   1  12
TORSDOF 1
ENDMDL
MODEL 5
REMARK VINA RESULT: -4.328360407      1.274      3.730
REMARK  1 active torsions:
REMARK  status: ('A' for Active; 'I' for Inactive)
REMARK    1  A    between atoms: C2_2  and  N1_5 
ROOT
HETATM    1  N1  UNL     1     -33.486   1.405 -39.920  1.00  0.00    -0.394 N 
HETATM    2  C5  UNL     1     -34.329   2.491 -40.316  1.00  0.00     0.118 C 
HETATM    3  C6  UNL     1     -34.184   3.440 -39.146  1.00  0.00     0.022 C 
HETATM    4  C7  UNL     1     -32.672   3.293 -38.894  1.00  0.00     0.034 C 
HETATM    5  C8  UNL     1     -32.420   1.796 -39.168  1.00  0.00     0.054 C 
HETATM    6  C9  UNL     1     -31.039   1.737 -39.806  1.00  0.00     0.060 C 
HETATM    7  C10 UNL     1     -30.117   1.320 -38.688  1.00  0.00     0.235 C 
HETATM    8  N2  UNL     1     -30.854   1.816 -37.514  1.00  0.00    -0.073 N 
ATOM      9  H21 UNL     1     -30.850   2.825 -37.361  1.00  0.00     0.277 HD
ATOM     10  H22 UNL     1     -30.453   1.611 -36.599  1.00  0.00     0.277 HD
HETATM   11  C11 UNL     1     -32.161   1.195 -37.821  1.00  0.00     0.263 C 
ENDROOT
BRANCH   1  12
HETATM   12  C2  UNL     1     -34.090   0.145 -39.849  1.00  0.00     0.018 C 
HETATM   13  C1  UNL     1     -34.609  -0.256 -38.496  1.00  0.00     0.037 C 
HETATM   14  C3  UNL     1     -35.389   0.284 -40.689  1.00  0.00     0.037 C 
HETATM   15  C4  UNL     1     -33.368  -1.015 -40.448  1.00  0.00     0.037 C 
ENDBRANCH   1  12
TORSDOF 1
ENDMDL
