MODEL 1
REMARK VINA RESULT: -6.444189355      0.000      0.000
REMARK  2 active torsions:
REMARK  status: ('A' for Active; 'I' for Inactive)
REMARK    1  A    between atoms: O1_1  and  C1_3 
REMARK    2  A    between atoms: C6_8  and  O2_9 
ROOT
HETATM    1  C1  UNL     1     -30.313   6.608 -38.345  1.00  0.00     0.118 C 
HETATM    2  C2  UNL     1     -31.271   7.694 -38.145  1.00  0.00     0.032 C 
HETATM    3  C3  UNL     1     -32.588   7.616 -38.944  1.00  0.00     0.007 C 
HETATM    4  C4  UNL     1     -32.776   6.190 -39.087  1.00  0.00    -0.012 C 
HETATM    5  C5  UNL     1     -33.859   5.504 -39.785  1.00  0.00     0.036 C 
HETATM    6  C6  UNL     1     -33.508   4.021 -39.563  1.00  0.00     0.118 C 
HETATM    7  C7  UNL     1     -32.128   3.776 -39.028  1.00  0.00     0.036 C 
HETATM    8  C8  UNL     1     -31.752   4.537 -37.777  1.00  0.00    -0.009 C 
HETATM    9  C9  UNL     1     -30.447   5.264 -37.865  1.00  0.00     0.036 C 
HETATM   10  C10 UNL     1     -32.795   5.618 -37.670  1.00  0.00     0.009 C 
ENDROOT
BRANCH   1  11
HETATM   11  O1  UNL     1     -29.106   7.138 -37.775  1.00  0.00    -0.396 OA
ATOM     12  H1  UNL     1     -29.413   7.904 -37.305  1.00  0.00     0.210 HD
ENDBRANCH   1  11
BRANCH   6  13
HETATM   13  O2  UNL     1     -34.506   3.352 -38.880  1.00  0.00    -0.396 OA
ATOM     14  H2  UNL     1     -34.572   2.444 -39.149  1.00  0.00     0.210 HD
ENDBRANCH   6  13
TORSDOF 2
ENDMDL
MODEL 2
REMARK VINA RESULT: -5.999813797      2.198      3.508
REMARK  2 active torsions:
REMARK  status: ('A' for Active; 'I' for Inactive)
REMARK    1  A    between atoms: O1_1  and  C1_3 
REMARK    2  A    between atoms: C6_8  and  O2_9 
ROOT
HETATM    1  C1  UNL     1     -33.531   5.615 -39.193  1.00  0.00     0.118 C 
HETATM    2  C2  UNL     1     -32.125   5.759 -38.820  1.00  0.00     0.032 C 
HETATM    3  C3  UNL     1     -31.525   4.651 -37.930  1.00  0.00     0.007 C 
HETATM    4  C4  UNL     1     -32.298   3.493 -38.318  1.00  0.00    -0.012 C 
HETATM    5  C5  UNL     1     -32.192   2.138 -37.786  1.00  0.00     0.036 C 
HETATM    6  C6  UNL     1     -33.249   1.377 -38.608  1.00  0.00     0.118 C 
HETATM    7  C7  UNL     1     -34.185   2.252 -39.389  1.00  0.00     0.036 C 
HETATM    8  C8  UNL     1     -33.540   3.278 -40.295  1.00  0.00    -0.009 C 
HETATM    9  C9  UNL     1     -34.067   4.668 -40.125  1.00  0.00     0.036 C 
HETATM   10  C10 UNL     1     -32.110   3.341 -39.827  1.00  0.00     0.009 C 
ENDROOT
BRANCH   1  11
HETATM   11  O1  UNL     1     -33.866   6.922 -39.685  1.00  0.00    -0.396 OA
ATOM     12  H1  UNL     1     -33.025   7.362 -39.708  1.00  0.00     0.210 HD
ENDBRANCH   1  11
BRANCH   6  13
HETATM   13  O2  UNL     1     -32.690   0.348 -39.341  1.00  0.00    -0.396 OA
ATOM     14  H2  UNL     1     -33.162  -0.467 -39.224  1.00  0.00     0.210 HD
ENDBRANCH   6  13
TORSDOF 2
ENDMDL
MODEL 3
REMARK VINA RESULT: -5.672601435      2.045      4.435
REMARK  2 active torsions:
REMARK  status: ('A' for Active; 'I' for Inactive)
REMARK    1  A    between atoms: O1_1  and  C1_3 
REMARK    2  A    between atoms: C6_8  and  O2_9 
ROOT
HETATM    1  C1  UNL     1     -33.143   1.340 -38.351  1.00  0.00     0.118 C 
HETATM    2  C2  UNL     1     -33.745   1.321 -39.684  1.00  0.00     0.032 C 
HETATM    3  C3  UNL     1     -34.437   2.618 -40.151  1.00  0.00     0.007 C 
HETATM    4  C4  UNL     1     -33.681   3.637 -39.458  1.00  0.00    -0.012 C 
HETATM    5  C5  UNL     1     -33.897   5.079 -39.496  1.00  0.00     0.036 C 
HETATM    6  C6  UNL     1     -32.773   5.605 -38.583  1.00  0.00     0.118 C 
HETATM    7  C7  UNL     1     -32.082   4.552 -37.769  1.00  0.00     0.036 C 
HETATM    8  C8  UNL     1     -31.545   3.363 -38.533  1.00  0.00    -0.009 C 
HETATM    9  C9  UNL     1     -31.948   2.035 -37.973  1.00  0.00     0.036 C 
HETATM   10  C10 UNL     1     -32.223   3.444 -39.874  1.00  0.00     0.009 C 
ENDROOT
BRANCH   1  11
HETATM   11  O1  UNL     1     -32.919  -0.053 -38.082  1.00  0.00    -0.396 OA
ATOM     12  H1  UNL     1     -32.044  -0.060 -37.714  1.00  0.00     0.210 HD
ENDBRANCH   1  11
BRANCH   6  13
HETATM   13  O2  UNL     1     -31.916   6.453 -39.257  1.00  0.00    -0.396 OA
ATOM     14  H2  UNL     1     -31.189   5.983 -39.649  1.00  0.00     0.210 HD
ENDBRANCH   6  13
TORSDOF 2
ENDMDL
MODEL 4
REMARK VINA RESULT: -5.651988385      2.244      3.529
REMARK  2 active torsions:
REMARK  status: ('A' for Active; 'I' for Inactive)
REMARK    1  A    between atoms: O1_1  and  C1_3 
REMARK    2  A    between atoms: C6_8  and  O2_9 
ROOT
HETATM    1  C1  UNL     1     -32.794   5.320 -39.454  1.00  0.00     0.118 C 
HETATM    2  C2  UNL     1     -34.064   4.740 -39.888  1.00  0.00     0.032 C 
HETATM    3  C3  UNL     1     -34.011   3.320 -40.487  1.00  0.00     0.007 C 
HETATM    4  C4  UNL     1     -32.881   2.738 -39.800  1.00  0.00    -0.012 C 
HETATM    5  C5  UNL     1     -32.330   1.399 -39.977  1.00  0.00     0.036 C 
HETATM    6  C6  UNL     1     -31.171   1.381 -38.962  1.00  0.00     0.118 C 
HETATM    7  C7  UNL     1     -30.809   2.725 -38.401  1.00  0.00     0.036 C 
HETATM    8  C8  UNL     1     -31.943   3.525 -37.800  1.00  0.00    -0.009 C 
HETATM    9  C9  UNL     1     -32.038   4.932 -38.299  1.00  0.00     0.036 C 
HETATM   10  C10 UNL     1     -33.188   2.845 -38.307  1.00  0.00     0.009 C 
ENDROOT
BRANCH   1  11
HETATM   11  O1  UNL     1     -33.114   6.711 -39.297  1.00  0.00    -0.396 OA
ATOM     12  H1  UNL     1     -32.381   7.145 -39.716  1.00  0.00     0.210 HD
ENDBRANCH   1  11
BRANCH   6  13
HETATM   13  O2  UNL     1     -31.335   0.395 -38.009  1.00  0.00    -0.396 OA
ATOM     14  H2  UNL     1     -31.926   0.666 -37.317  1.00  0.00     0.210 HD
ENDBRANCH   6  13
TORSDOF 2
ENDMDL
MODEL 5
REMARK VINA RESULT: -5.601860234      2.053      4.794
REMARK  2 active torsions:
REMARK  status: ('A' for Active; 'I' for Inactive)
REMARK    1  A    between atoms: O1_1  and  C1_3 
REMARK    2  A    between atoms: C6_8  and  O2_9 
ROOT
HETATM    1  C1  UNL     1     -34.270   1.366 -39.104  1.00  0.00     0.118 C 
HETATM    2  C2  UNL     1     -34.494   2.131 -40.330  1.00  0.00     0.032 C 
HETATM    3  C3  UNL     1     -34.335   3.662 -40.231  1.00  0.00     0.007 C 
HETATM    4  C4  UNL     1     -33.349   3.802 -39.184  1.00  0.00    -0.012 C 
HETATM    5  C5  UNL     1     -32.812   5.042 -38.633  1.00  0.00     0.036 C 
HETATM    6  C6  UNL     1     -31.806   4.529 -37.584  1.00  0.00     0.118 C 
HETATM    7  C7  UNL     1     -31.922   3.067 -37.268  1.00  0.00     0.036 C 
HETATM    8  C8  UNL     1     -31.888   2.123 -38.449  1.00  0.00    -0.009 C 
HETATM    9  C9  UNL     1     -33.004   1.127 -38.476  1.00  0.00     0.036 C 
HETATM   10  C10 UNL     1     -32.125   3.010 -39.642  1.00  0.00     0.009 C 
ENDROOT
BRANCH   1  11
HETATM   11  O1  UNL     1     -34.827   0.081 -39.424  1.00  0.00    -0.396 OA
ATOM     12  H1  UNL     1     -35.434  -0.070 -38.709  1.00  0.00     0.210 HD
ENDBRANCH   1  11
BRANCH   6  13
HETATM   13  O2  UNL     1     -30.519   4.949 -37.856  1.00  0.00    -0.396 OA
ATOM     14  H2  UNL     1     -29.996   4.258 -38.247  1.00  0.00     0.210 HD
ENDBRANCH   6  13
TORSDOF 2
ENDMDL
