MODEL 1
REMARK VINA RESULT: -6.502788777      0.000      0.000
REMARK  2 active torsions:
REMARK  status: ('A' for Active; 'I' for Inactive)
REMARK    1  A    between atoms: N1_1  and  N2_4 
REMARK       I    between atoms: N2_4  and  C1_6 
REMARK    2  A    between atoms: C1_6  and  C2_8 
ROOT
HETATM    1  C2  UNL     1     -32.233   5.313 -37.711  1.00  0.00     0.007 C 
HETATM    2  C3  UNL     1     -33.513   5.489 -38.398  1.00  0.00    -0.014 C 
HETATM    3  C4  UNL     1     -33.769   5.215 -39.824  1.00  0.00     0.028 C 
HETATM    4  C5  UNL     1     -34.191   3.862 -40.276  1.00  0.00     0.004 C 
HETATM    5  C6  UNL     1     -33.229   2.986 -40.999  1.00  0.00     0.000 C 
HETATM    6  C7  UNL     1     -32.331   2.069 -40.126  1.00  0.00     0.000 C 
HETATM    7  C8  UNL     1     -32.122   2.906 -38.968  1.00  0.00     0.000 C 
HETATM    8  C9  UNL     1     -31.337   2.867 -37.777  1.00  0.00     0.005 C 
HETATM    9  C10 UNL     1     -31.869   4.077 -36.992  1.00  0.00     0.044 C 
ENDROOT
BRANCH   1  10
HETATM   10  C1  UNL     1     -31.080   6.083 -38.288  1.00  0.00     0.265 C 
HETATM   11  N2  UNL     1     -31.386   7.141 -39.179  1.00  0.00    -0.273 N 
ATOM     12  H2  UNL     1     -32.361   7.344 -39.395  1.00  0.00     0.189 HD
HETATM   13  O1  UNL     1     -29.925   5.792 -37.991  1.00  0.00    -0.266 OA
BRANCH  11  14
HETATM   14  N1  UNL     1     -30.370   7.923 -39.774  1.00  0.00    -0.342 N 
ATOM     15  H12 UNL     1     -29.576   8.204 -39.197  1.00  0.00     0.176 HD
ATOM     16  H11 UNL     1     -30.418   8.205 -40.753  1.00  0.00     0.176 HD
ENDBRANCH  11  14
ENDBRANCH   1  10
TORSDOF 2
ENDMDL
MODEL 2
REMARK VINA RESULT: -6.372401916      1.117      1.117
REMARK  2 active torsions:
REMARK  status: ('A' for Active; 'I' for Inactive)
REMARK    1  A    between atoms: N1_1  and  N2_4 
REMARK       I    between atoms: N2_4  and  C1_6 
REMARK    2  A    between atoms: C1_6  and  C2_8 
ROOT
HETATM    1  C2  UNL     1     -32.244   5.341 -37.778  1.00  0.00     0.007 C 
HETATM    2  C3  UNL     1     -33.570   5.431 -38.391  1.00  0.00    -0.014 C 
HETATM    3  C4  UNL     1     -33.886   5.143 -39.802  1.00  0.00     0.028 C 
HETATM    4  C5  UNL     1     -34.240   3.764 -40.237  1.00  0.00     0.004 C 
HETATM    5  C6  UNL     1     -33.263   2.958 -41.019  1.00  0.00     0.000 C 
HETATM    6  C7  UNL     1     -32.256   2.103 -40.203  1.00  0.00     0.000 C 
HETATM    7  C8  UNL     1     -32.040   2.950 -39.054  1.00  0.00     0.000 C 
HETATM    8  C9  UNL     1     -31.188   2.962 -37.908  1.00  0.00     0.005 C 
HETATM    9  C10 UNL     1     -31.757   4.131 -37.088  1.00  0.00     0.044 C 
ENDROOT
BRANCH   1  10
HETATM   10  C1  UNL     1     -31.181   6.190 -38.414  1.00  0.00     0.265 C 
HETATM   11  N2  UNL     1     -29.866   6.076 -37.902  1.00  0.00    -0.273 N 
ATOM     12  H2  UNL     1     -29.685   5.432 -37.132  1.00  0.00     0.189 HD
HETATM   13  O1  UNL     1     -31.459   6.948 -39.339  1.00  0.00    -0.266 OA
BRANCH  11  14
HETATM   14  N1  UNL     1     -28.797   6.833 -38.434  1.00  0.00    -0.342 N 
ATOM     15  H12 UNL     1     -28.023   7.076 -37.816  1.00  0.00     0.176 HD
ATOM     16  H11 UNL     1     -28.790   7.134 -39.408  1.00  0.00     0.176 HD
ENDBRANCH  11  14
ENDBRANCH   1  10
TORSDOF 2
ENDMDL
MODEL 3
REMARK VINA RESULT: -6.197879264      3.639      4.789
REMARK  2 active torsions:
REMARK  status: ('A' for Active; 'I' for Inactive)
REMARK    1  A    between atoms: N1_1  and  N2_4 
REMARK       I    between atoms: N2_4  and  C1_6 
REMARK    2  A    between atoms: C1_6  and  C2_8 
ROOT
HETATM    1  C2  UNL     1     -33.035   1.898 -40.117  1.00  0.00     0.007 C 
HETATM    2  C3  UNL     1     -33.634   3.114 -40.667  1.00  0.00    -0.014 C 
HETATM    3  C4  UNL     1     -34.208   4.221 -39.880  1.00  0.00     0.028 C 
HETATM    4  C5  UNL     1     -33.357   5.352 -39.421  1.00  0.00     0.004 C 
HETATM    5  C6  UNL     1     -32.973   5.458 -37.987  1.00  0.00     0.000 C 
HETATM    6  C7  UNL     1     -31.676   4.720 -37.557  1.00  0.00     0.000 C 
HETATM    7  C8  UNL     1     -31.721   3.559 -38.414  1.00  0.00     0.000 C 
HETATM    8  C9  UNL     1     -30.985   2.346 -38.571  1.00  0.00     0.005 C 
HETATM    9  C10 UNL     1     -31.589   1.759 -39.858  1.00  0.00     0.044 C 
ENDROOT
BRANCH   1  10
HETATM   10  C1  UNL     1     -33.928   1.086 -39.224  1.00  0.00     0.265 C 
HETATM   11  N2  UNL     1     -35.318   1.116 -39.493  1.00  0.00    -0.273 N 
ATOM     12  H2  UNL     1     -35.663   1.676 -40.272  1.00  0.00     0.189 HD
HETATM   13  O1  UNL     1     -33.455   0.430 -38.299  1.00  0.00    -0.266 OA
BRANCH  11  14
HETATM   14  N1  UNL     1     -36.239   0.385 -38.708  1.00  0.00    -0.342 N 
ATOM     15  H12 UNL     1     -36.144  -0.630 -38.672  1.00  0.00     0.176 HD
ATOM     16  H11 UNL     1     -36.982   0.851 -38.187  1.00  0.00     0.176 HD
ENDBRANCH  11  14
ENDBRANCH   1  10
TORSDOF 2
ENDMDL
MODEL 4
REMARK VINA RESULT: -5.932752970      2.790      3.875
REMARK  2 active torsions:
REMARK  status: ('A' for Active; 'I' for Inactive)
REMARK    1  A    between atoms: N1_1  and  N2_4 
REMARK       I    between atoms: N2_4  and  C1_6 
REMARK    2  A    between atoms: C1_6  and  C2_8 
ROOT
HETATM    1  C2  UNL     1     -32.150   2.262 -38.094  1.00  0.00     0.007 C 
HETATM    2  C3  UNL     1     -32.046   3.438 -37.230  1.00  0.00    -0.014 C 
HETATM    3  C4  UNL     1     -31.860   4.827 -37.687  1.00  0.00     0.028 C 
HETATM    4  C5  UNL     1     -33.031   5.687 -38.007  1.00  0.00     0.004 C 
HETATM    5  C6  UNL     1     -33.357   6.003 -39.424  1.00  0.00     0.000 C 
HETATM    6  C7  UNL     1     -34.288   5.003 -40.163  1.00  0.00     0.000 C 
HETATM    7  C8  UNL     1     -33.879   3.752 -39.569  1.00  0.00     0.000 C 
HETATM    8  C9  UNL     1     -34.148   2.364 -39.765  1.00  0.00     0.005 C 
HETATM    9  C10 UNL     1     -33.441   1.719 -38.562  1.00  0.00     0.044 C 
ENDROOT
BRANCH   1  10
HETATM   10  C1  UNL     1     -30.986   2.032 -39.014  1.00  0.00     0.265 C 
HETATM   11  N2  UNL     1     -29.691   2.050 -38.441  1.00  0.00    -0.273 N 
ATOM     12  H2  UNL     1     -29.592   2.215 -37.439  1.00  0.00     0.189 HD
HETATM   13  O1  UNL     1     -31.167   1.838 -40.213  1.00  0.00    -0.266 OA
BRANCH  11  14
HETATM   14  N1  UNL     1     -28.533   1.845 -39.224  1.00  0.00    -0.342 N 
ATOM     15  H12 UNL     1     -28.427   2.389 -40.081  1.00  0.00     0.176 HD
ATOM     16  H11 UNL     1     -27.816   1.173 -38.951  1.00  0.00     0.176 HD
ENDBRANCH  11  14
ENDBRANCH   1  10
TORSDOF 2
ENDMDL
MODEL 5
REMARK VINA RESULT: -5.626533663      2.994      4.001
REMARK  2 active torsions:
REMARK  status: ('A' for Active; 'I' for Inactive)
REMARK    1  A    between atoms: N1_1  and  N2_4 
REMARK       I    between atoms: N2_4  and  C1_6 
REMARK    2  A    between atoms: C1_6  and  C2_8 
ROOT
HETATM    1  C2  UNL     1     -31.556   1.150 -37.754  1.00  0.00     0.007 C 
HETATM    2  C3  UNL     1     -31.960   2.400 -37.110  1.00  0.00    -0.014 C 
HETATM    3  C4  UNL     1     -31.834   3.748 -37.693  1.00  0.00     0.028 C 
HETATM    4  C5  UNL     1     -32.921   4.320 -38.532  1.00  0.00     0.004 C 
HETATM    5  C6  UNL     1     -32.744   4.427 -40.006  1.00  0.00     0.000 C 
HETATM    6  C7  UNL     1     -33.170   3.195 -40.849  1.00  0.00     0.000 C 
HETATM    7  C8  UNL     1     -32.823   2.115 -39.957  1.00  0.00     0.000 C 
HETATM    8  C9  UNL     1     -32.784   0.689 -40.007  1.00  0.00     0.005 C 
HETATM    9  C10 UNL     1     -32.482   0.317 -38.546  1.00  0.00     0.044 C 
ENDROOT
BRANCH   1  10
HETATM   10  C1  UNL     1     -30.114   1.073 -38.165  1.00  0.00     0.265 C 
HETATM   11  N2  UNL     1     -29.473   2.286 -38.520  1.00  0.00    -0.273 N 
ATOM     12  H2  UNL     1     -30.002   3.157 -38.486  1.00  0.00     0.189 HD
HETATM   13  O1  UNL     1     -29.528  -0.006 -38.188  1.00  0.00    -0.266 OA
BRANCH  11  14
HETATM   14  N1  UNL     1     -28.118   2.316 -38.921  1.00  0.00    -0.342 N 
ATOM     15  H12 UNL     1     -27.908   2.508 -39.901  1.00  0.00     0.176 HD
ATOM     16  H11 UNL     1     -27.362   2.152 -38.257  1.00  0.00     0.176 HD
ENDBRANCH  11  14
ENDBRANCH   1  10
TORSDOF 2
ENDMDL
