MODEL 1
REMARK VINA RESULT: -4.951122179      0.000      0.000
REMARK  2 active torsions:
REMARK  status: ('A' for Active; 'I' for Inactive)
REMARK    1  A    between atoms: C2_2  and  N1_3 
REMARK    2  A    between atoms: C10_14  and  N2_15 
ROOT
HETATM    1  C1  UNL     1     -32.857   6.515 -37.863  1.00  0.00     0.046 C 
HETATM    2  C2  UNL     1     -32.469   5.258 -38.678  1.00  0.00     0.121 C 
HETATM    3  C3  UNL     1     -31.853   4.332 -37.748  1.00  0.00     0.043 C 
HETATM    4  C4  UNL     1     -31.800   2.886 -38.053  1.00  0.00    -0.010 C 
HETATM    5  C5  UNL     1     -31.016   2.516 -39.271  1.00  0.00     0.005 C 
HETATM    6  C6  UNL     1     -31.899   1.917 -40.334  1.00  0.00     0.001 C 
HETATM    7  C7  UNL     1     -32.742   3.031 -40.889  1.00  0.00     0.007 C 
HETATM    8  C8  UNL     1     -33.799   3.525 -39.979  1.00  0.00     0.018 C 
HETATM    9  C9  UNL     1     -33.635   4.901 -39.457  1.00  0.00     0.044 C 
HETATM   10  C10 UNL     1     -34.184   2.605 -38.859  1.00  0.00     0.188 C 
HETATM   11  C11 UNL     1     -33.124   2.179 -37.944  1.00  0.00     0.037 C 
ENDROOT
BRANCH   2  12
HETATM   12  N1  UNL     1     -31.428   5.767 -39.592  1.00  0.00    -0.071 N 
ATOM     13  H13 UNL     1     -31.062   6.688 -39.350  1.00  0.00     0.275 HD
ATOM     14  H12 UNL     1     -30.532   5.283 -39.530  1.00  0.00     0.275 HD
ATOM     15  H11 UNL     1     -31.880   5.712 -40.505  1.00  0.00     0.275 HD
ENDBRANCH   2  12
BRANCH  10  16
HETATM   16  N2  UNL     1     -34.949   1.468 -39.375  1.00  0.00    -0.075 N 
ATOM     17  H23 UNL     1     -34.606   1.160 -40.285  1.00  0.00     0.274 HD
ATOM     18  H22 UNL     1     -34.763   0.614 -38.849  1.00  0.00     0.274 HD
ATOM     19  H21 UNL     1     -35.944   1.691 -39.398  1.00  0.00     0.274 HD
ENDBRANCH  10  16
TORSDOF 2
ENDMDL
MODEL 2
REMARK VINA RESULT: -4.824687057      2.017      3.483
REMARK  2 active torsions:
REMARK  status: ('A' for Active; 'I' for Inactive)
REMARK    1  A    between atoms: C2_2  and  N1_3 
REMARK    2  A    between atoms: C10_14  and  N2_15 
ROOT
HETATM    1  C1  UNL     1     -33.456   4.765 -39.182  1.00  0.00     0.046 C 
HETATM    2  C2  UNL     1     -33.239   3.238 -39.065  1.00  0.00     0.121 C 
HETATM    3  C3  UNL     1     -32.674   2.800 -40.326  1.00  0.00     0.043 C 
HETATM    4  C4  UNL     1     -31.910   1.536 -40.408  1.00  0.00    -0.010 C 
HETATM    5  C5  UNL     1     -32.680   0.298 -40.079  1.00  0.00     0.005 C 
HETATM    6  C6  UNL     1     -32.151  -0.367 -38.836  1.00  0.00     0.001 C 
HETATM    7  C7  UNL     1     -32.535   0.502 -37.671  1.00  0.00     0.007 C 
HETATM    8  C8  UNL     1     -31.789   1.776 -37.572  1.00  0.00     0.018 C 
HETATM    9  C9  UNL     1     -32.563   3.017 -37.805  1.00  0.00     0.044 C 
HETATM   10  C10 UNL     1     -30.496   1.841 -38.329  1.00  0.00     0.188 C 
HETATM   11  C11 UNL     1     -30.548   1.592 -39.771  1.00  0.00     0.037 C 
ENDROOT
BRANCH   2  12
HETATM   12  N1  UNL     1     -34.615   2.716 -38.961  1.00  0.00    -0.071 N 
ATOM     13  H13 UNL     1     -34.846   1.985 -39.634  1.00  0.00     0.275 HD
ATOM     14  H12 UNL     1     -34.797   2.151 -38.131  1.00  0.00     0.275 HD
ATOM     15  H11 UNL     1     -35.184   3.560 -39.036  1.00  0.00     0.275 HD
ENDBRANCH   2  12
BRANCH  10  16
HETATM   16  N2  UNL     1     -29.479   1.020 -37.670  1.00  0.00    -0.075 N 
ATOM     17  H23 UNL     1     -29.423   0.085 -38.074  1.00  0.00     0.274 HD
ATOM     18  H22 UNL     1     -28.534   1.335 -37.890  1.00  0.00     0.274 HD
ATOM     19  H21 UNL     1     -29.645   0.991 -36.664  1.00  0.00     0.274 HD
ENDBRANCH  10  16
TORSDOF 2
ENDMDL
MODEL 3
REMARK VINA RESULT: -4.609560404      1.565      2.745
REMARK  2 active torsions:
REMARK  status: ('A' for Active; 'I' for Inactive)
REMARK    1  A    between atoms: C2_2  and  N1_3 
REMARK    2  A    between atoms: C10_14  and  N2_15 
ROOT
HETATM    1  C1  UNL     1     -31.485   6.015 -38.455  1.00  0.00     0.046 C 
HETATM    2  C2  UNL     1     -32.403   4.786 -38.657  1.00  0.00     0.121 C 
HETATM    3  C3  UNL     1     -32.441   4.525 -40.082  1.00  0.00     0.043 C 
HETATM    4  C4  UNL     1     -32.810   3.185 -40.591  1.00  0.00    -0.010 C 
HETATM    5  C5  UNL     1     -34.194   2.731 -40.255  1.00  0.00     0.005 C 
HETATM    6  C6  UNL     1     -34.175   1.529 -39.349  1.00  0.00     0.001 C 
HETATM    7  C7  UNL     1     -33.715   1.999 -37.997  1.00  0.00     0.007 C 
HETATM    8  C8  UNL     1     -32.281   2.356 -37.917  1.00  0.00     0.018 C 
HETATM    9  C9  UNL     1     -31.965   3.788 -37.706  1.00  0.00     0.044 C 
HETATM   10  C10 UNL     1     -31.405   1.803 -39.001  1.00  0.00     0.188 C 
HETATM   11  C11 UNL     1     -31.756   2.131 -40.384  1.00  0.00     0.037 C 
ENDROOT
BRANCH   2  12
HETATM   12  N1  UNL     1     -33.725   5.291 -38.238  1.00  0.00    -0.071 N 
ATOM     13  H13 UNL     1     -34.288   4.625 -37.710  1.00  0.00     0.275 HD
ATOM     14  H12 UNL     1     -33.699   6.003 -37.508  1.00  0.00     0.275 HD
ATOM     15  H11 UNL     1     -34.140   5.598 -39.118  1.00  0.00     0.275 HD
ENDBRANCH   2  12
BRANCH  10  16
HETATM   16  N2  UNL     1     -31.211   0.364 -38.813  1.00  0.00    -0.075 N 
ATOM     17  H23 UNL     1     -30.902   0.141 -37.867  1.00  0.00     0.274 HD
ATOM     18  H22 UNL     1     -32.098  -0.141 -38.804  1.00  0.00     0.274 HD
ATOM     19  H21 UNL     1     -30.572  -0.002 -39.519  1.00  0.00     0.274 HD
ENDBRANCH  10  16
TORSDOF 2
ENDMDL
MODEL 4
REMARK VINA RESULT: -4.553651755      2.950      4.557
REMARK  2 active torsions:
REMARK  status: ('A' for Active; 'I' for Inactive)
REMARK    1  A    between atoms: C2_2  and  N1_3 
REMARK    2  A    between atoms: C10_14  and  N2_15 
ROOT
HETATM    1  C1  UNL     1     -32.891   2.996 -40.619  1.00  0.00     0.046 C 
HETATM    2  C2  UNL     1     -33.392   1.797 -39.778  1.00  0.00     0.121 C 
HETATM    3  C3  UNL     1     -34.762   1.549 -40.182  1.00  0.00     0.043 C 
HETATM    4  C4  UNL     1     -35.384   0.226 -39.955  1.00  0.00    -0.010 C 
HETATM    5  C5  UNL     1     -35.505  -0.189 -38.525  1.00  0.00     0.005 C 
HETATM    6  C6  UNL     1     -34.659  -1.399 -38.228  1.00  0.00     0.001 C 
HETATM    7  C7  UNL     1     -33.223  -0.954 -38.254  1.00  0.00     0.007 C 
HETATM    8  C8  UNL     1     -32.693  -0.641 -39.600  1.00  0.00     0.018 C 
HETATM    9  C9  UNL     1     -32.369   0.778 -39.870  1.00  0.00     0.044 C 
HETATM   10  C10 UNL     1     -33.458  -1.211 -40.757  1.00  0.00     0.188 C 
HETATM   11  C11 UNL     1     -34.876  -0.861 -40.864  1.00  0.00     0.037 C 
ENDROOT
BRANCH   2  12
HETATM   12  N1  UNL     1     -33.398   2.338 -38.405  1.00  0.00    -0.071 N 
ATOM     13  H13 UNL     1     -34.085   3.074 -38.240  1.00  0.00     0.275 HD
ATOM     14  H12 UNL     1     -33.761   1.700 -37.696  1.00  0.00     0.275 HD
ATOM     15  H11 UNL     1     -32.428   2.621 -38.268  1.00  0.00     0.275 HD
ENDBRANCH   2  12
BRANCH  10  16
HETATM   16  N2  UNL     1     -33.245  -2.657 -40.844  1.00  0.00    -0.075 N 
ATOM     17  H23 UNL     1     -33.136  -3.083 -39.923  1.00  0.00     0.274 HD
ATOM     18  H22 UNL     1     -34.089  -3.149 -41.137  1.00  0.00     0.274 HD
ATOM     19  H21 UNL     1     -32.454  -2.862 -41.454  1.00  0.00     0.274 HD
ENDBRANCH  10  16
TORSDOF 2
ENDMDL
MODEL 5
REMARK VINA RESULT: -4.453665403      1.843      4.300
REMARK  2 active torsions:
REMARK  status: ('A' for Active; 'I' for Inactive)
REMARK    1  A    between atoms: C2_2  and  N1_3 
REMARK    2  A    between atoms: C10_14  and  N2_15 
ROOT
HETATM    1  C1  UNL     1     -34.168  -1.162 -38.129  1.00  0.00     0.046 C 
HETATM    2  C2  UNL     1     -33.730   0.019 -39.028  1.00  0.00     0.121 C 
HETATM    3  C3  UNL     1     -34.736   1.052 -38.878  1.00  0.00     0.043 C 
HETATM    4  C4  UNL     1     -34.417   2.462 -39.193  1.00  0.00    -0.010 C 
HETATM    5  C5  UNL     1     -34.045   2.733 -40.614  1.00  0.00     0.005 C 
HETATM    6  C6  UNL     1     -32.616   3.195 -40.731  1.00  0.00     0.001 C 
HETATM    7  C7  UNL     1     -31.741   2.005 -40.450  1.00  0.00     0.007 C 
HETATM    8  C8  UNL     1     -31.716   1.571 -39.036  1.00  0.00     0.018 C 
HETATM    9  C9  UNL     1     -32.334   0.260 -38.734  1.00  0.00     0.044 C 
HETATM   10  C10 UNL     1     -32.171   2.585 -38.029  1.00  0.00     0.188 C 
HETATM   11  C11 UNL     1     -33.519   3.133 -38.189  1.00  0.00     0.037 C 
ENDROOT
BRANCH   2  12
HETATM   12  N1  UNL     1     -33.836  -0.545 -40.388  1.00  0.00    -0.071 N 
ATOM     13  H13 UNL     1     -33.598  -1.534 -40.459  1.00  0.00     0.275 HD
ATOM     14  H12 UNL     1     -34.790  -0.644 -40.735  1.00  0.00     0.275 HD
ATOM     15  H11 UNL     1     -33.244   0.077 -40.938  1.00  0.00     0.275 HD
ENDBRANCH   2  12
BRANCH  10  16
HETATM   16  N2  UNL     1     -31.167   3.641 -37.881  1.00  0.00    -0.075 N 
ATOM     17  H23 UNL     1     -30.236   3.259 -37.709  1.00  0.00     0.274 HD
ATOM     18  H22 UNL     1     -30.976   4.111 -38.766  1.00  0.00     0.274 HD
ATOM     19  H21 UNL     1     -31.449   4.298 -37.154  1.00  0.00     0.274 HD
ENDBRANCH  10  16
TORSDOF 2
ENDMDL
