MODEL 1
REMARK VINA RESULT: -2.462131960      0.000      0.000
REMARK  3 active torsions:
REMARK  status: ('A' for Active; 'I' for Inactive)
REMARK    1  A    between atoms: N1_1  and  N2_4 
REMARK    2  A    between atoms: N2_4  and  C1_6 
REMARK    3  A    between atoms: N3_7  and  N4_9 
ROOT
HETATM    1  C1  UNL     1       9.289  53.419  44.321  1.00  0.00     0.213 C 
HETATM    2  N3  UNL     1       8.421  53.412  43.391  1.00  0.00    -0.294 N 
ATOM      3  H3  UNL     1       8.724  53.406  42.418  1.00  0.00     0.187 HD
ENDROOT
BRANCH   2   4
HETATM    4  N4  UNL     1       7.072  53.412  43.687  1.00  0.00    -0.287 N 
HETATM    5  C2  UNL     1       6.580  53.418  44.871  1.00  0.00     0.110 A 
HETATM    6  C3  UNL     1       5.548  53.423  45.856  1.00  0.00     0.198 A 
HETATM    7  N5  UNL     1       6.936  53.424  46.326  1.00  0.00    -0.370 N 
ATOM      8  H5  UNL     1       7.625  53.428  47.078  1.00  0.00     0.161 HD
ATOM      9  H4  UNL     1       6.417  53.408  42.904  1.00  0.00     0.188 HD
ENDBRANCH   2   4
BRANCH   1  10
HETATM   10  N2  UNL     1      10.668  53.418  43.956  1.00  0.00    -0.301 N 
ATOM     11  H2  UNL     1      11.370  53.429  44.696  1.00  0.00     0.187 HD
BRANCH  10  12
HETATM   12  N1  UNL     1      11.097  53.402  42.623  1.00  0.00    -0.344 N 
ATOM     13  H12 UNL     1      12.077  53.616  42.438  1.00  0.00     0.176 HD
ATOM     14  H11 UNL     1      10.471  53.188  41.846  1.00  0.00     0.176 HD
ENDBRANCH  10  12
ENDBRANCH   1  10
TORSDOF 3
ENDMDL
MODEL 2
REMARK VINA RESULT: -2.020476789      1.352      4.578
REMARK  3 active torsions:
REMARK  status: ('A' for Active; 'I' for Inactive)
REMARK    1  A    between atoms: N1_1  and  N2_4 
REMARK    2  A    between atoms: N2_4  and  C1_6 
REMARK    3  A    between atoms: N3_7  and  N4_9 
ROOT
HETATM    1  C1  UNL     1       6.417  53.429  45.006  1.00  0.00     0.213 C 
HETATM    2  N3  UNL     1       7.679  53.418  44.846  1.00  0.00    -0.294 N 
ATOM      3  H3  UNL     1       8.291  53.428  45.661  1.00  0.00     0.187 HD
ENDROOT
BRANCH   2   4
HETATM    4  N4  UNL     1       8.228  53.394  43.579  1.00  0.00    -0.287 N 
HETATM    5  C2  UNL     1       9.484  53.401  43.323  1.00  0.00     0.110 A 
HETATM    6  C3  UNL     1      10.650  53.394  42.500  1.00  0.00     0.198 A 
HETATM    7  N5  UNL     1      10.844  53.432  43.952  1.00  0.00    -0.370 N 
ATOM      8  H5  UNL     1      11.450  53.459  44.772  1.00  0.00     0.161 HD
ATOM      9  H4  UNL     1       7.586  53.368  42.786  1.00  0.00     0.188 HD
ENDBRANCH   2   4
BRANCH   1  10
HETATM   10  N2  UNL     1       5.906  53.454  46.337  1.00  0.00    -0.301 N 
ATOM     11  H2  UNL     1       6.419  52.962  47.068  1.00  0.00     0.187 HD
BRANCH  10  12
HETATM   12  N1  UNL     1       4.727  54.127  46.681  1.00  0.00    -0.344 N 
ATOM     13  H12 UNL     1       4.660  55.117  46.443  1.00  0.00     0.176 HD
ATOM     14  H11 UNL     1       3.948  53.667  47.153  1.00  0.00     0.176 HD
ENDBRANCH  10  12
ENDBRANCH   1  10
TORSDOF 3
ENDMDL
MODEL 3
REMARK VINA RESULT: -1.500597847      1.096      1.586
REMARK  3 active torsions:
REMARK  status: ('A' for Active; 'I' for Inactive)
REMARK    1  A    between atoms: N1_1  and  N2_4 
REMARK    2  A    between atoms: N2_4  and  C1_6 
REMARK    3  A    between atoms: N3_7  and  N4_9 
ROOT
HETATM    1  C1  UNL     1       9.311  53.423  44.487  1.00  0.00     0.213 C 
HETATM    2  N3  UNL     1       9.306  53.394  45.758  1.00  0.00    -0.294 N 
ATOM      3  H3  UNL     1      10.189  53.357  46.266  1.00  0.00     0.187 HD
ENDROOT
BRANCH   2   4
HETATM    4  N4  UNL     1       8.115  53.410  46.458  1.00  0.00    -0.287 N 
HETATM    5  C2  UNL     1       6.950  53.423  45.924  1.00  0.00     0.110 A 
HETATM    6  C3  UNL     1       5.523  53.439  45.902  1.00  0.00     0.198 A 
HETATM    7  N5  UNL     1       6.222  53.428  44.615  1.00  0.00    -0.370 N 
ATOM      8  H5  UNL     1       6.216  53.426  43.594  1.00  0.00     0.161 HD
ATOM      9  H4  UNL     1       8.167  53.413  47.477  1.00  0.00     0.188 HD
ENDBRANCH   2   4
BRANCH   1  10
HETATM   10  N2  UNL     1      10.570  53.403  43.817  1.00  0.00    -0.301 N 
ATOM     11  H2  UNL     1      11.423  53.395  44.376  1.00  0.00     0.187 HD
BRANCH  10  12
HETATM   12  N1  UNL     1      10.683  53.395  42.421  1.00  0.00    -0.344 N 
ATOM     13  H12 UNL     1      10.469  52.524  41.934  1.00  0.00     0.176 HD
ATOM     14  H11 UNL     1      10.966  54.216  41.887  1.00  0.00     0.176 HD
ENDBRANCH  10  12
ENDBRANCH   1  10
TORSDOF 3
ENDMDL
MODEL 4
REMARK VINA RESULT: -0.476640279      1.714      4.466
REMARK  3 active torsions:
REMARK  status: ('A' for Active; 'I' for Inactive)
REMARK    1  A    between atoms: N1_1  and  N2_4 
REMARK    2  A    between atoms: N2_4  and  C1_6 
REMARK    3  A    between atoms: N3_7  and  N4_9 
ROOT
HETATM    1  C1  UNL     1       6.678  54.459  45.686  1.00  0.00     0.213 C 
HETATM    2  N3  UNL     1       7.410  53.419  45.700  1.00  0.00    -0.294 N 
ATOM      3  H3  UNL     1       7.096  52.588  46.201  1.00  0.00     0.187 HD
ENDROOT
BRANCH   2   4
HETATM    4  N4  UNL     1       8.625  53.403  45.045  1.00  0.00    -0.287 N 
HETATM    5  C2  UNL     1       8.772  53.409  43.771  1.00  0.00     0.110 A 
HETATM    6  C3  UNL     1       9.492  53.405  42.539  1.00  0.00     0.198 A 
HETATM    7  N5  UNL     1       8.029  53.427  42.470  1.00  0.00    -0.370 N 
ATOM      8  H5  UNL     1       7.160  53.444  41.937  1.00  0.00     0.161 HD
ATOM      9  H4  UNL     1       9.470  53.387  45.616  1.00  0.00     0.188 HD
ENDBRANCH   2   4
BRANCH   1  10
HETATM   10  N2  UNL     1       5.433  54.418  46.380  1.00  0.00    -0.301 N 
ATOM     11  H2  UNL     1       5.216  55.163  47.042  1.00  0.00     0.187 HD
BRANCH  10  12
HETATM   12  N1  UNL     1       4.495  53.394  46.190  1.00  0.00    -0.344 N 
ATOM     13  H12 UNL     1       3.875  53.464  45.383  1.00  0.00     0.176 HD
ATOM     14  H11 UNL     1       4.415  52.598  46.822  1.00  0.00     0.176 HD
ENDBRANCH  10  12
ENDBRANCH   1  10
TORSDOF 3
ENDMDL
MODEL 5
REMARK VINA RESULT: -0.194576204      1.570      4.471
REMARK  3 active torsions:
REMARK  status: ('A' for Active; 'I' for Inactive)
REMARK    1  A    between atoms: N1_1  and  N2_4 
REMARK    2  A    between atoms: N2_4  and  C1_6 
REMARK    3  A    between atoms: N3_7  and  N4_9 
ROOT
HETATM    1  C1  UNL     1       7.429  53.511  45.518  1.00  0.00     0.213 C 
HETATM    2  N3  UNL     1       8.358  53.397  46.379  1.00  0.00    -0.294 N 
ATOM      3  H3  UNL     1       8.122  53.306  47.367  1.00  0.00     0.187 HD
ENDROOT
BRANCH   2   4
HETATM    4  N4  UNL     1       9.683  53.394  45.990  1.00  0.00    -0.287 N 
HETATM    5  C2  UNL     1      10.091  53.394  44.774  1.00  0.00     0.110 A 
HETATM    6  C3  UNL     1      11.051  53.394  43.719  1.00  0.00     0.198 A 
HETATM    7  N5  UNL     1       9.634  53.396  43.347  1.00  0.00    -0.370 N 
ATOM      8  H5  UNL     1       8.894  53.398  42.645  1.00  0.00     0.161 HD
ATOM      9  H4  UNL     1      10.391  53.392  46.724  1.00  0.00     0.188 HD
ENDBRANCH   2   4
BRANCH   1  10
HETATM   10  N2  UNL     1       6.079  53.508  45.978  1.00  0.00    -0.301 N 
ATOM     11  H2  UNL     1       5.770  52.750  46.586  1.00  0.00     0.187 HD
BRANCH  10  12
HETATM   12  N1  UNL     1       5.160  54.505  45.628  1.00  0.00    -0.344 N 
ATOM     13  H12 UNL     1       5.230  55.404  46.107  1.00  0.00     0.176 HD
ATOM     14  H11 UNL     1       4.436  54.364  44.923  1.00  0.00     0.176 HD
ENDBRANCH  10  12
ENDBRANCH   1  10
TORSDOF 3
ENDMDL
