MODEL 1
REMARK VINA RESULT: -3.714351911      0.000      0.000
REMARK  1 active torsions:
REMARK  status: ('A' for Active; 'I' for Inactive)
REMARK    1  A    between atoms: N2_4  and  N3_6 
ROOT
HETATM    1  N3  UNL     1       9.103  61.373  44.903  1.00  0.00    -0.274 N 
ATOM      2  H3  UNL     1       9.223  62.071  45.636  1.00  0.00     0.190 HD
HETATM    3  C1  UNL     1       8.142  60.515  44.996  1.00  0.00     0.111 A 
HETATM    4  C2  UNL     1       7.419  59.336  44.396  1.00  0.00     0.198 A 
HETATM    5  N4  UNL     1       6.997  59.927  45.655  1.00  0.00    -0.370 N 
ATOM      6  H4  UNL     1       6.351  59.928  46.444  1.00  0.00     0.161 HD
ENDROOT
BRANCH   1   7
HETATM    7  N2  UNL     1       9.972  61.359  43.824  1.00  0.00    -0.248 N 
HETATM    8  N1  UNL     1      10.346  60.301  43.264  1.00  0.00    -0.331 N 
ATOM      9  H12 UNL     1       9.984  59.420  43.631  1.00  0.00     0.178 HD
ATOM     10  H11 UNL     1      10.986  60.291  42.470  1.00  0.00     0.178 HD
ATOM     11  H2  UNL     1      10.324  62.248  43.471  1.00  0.00     0.207 HD
ENDBRANCH   1   7
TORSDOF 1
ENDMDL
MODEL 2
REMARK VINA RESULT: -3.709534679      0.900      1.467
REMARK  1 active torsions:
REMARK  status: ('A' for Active; 'I' for Inactive)
REMARK    1  A    between atoms: N2_4  and  N3_6 
ROOT
HETATM    1  N3  UNL     1       9.102  59.544  43.526  1.00  0.00    -0.274 N 
ATOM      2  H3  UNL     1       8.961  58.726  42.934  1.00  0.00     0.190 HD
HETATM    3  C1  UNL     1       8.231  59.826  44.437  1.00  0.00     0.111 A 
HETATM    4  C2  UNL     1       7.799  60.743  45.553  1.00  0.00     0.198 A 
HETATM    5  N4  UNL     1       7.008  59.586  45.170  1.00  0.00    -0.370 N 
ATOM      6  H4  UNL     1       6.178  59.011  45.316  1.00  0.00     0.161 HD
ENDROOT
BRANCH   1   7
HETATM    7  N2  UNL     1      10.225  60.335  43.341  1.00  0.00    -0.248 N 
HETATM    8  N1  UNL     1      10.258  61.552  43.644  1.00  0.00    -0.331 N 
ATOM      9  H12 UNL     1       9.412  61.962  44.043  1.00  0.00     0.178 HD
ATOM     10  H11 UNL     1      11.084  62.134  43.507  1.00  0.00     0.178 HD
ATOM     11  H2  UNL     1      11.060  59.909  42.942  1.00  0.00     0.207 HD
ENDBRANCH   1   7
TORSDOF 1
ENDMDL
MODEL 3
REMARK VINA RESULT: -1.956871433      1.676      2.237
REMARK  1 active torsions:
REMARK  status: ('A' for Active; 'I' for Inactive)
REMARK    1  A    between atoms: N2_4  and  N3_6 
ROOT
HETATM    1  N3  UNL     1       9.621  60.386  43.712  1.00  0.00    -0.274 N 
ATOM      2  H3  UNL     1      10.573  60.623  43.434  1.00  0.00     0.190 HD
HETATM    3  C1  UNL     1       9.160  60.825  44.835  1.00  0.00     0.111 A 
HETATM    4  C2  UNL     1       8.009  60.894  45.806  1.00  0.00     0.198 A 
HETATM    5  N4  UNL     1       9.269  61.565  46.073  1.00  0.00    -0.370 N 
ATOM      6  H4  UNL     1       9.832  62.146  46.694  1.00  0.00     0.161 HD
ENDROOT
BRANCH   1   7
HETATM    7  N2  UNL     1       8.843  59.598  42.879  1.00  0.00    -0.248 N 
HETATM    8  N1  UNL     1       7.593  59.692  42.824  1.00  0.00    -0.331 N 
ATOM      9  H12 UNL     1       7.146  60.384  43.426  1.00  0.00     0.178 HD
ATOM     10  H11 UNL     1       7.021  59.111  42.211  1.00  0.00     0.178 HD
ATOM     11  H2  UNL     1       9.307  58.911  42.285  1.00  0.00     0.207 HD
ENDBRANCH   1   7
TORSDOF 1
ENDMDL
MODEL 4
REMARK VINA RESULT: -1.858017983      1.427      2.032
REMARK  1 active torsions:
REMARK  status: ('A' for Active; 'I' for Inactive)
REMARK    1  A    between atoms: N2_4  and  N3_6 
ROOT
HETATM    1  N3  UNL     1       9.175  61.202  44.192  1.00  0.00    -0.274 N 
ATOM      2  H3  UNL     1       9.509  61.811  43.444  1.00  0.00     0.190 HD
HETATM    3  C1  UNL     1       8.264  60.324  43.936  1.00  0.00     0.111 A 
HETATM    4  C2  UNL     1       7.379  59.214  44.444  1.00  0.00     0.198 A 
HETATM    5  N4  UNL     1       7.340  59.643  43.057  1.00  0.00    -0.370 N 
ATOM      6  H4  UNL     1       6.943  59.537  42.123  1.00  0.00     0.161 HD
ENDROOT
BRANCH   1   7
HETATM    7  N2  UNL     1       9.705  61.332  45.465  1.00  0.00    -0.248 N 
HETATM    8  N1  UNL     1       9.000  61.313  46.503  1.00  0.00    -0.331 N 
ATOM      9  H12 UNL     1       7.993  61.196  46.385  1.00  0.00     0.178 HD
ATOM     10  H11 UNL     1       9.390  61.409  47.440  1.00  0.00     0.178 HD
ATOM     11  H2  UNL     1      10.713  61.449  45.564  1.00  0.00     0.207 HD
ENDBRANCH   1   7
TORSDOF 1
ENDMDL
MODEL 5
REMARK VINA RESULT: -1.768663919      1.172      2.907
REMARK  1 active torsions:
REMARK  status: ('A' for Active; 'I' for Inactive)
REMARK    1  A    between atoms: N2_4  and  N3_6 
ROOT
HETATM    1  N3  UNL     1       8.718  61.250  45.326  1.00  0.00    -0.274 N 
ATOM      2  H3  UNL     1       9.094  62.123  45.693  1.00  0.00     0.190 HD
HETATM    3  C1  UNL     1       9.324  60.657  44.352  1.00  0.00     0.111 A 
HETATM    4  C2  UNL     1       9.375  59.492  43.397  1.00  0.00     0.198 A 
HETATM    5  N4  UNL     1      10.380  60.540  43.371  1.00  0.00    -0.370 N 
ATOM      6  H4  UNL     1      11.230  60.921  42.956  1.00  0.00     0.161 HD
ENDROOT
BRANCH   1   7
HETATM    7  N2  UNL     1       7.565  60.717  45.880  1.00  0.00    -0.248 N 
HETATM    8  N1  UNL     1       7.000  59.694  45.424  1.00  0.00    -0.331 N 
ATOM      9  H12 UNL     1       7.421  59.246  44.610  1.00  0.00     0.178 HD
ATOM     10  H11 UNL     1       6.151  59.302  45.832  1.00  0.00     0.178 HD
ATOM     11  H2  UNL     1       7.158  61.177  46.694  1.00  0.00     0.207 HD
ENDBRANCH   1   7
TORSDOF 1
ENDMDL
