MODEL 1
REMARK VINA RESULT: -5.299123476      0.000      0.000
REMARK  1 active torsions:
REMARK  status: ('A' for Active; 'I' for Inactive)
REMARK    1  A    between atoms: N2_4  and  N3_6 
ROOT
HETATM    1  N1  UNL     1      10.069  60.100  43.327  1.00  0.00    -0.331 N 
ATOM      2  H11 UNL     1      10.645  59.979  42.494  1.00  0.00     0.178 HD
ATOM      3  H12 UNL     1       9.583  59.321  43.772  1.00  0.00     0.178 HD
HETATM    4  N2  UNL     1       9.975  61.274  43.802  1.00  0.00    -0.248 N 
ATOM      5  H2  UNL     1      10.455  62.062  43.369  1.00  0.00     0.207 HD
ENDROOT
BRANCH   4   6
HETATM    6  N3  UNL     1       9.185  61.441  44.944  1.00  0.00    -0.268 N 
HETATM    7  C1  UNL     1       8.178  60.654  45.116  1.00  0.00     0.159 A 
HETATM    8  C2  UNL     1       7.311  59.509  44.665  1.00  0.00     0.262 A 
HETATM    9  O1  UNL     1       7.064  60.204  45.844  1.00  0.00    -0.328 OA
ATOM     10  H3  UNL     1       9.401  62.170  45.626  1.00  0.00     0.190 HD
ENDBRANCH   4   6
TORSDOF 1
ENDMDL
MODEL 2
REMARK VINA RESULT: -4.795394190      0.838      1.500
REMARK  1 active torsions:
REMARK  status: ('A' for Active; 'I' for Inactive)
REMARK    1  A    between atoms: N2_4  and  N3_6 
ROOT
HETATM    1  N1  UNL     1      10.138  61.368  43.697  1.00  0.00    -0.331 N 
ATOM      2  H11 UNL     1      10.982  61.893  43.471  1.00  0.00     0.178 HD
ATOM      3  H12 UNL     1       9.365  61.779  44.223  1.00  0.00     0.178 HD
HETATM    4  N2  UNL     1      10.076  60.165  43.297  1.00  0.00    -0.248 N 
ATOM      5  H2  UNL     1      10.841  59.741  42.771  1.00  0.00     0.207 HD
ENDROOT
BRANCH   4   6
HETATM    6  N3  UNL     1       8.919  59.444  43.608  1.00  0.00    -0.268 N 
HETATM    7  C1  UNL     1       8.147  59.892  44.539  1.00  0.00     0.159 A 
HETATM    8  C2  UNL     1       7.811  60.916  45.591  1.00  0.00     0.262 A 
HETATM    9  O1  UNL     1       6.999  59.814  45.345  1.00  0.00    -0.328 OA
ATOM     10  H3  UNL     1       8.690  58.584  43.108  1.00  0.00     0.190 HD
ENDBRANCH   4   6
TORSDOF 1
ENDMDL
MODEL 3
REMARK VINA RESULT: -3.920278700      1.008      1.202
REMARK  1 active torsions:
REMARK  status: ('A' for Active; 'I' for Inactive)
REMARK    1  A    between atoms: N2_4  and  N3_6 
ROOT
HETATM    1  N1  UNL     1       9.276  59.224  43.299  1.00  0.00    -0.331 N 
ATOM      2  H11 UNL     1       9.550  58.422  42.732  1.00  0.00     0.178 HD
ATOM      3  H12 UNL     1       8.403  59.246  43.826  1.00  0.00     0.178 HD
HETATM    4  N2  UNL     1      10.071  60.214  43.328  1.00  0.00    -0.248 N 
ATOM      5  H2  UNL     1      10.947  60.206  42.806  1.00  0.00     0.207 HD
ENDROOT
BRANCH   4   6
HETATM    6  N3  UNL     1       9.696  61.314  44.106  1.00  0.00    -0.268 N 
HETATM    7  C1  UNL     1       8.708  61.180  44.925  1.00  0.00     0.159 A 
HETATM    8  C2  UNL     1       7.621  60.347  45.551  1.00  0.00     0.262 A 
HETATM    9  O1  UNL     1       7.829  61.677  45.902  1.00  0.00    -0.328 OA
ATOM     10  H3  UNL     1      10.192  62.202  44.026  1.00  0.00     0.190 HD
ENDBRANCH   4   6
TORSDOF 1
ENDMDL
MODEL 4
REMARK VINA RESULT: -3.357640685      1.198      1.756
REMARK  1 active torsions:
REMARK  status: ('A' for Active; 'I' for Inactive)
REMARK    1  A    between atoms: N2_4  and  N3_6 
ROOT
HETATM    1  N1  UNL     1       9.703  61.719  44.582  1.00  0.00    -0.331 N 
ATOM      2  H11 UNL     1      10.077  62.653  44.750  1.00  0.00     0.178 HD
ATOM      3  H12 UNL     1       8.998  61.297  45.188  1.00  0.00     0.178 HD
HETATM    4  N2  UNL     1      10.151  61.084  43.578  1.00  0.00    -0.248 N 
ATOM      5  H2  UNL     1      10.856  61.492  42.964  1.00  0.00     0.207 HD
ENDROOT
BRANCH   4   6
HETATM    6  N3  UNL     1       9.639  59.804  43.348  1.00  0.00    -0.268 N 
HETATM    7  C1  UNL     1       8.546  59.463  43.944  1.00  0.00     0.159 A 
HETATM    8  C2  UNL     1       7.400  59.772  44.870  1.00  0.00     0.262 A 
HETATM    9  O1  UNL     1       7.523  58.543  44.230  1.00  0.00    -0.328 OA
ATOM     10  H3  UNL     1      10.118  59.154  42.724  1.00  0.00     0.190 HD
ENDBRANCH   4   6
TORSDOF 1
ENDMDL
MODEL 5
REMARK VINA RESULT: -2.756228667      1.558      2.107
REMARK  1 active torsions:
REMARK  status: ('A' for Active; 'I' for Inactive)
REMARK    1  A    between atoms: N2_4  and  N3_6 
ROOT
HETATM    1  N1  UNL     1       8.933  61.130  46.258  1.00  0.00    -0.331 N 
ATOM      2  H11 UNL     1       8.932  61.638  47.142  1.00  0.00     0.178 HD
ATOM      3  H12 UNL     1       8.471  60.227  46.148  1.00  0.00     0.178 HD
HETATM    4  N2  UNL     1       9.540  61.666  45.280  1.00  0.00    -0.248 N 
ATOM      5  H2  UNL     1      10.007  62.567  45.375  1.00  0.00     0.207 HD
ENDROOT
BRANCH   4   6
HETATM    6  N3  UNL     1       9.542  60.969  44.068  1.00  0.00    -0.268 N 
HETATM    7  C1  UNL     1       8.646  60.061  43.879  1.00  0.00     0.159 A 
HETATM    8  C2  UNL     1       7.454  59.270  44.349  1.00  0.00     0.262 A 
HETATM    9  O1  UNL     1       8.032  59.065  43.101  1.00  0.00    -0.328 OA
ATOM     10  H3  UNL     1      10.237  61.175  43.349  1.00  0.00     0.190 HD
ENDBRANCH   4   6
TORSDOF 1
ENDMDL
