MODEL 1
REMARK VINA RESULT: -2.672319075      0.000      0.000
REMARK  2 active torsions:
REMARK  status: ('A' for Active; 'I' for Inactive)
REMARK    1  A    between atoms: N2_4  and  N3_6 
REMARK    2  A    between atoms: N3_6  and  C1_8 
ROOT
HETATM    1  C1  UNL     1       7.838  53.471  44.644  1.00  0.00     0.702 A 
HETATM    2  N4  UNL     1       7.699  53.394  45.913  1.00  0.00    -0.161 N 
ATOM      3  H4  UNL     1       8.341  53.243  46.691  1.00  0.00     0.187 HD
HETATM    4  C2  UNL     1       6.305  53.600  45.809  1.00  0.00     0.221 A 
HETATM    5  N5  UNL     1       5.175  53.695  46.667  1.00  0.00    -0.062 NA
HETATM    6  N6  UNL     1       6.441  53.680  44.521  1.00  0.00    -0.161 N 
ATOM      7  H6  UNL     1       5.803  53.831  43.739  1.00  0.00     0.187 HD
ENDROOT
BRANCH   1   8
HETATM    8  N3  UNL     1       8.900  53.394  43.683  1.00  0.00    -0.118 N 
ATOM      9  H3  UNL     1       8.662  53.328  42.694  1.00  0.00     0.207 HD
BRANCH   8  10
HETATM   10  N2  UNL     1      10.244  53.404  44.049  1.00  0.00    -0.235 N 
HETATM   11  N1  UNL     1      11.107  53.394  43.110  1.00  0.00    -0.330 N 
ATOM     12  H12 UNL     1      10.808  53.378  42.134  1.00  0.00     0.178 HD
ATOM     13  H11 UNL     1      12.091  53.401  43.378  1.00  0.00     0.178 HD
ATOM     14  H2  UNL     1      10.527  53.419  45.030  1.00  0.00     0.208 HD
ENDBRANCH   8  10
ENDBRANCH   1   8
TORSDOF 2
ENDMDL
MODEL 2
REMARK VINA RESULT: -2.140930434      0.983      4.318
REMARK  2 active torsions:
REMARK  status: ('A' for Active; 'I' for Inactive)
REMARK    1  A    between atoms: N2_4  and  N3_6 
REMARK    2  A    between atoms: N3_6  and  C1_8 
ROOT
HETATM    1  C1  UNL     1       7.035  53.395  44.703  1.00  0.00     0.702 A 
HETATM    2  N4  UNL     1       8.190  53.394  45.249  1.00  0.00    -0.161 N 
ATOM      3  H4  UNL     1       8.522  53.392  46.213  1.00  0.00     0.187 HD
HETATM    4  C2  UNL     1       8.826  53.394  43.987  1.00  0.00     0.221 A 
HETATM    5  N5  UNL     1      10.148  53.394  43.460  1.00  0.00    -0.062 NA
HETATM    6  N6  UNL     1       7.656  53.396  43.428  1.00  0.00    -0.161 N 
ATOM      7  H6  UNL     1       7.320  53.397  42.465  1.00  0.00     0.187 HD
ENDROOT
BRANCH   1   8
HETATM    8  N3  UNL     1       5.661  53.396  45.118  1.00  0.00    -0.118 N 
ATOM      9  H3  UNL     1       5.065  52.618  44.839  1.00  0.00     0.207 HD
BRANCH   8  10
HETATM   10  N2  UNL     1       5.111  54.420  45.887  1.00  0.00    -0.235 N 
HETATM   11  N1  UNL     1       4.722  54.122  47.064  1.00  0.00    -0.330 N 
ATOM     12  H12 UNL     1       4.816  53.168  47.414  1.00  0.00     0.178 HD
ATOM     13  H11 UNL     1       4.320  54.871  47.628  1.00  0.00     0.178 HD
ATOM     14  H2  UNL     1       5.024  55.369  45.523  1.00  0.00     0.208 HD
ENDBRANCH   8  10
ENDBRANCH   1   8
TORSDOF 2
ENDMDL
MODEL 3
REMARK VINA RESULT: -0.514510053      6.730      6.780
REMARK  2 active torsions:
REMARK  status: ('A' for Active; 'I' for Inactive)
REMARK    1  A    between atoms: N2_4  and  N3_6 
REMARK    2  A    between atoms: N3_6  and  C1_8 
ROOT
HETATM    1  C1  UNL     1       8.483  59.713  44.087  1.00  0.00     0.702 A 
HETATM    2  N4  UNL     1       7.535  58.928  44.434  1.00  0.00    -0.161 N 
ATOM      3  H4  UNL     1       7.185  58.037  44.084  1.00  0.00     0.187 HD
HETATM    4  C2  UNL     1       7.166  59.785  45.496  1.00  0.00     0.221 A 
HETATM    5  N5  UNL     1       6.195  59.838  46.535  1.00  0.00    -0.062 NA
HETATM    6  N6  UNL     1       8.127  60.585  45.148  1.00  0.00    -0.161 N 
ATOM      7  H6  UNL     1       8.481  61.476  45.495  1.00  0.00     0.187 HD
ENDROOT
BRANCH   1   8
HETATM    8  N3  UNL     1       9.505  59.768  43.082  1.00  0.00    -0.118 N 
ATOM      9  H3  UNL     1       9.438  59.140  42.281  1.00  0.00     0.207 HD
BRANCH   8  10
HETATM   10  N2  UNL     1      10.584  60.645  43.157  1.00  0.00    -0.235 N 
HETATM   11  N1  UNL     1      10.360  61.809  43.630  1.00  0.00    -0.330 N 
ATOM     12  H12 UNL     1       9.423  62.071  43.935  1.00  0.00     0.178 HD
ATOM     13  H11 UNL     1      11.151  62.451  43.686  1.00  0.00     0.178 HD
ATOM     14  H2  UNL     1      11.516  60.368  42.848  1.00  0.00     0.208 HD
ENDBRANCH   8  10
ENDBRANCH   1   8
TORSDOF 2
ENDMDL
MODEL 4
REMARK VINA RESULT: -0.328488854      6.945      6.951
REMARK  2 active torsions:
REMARK  status: ('A' for Active; 'I' for Inactive)
REMARK    1  A    between atoms: N2_4  and  N3_6 
REMARK    2  A    between atoms: N3_6  and  C1_8 
ROOT
HETATM    1  C1  UNL     1       8.614  60.873  44.801  1.00  0.00     0.702 A 
HETATM    2  N4  UNL     1       8.156  60.971  45.990  1.00  0.00    -0.161 N 
ATOM      3  H4  UNL     1       8.388  61.551  46.796  1.00  0.00     0.187 HD
HETATM    4  C2  UNL     1       7.202  59.957  45.744  1.00  0.00     0.221 A 
HETATM    5  N5  UNL     1       6.161  59.282  46.441  1.00  0.00    -0.062 NA
HETATM    6  N6  UNL     1       7.663  59.855  44.536  1.00  0.00    -0.161 N 
ATOM      7  H6  UNL     1       7.435  59.277  43.727  1.00  0.00     0.187 HD
ENDROOT
BRANCH   1   8
HETATM    8  N3  UNL     1       9.636  61.483  44.000  1.00  0.00    -0.118 N 
ATOM      9  H3  UNL     1       9.762  62.494  44.054  1.00  0.00     0.207 HD
BRANCH   8  10
HETATM   10  N2  UNL     1      10.463  60.750  43.153  1.00  0.00    -0.235 N 
HETATM   11  N1  UNL     1      10.064  59.589  42.807  1.00  0.00    -0.330 N 
ATOM     12  H12 UNL     1       9.172  59.227  43.146  1.00  0.00     0.178 HD
ATOM     13  H11 UNL     1      10.669  59.051  42.186  1.00  0.00     0.178 HD
ATOM     14  H2  UNL     1      11.352  61.126  42.822  1.00  0.00     0.208 HD
ENDBRANCH   8  10
ENDBRANCH   1   8
TORSDOF 2
ENDMDL
MODEL 5
REMARK VINA RESULT: 0.928895528      7.171      7.550
REMARK  2 active torsions:
REMARK  status: ('A' for Active; 'I' for Inactive)
REMARK    1  A    between atoms: N2_4  and  N3_6 
REMARK    2  A    between atoms: N3_6  and  C1_8 
ROOT
HETATM    1  C1  UNL     1       8.350  60.290  44.141  1.00  0.00     0.702 A 
HETATM    2  N4  UNL     1       9.301  61.029  44.570  1.00  0.00    -0.161 N 
ATOM      3  H4  UNL     1      10.127  61.445  44.142  1.00  0.00     0.187 HD
HETATM    4  C2  UNL     1       8.752  61.040  45.873  1.00  0.00     0.221 A 
HETATM    5  N5  UNL     1       9.050  61.593  47.149  1.00  0.00    -0.062 NA
HETATM    6  N6  UNL     1       7.785  60.291  45.442  1.00  0.00    -0.161 N 
ATOM      7  H6  UNL     1       6.956  59.873  45.866  1.00  0.00     0.187 HD
ENDROOT
BRANCH   1   8
HETATM    8  N3  UNL     1       7.949  59.682  42.905  1.00  0.00    -0.118 N 
ATOM      9  H3  UNL     1       8.652  59.195  42.349  1.00  0.00     0.207 HD
BRANCH   8  10
HETATM   10  N2  UNL     1       6.639  59.731  42.435  1.00  0.00    -0.235 N 
HETATM   11  N1  UNL     1       6.466  59.638  41.175  1.00  0.00    -0.330 N 
ATOM     12  H12 UNL     1       7.265  59.532  40.550  1.00  0.00     0.178 HD
ATOM     13  H11 UNL     1       5.506  59.673  40.830  1.00  0.00     0.178 HD
ATOM     14  H2  UNL     1       5.850  59.837  43.073  1.00  0.00     0.208 HD
ENDBRANCH   8  10
ENDBRANCH   1   8
TORSDOF 2
ENDMDL
