MODEL 1
REMARK VINA RESULT: -6.487235196      0.000      0.000
REMARK  7 active torsions:
REMARK  status: ('A' for Active; 'I' for Inactive)
REMARK    1  A    between atoms: C2_2  and  C4_4 
REMARK    2  A    between atoms: C4_4  and  N1_5 
REMARK    3  A    between atoms: N1_5  and  C5_7 
REMARK    4  A    between atoms: C5_7  and  N2_9 
REMARK    5  A    between atoms: N2_9  and  C6_11 
REMARK    6  A    between atoms: C6_11  and  C7_12 
REMARK    7  A    between atoms: C7_12  and  N3_13 
REMARK       I    between atoms: N3_13  and  C8_15 
REMARK       I    between atoms: C8_15  and  N4_17 
ROOT
HETATM    1  C6  UNL     1      -0.856  40.414 -12.678  1.00  0.00     0.141 C 
ENDROOT
BRANCH   1   2
HETATM    2  N2  UNL     1       0.469  40.699 -12.147  1.00  0.00    -0.366 N 
ATOM      3  H2  UNL     1       0.572  40.875 -11.147  1.00  0.00     0.161 HD
BRANCH   2   4
HETATM    4  C5  UNL     1       1.622  40.740 -12.974  1.00  0.00     0.167 C 
HETATM    5  S1  UNL     1       1.592  41.497 -14.415  1.00  0.00    -0.041 SA
BRANCH   4   6
HETATM    6  N1  UNL     1       2.806  40.120 -12.549  1.00  0.00    -0.367 N 
ATOM      7  H1  UNL     1       2.824  39.615 -11.663  1.00  0.00     0.161 HD
BRANCH   6   8
HETATM    8  C4  UNL     1       3.996  40.193 -13.357  1.00  0.00     0.126 C 
BRANCH   8   9
HETATM    9  C2  UNL     1       4.893  39.000 -13.078  1.00  0.00    -0.005 C 
HETATM   10  C1  UNL     1       6.148  39.143 -13.912  1.00  0.00     0.011 C 
HETATM   11  C3  UNL     1       4.193  37.699 -13.278  1.00  0.00     0.011 C 
ENDBRANCH   8   9
ENDBRANCH   6   8
ENDBRANCH   4   6
ENDBRANCH   2   4
ENDBRANCH   1   2
BRANCH   1  12
HETATM   12  C7  UNL     1      -1.198  38.968 -12.417  1.00  0.00     0.144 C 
BRANCH  12  13
HETATM   13  N3  UNL     1      -0.703  38.048 -13.383  1.00  0.00    -0.341 N 
HETATM   14  C8  UNL     1      -0.638  36.638 -13.134  1.00  0.00     0.318 C 
HETATM   15  O1  UNL     1      -1.015  36.145 -12.041  1.00  0.00    -0.247 OA
HETATM   16  N4  UNL     1      -0.139  35.746 -14.124  1.00  0.00    -0.334 N 
HETATM   17  C9  UNL     1      -0.042  34.312 -13.946  1.00  0.00     0.127 C 
HETATM   18  C12 UNL     1       0.352  36.090 -15.456  1.00  0.00     0.127 C 
HETATM   19  C10 UNL     1       0.753  33.801 -15.109  1.00  0.00     0.022 C 
HETATM   20  C11 UNL     1       1.421  35.024 -15.646  1.00  0.00     0.022 C 
ATOM     21  H3  UNL     1      -0.382  38.405 -14.283  1.00  0.00     0.164 HD
ENDBRANCH  12  13
ENDBRANCH   1  12
TORSDOF 7
ENDMDL
MODEL 2
REMARK VINA RESULT: -6.337464621      3.039      6.716
REMARK  7 active torsions:
REMARK  status: ('A' for Active; 'I' for Inactive)
REMARK    1  A    between atoms: C2_2  and  C4_4 
REMARK    2  A    between atoms: C4_4  and  N1_5 
REMARK    3  A    between atoms: N1_5  and  C5_7 
REMARK    4  A    between atoms: C5_7  and  N2_9 
REMARK    5  A    between atoms: N2_9  and  C6_11 
REMARK    6  A    between atoms: C6_11  and  C7_12 
REMARK    7  A    between atoms: C7_12  and  N3_13 
REMARK       I    between atoms: N3_13  and  C8_15 
REMARK       I    between atoms: C8_15  and  N4_17 
ROOT
HETATM    1  C6  UNL     1      -0.348  35.629 -14.095  1.00  0.00     0.141 C 
ENDROOT
BRANCH   1   2
HETATM    2  N2  UNL     1       0.198  34.295 -13.893  1.00  0.00    -0.366 N 
ATOM      3  H2  UNL     1       0.119  33.864 -12.973  1.00  0.00     0.161 HD
BRANCH   2   4
HETATM    4  C5  UNL     1       0.837  33.575 -14.937  1.00  0.00     0.167 C 
HETATM    5  S1  UNL     1       1.570  34.352 -16.165  1.00  0.00    -0.041 SA
BRANCH   4   6
HETATM    6  N1  UNL     1       0.837  32.172 -14.915  1.00  0.00    -0.367 N 
ATOM      7  H1  UNL     1       0.298  31.676 -14.206  1.00  0.00     0.161 HD
BRANCH   6   8
HETATM    8  C4  UNL     1       1.595  31.429 -15.889  1.00  0.00     0.126 C 
BRANCH   8   9
HETATM    9  C2  UNL     1       2.046  30.103 -15.303  1.00  0.00    -0.005 C 
HETATM   10  C1  UNL     1       1.575  30.034 -13.866  1.00  0.00     0.011 C 
HETATM   11  C3  UNL     1       3.511  29.878 -15.460  1.00  0.00     0.011 C 
ENDBRANCH   8   9
ENDBRANCH   6   8
ENDBRANCH   4   6
ENDBRANCH   2   4
ENDBRANCH   1   2
BRANCH   1  12
HETATM   12  C7  UNL     1       0.051  36.511 -12.938  1.00  0.00     0.144 C 
BRANCH  12  13
HETATM   13  N3  UNL     1       1.091  37.441 -13.219  1.00  0.00    -0.341 N 
HETATM   14  C8  UNL     1       2.473  37.064 -13.225  1.00  0.00     0.318 C 
HETATM   15  O1  UNL     1       2.835  35.886 -12.977  1.00  0.00    -0.247 OA
HETATM   16  N4  UNL     1       3.488  38.020 -13.512  1.00  0.00    -0.334 N 
HETATM   17  C9  UNL     1       4.903  37.716 -13.536  1.00  0.00     0.127 C 
HETATM   18  C12 UNL     1       3.304  39.435 -13.825  1.00  0.00     0.127 C 
HETATM   19  C10 UNL     1       5.611  39.033 -13.628  1.00  0.00     0.022 C 
HETATM   20  C11 UNL     1       4.570  40.024 -13.219  1.00  0.00     0.022 C 
ATOM     21  H3  UNL     1       0.843  38.409 -13.422  1.00  0.00     0.164 HD
ENDBRANCH  12  13
ENDBRANCH   1  12
TORSDOF 7
ENDMDL
MODEL 3
REMARK VINA RESULT: -6.258545215      3.548      7.216
REMARK  7 active torsions:
REMARK  status: ('A' for Active; 'I' for Inactive)
REMARK    1  A    between atoms: C2_2  and  C4_4 
REMARK    2  A    between atoms: C4_4  and  N1_5 
REMARK    3  A    between atoms: N1_5  and  C5_7 
REMARK    4  A    between atoms: C5_7  and  N2_9 
REMARK    5  A    between atoms: N2_9  and  C6_11 
REMARK    6  A    between atoms: C6_11  and  C7_12 
REMARK    7  A    between atoms: C7_12  and  N3_13 
REMARK       I    between atoms: N3_13  and  C8_15 
REMARK       I    between atoms: C8_15  and  N4_17 
ROOT
HETATM    1  C6  UNL     1      -0.194  34.347 -13.899  1.00  0.00     0.141 C 
ENDROOT
BRANCH   1   2
HETATM    2  N2  UNL     1       0.371  33.038 -14.190  1.00  0.00    -0.366 N 
ATOM      3  H2  UNL     1       0.364  32.324 -13.461  1.00  0.00     0.161 HD
BRANCH   2   4
HETATM    4  C5  UNL     1       0.932  32.721 -15.455  1.00  0.00     0.167 C 
HETATM    5  S1  UNL     1       1.795  33.822 -16.288  1.00  0.00    -0.041 SA
BRANCH   4   6
HETATM    6  N1  UNL     1       0.742  31.443 -16.001  1.00  0.00    -0.367 N 
ATOM      7  H1  UNL     1      -0.052  30.878 -15.702  1.00  0.00     0.161 HD
BRANCH   6   8
HETATM    8  C4  UNL     1       1.662  30.926 -16.981  1.00  0.00     0.126 C 
BRANCH   8   9
HETATM    9  C2  UNL     1       2.250  29.609 -16.505  1.00  0.00    -0.005 C 
HETATM   10  C1  UNL     1       3.295  29.907 -15.452  1.00  0.00     0.011 C 
HETATM   11  C3  UNL     1       2.760  28.772 -17.628  1.00  0.00     0.011 C 
ENDBRANCH   8   9
ENDBRANCH   6   8
ENDBRANCH   4   6
ENDBRANCH   2   4
ENDBRANCH   1   2
BRANCH   1  12
HETATM   12  C7  UNL     1       0.622  35.015 -12.821  1.00  0.00     0.144 C 
BRANCH  12  13
HETATM   13  N3  UNL     1       0.910  36.389 -13.047  1.00  0.00    -0.341 N 
HETATM   14  C8  UNL     1       2.193  36.838 -13.500  1.00  0.00     0.318 C 
HETATM   15  O1  UNL     1       3.133  36.032 -13.718  1.00  0.00    -0.247 OA
HETATM   16  N4  UNL     1       2.446  38.222 -13.718  1.00  0.00    -0.334 N 
HETATM   17  C9  UNL     1       3.714  38.751 -14.174  1.00  0.00     0.127 C 
HETATM   18  C12 UNL     1       1.513  39.329 -13.532  1.00  0.00     0.127 C 
HETATM   19  C10 UNL     1       3.622  40.239 -14.029  1.00  0.00     0.022 C 
HETATM   20  C11 UNL     1       2.468  40.433 -13.099  1.00  0.00     0.022 C 
ATOM     21  H3  UNL     1       0.178  37.079 -12.880  1.00  0.00     0.164 HD
ENDBRANCH  12  13
ENDBRANCH   1  12
TORSDOF 7
ENDMDL
MODEL 4
REMARK VINA RESULT: -6.246851723      2.840      6.643
REMARK  7 active torsions:
REMARK  status: ('A' for Active; 'I' for Inactive)
REMARK    1  A    between atoms: C2_2  and  C4_4 
REMARK    2  A    between atoms: C4_4  and  N1_5 
REMARK    3  A    between atoms: N1_5  and  C5_7 
REMARK    4  A    between atoms: C5_7  and  N2_9 
REMARK    5  A    between atoms: N2_9  and  C6_11 
REMARK    6  A    between atoms: C6_11  and  C7_12 
REMARK    7  A    between atoms: C7_12  and  N3_13 
REMARK       I    between atoms: N3_13  and  C8_15 
REMARK       I    between atoms: C8_15  and  N4_17 
ROOT
HETATM    1  C6  UNL     1      -0.415  35.371 -12.811  1.00  0.00     0.141 C 
ENDROOT
BRANCH   1   2
HETATM    2  N2  UNL     1      -0.652  34.587 -14.014  1.00  0.00    -0.366 N 
ATOM      3  H2  UNL     1      -1.601  34.529 -14.385  1.00  0.00     0.161 HD
BRANCH   2   4
HETATM    4  C5  UNL     1       0.393  33.902 -14.688  1.00  0.00     0.167 C 
HETATM    5  S1  UNL     1       1.319  34.661 -15.790  1.00  0.00    -0.041 SA
BRANCH   4   6
HETATM    6  N1  UNL     1       0.634  32.550 -14.404  1.00  0.00    -0.367 N 
ATOM      7  H1  UNL     1       0.427  32.181 -13.476  1.00  0.00     0.161 HD
BRANCH   6   8
HETATM    8  C4  UNL     1       1.171  31.678 -15.417  1.00  0.00     0.126 C 
BRANCH   8   9
HETATM    9  C2  UNL     1       1.517  30.326 -14.817  1.00  0.00    -0.005 C 
HETATM   10  C1  UNL     1       1.143  30.347 -13.351  1.00  0.00     0.011 C 
HETATM   11  C3  UNL     1       2.935  29.938 -15.063  1.00  0.00     0.011 C 
ENDBRANCH   8   9
ENDBRANCH   6   8
ENDBRANCH   4   6
ENDBRANCH   2   4
ENDBRANCH   1   2
BRANCH   1  12
HETATM   12  C7  UNL     1      -0.227  36.819 -13.187  1.00  0.00     0.144 C 
BRANCH  12  13
HETATM   13  N3  UNL     1       1.122  37.271 -13.190  1.00  0.00    -0.341 N 
HETATM   14  C8  UNL     1       1.467  38.649 -13.381  1.00  0.00     0.318 C 
HETATM   15  O1  UNL     1       0.587  39.529 -13.561  1.00  0.00    -0.247 OA
HETATM   16  N4  UNL     1       2.827  39.067 -13.376  1.00  0.00    -0.334 N 
HETATM   17  C9  UNL     1       3.254  40.438 -13.563  1.00  0.00     0.127 C 
HETATM   18  C12 UNL     1       4.008  38.228 -13.188  1.00  0.00     0.127 C 
HETATM   19  C10 UNL     1       4.741  40.393 -13.734  1.00  0.00     0.022 C 
HETATM   20  C11 UNL     1       5.016  38.961 -14.061  1.00  0.00     0.022 C 
ATOM     21  H3  UNL     1       1.869  36.591 -13.051  1.00  0.00     0.164 HD
ENDBRANCH  12  13
ENDBRANCH   1  12
TORSDOF 7
ENDMDL
MODEL 5
REMARK VINA RESULT: -6.201305379      3.585      5.409
REMARK  7 active torsions:
REMARK  status: ('A' for Active; 'I' for Inactive)
REMARK    1  A    between atoms: C2_2  and  C4_4 
REMARK    2  A    between atoms: C4_4  and  N1_5 
REMARK    3  A    between atoms: N1_5  and  C5_7 
REMARK    4  A    between atoms: C5_7  and  N2_9 
REMARK    5  A    between atoms: N2_9  and  C6_11 
REMARK    6  A    between atoms: C6_11  and  C7_12 
REMARK    7  A    between atoms: C7_12  and  N3_13 
REMARK       I    between atoms: N3_13  and  C8_15 
REMARK       I    between atoms: C8_15  and  N4_17 
ROOT
HETATM    1  C6  UNL     1       1.151  35.545 -15.111  1.00  0.00     0.141 C 
ENDROOT
BRANCH   1   2
HETATM    2  N2  UNL     1       2.369  35.810 -14.359  1.00  0.00    -0.366 N 
ATOM      3  H2  UNL     1       3.114  35.113 -14.367  1.00  0.00     0.161 HD
BRANCH   2   4
HETATM    4  C5  UNL     1       2.553  37.005 -13.615  1.00  0.00     0.167 C 
HETATM    5  S1  UNL     1       4.045  37.573 -13.297  1.00  0.00    -0.041 SA
BRANCH   4   6
HETATM    6  N1  UNL     1       1.436  37.710 -13.144  1.00  0.00    -0.367 N 
ATOM      7  H1  UNL     1       0.773  37.251 -12.519  1.00  0.00     0.161 HD
BRANCH   6   8
HETATM    8  C4  UNL     1       1.220  39.079 -13.537  1.00  0.00     0.126 C 
BRANCH   8   9
HETATM    9  C2  UNL     1      -0.254  39.320 -13.809  1.00  0.00    -0.005 C 
HETATM   10  C1  UNL     1      -0.498  40.814 -13.817  1.00  0.00     0.011 C 
HETATM   11  C3  UNL     1      -1.139  38.578 -12.866  1.00  0.00     0.011 C 
ENDBRANCH   8   9
ENDBRANCH   6   8
ENDBRANCH   4   6
ENDBRANCH   2   4
ENDBRANCH   1   2
BRANCH   1  12
HETATM   12  C7  UNL     1       0.738  34.110 -14.903  1.00  0.00     0.144 C 
BRANCH  12  13
HETATM   13  N3  UNL     1       1.181  33.203 -15.906  1.00  0.00    -0.341 N 
HETATM   14  C8  UNL     1       1.450  31.824 -15.625  1.00  0.00     0.318 C 
HETATM   15  O1  UNL     1       1.310  31.347 -14.471  1.00  0.00    -0.247 OA
HETATM   16  N4  UNL     1       1.890  30.944 -16.654  1.00  0.00    -0.334 N 
HETATM   17  C9  UNL     1       2.183  29.541 -16.449  1.00  0.00     0.127 C 
HETATM   18  C12 UNL     1       2.121  31.273 -18.058  1.00  0.00     0.127 C 
HETATM   19  C10 UNL     1       2.840  29.064 -17.707  1.00  0.00     0.022 C 
HETATM   20  C11 UNL     1       3.267  30.326 -18.384  1.00  0.00     0.022 C 
ATOM     21  H3  UNL     1       1.311  33.547 -16.857  1.00  0.00     0.164 HD
ENDBRANCH  12  13
ENDBRANCH   1  12
TORSDOF 7
ENDMDL
