MODEL 1
REMARK VINA RESULT: -7.444510924      0.000      0.000
REMARK  5 active torsions:
REMARK  status: ('A' for Active; 'I' for Inactive)
REMARK    1  A    between atoms: C4_5  and  C5_6 
REMARK       I    between atoms: C5_6  and  N1_8 
REMARK    2  A    between atoms: N1_8  and  C6_10 
REMARK    3  A    between atoms: C6_10  and  C7_11 
REMARK    4  A    between atoms: C6_10  and  C12_16 
REMARK    5  A    between atoms: C8_12  and  C9_13 
REMARK       I    between atoms: N2_18  and  C14_20 
ROOT
HETATM    1  C6  UNL     1       1.434  40.687 -15.465  1.00  0.00     0.153 C 
ENDROOT
BRANCH   1   2
HETATM    2  N1  UNL     1       2.634  40.346 -14.690  1.00  0.00    -0.347 N 
HETATM    3  C5  UNL     1       3.666  39.550 -15.210  1.00  0.00     0.231 C 
HETATM    4  O2  UNL     1       3.580  39.103 -16.383  1.00  0.00    -0.273 OA
ATOM      5  H1  UNL     1       2.720  40.701 -13.737  1.00  0.00     0.163 HD
BRANCH   3   6
HETATM    6  C4  UNL     1       4.843  39.246 -14.380  1.00  0.00     0.158 C 
HETATM    7  C2  UNL     1       4.685  38.217 -13.353  1.00  0.00     0.052 C 
HETATM    8  C1  UNL     1       4.044  37.090 -13.230  1.00  0.00     0.047 C 
HETATM    9  O1  UNL     1       5.530  38.963 -12.533  1.00  0.00    -0.354 OA
HETATM   10  C3  UNL     1       4.994  40.126 -13.146  1.00  0.00     0.196 C 
ENDBRANCH   3   6
ENDBRANCH   1   2
BRANCH   1  11
HETATM   11  C7  UNL     1       0.393  39.723 -15.043  1.00  0.00     0.004 C 
HETATM   12  C8  UNL     1       0.584  39.017 -13.950  1.00  0.00    -0.002 C 
BRANCH  12  13
HETATM   13  C9  UNL     1      -0.412  38.066 -13.509  1.00  0.00    -0.005 C 
HETATM   14  C10 UNL     1      -0.093  36.819 -13.305  1.00  0.00    -0.031 C 
HETATM   15  C11 UNL     1      -1.105  35.805 -12.845  1.00  0.00     0.036 C 
ENDBRANCH  12  13
ENDBRANCH   1  11
BRANCH   1  16
HETATM   16  C12 UNL     1       0.968  42.050 -15.123  1.00  0.00     0.012 C 
HETATM   17  C13 UNL     1       0.980  42.417 -13.672  1.00  0.00     0.066 C 
HETATM   18  N2  UNL     1       0.590  42.827 -16.041  1.00  0.00    -0.336 N 
HETATM   19  C14 UNL     1       0.121  44.146 -15.889  1.00  0.00     0.185 C 
ATOM     20  H2  UNL     1       0.628  42.463 -16.993  1.00  0.00     0.168 HD
HETATM   21  N3  UNL     1       0.851  45.200 -15.936  1.00  0.00    -0.374 N 
HETATM   22  N4  UNL     1      -1.276  44.323 -15.667  1.00  0.00    -0.064 NA
ATOM     23  H32 UNL     1       1.851  45.073 -16.095  1.00  0.00     0.158 HD
ATOM     24  H31 UNL     1       0.511  46.155 -15.826  1.00  0.00     0.158 HD
ENDBRANCH   1  16
TORSDOF 5
ENDMDL
MODEL 2
REMARK VINA RESULT: -7.379685149      3.182      5.617
REMARK  5 active torsions:
REMARK  status: ('A' for Active; 'I' for Inactive)
REMARK    1  A    between atoms: C4_5  and  C5_6 
REMARK       I    between atoms: C5_6  and  N1_8 
REMARK    2  A    between atoms: N1_8  and  C6_10 
REMARK    3  A    between atoms: C6_10  and  C7_11 
REMARK    4  A    between atoms: C6_10  and  C12_16 
REMARK    5  A    between atoms: C8_12  and  C9_13 
REMARK       I    between atoms: N2_18  and  C14_20 
ROOT
HETATM    1  C6  UNL     1       2.177  38.310 -15.199  1.00  0.00     0.153 C 
ENDROOT
BRANCH   1   2
HETATM    2  N1  UNL     1       1.168  37.482 -14.525  1.00  0.00    -0.347 N 
HETATM    3  C5  UNL     1       0.830  36.195 -14.971  1.00  0.00     0.231 C 
HETATM    4  O2  UNL     1       1.402  35.713 -15.983  1.00  0.00    -0.273 OA
ATOM      5  H1  UNL     1       0.695  37.857 -13.703  1.00  0.00     0.163 HD
BRANCH   3   6
HETATM    6  C4  UNL     1      -0.191  35.416 -14.250  1.00  0.00     0.158 C 
HETATM    7  C2  UNL     1      -0.763  36.022 -13.048  1.00  0.00     0.052 C 
HETATM    8  C1  UNL     1      -1.093  37.219 -12.653  1.00  0.00     0.047 C 
HETATM    9  O1  UNL     1      -0.810  34.750 -12.479  1.00  0.00    -0.354 OA
HETATM   10  C3  UNL     1       0.365  34.446 -13.216  1.00  0.00     0.196 C 
ENDBRANCH   3   6
ENDBRANCH   1   2
BRANCH   1  11
HETATM   11  C7  UNL     1       1.517  39.603 -15.480  1.00  0.00     0.004 C 
HETATM   12  C8  UNL     1       0.534  39.999 -14.702  1.00  0.00    -0.002 C 
BRANCH  12  13
HETATM   13  C9  UNL     1      -0.135  41.258 -14.948  1.00  0.00    -0.005 C 
HETATM   14  C10 UNL     1      -0.042  41.841 -16.110  1.00  0.00    -0.031 C 
HETATM   15  C11 UNL     1      -0.726  43.150 -16.398  1.00  0.00     0.036 C 
ENDBRANCH  12  13
ENDBRANCH   1  11
BRANCH   1  16
HETATM   16  C12 UNL     1       3.323  38.562 -14.296  1.00  0.00     0.012 C 
HETATM   17  C13 UNL     1       3.475  37.635 -13.131  1.00  0.00     0.066 C 
HETATM   18  N2  UNL     1       4.106  39.522 -14.538  1.00  0.00    -0.336 N 
HETATM   19  C14 UNL     1       5.235  39.897 -13.786  1.00  0.00     0.185 C 
ATOM     20  H2  UNL     1       3.900  40.083 -15.363  1.00  0.00     0.168 HD
HETATM   21  N3  UNL     1       6.432  39.481 -13.991  1.00  0.00    -0.374 N 
HETATM   22  N4  UNL     1       5.033  40.813 -12.713  1.00  0.00    -0.064 NA
ATOM     23  H32 UNL     1       6.576  38.825 -14.759  1.00  0.00     0.158 HD
ATOM     24  H31 UNL     1       7.250  39.753 -13.446  1.00  0.00     0.158 HD
ENDBRANCH   1  16
TORSDOF 5
ENDMDL
MODEL 3
REMARK VINA RESULT: -7.364722492      2.573      5.145
REMARK  5 active torsions:
REMARK  status: ('A' for Active; 'I' for Inactive)
REMARK    1  A    between atoms: C4_5  and  C5_6 
REMARK       I    between atoms: C5_6  and  N1_8 
REMARK    2  A    between atoms: N1_8  and  C6_10 
REMARK    3  A    between atoms: C6_10  and  C7_11 
REMARK    4  A    between atoms: C6_10  and  C12_16 
REMARK    5  A    between atoms: C8_12  and  C9_13 
REMARK       I    between atoms: N2_18  and  C14_20 
ROOT
HETATM    1  C6  UNL     1       0.813  39.638 -13.744  1.00  0.00     0.153 C 
ENDROOT
BRANCH   1   2
HETATM    2  N1  UNL     1       2.168  39.489 -14.292  1.00  0.00    -0.347 N 
HETATM    3  C5  UNL     1       3.263  40.217 -13.803  1.00  0.00     0.231 C 
HETATM    4  O2  UNL     1       3.100  41.033 -12.858  1.00  0.00    -0.273 OA
ATOM      5  H1  UNL     1       2.318  38.832 -15.058  1.00  0.00     0.163 HD
BRANCH   3   6
HETATM    6  C4  UNL     1       4.596  40.020 -14.396  1.00  0.00     0.158 C 
HETATM    7  C2  UNL     1       5.407  38.927 -13.861  1.00  0.00     0.052 C 
HETATM    8  C1  UNL     1       5.198  37.723 -13.408  1.00  0.00     0.047 C 
HETATM    9  O1  UNL     1       6.532  39.729 -14.039  1.00  0.00    -0.354 OA
HETATM   10  C3  UNL     1       5.703  40.847 -13.756  1.00  0.00     0.196 C 
ENDBRANCH   3   6
ENDBRANCH   1   2
BRANCH   1  11
HETATM   11  C7  UNL     1       0.030  40.337 -14.787  1.00  0.00     0.004 C 
HETATM   12  C8  UNL     1       0.096  41.648 -14.862  1.00  0.00    -0.002 C 
BRANCH  12  13
HETATM   13  C9  UNL     1      -0.657  42.363 -15.869  1.00  0.00    -0.005 C 
HETATM   14  C10 UNL     1      -0.470  42.117 -17.135  1.00  0.00    -0.031 C 
HETATM   15  C11 UNL     1      -1.237  42.843 -18.207  1.00  0.00     0.036 C 
ENDBRANCH  12  13
ENDBRANCH   1  11
BRANCH   1  16
HETATM   16  C12 UNL     1       0.199  38.311 -13.517  1.00  0.00     0.012 C 
HETATM   17  C13 UNL     1      -1.082  38.288 -12.743  1.00  0.00     0.066 C 
HETATM   18  N2  UNL     1       0.764  37.278 -13.971  1.00  0.00    -0.336 N 
HETATM   19  C14 UNL     1       0.318  35.949 -13.844  1.00  0.00     0.185 C 
ATOM     20  H2  UNL     1       1.634  37.420 -14.483  1.00  0.00     0.168 HD
HETATM   21  N3  UNL     1      -0.435  35.339 -14.685  1.00  0.00    -0.374 N 
HETATM   22  N4  UNL     1       0.737  35.224 -12.690  1.00  0.00    -0.064 NA
ATOM     23  H32 UNL     1      -0.735  35.858 -15.510  1.00  0.00     0.158 HD
ATOM     24  H31 UNL     1      -0.759  34.376 -14.593  1.00  0.00     0.158 HD
ENDBRANCH   1  16
TORSDOF 5
ENDMDL
MODEL 4
REMARK VINA RESULT: -7.303335334      2.236      2.653
REMARK  5 active torsions:
REMARK  status: ('A' for Active; 'I' for Inactive)
REMARK    1  A    between atoms: C4_5  and  C5_6 
REMARK       I    between atoms: C5_6  and  N1_8 
REMARK    2  A    between atoms: N1_8  and  C6_10 
REMARK    3  A    between atoms: C6_10  and  C7_11 
REMARK    4  A    between atoms: C6_10  and  C12_16 
REMARK    5  A    between atoms: C8_12  and  C9_13 
REMARK       I    between atoms: N2_18  and  C14_20 
ROOT
HETATM    1  C6  UNL     1       1.214  39.725 -15.312  1.00  0.00     0.153 C 
ENDROOT
BRANCH   1   2
HETATM    2  N1  UNL     1       2.463  39.535 -14.562  1.00  0.00    -0.347 N 
HETATM    3  C5  UNL     1       3.683  39.243 -15.191  1.00  0.00     0.231 C 
HETATM    4  O2  UNL     1       3.731  39.137 -16.444  1.00  0.00    -0.273 OA
ATOM      5  H1  UNL     1       2.442  39.618 -13.545  1.00  0.00     0.163 HD
BRANCH   3   6
HETATM    6  C4  UNL     1       4.899  39.065 -14.381  1.00  0.00     0.158 C 
HETATM    7  C2  UNL     1       4.878  38.003 -13.375  1.00  0.00     0.052 C 
HETATM    8  C1  UNL     1       4.378  36.805 -13.270  1.00  0.00     0.047 C 
HETATM    9  O1  UNL     1       5.638  38.827 -12.548  1.00  0.00    -0.354 OA
HETATM   10  C3  UNL     1       4.960  39.931 -13.129  1.00  0.00     0.196 C 
ENDBRANCH   3   6
ENDBRANCH   1   2
BRANCH   1  11
HETATM   11  C7  UNL     1       0.676  38.368 -15.551  1.00  0.00     0.004 C 
HETATM   12  C8  UNL     1       0.952  37.412 -14.691  1.00  0.00    -0.002 C 
BRANCH  12  13
HETATM   13  C9  UNL     1       0.442  36.074 -14.894  1.00  0.00    -0.005 C 
HETATM   14  C10 UNL     1       0.349  35.242 -13.895  1.00  0.00    -0.031 C 
HETATM   15  C11 UNL     1      -0.177  33.844 -14.072  1.00  0.00     0.036 C 
ENDBRANCH  12  13
ENDBRANCH   1  11
BRANCH   1  16
HETATM   16  C12 UNL     1       0.232  40.475 -14.497  1.00  0.00     0.012 C 
HETATM   17  C13 UNL     1      -0.484  41.600 -15.178  1.00  0.00     0.066 C 
HETATM   18  N2  UNL     1       0.041  40.147 -13.294  1.00  0.00    -0.336 N 
HETATM   19  C14 UNL     1      -0.849  40.751 -12.387  1.00  0.00     0.185 C 
ATOM     20  H2  UNL     1       0.589  39.362 -12.942  1.00  0.00     0.168 HD
HETATM   21  N3  UNL     1      -2.065  40.388 -12.191  1.00  0.00    -0.374 N 
HETATM   22  N4  UNL     1      -0.362  41.853 -11.625  1.00  0.00    -0.064 NA
ATOM     23  H32 UNL     1      -2.414  39.600 -12.736  1.00  0.00     0.158 HD
ATOM     24  H31 UNL     1      -2.710  40.826 -11.534  1.00  0.00     0.158 HD
ENDBRANCH   1  16
TORSDOF 5
ENDMDL
MODEL 5
REMARK VINA RESULT: -7.298487675      3.138      6.052
REMARK  5 active torsions:
REMARK  status: ('A' for Active; 'I' for Inactive)
REMARK    1  A    between atoms: C4_5  and  C5_6 
REMARK       I    between atoms: C5_6  and  N1_8 
REMARK    2  A    between atoms: N1_8  and  C6_10 
REMARK    3  A    between atoms: C6_10  and  C7_11 
REMARK    4  A    between atoms: C6_10  and  C12_16 
REMARK    5  A    between atoms: C8_12  and  C9_13 
REMARK       I    between atoms: N2_18  and  C14_20 
ROOT
HETATM    1  C6  UNL     1       2.158  38.541 -15.248  1.00  0.00     0.153 C 
ENDROOT
BRANCH   1   2
HETATM    2  N1  UNL     1       1.079  39.425 -14.789  1.00  0.00    -0.347 N 
HETATM    3  C5  UNL     1       0.102  39.009 -13.871  1.00  0.00     0.231 C 
HETATM    4  O2  UNL     1       0.135  37.838 -13.412  1.00  0.00    -0.273 OA
ATOM      5  H1  UNL     1       1.039  40.378 -15.150  1.00  0.00     0.163 HD
BRANCH   3   6
HETATM    6  C4  UNL     1      -0.952  39.946 -13.451  1.00  0.00     0.158 C 
HETATM    7  C2  UNL     1      -0.594  40.940 -12.440  1.00  0.00     0.052 C 
HETATM    8  C1  UNL     1       0.454  41.654 -12.140  1.00  0.00     0.047 C 
HETATM    9  O1  UNL     1      -1.876  40.804 -11.910  1.00  0.00    -0.354 OA
HETATM   10  C3  UNL     1      -1.829  39.443 -12.312  1.00  0.00     0.196 C 
ENDBRANCH   3   6
ENDBRANCH   1   2
BRANCH   1  11
HETATM   11  C7  UNL     1       2.565  39.055 -16.574  1.00  0.00     0.004 C 
HETATM   12  C8  UNL     1       1.728  39.813 -17.248  1.00  0.00    -0.002 C 
BRANCH  12  13
HETATM   13  C9  UNL     1       2.093  40.333 -18.548  1.00  0.00    -0.005 C 
HETATM   14  C10 UNL     1       1.667  41.501 -18.937  1.00  0.00    -0.031 C 
HETATM   15  C11 UNL     1       2.029  42.071 -20.282  1.00  0.00     0.036 C 
ENDBRANCH  12  13
ENDBRANCH   1  11
BRANCH   1  16
HETATM   16  C12 UNL     1       3.323  38.632 -14.339  1.00  0.00     0.012 C 
HETATM   17  C13 UNL     1       3.482  37.527 -13.342  1.00  0.00     0.066 C 
HETATM   18  N2  UNL     1       4.114  39.610 -14.437  1.00  0.00    -0.336 N 
HETATM   19  C14 UNL     1       5.260  39.847 -13.657  1.00  0.00     0.185 C 
ATOM     20  H2  UNL     1       3.901  40.300 -15.157  1.00  0.00     0.168 HD
HETATM   21  N3  UNL     1       6.448  39.458 -13.950  1.00  0.00    -0.374 N 
HETATM   22  N4  UNL     1       5.090  40.580 -12.446  1.00  0.00    -0.064 NA
ATOM     23  H32 UNL     1       6.570  38.933 -14.816  1.00  0.00     0.158 HD
ATOM     24  H31 UNL     1       7.279  39.630 -13.384  1.00  0.00     0.158 HD
ENDBRANCH   1  16
TORSDOF 5
ENDMDL
