MODEL 1
REMARK VINA RESULT: -6.862840729      0.000      0.000
REMARK  7 active torsions:
REMARK  status: ('A' for Active; 'I' for Inactive)
REMARK    1  A    between atoms: C2_2  and  N1_3 
REMARK    2  A    between atoms: N2_6  and  C5_7 
REMARK    3  A    between atoms: C5_7  and  C6_8 
REMARK    4  A    between atoms: C6_8  and  C7_9 
REMARK    5  A    between atoms: C7_9  and  N3_10 
REMARK       I    between atoms: N3_10  and  C8_12 
REMARK    6  A    between atoms: N5_14  and  C9_16 
REMARK    7  A    between atoms: C9_16  and  C10_20 
ROOT
HETATM    1  N3  UNL     1       1.175  34.439 -15.110  1.00  0.00    -0.364 N 
ATOM      2  H3  UNL     1       1.961  34.978 -15.471  1.00  0.00     0.162 HD
HETATM    3  C8  UNL     1       1.145  33.084 -15.469  1.00  0.00     0.189 C 
HETATM    4  N4  UNL     1       0.475  32.136 -14.668  1.00  0.00    -0.064 NA
HETATM    5  N5  UNL     1       1.728  32.645 -16.546  1.00  0.00    -0.320 N 
ATOM      6  H5  UNL     1       2.212  33.330 -17.126  1.00  0.00     0.169 HD
ENDROOT
BRANCH   1   7
HETATM    7  C7  UNL     1       0.236  35.163 -14.297  1.00  0.00     0.124 C 
BRANCH   7   8
HETATM    8  C6  UNL     1       0.052  36.591 -14.635  1.00  0.00     0.050 C 
BRANCH   8   9
HETATM    9  C5  UNL     1       0.861  37.591 -13.885  1.00  0.00     0.274 C 
BRANCH   9  10
HETATM   10  N2  UNL     1       2.217  37.797 -14.278  1.00  0.00     0.091 N 
HETATM   11  C4  UNL     1       3.088  37.258 -13.219  1.00  0.00     0.302 C 
HETATM   12  C3  UNL     1       4.488  37.818 -13.291  1.00  0.00     0.302 C 
HETATM   13  N1  UNL     1       4.484  39.224 -12.922  1.00  0.00     0.091 N 
HETATM   14  C14 UNL     1       3.129  39.700 -13.100  1.00  0.00     0.302 C 
HETATM   15  C13 UNL     1       2.622  39.169 -14.422  1.00  0.00     0.302 C 
BRANCH  13  16
HETATM   16  C2  UNL     1       5.362  40.030 -13.725  1.00  0.00     0.268 C 
HETATM   17  C1  UNL     1       6.685  39.345 -14.000  1.00  0.00     0.037 C 
ENDBRANCH  13  16
ENDBRANCH   9  10
ENDBRANCH   8   9
ENDBRANCH   7   8
ENDBRANCH   1   7
BRANCH   5  18
HETATM   18  C9  UNL     1       1.749  31.317 -16.979  1.00  0.00     0.080 C 
HETATM   19  N6  UNL     1       0.718  30.705 -17.425  1.00  0.00    -0.389 N 
ATOM     20  H62 UNL     1      -0.157  31.229 -17.453  1.00  0.00     0.157 HD
ATOM     21  H61 UNL     1       0.733  29.735 -17.741  1.00  0.00     0.157 HD
BRANCH  18  22
HETATM   22  C10 UNL     1       3.023  30.553 -16.937  1.00  0.00     0.045 C 
HETATM   23  C11 UNL     1       3.095  29.458 -17.951  1.00  0.00     0.017 C 
HETATM   24  C12 UNL     1       3.224  29.943 -15.564  1.00  0.00     0.017 C 
ENDBRANCH  18  22
ENDBRANCH   5  18
TORSDOF 7
ENDMDL
MODEL 2
REMARK VINA RESULT: -6.801954622      0.984      1.315
REMARK  7 active torsions:
REMARK  status: ('A' for Active; 'I' for Inactive)
REMARK    1  A    between atoms: C2_2  and  N1_3 
REMARK    2  A    between atoms: N2_6  and  C5_7 
REMARK    3  A    between atoms: C5_7  and  C6_8 
REMARK    4  A    between atoms: C6_8  and  C7_9 
REMARK    5  A    between atoms: C7_9  and  N3_10 
REMARK       I    between atoms: N3_10  and  C8_12 
REMARK    6  A    between atoms: N5_14  and  C9_16 
REMARK    7  A    between atoms: C9_16  and  C10_20 
ROOT
HETATM    1  N3  UNL     1       1.696  34.564 -15.625  1.00  0.00    -0.364 N 
ATOM      2  H3  UNL     1       2.543  34.908 -16.077  1.00  0.00     0.162 HD
HETATM    3  C8  UNL     1       1.430  33.197 -15.783  1.00  0.00     0.189 C 
HETATM    4  N4  UNL     1       0.652  32.494 -14.839  1.00  0.00    -0.064 NA
HETATM    5  N5  UNL     1       1.884  32.520 -16.799  1.00  0.00    -0.320 N 
ATOM      6  H5  UNL     1       2.446  33.027 -17.482  1.00  0.00     0.169 HD
ENDROOT
BRANCH   1   7
HETATM    7  C7  UNL     1       0.926  35.540 -14.904  1.00  0.00     0.124 C 
BRANCH   7   8
HETATM    8  C6  UNL     1       0.719  36.835 -15.588  1.00  0.00     0.050 C 
BRANCH   8   9
HETATM    9  C5  UNL     1       0.368  38.014 -14.751  1.00  0.00     0.274 C 
BRANCH   9  10
HETATM   10  N2  UNL     1       1.345  39.041 -14.582  1.00  0.00     0.091 N 
HETATM   11  C4  UNL     1       2.371  38.873 -15.627  1.00  0.00     0.302 C 
HETATM   12  C3  UNL     1       3.659  39.581 -15.281  1.00  0.00     0.302 C 
HETATM   13  N1  UNL     1       4.316  38.909 -14.172  1.00  0.00     0.091 N 
HETATM   14  C14 UNL     1       3.301  38.136 -13.489  1.00  0.00     0.302 C 
HETATM   15  C13 UNL     1       2.074  39.009 -13.344  1.00  0.00     0.302 C 
BRANCH  13  16
HETATM   16  C2  UNL     1       4.917  39.812 -13.229  1.00  0.00     0.268 C 
HETATM   17  C1  UNL     1       5.655  40.949 -13.907  1.00  0.00     0.037 C 
ENDBRANCH  13  16
ENDBRANCH   9  10
ENDBRANCH   8   9
ENDBRANCH   7   8
ENDBRANCH   1   7
BRANCH   5  18
HETATM   18  C9  UNL     1       1.669  31.161 -17.035  1.00  0.00     0.080 C 
HETATM   19  N6  UNL     1       0.529  30.672 -17.351  1.00  0.00    -0.389 N 
ATOM     20  H62 UNL     1      -0.252  31.325 -17.422  1.00  0.00     0.157 HD
ATOM     21  H61 UNL     1       0.372  29.679 -17.523  1.00  0.00     0.157 HD
BRANCH  18  22
HETATM   22  C10 UNL     1       2.807  30.210 -16.930  1.00  0.00     0.045 C 
HETATM   23  C11 UNL     1       2.565  28.912 -17.629  1.00  0.00     0.017 C 
HETATM   24  C12 UNL     1       3.111  29.917 -15.475  1.00  0.00     0.017 C 
ENDBRANCH  18  22
ENDBRANCH   5  18
TORSDOF 7
ENDMDL
MODEL 3
REMARK VINA RESULT: -6.783673988      1.428      1.938
REMARK  7 active torsions:
REMARK  status: ('A' for Active; 'I' for Inactive)
REMARK    1  A    between atoms: C2_2  and  N1_3 
REMARK    2  A    between atoms: N2_6  and  C5_7 
REMARK    3  A    between atoms: C5_7  and  C6_8 
REMARK    4  A    between atoms: C6_8  and  C7_9 
REMARK    5  A    between atoms: C7_9  and  N3_10 
REMARK       I    between atoms: N3_10  and  C8_12 
REMARK    6  A    between atoms: N5_14  and  C9_16 
REMARK    7  A    between atoms: C9_16  and  C10_20 
ROOT
HETATM    1  N3  UNL     1      -0.162  34.157 -13.689  1.00  0.00    -0.364 N 
ATOM      2  H3  UNL     1      -1.045  33.667 -13.544  1.00  0.00     0.162 HD
HETATM    3  C8  UNL     1       0.682  33.620 -14.670  1.00  0.00     0.189 C 
HETATM    4  N4  UNL     1       1.630  34.428 -15.333  1.00  0.00    -0.064 NA
HETATM    5  N5  UNL     1       0.631  32.364 -15.010  1.00  0.00    -0.320 N 
ATOM      6  H5  UNL     1      -0.053  31.780 -14.531  1.00  0.00     0.169 HD
ENDROOT
BRANCH   1   7
HETATM    7  C7  UNL     1       0.060  35.311 -12.861  1.00  0.00     0.124 C 
BRANCH   7   8
HETATM    8  C6  UNL     1      -0.824  36.469 -13.112  1.00  0.00     0.050 C 
BRANCH   8   9
HETATM    9  C5  UNL     1      -0.241  37.650 -13.805  1.00  0.00     0.274 C 
BRANCH   9  10
HETATM   10  N2  UNL     1       1.088  38.046 -13.468  1.00  0.00     0.091 N 
HETATM   11  C4  UNL     1       1.057  39.466 -13.076  1.00  0.00     0.302 C 
HETATM   12  C3  UNL     1       2.422  40.108 -13.148  1.00  0.00     0.302 C 
HETATM   13  N1  UNL     1       2.840  40.238 -14.534  1.00  0.00     0.091 N 
HETATM   14  C14 UNL     1       2.061  39.287 -15.298  1.00  0.00     0.302 C 
HETATM   15  C13 UNL     1       2.047  37.981 -14.536  1.00  0.00     0.302 C 
BRANCH  13  16
HETATM   16  C2  UNL     1       4.235  39.959 -14.741  1.00  0.00     0.268 C 
HETATM   17  C1  UNL     1       5.105  40.508 -13.628  1.00  0.00     0.037 C 
ENDBRANCH  13  16
ENDBRANCH   9  10
ENDBRANCH   8   9
ENDBRANCH   7   8
ENDBRANCH   1   7
BRANCH   5  18
HETATM   18  C9  UNL     1       1.432  31.747 -15.973  1.00  0.00     0.080 C 
HETATM   19  N6  UNL     1       1.445  32.092 -17.206  1.00  0.00    -0.389 N 
ATOM     20  H62 UNL     1       0.827  32.856 -17.480  1.00  0.00     0.157 HD
ATOM     21  H61 UNL     1       2.030  31.641 -17.909  1.00  0.00     0.157 HD
BRANCH  18  22
HETATM   22  C10 UNL     1       2.331  30.634 -15.574  1.00  0.00     0.045 C 
HETATM   23  C11 UNL     1       2.464  29.572 -16.616  1.00  0.00     0.017 C 
HETATM   24  C12 UNL     1       1.830  29.987 -14.298  1.00  0.00     0.017 C 
ENDBRANCH  18  22
ENDBRANCH   5  18
TORSDOF 7
ENDMDL
MODEL 4
REMARK VINA RESULT: -6.736832391      1.849      2.469
REMARK  7 active torsions:
REMARK  status: ('A' for Active; 'I' for Inactive)
REMARK    1  A    between atoms: C2_2  and  N1_3 
REMARK    2  A    between atoms: N2_6  and  C5_7 
REMARK    3  A    between atoms: C5_7  and  C6_8 
REMARK    4  A    between atoms: C6_8  and  C7_9 
REMARK    5  A    between atoms: C7_9  and  N3_10 
REMARK       I    between atoms: N3_10  and  C8_12 
REMARK    6  A    between atoms: N5_14  and  C9_16 
REMARK    7  A    between atoms: C9_16  and  C10_20 
ROOT
HETATM    1  N3  UNL     1      -0.235  35.131 -13.531  1.00  0.00    -0.364 N 
ATOM      2  H3  UNL     1      -0.185  35.492 -14.484  1.00  0.00     0.162 HD
HETATM    3  C8  UNL     1       0.305  33.853 -13.331  1.00  0.00     0.189 C 
HETATM    4  N4  UNL     1       0.777  33.455 -12.064  1.00  0.00    -0.064 NA
HETATM    5  N5  UNL     1       0.392  32.984 -14.297  1.00  0.00    -0.320 N 
ATOM      6  H5  UNL     1       0.051  33.271 -15.214  1.00  0.00     0.169 HD
ENDROOT
BRANCH   1   7
HETATM    7  C7  UNL     1      -0.850  35.997 -12.563  1.00  0.00     0.124 C 
BRANCH   7   8
HETATM    8  C6  UNL     1      -1.028  37.406 -12.973  1.00  0.00     0.050 C 
BRANCH   8   9
HETATM    9  C5  UNL     1      -0.026  37.990 -13.906  1.00  0.00     0.274 C 
BRANCH   9  10
HETATM   10  N2  UNL     1       1.235  38.396 -13.377  1.00  0.00     0.091 N 
HETATM   11  C4  UNL     1       1.280  39.869 -13.378  1.00  0.00     0.302 C 
HETATM   12  C3  UNL     1       2.692  40.397 -13.288  1.00  0.00     0.302 C 
HETATM   13  N1  UNL     1       3.407  40.123 -14.522  1.00  0.00     0.091 N 
HETATM   14  C14 UNL     1       2.708  39.041 -15.181  1.00  0.00     0.302 C 
HETATM   15  C13 UNL     1       2.388  37.994 -14.137  1.00  0.00     0.302 C 
BRANCH  13  16
HETATM   16  C2  UNL     1       4.774  39.729 -14.317  1.00  0.00     0.268 C 
HETATM   17  C1  UNL     1       5.654  40.889 -13.898  1.00  0.00     0.037 C 
ENDBRANCH  13  16
ENDBRANCH   9  10
ENDBRANCH   8   9
ENDBRANCH   7   8
ENDBRANCH   1   7
BRANCH   5  18
HETATM   18  C9  UNL     1       0.914  31.694 -14.188  1.00  0.00     0.080 C 
HETATM   19  N6  UNL     1       0.911  31.021 -13.099  1.00  0.00    -0.389 N 
ATOM     20  H62 UNL     1       0.507  31.472 -12.277  1.00  0.00     0.157 HD
ATOM     21  H61 UNL     1       1.292  30.079 -13.019  1.00  0.00     0.157 HD
BRANCH  18  22
HETATM   22  C10 UNL     1       1.502  31.038 -15.385  1.00  0.00     0.045 C 
HETATM   23  C11 UNL     1       2.547  30.023 -15.055  1.00  0.00     0.017 C 
HETATM   24  C12 UNL     1       2.120  32.076 -16.300  1.00  0.00     0.017 C 
ENDBRANCH  18  22
ENDBRANCH   5  18
TORSDOF 7
ENDMDL
MODEL 5
REMARK VINA RESULT: -6.728485112      2.995      4.125
REMARK  7 active torsions:
REMARK  status: ('A' for Active; 'I' for Inactive)
REMARK    1  A    between atoms: C2_2  and  N1_3 
REMARK    2  A    between atoms: N2_6  and  C5_7 
REMARK    3  A    between atoms: C5_7  and  C6_8 
REMARK    4  A    between atoms: C6_8  and  C7_9 
REMARK    5  A    between atoms: C7_9  and  N3_10 
REMARK       I    between atoms: N3_10  and  C8_12 
REMARK    6  A    between atoms: N5_14  and  C9_16 
REMARK    7  A    between atoms: C9_16  and  C10_20 
ROOT
HETATM    1  N3  UNL     1      -0.594  38.123 -12.105  1.00  0.00    -0.364 N 
ATOM      2  H3  UNL     1       0.061  38.321 -11.349  1.00  0.00     0.162 HD
HETATM    3  C8  UNL     1      -0.623  36.797 -12.559  1.00  0.00     0.189 C 
HETATM    4  N4  UNL     1      -1.774  36.268 -13.180  1.00  0.00    -0.064 NA
HETATM    5  N5  UNL     1       0.400  36.003 -12.430  1.00  0.00    -0.320 N 
ATOM      6  H5  UNL     1       1.233  36.386 -11.982  1.00  0.00     0.169 HD
ENDROOT
BRANCH   1   7
HETATM    7  C7  UNL     1      -1.371  39.239 -12.572  1.00  0.00     0.124 C 
BRANCH   7   8
HETATM    8  C6  UNL     1      -0.612  40.342 -13.199  1.00  0.00     0.050 C 
BRANCH   8   9
HETATM    9  C5  UNL     1       0.235  40.018 -14.379  1.00  0.00     0.274 C 
BRANCH   9  10
HETATM   10  N2  UNL     1       1.620  40.359 -14.334  1.00  0.00     0.091 N 
HETATM   11  C4  UNL     1       2.307  39.630 -15.414  1.00  0.00     0.302 C 
HETATM   12  C3  UNL     1       3.797  39.540 -15.185  1.00  0.00     0.302 C 
HETATM   13  N1  UNL     1       4.077  38.656 -14.066  1.00  0.00     0.091 N 
HETATM   14  C14 UNL     1       2.865  38.576 -13.279  1.00  0.00     0.302 C 
HETATM   15  C13 UNL     1       2.315  39.978 -13.134  1.00  0.00     0.302 C 
BRANCH  13  16
HETATM   16  C2  UNL     1       5.143  39.121 -13.221  1.00  0.00     0.268 C 
HETATM   17  C1  UNL     1       6.447  39.288 -13.974  1.00  0.00     0.037 C 
ENDBRANCH  13  16
ENDBRANCH   9  10
ENDBRANCH   8   9
ENDBRANCH   7   8
ENDBRANCH   1   7
BRANCH   5  18
HETATM   18  C9  UNL     1       0.459  34.673 -12.852  1.00  0.00     0.080 C 
HETATM   19  N6  UNL     1       0.676  33.691 -12.061  1.00  0.00    -0.389 N 
ATOM     20  H62 UNL     1       0.817  33.913 -11.075  1.00  0.00     0.157 HD
ATOM     21  H61 UNL     1       0.719  32.720 -12.370  1.00  0.00     0.157 HD
BRANCH  18  22
HETATM   22  C10 UNL     1       0.253  34.351 -14.289  1.00  0.00     0.045 C 
HETATM   23  C11 UNL     1       0.375  32.895 -14.596  1.00  0.00     0.017 C 
HETATM   24  C12 UNL     1       1.256  35.102 -15.143  1.00  0.00     0.017 C 
ENDBRANCH  18  22
ENDBRANCH   5  18
TORSDOF 7
ENDMDL
