MODEL 1
REMARK VINA RESULT: -8.959735425      0.000      0.000
REMARK  9 active torsions:
REMARK  status: ('A' for Active; 'I' for Inactive)
REMARK    1  A    between atoms: O1_2  and  C2_3 
REMARK    2  A    between atoms: N2_6  and  C3_7 
REMARK    3  A    between atoms: C3_7  and  O2_8 
REMARK    4  A    between atoms: O2_8  and  C4_9 
REMARK    5  A    between atoms: C4_9  and  C5_10 
REMARK    6  A    between atoms: C5_10  and  O3_11 
REMARK    7  A    between atoms: O3_11  and  C6_12 
REMARK    8  A    between atoms: C6_12  and  C7_14 
REMARK    9  A    between atoms: C12_27  and  N6_28 
ROOT
HETATM    1  C2  UNL     1      43.609 268.668 159.590  1.00  0.00     0.176 A 
HETATM    2  N1  UNL     1      44.146 269.409 160.567  1.00  0.00    -0.273 N 
ATOM      3  H1  UNL     1      45.143 269.456 160.770  1.00  0.00     0.189 HD
HETATM    4  N2  UNL     1      43.226 270.065 161.227  1.00  0.00    -0.249 N 
HETATM    5  C11 UNL     1      42.044 269.754 160.677  1.00  0.00     0.160 A 
HETATM    6  N5  UNL     1      40.761 270.115 160.926  1.00  0.00    -0.174 N 
ATOM      7  H5  UNL     1      40.557 270.766 161.684  1.00  0.00     0.186 HD
HETATM    8  C12 UNL     1      39.756 269.625 160.185  1.00  0.00     0.680 A 
HETATM    9  N7  UNL     1      39.968 268.755 159.161  1.00  0.00    -0.155 N 
ATOM     10  H7  UNL     1      39.182 268.401 158.616  1.00  0.00     0.187 HD
HETATM   11  C13 UNL     1      41.232 268.362 158.872  1.00  0.00     0.278 A 
HETATM   12  O7  UNL     1      41.395 267.559 157.923  1.00  0.00    -0.266 OA
HETATM   13  C14 UNL     1      42.248 268.872 159.639  1.00  0.00     0.131 A 
ENDROOT
BRANCH   4  14
HETATM   14  C3  UNL     1      43.469 270.957 162.335  1.00  0.00     0.318 C 
BRANCH  14  15
HETATM   15  O2  UNL     1      43.571 270.313 163.565  1.00  0.00    -0.368 OA
BRANCH  15  16
HETATM   16  C4  UNL     1      44.523 270.770 164.404  1.00  0.00     0.197 C 
BRANCH  16  17
HETATM   17  C5  UNL     1      44.178 271.292 165.741  1.00  0.00     0.205 C 
BRANCH  17  18
HETATM   18  O3  UNL     1      42.894 271.433 166.143  1.00  0.00    -0.314 OA
BRANCH  18  19
HETATM   19  C6  UNL     1      41.848 272.249 165.975  1.00  0.00     0.310 C 
HETATM   20  O4  UNL     1      41.141 272.503 166.976  1.00  0.00    -0.258 OA
BRANCH  19  21
HETATM   21  C7  UNL     1      41.486 272.862 164.674  1.00  0.00     0.117 A 
HETATM   22  C8  UNL     1      40.390 272.373 164.001  1.00  0.00     0.110 A 
HETATM   23  C9  UNL     1      40.010 272.915 162.778  1.00  0.00     0.251 A 
HETATM   24  O5  UNL     1      39.006 272.456 162.175  1.00  0.00    -0.268 OA
HETATM   25  N3  UNL     1      40.729 273.934 162.245  1.00  0.00    -0.275 N 
HETATM   26  C10 UNL     1      41.789 274.380 162.935  1.00  0.00     0.327 A 
ATOM     27  H3  UNL     1      40.471 274.348 161.349  1.00  0.00     0.173 HD
HETATM   28  O6  UNL     1      42.441 275.336 162.407  1.00  0.00    -0.247 OA
HETATM   29  N4  UNL     1      42.165 273.857 164.127  1.00  0.00    -0.303 N 
ATOM     30  H4  UNL     1      42.982 274.235 164.608  1.00  0.00     0.171 HD
ENDBRANCH  19  21
ENDBRANCH  18  19
ENDBRANCH  17  18
ENDBRANCH  16  17
ENDBRANCH  15  16
ENDBRANCH  14  15
ENDBRANCH   4  14
BRANCH   1  31
HETATM   31  O1  UNL     1      44.305 267.838 158.686  1.00  0.00    -0.339 OA
HETATM   32  C1  UNL     1      44.866 268.425 157.538  1.00  0.00     0.211 C 
ENDBRANCH   1  31
BRANCH   8  33
HETATM   33  N6  UNL     1      38.526 269.963 160.415  1.00  0.00    -0.234 N 
ATOM     34  H62 UNL     1      37.837 269.212 160.411  1.00  0.00     0.174 HD
ATOM     35  H61 UNL     1      38.270 270.935 160.589  1.00  0.00     0.174 HD
ENDBRANCH   8  33
TORSDOF 9
ENDMDL
MODEL 2
REMARK VINA RESULT: -8.891011938      2.093      4.474
REMARK  9 active torsions:
REMARK  status: ('A' for Active; 'I' for Inactive)
REMARK    1  A    between atoms: O1_2  and  C2_3 
REMARK    2  A    between atoms: N2_6  and  C3_7 
REMARK    3  A    between atoms: C3_7  and  O2_8 
REMARK    4  A    between atoms: O2_8  and  C4_9 
REMARK    5  A    between atoms: C4_9  and  C5_10 
REMARK    6  A    between atoms: C5_10  and  O3_11 
REMARK    7  A    between atoms: O3_11  and  C6_12 
REMARK    8  A    between atoms: C6_12  and  C7_14 
REMARK    9  A    between atoms: C12_27  and  N6_28 
ROOT
HETATM    1  C2  UNL     1      40.986 268.321 159.149  1.00  0.00     0.176 A 
HETATM    2  N1  UNL     1      39.954 269.150 159.340  1.00  0.00    -0.273 N 
ATOM      3  H1  UNL     1      39.041 269.042 158.899  1.00  0.00     0.189 HD
HETATM    4  N2  UNL     1      40.264 270.117 160.164  1.00  0.00    -0.249 N 
HETATM    5  C11 UNL     1      41.539 269.929 160.535  1.00  0.00     0.160 A 
HETATM    6  N5  UNL     1      42.393 270.590 161.355  1.00  0.00    -0.174 N 
ATOM      7  H5  UNL     1      42.079 271.430 161.840  1.00  0.00     0.186 HD
HETATM    8  C12 UNL     1      43.648 270.150 161.534  1.00  0.00     0.680 A 
HETATM    9  N7  UNL     1      44.120 269.036 160.914  1.00  0.00    -0.155 N 
ATOM     10  H7  UNL     1      45.079 268.727 161.072  1.00  0.00     0.187 HD
HETATM   11  C13 UNL     1      43.307 268.339 160.084  1.00  0.00     0.278 A 
HETATM   12  O7  UNL     1      43.772 267.317 159.527  1.00  0.00    -0.266 OA
HETATM   13  C14 UNL     1      42.027 268.802 159.911  1.00  0.00     0.131 A 
ENDROOT
BRANCH   4  14
HETATM   14  C3  UNL     1      39.377 271.174 160.586  1.00  0.00     0.318 C 
BRANCH  14  15
HETATM   15  O2  UNL     1      40.020 272.222 161.239  1.00  0.00    -0.368 OA
BRANCH  15  16
HETATM   16  C4  UNL     1      39.688 272.417 162.531  1.00  0.00     0.197 C 
BRANCH  16  17
HETATM   17  C5  UNL     1      40.697 272.838 163.525  1.00  0.00     0.205 C 
BRANCH  17  18
HETATM   18  O3  UNL     1      40.921 272.134 164.657  1.00  0.00    -0.314 OA
BRANCH  18  19
HETATM   19  C6  UNL     1      41.930 271.740 165.441  1.00  0.00     0.310 C 
HETATM   20  O4  UNL     1      42.846 271.067 164.918  1.00  0.00    -0.258 OA
BRANCH  19  21
HETATM   21  C7  UNL     1      42.017 272.058 166.887  1.00  0.00     0.117 A 
HETATM   22  C8  UNL     1      40.979 272.744 167.471  1.00  0.00     0.110 A 
HETATM   23  C9  UNL     1      41.013 273.065 168.824  1.00  0.00     0.251 A 
HETATM   24  O5  UNL     1      40.055 273.693 169.344  1.00  0.00    -0.268 OA
HETATM   25  N3  UNL     1      42.082 272.697 169.572  1.00  0.00    -0.275 N 
HETATM   26  C10 UNL     1      43.072 272.029 168.962  1.00  0.00     0.327 A 
ATOM     27  H3  UNL     1      42.132 272.920 170.566  1.00  0.00     0.173 HD
HETATM   28  O6  UNL     1      44.061 271.698 169.692  1.00  0.00    -0.247 OA
HETATM   29  N4  UNL     1      43.046 271.713 167.645  1.00  0.00    -0.303 N 
ATOM     30  H4  UNL     1      43.828 271.203 167.233  1.00  0.00     0.171 HD
ENDBRANCH  19  21
ENDBRANCH  18  19
ENDBRANCH  17  18
ENDBRANCH  16  17
ENDBRANCH  15  16
ENDBRANCH  14  15
ENDBRANCH   4  14
BRANCH   1  31
HETATM   31  O1  UNL     1      41.003 267.176 158.325  1.00  0.00    -0.339 OA
HETATM   32  C1  UNL     1      41.355 267.333 156.973  1.00  0.00     0.211 C 
ENDBRANCH   1  31
BRANCH   8  33
HETATM   33  N6  UNL     1      44.472 270.775 162.314  1.00  0.00    -0.234 N 
ATOM     34  H62 UNL     1      45.161 270.204 162.803  1.00  0.00     0.174 HD
ATOM     35  H61 UNL     1      44.426 271.788 162.428  1.00  0.00     0.174 HD
ENDBRANCH   8  33
TORSDOF 9
ENDMDL
MODEL 3
REMARK VINA RESULT: -8.873696780      2.302      4.520
REMARK  9 active torsions:
REMARK  status: ('A' for Active; 'I' for Inactive)
REMARK    1  A    between atoms: O1_2  and  C2_3 
REMARK    2  A    between atoms: N2_6  and  C3_7 
REMARK    3  A    between atoms: C3_7  and  O2_8 
REMARK    4  A    between atoms: O2_8  and  C4_9 
REMARK    5  A    between atoms: C4_9  and  C5_10 
REMARK    6  A    between atoms: C5_10  and  O3_11 
REMARK    7  A    between atoms: O3_11  and  C6_12 
REMARK    8  A    between atoms: C6_12  and  C7_14 
REMARK    9  A    between atoms: C12_27  and  N6_28 
ROOT
HETATM    1  C2  UNL     1      41.034 272.136 161.643  1.00  0.00     0.176 A 
HETATM    2  N1  UNL     1      42.309 271.810 161.884  1.00  0.00    -0.273 N 
ATOM      3  H1  UNL     1      42.970 272.406 162.380  1.00  0.00     0.189 HD
HETATM    4  N2  UNL     1      42.599 270.629 161.401  1.00  0.00    -0.249 N 
HETATM    5  C11 UNL     1      41.487 270.153 160.822  1.00  0.00     0.160 A 
HETATM    6  N5  UNL     1      41.178 269.006 160.169  1.00  0.00    -0.174 N 
ATOM      7  H5  UNL     1      41.892 268.288 160.044  1.00  0.00     0.186 HD
HETATM    8  C12 UNL     1      39.944 268.805 159.684  1.00  0.00     0.680 A 
HETATM    9  N7  UNL     1      38.954 269.727 159.821  1.00  0.00    -0.155 N 
ATOM     10  H7  UNL     1      38.025 269.543 159.442  1.00  0.00     0.187 HD
HETATM   11  C13 UNL     1      39.211 270.891 160.466  1.00  0.00     0.278 A 
HETATM   12  O7  UNL     1      38.277 271.720 160.576  1.00  0.00    -0.266 OA
HETATM   13  C14 UNL     1      40.477 271.080 160.955  1.00  0.00     0.131 A 
ENDROOT
BRANCH   4  14
HETATM   14  C3  UNL     1      43.884 269.980 161.496  1.00  0.00     0.318 C 
BRANCH  14  15
HETATM   15  O2  UNL     1      44.808 270.669 162.277  1.00  0.00    -0.368 OA
BRANCH  15  16
HETATM   16  C4  UNL     1      44.966 270.232 163.543  1.00  0.00     0.197 C 
BRANCH  16  17
HETATM   17  C5  UNL     1      44.439 271.000 164.689  1.00  0.00     0.205 C 
BRANCH  17  18
HETATM   18  O3  UNL     1      43.124 270.997 165.006  1.00  0.00    -0.314 OA
BRANCH  18  19
HETATM   19  C6  UNL     1      42.222 271.734 165.663  1.00  0.00     0.310 C 
HETATM   20  O4  UNL     1      41.260 272.195 165.010  1.00  0.00    -0.258 OA
BRANCH  19  21
HETATM   21  C7  UNL     1      42.305 272.030 167.114  1.00  0.00     0.117 A 
HETATM   22  C8  UNL     1      41.258 272.694 167.708  1.00  0.00     0.110 A 
HETATM   23  C9  UNL     1      41.289 272.994 169.066  1.00  0.00     0.251 A 
HETATM   24  O5  UNL     1      40.323 273.602 169.596  1.00  0.00    -0.268 OA
HETATM   25  N3  UNL     1      42.364 272.629 169.808  1.00  0.00    -0.275 N 
HETATM   26  C10 UNL     1      43.362 271.983 169.187  1.00  0.00     0.327 A 
ATOM     27  H3  UNL     1      42.411 272.838 170.805  1.00  0.00     0.173 HD
HETATM   28  O6  UNL     1      44.355 271.654 169.912  1.00  0.00    -0.247 OA
HETATM   29  N4  UNL     1      43.339 271.687 167.865  1.00  0.00    -0.303 N 
ATOM     30  H4  UNL     1      44.127 271.195 167.445  1.00  0.00     0.171 HD
ENDBRANCH  19  21
ENDBRANCH  18  19
ENDBRANCH  17  18
ENDBRANCH  16  17
ENDBRANCH  15  16
ENDBRANCH  14  15
ENDBRANCH   4  14
BRANCH   1  31
HETATM   31  O1  UNL     1      40.386 273.331 162.020  1.00  0.00    -0.339 OA
HETATM   32  C1  UNL     1      41.178 274.456 162.309  1.00  0.00     0.211 C 
ENDBRANCH   1  31
BRANCH   8  33
HETATM   33  N6  UNL     1      39.639 267.713 159.058  1.00  0.00    -0.234 N 
ATOM     34  H62 UNL     1      39.856 267.680 158.063  1.00  0.00     0.174 HD
ATOM     35  H61 UNL     1      39.203 266.929 159.545  1.00  0.00     0.174 HD
ENDBRANCH   8  33
TORSDOF 9
ENDMDL
MODEL 4
REMARK VINA RESULT: -8.838483621      2.344      3.699
REMARK  9 active torsions:
REMARK  status: ('A' for Active; 'I' for Inactive)
REMARK    1  A    between atoms: O1_2  and  C2_3 
REMARK    2  A    between atoms: N2_6  and  C3_7 
REMARK    3  A    between atoms: C3_7  and  O2_8 
REMARK    4  A    between atoms: O2_8  and  C4_9 
REMARK    5  A    between atoms: C4_9  and  C5_10 
REMARK    6  A    between atoms: C5_10  and  O3_11 
REMARK    7  A    between atoms: O3_11  and  C6_12 
REMARK    8  A    between atoms: C6_12  and  C7_14 
REMARK    9  A    between atoms: C12_27  and  N6_28 
ROOT
HETATM    1  C2  UNL     1      42.588 269.247 160.484  1.00  0.00     0.176 A 
HETATM    2  N1  UNL     1      43.167 270.270 161.122  1.00  0.00    -0.273 N 
ATOM      3  H1  UNL     1      44.160 270.321 161.344  1.00  0.00     0.189 HD
HETATM    4  N2  UNL     1      42.296 271.198 161.424  1.00  0.00    -0.249 N 
HETATM    5  C11 UNL     1      41.102 270.784 160.976  1.00  0.00     0.160 A 
HETATM    6  N5  UNL     1      39.851 271.306 160.995  1.00  0.00    -0.174 N 
ATOM      7  H5  UNL     1      39.690 272.216 161.428  1.00  0.00     0.186 HD
HETATM    8  C12 UNL     1      38.822 270.640 160.451  1.00  0.00     0.680 A 
HETATM    9  N7  UNL     1      38.978 269.425 159.860  1.00  0.00    -0.155 N 
ATOM     10  H7  UNL     1      38.175 268.944 159.455  1.00  0.00     0.187 HD
HETATM   11  C13 UNL     1      40.208 268.859 159.815  1.00  0.00     0.278 A 
HETATM   12  O7  UNL     1      40.319 267.738 159.263  1.00  0.00    -0.266 OA
HETATM   13  C14 UNL     1      41.249 269.553 160.376  1.00  0.00     0.131 A 
ENDROOT
BRANCH   4  14
HETATM   14  C3  UNL     1      42.593 272.433 162.109  1.00  0.00     0.318 C 
BRANCH  14  15
HETATM   15  O2  UNL     1      43.943 272.602 162.406  1.00  0.00    -0.368 OA
BRANCH  15  16
HETATM   16  C4  UNL     1      44.296 272.449 163.698  1.00  0.00     0.197 C 
BRANCH  16  17
HETATM   17  C5  UNL     1      44.041 271.183 164.416  1.00  0.00     0.205 C 
BRANCH  17  18
HETATM   18  O3  UNL     1      42.951 271.014 165.198  1.00  0.00    -0.314 OA
BRANCH  18  19
HETATM   19  C6  UNL     1      42.035 271.733 165.855  1.00  0.00     0.310 C 
HETATM   20  O4  UNL     1      41.035 272.127 165.215  1.00  0.00    -0.258 OA
BRANCH  19  21
HETATM   21  C7  UNL     1      42.145 272.084 167.292  1.00  0.00     0.117 A 
HETATM   22  C8  UNL     1      41.117 272.786 167.876  1.00  0.00     0.110 A 
HETATM   23  C9  UNL     1      41.173 273.139 169.221  1.00  0.00     0.251 A 
HETATM   24  O5  UNL     1      40.224 273.782 169.740  1.00  0.00    -0.268 OA
HETATM   25  N3  UNL     1      42.253 272.786 169.960  1.00  0.00    -0.275 N 
HETATM   26  C10 UNL     1      43.232 272.102 169.351  1.00  0.00     0.327 A 
ATOM     27  H3  UNL     1      42.319 273.033 170.947  1.00  0.00     0.173 HD
HETATM   28  O6  UNL     1      44.231 271.786 170.073  1.00  0.00    -0.247 OA
HETATM   29  N4  UNL     1      43.185 271.755 168.042  1.00  0.00    -0.303 N 
ATOM     30  H4  UNL     1      43.959 271.234 167.629  1.00  0.00     0.171 HD
ENDBRANCH  19  21
ENDBRANCH  18  19
ENDBRANCH  17  18
ENDBRANCH  16  17
ENDBRANCH  15  16
ENDBRANCH  14  15
ENDBRANCH   4  14
BRANCH   1  31
HETATM   31  O1  UNL     1      43.226 268.080 160.013  1.00  0.00    -0.339 OA
HETATM   32  C1  UNL     1      43.758 268.091 158.712  1.00  0.00     0.211 C 
ENDBRANCH   1  31
BRANCH   8  33
HETATM   33  N6  UNL     1      37.623 271.130 160.465  1.00  0.00    -0.234 N 
ATOM     34  H62 UNL     1      36.859 270.474 160.306  1.00  0.00     0.174 HD
ATOM     35  H61 UNL     1      37.461 272.124 160.627  1.00  0.00     0.174 HD
ENDBRANCH   8  33
TORSDOF 9
ENDMDL
MODEL 5
REMARK VINA RESULT: -8.785656493      2.238      3.949
REMARK  9 active torsions:
REMARK  status: ('A' for Active; 'I' for Inactive)
REMARK    1  A    between atoms: O1_2  and  C2_3 
REMARK    2  A    between atoms: N2_6  and  C3_7 
REMARK    3  A    between atoms: C3_7  and  O2_8 
REMARK    4  A    between atoms: O2_8  and  C4_9 
REMARK    5  A    between atoms: C4_9  and  C5_10 
REMARK    6  A    between atoms: C5_10  and  O3_11 
REMARK    7  A    between atoms: O3_11  and  C6_12 
REMARK    8  A    between atoms: C6_12  and  C7_14 
REMARK    9  A    between atoms: C12_27  and  N6_28 
ROOT
HETATM    1  C2  UNL     1      42.884 268.986 160.245  1.00  0.00     0.176 A 
HETATM    2  N1  UNL     1      43.488 269.928 160.979  1.00  0.00    -0.273 N 
ATOM      3  H1  UNL     1      44.491 269.963 161.157  1.00  0.00     0.189 HD
HETATM    4  N2  UNL     1      42.626 270.798 161.439  1.00  0.00    -0.249 N 
HETATM    5  C11 UNL     1      41.415 270.429 161.001  1.00  0.00     0.160 A 
HETATM    6  N5  UNL     1      40.162 270.927 161.148  1.00  0.00    -0.174 N 
ATOM      7  H5  UNL     1      40.017 271.772 161.700  1.00  0.00     0.186 HD
HETATM    8  C12 UNL     1      39.113 270.321 160.574  1.00  0.00     0.680 A 
HETATM    9  N7  UNL     1      39.247 269.193 159.827  1.00  0.00    -0.155 N 
ATOM     10  H7  UNL     1      38.428 268.757 159.403  1.00  0.00     0.187 HD
HETATM   11  C13 UNL     1      40.477 268.654 159.650  1.00  0.00     0.278 A 
HETATM   12  O7  UNL     1      40.568 267.614 158.956  1.00  0.00    -0.266 OA
HETATM   13  C14 UNL     1      41.540 269.285 160.242  1.00  0.00     0.131 A 
ENDROOT
BRANCH   4  14
HETATM   14  C3  UNL     1      42.949 271.941 162.259  1.00  0.00     0.318 C 
BRANCH  14  15
HETATM   15  O2  UNL     1      42.056 273.001 162.126  1.00  0.00    -0.368 OA
BRANCH  15  16
HETATM   16  C4  UNL     1      41.609 273.556 163.271  1.00  0.00     0.197 C 
BRANCH  16  17
HETATM   17  C5  UNL     1      40.747 272.800 164.201  1.00  0.00     0.205 C 
BRANCH  17  18
HETATM   18  O3  UNL     1      41.245 271.849 165.023  1.00  0.00    -0.314 OA
BRANCH  18  19
HETATM   19  C6  UNL     1      42.252 271.656 165.882  1.00  0.00     0.310 C 
HETATM   20  O4  UNL     1      43.283 271.091 165.454  1.00  0.00    -0.258 OA
BRANCH  19  21
HETATM   21  C7  UNL     1      42.207 272.074 167.305  1.00  0.00     0.117 A 
HETATM   22  C8  UNL     1      43.272 271.757 168.115  1.00  0.00     0.110 A 
HETATM   23  C9  UNL     1      43.277 272.128 169.456  1.00  0.00     0.251 A 
HETATM   24  O5  UNL     1      44.259 271.831 170.184  1.00  0.00    -0.268 OA
HETATM   25  N3  UNL     1      42.220 272.807 169.966  1.00  0.00    -0.275 N 
HETATM   26  C10 UNL     1      41.203 273.094 169.141  1.00  0.00     0.327 A 
ATOM     27  H3  UNL     1      42.200 273.089 170.946  1.00  0.00     0.173 HD
HETATM   28  O6  UNL     1      40.228 273.732 169.651  1.00  0.00    -0.247 OA
HETATM   29  N4  UNL     1      41.191 272.737 167.834  1.00  0.00    -0.303 N 
ATOM     30  H4  UNL     1      40.390 272.982 167.251  1.00  0.00     0.171 HD
ENDBRANCH  19  21
ENDBRANCH  18  19
ENDBRANCH  17  18
ENDBRANCH  16  17
ENDBRANCH  15  16
ENDBRANCH  14  15
ENDBRANCH   4  14
BRANCH   1  31
HETATM   31  O1  UNL     1      43.506 267.897 159.599  1.00  0.00    -0.339 OA
HETATM   32  C1  UNL     1      44.069 268.108 158.328  1.00  0.00     0.211 C 
ENDBRANCH   1  31
BRANCH   8  33
HETATM   33  N6  UNL     1      37.912 270.790 160.709  1.00  0.00    -0.234 N 
ATOM     34  H62 UNL     1      37.793 271.561 161.365  1.00  0.00     0.174 HD
ATOM     35  H61 UNL     1      37.131 270.399 160.181  1.00  0.00     0.174 HD
ENDBRANCH   8  33
TORSDOF 9
ENDMDL
