MODEL 1
REMARK VINA RESULT: -7.726952246      0.000      0.000
REMARK  8 active torsions:
REMARK  status: ('A' for Active; 'I' for Inactive)
REMARK    1  A    between atoms: N1_2  and  N2_3 
REMARK       I    between atoms: N2_3  and  C2_5 
REMARK       I    between atoms: C2_5  and  N4_10 
REMARK    2  A    between atoms: N3_6  and  O1_8 
REMARK    3  A    between atoms: N4_10  and  C4_12 
REMARK    4  A    between atoms: C6_17  and  C7_18 
REMARK    5  A    between atoms: N6_19  and  N7_21 
REMARK    6  A    between atoms: N7_21  and  N8_23 
REMARK    7  A    between atoms: C8_26  and  O5_27 
REMARK    8  A    between atoms: C12_31  and  O6_32 
ROOT
HETATM    1  C4  UNL     1      41.757 271.033 161.288  1.00  0.00     0.158 C 
HETATM    2  N5  UNL     1      40.451 270.969 160.949  1.00  0.00    -0.306 N 
ATOM      3  H5  UNL     1      39.884 271.747 161.286  1.00  0.00     0.170 HD
HETATM    4  C5  UNL     1      39.768 270.032 160.229  1.00  0.00     0.261 C 
HETATM    5  O2  UNL     1      38.541 270.276 160.095  1.00  0.00    -0.267 OA
HETATM    6  C6  UNL     1      40.260 268.883 159.649  1.00  0.00     0.083 C 
HETATM    7  C8  UNL     1      41.574 268.509 159.395  1.00  0.00     0.094 C 
HETATM    8  C10 UNL     1      42.686 269.091 159.978  1.00  0.00     0.010 C 
HETATM    9  C11 UNL     1      44.011 268.552 159.574  1.00  0.00     0.054 C 
HETATM   10  C12 UNL     1      42.726 270.131 160.908  1.00  0.00     0.121 C 
ENDROOT
BRANCH   1  11
HETATM   11  N4  UNL     1      42.178 271.981 162.015  1.00  0.00    -0.171 N 
HETATM   12  C2  UNL     1      41.556 272.591 163.107  1.00  0.00     0.715 C 
HETATM   13  N2  UNL     1      41.116 273.931 162.956  1.00  0.00    -0.135 N 
HETATM   14  N3  UNL     1      41.349 272.026 164.247  1.00  0.00    -0.096 N 
ATOM     15  H2  UNL     1      40.230 274.200 163.384  1.00  0.00     0.201 HD
ATOM     16  H3  UNL     1      41.663 271.063 164.360  1.00  0.00     0.213 HD
ATOM     17  H4  UNL     1      43.098 272.347 161.770  1.00  0.00     0.186 HD
BRANCH  13  18
HETATM   18  N1  UNL     1      41.825 274.890 162.259  1.00  0.00    -0.131 NA
HETATM   19  C1  UNL     1      43.106 275.207 162.854  1.00  0.00     0.159 C 
ENDBRANCH  13  18
BRANCH  14  20
HETATM   20  O1  UNL     1      40.749 272.614 165.300  1.00  0.00    -0.271 OA
HETATM   21  C3  UNL     1      41.281 272.600 166.607  1.00  0.00     0.238 C 
ENDBRANCH  14  20
ENDBRANCH   1  11
BRANCH  10  22
HETATM   22  O6  UNL     1      43.931 270.305 161.574  1.00  0.00    -0.352 OA
HETATM   23  C13 UNL     1      44.091 269.612 162.804  1.00  0.00     0.210 C 
ENDBRANCH  10  22
BRANCH   6  24
HETATM   24  C7  UNL     1      39.256 267.901 159.235  1.00  0.00     0.128 C 
HETATM   25  N6  UNL     1      38.460 268.174 158.262  1.00  0.00    -0.292 N 
ATOM     26  H6  UNL     1      38.534 269.073 157.787  1.00  0.00     0.187 HD
BRANCH  25  27
HETATM   27  N7  UNL     1      37.495 267.251 157.851  1.00  0.00    -0.183 N 
ATOM     28  H7  UNL     1      36.819 266.901 158.530  1.00  0.00     0.214 HD
BRANCH  27  29
HETATM   29  N8  UNL     1      37.433 266.794 156.533  1.00  0.00    -0.024 N 
HETATM   30  O3  UNL     1      36.302 266.525 156.052  1.00  0.00    -0.515 OA
HETATM   31  O4  UNL     1      38.563 266.642 155.783  1.00  0.00    -0.515 OA
ENDBRANCH  27  29
ENDBRANCH  25  27
ENDBRANCH   6  24
BRANCH   7  32
HETATM   32  O5  UNL     1      41.792 267.481 158.496  1.00  0.00    -0.354 OA
HETATM   33  C9  UNL     1      41.924 267.697 157.102  1.00  0.00     0.210 C 
ENDBRANCH   7  32
TORSDOF 8
ENDMDL
MODEL 2
REMARK VINA RESULT: -7.640304411      2.863      7.906
REMARK  8 active torsions:
REMARK  status: ('A' for Active; 'I' for Inactive)
REMARK    1  A    between atoms: N1_2  and  N2_3 
REMARK       I    between atoms: N2_3  and  C2_5 
REMARK       I    between atoms: C2_5  and  N4_10 
REMARK    2  A    between atoms: N3_6  and  O1_8 
REMARK    3  A    between atoms: N4_10  and  C4_12 
REMARK    4  A    between atoms: C6_17  and  C7_18 
REMARK    5  A    between atoms: N6_19  and  N7_21 
REMARK    6  A    between atoms: N7_21  and  N8_23 
REMARK    7  A    between atoms: C8_26  and  O5_27 
REMARK    8  A    between atoms: C12_31  and  O6_32 
ROOT
HETATM    1  C4  UNL     1      42.451 269.572 161.433  1.00  0.00     0.158 C 
HETATM    2  N5  UNL     1      43.106 269.757 162.598  1.00  0.00    -0.306 N 
ATOM      3  H5  UNL     1      43.833 269.068 162.794  1.00  0.00     0.170 HD
HETATM    4  C5  UNL     1      42.954 270.716 163.558  1.00  0.00     0.261 C 
HETATM    5  O2  UNL     1      43.735 270.597 164.536  1.00  0.00    -0.267 OA
HETATM    6  C6  UNL     1      42.063 271.768 163.572  1.00  0.00     0.083 C 
HETATM    7  C8  UNL     1      41.302 272.300 162.540  1.00  0.00     0.094 C 
HETATM    8  C10 UNL     1      41.043 271.660 161.340  1.00  0.00     0.010 C 
HETATM    9  C11 UNL     1      40.207 272.398 160.357  1.00  0.00     0.054 C 
HETATM   10  C12 UNL     1      41.468 270.396 160.929  1.00  0.00     0.121 C 
ENDROOT
BRANCH   1  11
HETATM   11  N4  UNL     1      42.722 268.573 160.703  1.00  0.00    -0.171 N 
HETATM   12  C2  UNL     1      43.371 268.543 159.466  1.00  0.00     0.715 C 
HETATM   13  N2  UNL     1      42.606 268.195 158.324  1.00  0.00    -0.135 N 
HETATM   14  N3  UNL     1      44.619 268.810 159.282  1.00  0.00    -0.096 N 
ATOM     15  H2  UNL     1      42.788 268.689 157.450  1.00  0.00     0.201 HD
ATOM     16  H3  UNL     1      45.173 269.062 160.100  1.00  0.00     0.213 HD
ATOM     17  H4  UNL     1      42.427 267.668 161.068  1.00  0.00     0.186 HD
BRANCH  13  18
HETATM   18  N1  UNL     1      41.627 267.220 158.332  1.00  0.00    -0.131 NA
HETATM   19  C1  UNL     1      41.054 266.965 157.027  1.00  0.00     0.159 C 
ENDBRANCH  13  18
BRANCH  14  20
HETATM   20  O1  UNL     1      45.246 268.781 158.090  1.00  0.00    -0.271 OA
HETATM   21  C3  UNL     1      46.379 269.565 157.786  1.00  0.00     0.238 C 
ENDBRANCH  14  20
ENDBRANCH   1  11
BRANCH  10  22
HETATM   22  O6  UNL     1      40.808 269.859 159.833  1.00  0.00    -0.352 OA
HETATM   23  C13 UNL     1      39.499 269.354 160.056  1.00  0.00     0.210 C 
ENDBRANCH  10  22
BRANCH   6  24
HETATM   24  C7  UNL     1      41.886 272.432 164.865  1.00  0.00     0.128 C 
HETATM   25  N6  UNL     1      40.701 272.624 165.327  1.00  0.00    -0.292 N 
ATOM     26  H6  UNL     1      39.893 272.313 164.788  1.00  0.00     0.187 HD
BRANCH  25  27
HETATM   27  N7  UNL     1      40.510 273.254 166.559  1.00  0.00    -0.183 N 
ATOM     28  H7  UNL     1      40.491 274.274 166.599  1.00  0.00     0.214 HD
BRANCH  27  29
HETATM   29  N8  UNL     1      40.344 272.524 167.738  1.00  0.00    -0.024 N 
HETATM   30  O3  UNL     1      39.176 272.367 168.178  1.00  0.00    -0.515 OA
HETATM   31  O4  UNL     1      41.415 271.994 168.398  1.00  0.00    -0.515 OA
ENDBRANCH  27  29
ENDBRANCH  25  27
ENDBRANCH   6  24
BRANCH   7  32
HETATM   32  O5  UNL     1      40.761 273.561 162.718  1.00  0.00    -0.354 OA
HETATM   33  C9  UNL     1      41.444 274.747 162.352  1.00  0.00     0.210 C 
ENDBRANCH   7  32
TORSDOF 8
ENDMDL
MODEL 3
REMARK VINA RESULT: -7.528227400      2.975      8.092
REMARK  8 active torsions:
REMARK  status: ('A' for Active; 'I' for Inactive)
REMARK    1  A    between atoms: N1_2  and  N2_3 
REMARK       I    between atoms: N2_3  and  C2_5 
REMARK       I    between atoms: C2_5  and  N4_10 
REMARK    2  A    between atoms: N3_6  and  O1_8 
REMARK    3  A    between atoms: N4_10  and  C4_12 
REMARK    4  A    between atoms: C6_17  and  C7_18 
REMARK    5  A    between atoms: N6_19  and  N7_21 
REMARK    6  A    between atoms: N7_21  and  N8_23 
REMARK    7  A    between atoms: C8_26  and  O5_27 
REMARK    8  A    between atoms: C12_31  and  O6_32 
ROOT
HETATM    1  C4  UNL     1      43.105 269.019 160.884  1.00  0.00     0.158 C 
HETATM    2  N5  UNL     1      43.995 269.066 161.898  1.00  0.00    -0.306 N 
ATOM      3  H5  UNL     1      44.743 268.375 161.842  1.00  0.00     0.170 HD
HETATM    4  C5  UNL     1      44.056 269.890 162.985  1.00  0.00     0.261 C 
HETATM    5  O2  UNL     1      45.028 269.664 163.751  1.00  0.00    -0.267 OA
HETATM    6  C6  UNL     1      43.195 270.910 163.326  1.00  0.00     0.083 C 
HETATM    7  C8  UNL     1      42.233 271.553 162.559  1.00  0.00     0.094 C 
HETATM    8  C10 UNL     1      41.720 271.068 161.368  1.00  0.00     0.010 C 
HETATM    9  C11 UNL     1      40.697 271.907 160.690  1.00  0.00     0.054 C 
HETATM   10  C12 UNL     1      42.042 269.878 160.713  1.00  0.00     0.121 C 
ENDROOT
BRANCH   1  11
HETATM   11  N4  UNL     1      43.209 268.129 159.988  1.00  0.00    -0.171 N 
HETATM   12  C2  UNL     1      43.683 268.255 158.680  1.00  0.00     0.715 C 
HETATM   13  N2  UNL     1      42.751 268.118 157.620  1.00  0.00    -0.135 N 
HETATM   14  N3  UNL     1      44.910 268.488 158.361  1.00  0.00    -0.096 N 
ATOM     15  H2  UNL     1      42.847 268.729 156.809  1.00  0.00     0.201 HD
ATOM     16  H3  UNL     1      45.584 268.588 159.119  1.00  0.00     0.213 HD
ATOM     17  H4  UNL     1      42.906 267.194 160.260  1.00  0.00     0.186 HD
BRANCH  13  18
HETATM   18  N1  UNL     1      41.719 267.199 157.629  1.00  0.00    -0.131 NA
HETATM   19  C1  UNL     1      41.170 266.935 156.316  1.00  0.00     0.159 C 
ENDBRANCH  13  18
BRANCH  14  20
HETATM   20  O1  UNL     1      45.369 268.609 157.100  1.00  0.00    -0.271 OA
HETATM   21  C3  UNL     1      46.384 269.514 156.724  1.00  0.00     0.238 C 
ENDBRANCH  14  20
ENDBRANCH   1  11
BRANCH  10  22
HETATM   22  O6  UNL     1      41.160 269.472 159.722  1.00  0.00    -0.352 OA
HETATM   23  C13 UNL     1      39.970 268.823 160.148  1.00  0.00     0.210 C 
ENDBRANCH  10  22
BRANCH   6  24
HETATM   24  C7  UNL     1      43.302 271.397 164.703  1.00  0.00     0.128 C 
HETATM   25  N6  UNL     1      42.247 271.473 165.436  1.00  0.00    -0.292 N 
ATOM     26  H6  UNL     1      41.344 271.195 165.053  1.00  0.00     0.187 HD
BRANCH  25  27
HETATM   27  N7  UNL     1      42.327 271.934 166.753  1.00  0.00    -0.183 N 
ATOM     28  H7  UNL     1      43.184 271.777 167.285  1.00  0.00     0.214 HD
BRANCH  27  29
HETATM   29  N8  UNL     1      41.264 272.604 167.360  1.00  0.00    -0.024 N 
HETATM   30  O3  UNL     1      40.554 273.359 166.646  1.00  0.00    -0.515 OA
HETATM   31  O4  UNL     1      40.996 272.450 168.690  1.00  0.00    -0.515 OA
ENDBRANCH  27  29
ENDBRANCH  25  27
ENDBRANCH   6  24
BRANCH   7  32
HETATM   32  O5  UNL     1      41.749 272.768 163.011  1.00  0.00    -0.354 OA
HETATM   33  C9  UNL     1      42.391 274.000 162.735  1.00  0.00     0.210 C 
ENDBRANCH   7  32
TORSDOF 8
ENDMDL
MODEL 4
REMARK VINA RESULT: -7.512033175      2.768      3.997
REMARK  8 active torsions:
REMARK  status: ('A' for Active; 'I' for Inactive)
REMARK    1  A    between atoms: N1_2  and  N2_3 
REMARK       I    between atoms: N2_3  and  C2_5 
REMARK       I    between atoms: C2_5  and  N4_10 
REMARK    2  A    between atoms: N3_6  and  O1_8 
REMARK    3  A    between atoms: N4_10  and  C4_12 
REMARK    4  A    between atoms: C6_17  and  C7_18 
REMARK    5  A    between atoms: N6_19  and  N7_21 
REMARK    6  A    between atoms: N7_21  and  N8_23 
REMARK    7  A    between atoms: C8_26  and  O5_27 
REMARK    8  A    between atoms: C12_31  and  O6_32 
ROOT
HETATM    1  C4  UNL     1      42.610 271.881 162.810  1.00  0.00     0.158 C 
HETATM    2  N5  UNL     1      41.371 272.414 162.736  1.00  0.00    -0.306 N 
ATOM      3  H5  UNL     1      41.214 273.217 163.344  1.00  0.00     0.170 HD
HETATM    4  C5  UNL     1      40.296 272.050 161.979  1.00  0.00     0.261 C 
HETATM    5  O2  UNL     1      39.275 272.765 162.153  1.00  0.00    -0.267 OA
HETATM    6  C6  UNL     1      40.206 271.015 161.072  1.00  0.00     0.083 C 
HETATM    7  C8  UNL     1      41.214 270.263 160.483  1.00  0.00     0.094 C 
HETATM    8  C10 UNL     1      42.517 270.192 160.944  1.00  0.00     0.010 C 
HETATM    9  C11 UNL     1      43.452 269.332 160.171  1.00  0.00     0.054 C 
HETATM   10  C12 UNL     1      43.074 270.829 162.053  1.00  0.00     0.121 C 
ENDROOT
BRANCH   1  11
HETATM   11  N4  UNL     1      43.455 272.351 163.629  1.00  0.00    -0.171 N 
HETATM   12  C2  UNL     1      44.444 273.315 163.411  1.00  0.00     0.715 C 
HETATM   13  N2  UNL     1      45.798 272.895 163.444  1.00  0.00    -0.135 N 
HETATM   14  N3  UNL     1      44.217 274.562 163.180  1.00  0.00    -0.096 N 
ATOM     15  H2  UNL     1      46.448 273.305 162.773  1.00  0.00     0.201 HD
ATOM     16  H3  UNL     1      43.245 274.869 163.154  1.00  0.00     0.213 HD
ATOM     17  H4  UNL     1      43.407 271.975 164.575  1.00  0.00     0.186 HD
BRANCH  13  18
HETATM   18  N1  UNL     1      46.282 271.960 164.338  1.00  0.00    -0.131 NA
HETATM   19  C1  UNL     1      47.465 271.269 163.867  1.00  0.00     0.159 C 
ENDBRANCH  13  18
BRANCH  14  20
HETATM   20  O1  UNL     1      45.169 275.492 162.970  1.00  0.00    -0.271 OA
HETATM   21  C3  UNL     1      45.177 276.362 161.859  1.00  0.00     0.238 C 
ENDBRANCH  14  20
ENDBRANCH   1  11
BRANCH  10  22
HETATM   22  O6  UNL     1      44.299 270.339 162.484  1.00  0.00    -0.352 OA
HETATM   23  C13 UNL     1      44.286 269.102 163.183  1.00  0.00     0.210 C 
ENDBRANCH  10  22
BRANCH   6  24
HETATM   24  C7  UNL     1      38.850 270.646 160.662  1.00  0.00     0.128 C 
HETATM   25  N6  UNL     1      38.317 271.212 159.637  1.00  0.00    -0.292 N 
ATOM     26  H6  UNL     1      38.843 271.914 159.118  1.00  0.00     0.187 HD
BRANCH  25  27
HETATM   27  N7  UNL     1      37.024 270.873 159.229  1.00  0.00    -0.183 N 
ATOM     28  H7  UNL     1      36.824 269.911 158.955  1.00  0.00     0.214 HD
BRANCH  27  29
HETATM   29  N8  UNL     1      35.998 271.820 159.186  1.00  0.00    -0.024 N 
HETATM   30  O3  UNL     1      35.189 271.860 160.149  1.00  0.00    -0.515 OA
HETATM   31  O4  UNL     1      35.871 272.678 158.133  1.00  0.00    -0.515 OA
ENDBRANCH  27  29
ENDBRANCH  25  27
ENDBRANCH   6  24
BRANCH   7  32
HETATM   32  O5  UNL     1      40.897 269.530 159.353  1.00  0.00    -0.354 OA
HETATM   33  C9  UNL     1      40.480 268.178 159.407  1.00  0.00     0.210 C 
ENDBRANCH   7  32
TORSDOF 8
ENDMDL
MODEL 5
REMARK VINA RESULT: -7.418317895      3.467      5.127
REMARK  8 active torsions:
REMARK  status: ('A' for Active; 'I' for Inactive)
REMARK    1  A    between atoms: N1_2  and  N2_3 
REMARK       I    between atoms: N2_3  and  C2_5 
REMARK       I    between atoms: C2_5  and  N4_10 
REMARK    2  A    between atoms: N3_6  and  O1_8 
REMARK    3  A    between atoms: N4_10  and  C4_12 
REMARK    4  A    between atoms: C6_17  and  C7_18 
REMARK    5  A    between atoms: N6_19  and  N7_21 
REMARK    6  A    between atoms: N7_21  and  N8_23 
REMARK    7  A    between atoms: C8_26  and  O5_27 
REMARK    8  A    between atoms: C12_31  and  O6_32 
ROOT
HETATM    1  C4  UNL     1      42.923 271.252 163.595  1.00  0.00     0.158 C 
HETATM    2  N5  UNL     1      43.587 270.096 163.382  1.00  0.00    -0.306 N 
ATOM      3  H5  UNL     1      44.212 269.816 164.138  1.00  0.00     0.170 HD
HETATM    4  C5  UNL     1      43.556 269.241 162.318  1.00  0.00     0.261 C 
HETATM    5  O2  UNL     1      44.309 268.239 162.438  1.00  0.00    -0.267 OA
HETATM    6  C6  UNL     1      42.815 269.351 161.161  1.00  0.00     0.083 C 
HETATM    7  C8  UNL     1      41.726 270.165 160.880  1.00  0.00     0.094 C 
HETATM    8  C10 UNL     1      41.364 271.281 161.616  1.00  0.00     0.010 C 
HETATM    9  C11 UNL     1      40.161 272.023 161.155  1.00  0.00     0.054 C 
HETATM   10  C12 UNL     1      41.990 271.806 162.747  1.00  0.00     0.121 C 
ENDROOT
BRANCH   1  11
HETATM   11  N4  UNL     1      43.139 271.923 164.647  1.00  0.00    -0.171 N 
HETATM   12  C2  UNL     1      43.867 271.560 165.784  1.00  0.00     0.715 C 
HETATM   13  N2  UNL     1      43.151 271.351 166.990  1.00  0.00    -0.135 N 
HETATM   14  N3  UNL     1      45.145 271.400 165.820  1.00  0.00    -0.096 N 
ATOM     15  H2  UNL     1      43.445 270.588 167.600  1.00  0.00     0.201 HD
ATOM     16  H3  UNL     1      45.664 271.549 164.955  1.00  0.00     0.213 HD
ATOM     17  H4  UNL     1      42.726 272.855 164.667  1.00  0.00     0.186 HD
BRANCH  13  18
HETATM   18  N1  UNL     1      42.078 272.127 167.382  1.00  0.00    -0.131 NA
HETATM   19  C1  UNL     1      41.883 272.161 168.817  1.00  0.00     0.159 C 
ENDBRANCH  13  18
BRANCH  14  20
HETATM   20  O1  UNL     1      45.847 271.051 166.915  1.00  0.00    -0.271 OA
HETATM   21  C3  UNL     1      47.182 270.592 166.872  1.00  0.00     0.238 C 
ENDBRANCH  14  20
ENDBRANCH   1  11
BRANCH  10  22
HETATM   22  O6  UNL     1      41.630 273.100 163.095  1.00  0.00    -0.352 OA
HETATM   23  C13 UNL     1      42.331 274.156 162.454  1.00  0.00     0.210 C 
ENDBRANCH  10  22
BRANCH   6  24
HETATM   24  C7  UNL     1      43.229 268.483 160.057  1.00  0.00     0.128 C 
HETATM   25  N6  UNL     1      44.170 268.862 159.266  1.00  0.00    -0.292 N 
ATOM     26  H6  UNL     1      44.621 269.764 159.414  1.00  0.00     0.187 HD
BRANCH  25  27
HETATM   27  N7  UNL     1      44.582 268.048 158.207  1.00  0.00    -0.183 N 
ATOM     28  H7  UNL     1      44.733 267.053 158.373  1.00  0.00     0.214 HD
BRANCH  27  29
HETATM   29  N8  UNL     1      44.790 268.564 156.926  1.00  0.00    -0.024 N 
HETATM   30  O3  UNL     1      45.908 269.083 156.672  1.00  0.00    -0.515 OA
HETATM   31  O4  UNL     1      43.815 268.509 155.974  1.00  0.00    -0.515 OA
ENDBRANCH  27  29
ENDBRANCH  25  27
ENDBRANCH   6  24
BRANCH   7  32
HETATM   32  O5  UNL     1      40.943 269.843 159.786  1.00  0.00    -0.354 OA
HETATM   33  C9  UNL     1      40.018 268.770 159.795  1.00  0.00     0.210 C 
ENDBRANCH   7  32
TORSDOF 8
ENDMDL
