MODEL 1
REMARK VINA RESULT: -8.083182660      0.000      0.000
REMARK  8 active torsions:
REMARK  status: ('A' for Active; 'I' for Inactive)
REMARK    1  A    between atoms: C2_2  and  C3_4 
REMARK    2  A    between atoms: C3_4  and  C4_5 
REMARK    3  A    between atoms: C5_6  and  O2_7 
REMARK    4  A    between atoms: C6_9  and  N1_10 
REMARK    5  A    between atoms: C9_13  and  O3_14 
REMARK    6  A    between atoms: N2_16  and  C10_17 
REMARK    7  A    between atoms: C10_17  and  C11_18 
REMARK       I    between atoms: C11_18  and  N3_20 
REMARK    8  A    between atoms: N3_20  and  N4_22 
ROOT
HETATM    1  C4  UNL     1      39.383 271.153 161.262  1.00  0.00     0.052 A 
HETATM    2  C5  UNL     1      40.178 270.111 160.843  1.00  0.00     0.108 A 
HETATM    3  C6  UNL     1      41.549 270.252 160.972  1.00  0.00     0.115 A 
HETATM    4  C9  UNL     1      42.125 271.380 161.498  1.00  0.00     0.175 A 
HETATM    5  N2  UNL     1      41.336 272.391 161.904  1.00  0.00    -0.283 N 
HETATM    6  C14 UNL     1      40.010 272.261 161.782  1.00  0.00     0.259 A 
HETATM    7  O7  UNL     1      39.284 273.216 162.168  1.00  0.00    -0.267 OA
ENDROOT
BRANCH   5   8
HETATM    8  C10 UNL     1      41.966 273.558 162.449  1.00  0.00     0.239 C 
BRANCH   8   9
HETATM    9  C11 UNL     1      42.228 273.319 163.937  1.00  0.00     0.256 C 
HETATM   10  O4  UNL     1      43.435 273.257 164.230  1.00  0.00    -0.270 OA
HETATM   11  N3  UNL     1      41.126 273.198 164.796  1.00  0.00    -0.243 N 
ATOM     12  H3  UNL     1      40.204 273.279 164.368  1.00  0.00     0.192 HD
BRANCH  11  13
HETATM   13  N4  UNL     1      41.155 272.982 166.154  1.00  0.00    -0.135 N 
HETATM   14  N5  UNL     1      40.412 273.687 167.045  1.00  0.00    -0.225 N 
HETATM   15  C12 UNL     1      40.632 273.277 168.276  1.00  0.00     0.344 A 
ATOM     16  H5  UNL     1      39.767 274.435 166.793  1.00  0.00     0.194 HD
HETATM   17  O5  UNL     1      40.090 273.732 169.347  1.00  0.00    -0.245 OA
HETATM   18  N6  UNL     1      41.526 272.290 168.244  1.00  0.00    -0.257 N 
HETATM   19  C13 UNL     1      41.838 272.122 166.923  1.00  0.00     0.365 A 
ATOM     20  H6  UNL     1      41.899 271.769 169.037  1.00  0.00     0.175 HD
HETATM   21  O6  UNL     1      42.677 271.238 166.567  1.00  0.00    -0.243 OA
ENDBRANCH  11  13
ENDBRANCH   8   9
ENDBRANCH   5   8
BRANCH   4  22
HETATM   22  O3  UNL     1      43.510 271.488 161.613  1.00  0.00    -0.344 OA
ATOM     23  H3  UNL     1      43.937 271.399 162.457  1.00  0.00     0.219 HD
ENDBRANCH   4  22
BRANCH   3  24
HETATM   24  N1  UNL     1      42.370 269.156 160.528  1.00  0.00    -0.384 N 
HETATM   25  C7  UNL     1      43.072 268.404 161.535  1.00  0.00     0.149 C 
HETATM   26  C8  UNL     1      42.505 268.801 159.135  1.00  0.00     0.149 C 
ENDBRANCH   3  24
BRANCH   1  27
HETATM   27  C3  UNL     1      37.928 271.022 161.135  1.00  0.00     0.125 C 
BRANCH  27  28
HETATM   28  C2  UNL     1      37.384 271.564 159.889  1.00  0.00     0.127 C 
HETATM   29  C1  UNL     1      35.931 271.807 159.698  1.00  0.00     0.091 C 
HETATM   30  O1  UNL     1      38.140 271.827 158.974  1.00  0.00    -0.298 OA
ENDBRANCH  27  28
ENDBRANCH   1  27
BRANCH   2  31
HETATM   31  O2  UNL     1      39.643 268.929 160.295  1.00  0.00    -0.358 OA
ATOM     32  H2  UNL     1      39.009 268.939 159.588  1.00  0.00     0.217 HD
ENDBRANCH   2  31
TORSDOF 8
ENDMDL
MODEL 2
REMARK VINA RESULT: -7.960202868      2.909      7.395
REMARK  8 active torsions:
REMARK  status: ('A' for Active; 'I' for Inactive)
REMARK    1  A    between atoms: C2_2  and  C3_4 
REMARK    2  A    between atoms: C3_4  and  C4_5 
REMARK    3  A    between atoms: C5_6  and  O2_7 
REMARK    4  A    between atoms: C6_9  and  N1_10 
REMARK    5  A    between atoms: C9_13  and  O3_14 
REMARK    6  A    between atoms: N2_16  and  C10_17 
REMARK    7  A    between atoms: C10_17  and  C11_18 
REMARK       I    between atoms: C11_18  and  N3_20 
REMARK    8  A    between atoms: N3_20  and  N4_22 
ROOT
HETATM    1  C4  UNL     1      40.249 271.317 160.720  1.00  0.00     0.052 A 
HETATM    2  C5  UNL     1      40.558 272.061 161.836  1.00  0.00     0.108 A 
HETATM    3  C6  UNL     1      41.582 271.608 162.651  1.00  0.00     0.115 A 
HETATM    4  C9  UNL     1      42.283 270.461 162.379  1.00  0.00     0.175 A 
HETATM    5  N2  UNL     1      41.971 269.744 161.285  1.00  0.00    -0.283 N 
HETATM    6  C14 UNL     1      40.982 270.177 160.494  1.00  0.00     0.259 A 
HETATM    7  O7  UNL     1      40.701 269.494 159.473  1.00  0.00    -0.267 OA
ENDROOT
BRANCH   5   8
HETATM    8  C10 UNL     1      42.721 268.550 161.028  1.00  0.00     0.239 C 
BRANCH   8   9
HETATM    9  C11 UNL     1      43.788 268.862 159.979  1.00  0.00     0.256 C 
HETATM   10  O4  UNL     1      44.747 269.522 160.419  1.00  0.00    -0.270 OA
HETATM   11  N3  UNL     1      43.594 268.395 158.671  1.00  0.00    -0.243 N 
ATOM     12  H3  UNL     1      42.739 267.866 158.499  1.00  0.00     0.192 HD
BRANCH  11  13
HETATM   13  N4  UNL     1      44.432 268.573 157.595  1.00  0.00    -0.135 N 
HETATM   14  N5  UNL     1      45.750 268.879 157.710  1.00  0.00    -0.225 N 
HETATM   15  C12 UNL     1      46.315 268.993 156.527  1.00  0.00     0.344 A 
ATOM     16  H5  UNL     1      46.238 269.004 158.596  1.00  0.00     0.194 HD
HETATM   17  O5  UNL     1      47.545 269.272 156.285  1.00  0.00    -0.245 OA
HETATM   18  N6  UNL     1      45.395 268.767 155.591  1.00  0.00    -0.257 N 
HETATM   19  C13 UNL     1      44.237 268.509 156.270  1.00  0.00     0.365 A 
ATOM     20  H6  UNL     1      45.527 268.783 154.579  1.00  0.00     0.175 HD
HETATM   21  O6  UNL     1      43.164 268.253 155.641  1.00  0.00    -0.243 OA
ENDBRANCH  11  13
ENDBRANCH   8   9
ENDBRANCH   5   8
BRANCH   4  22
HETATM   22  O3  UNL     1      43.309 270.035 163.222  1.00  0.00    -0.344 OA
ATOM     23  H3  UNL     1      44.220 270.151 162.978  1.00  0.00     0.219 HD
ENDBRANCH   4  22
BRANCH   3  24
HETATM   24  N1  UNL     1      41.895 272.394 163.815  1.00  0.00    -0.384 N 
HETATM   25  C7  UNL     1      42.876 273.437 163.667  1.00  0.00     0.149 C 
HETATM   26  C8  UNL     1      41.268 272.168 165.097  1.00  0.00     0.149 C 
ENDBRANCH   3  24
BRANCH   1  27
HETATM   27  C3  UNL     1      39.168 271.781 159.844  1.00  0.00     0.125 C 
BRANCH  27  28
HETATM   28  C2  UNL     1      37.828 271.391 160.287  1.00  0.00     0.127 C 
HETATM   29  C1  UNL     1      36.649 271.444 159.385  1.00  0.00     0.091 C 
HETATM   30  O1  UNL     1      37.666 271.011 161.430  1.00  0.00    -0.298 OA
ENDBRANCH  27  28
ENDBRANCH   1  27
BRANCH   2  31
HETATM   31  O2  UNL     1      39.872 273.246 162.164  1.00  0.00    -0.358 OA
ATOM     32  H2  UNL     1      39.294 273.306 162.915  1.00  0.00     0.217 HD
ENDBRANCH   2  31
TORSDOF 8
ENDMDL
MODEL 3
REMARK VINA RESULT: -7.860530552      3.320      7.204
REMARK  8 active torsions:
REMARK  status: ('A' for Active; 'I' for Inactive)
REMARK    1  A    between atoms: C2_2  and  C3_4 
REMARK    2  A    between atoms: C3_4  and  C4_5 
REMARK    3  A    between atoms: C5_6  and  O2_7 
REMARK    4  A    between atoms: C6_9  and  N1_10 
REMARK    5  A    between atoms: C9_13  and  O3_14 
REMARK    6  A    between atoms: N2_16  and  C10_17 
REMARK    7  A    between atoms: C10_17  and  C11_18 
REMARK       I    between atoms: C11_18  and  N3_20 
REMARK    8  A    between atoms: N3_20  and  N4_22 
ROOT
HETATM    1  C4  UNL     1      43.427 273.731 163.085  1.00  0.00     0.052 A 
HETATM    2  C5  UNL     1      44.591 273.057 163.377  1.00  0.00     0.108 A 
HETATM    3  C6  UNL     1      44.542 271.674 163.422  1.00  0.00     0.115 A 
HETATM    4  C9  UNL     1      43.388 270.972 163.186  1.00  0.00     0.175 A 
HETATM    5  N2  UNL     1      42.258 271.643 162.901  1.00  0.00    -0.283 N 
HETATM    6  C14 UNL     1      42.299 272.981 162.857  1.00  0.00     0.259 A 
HETATM    7  O7  UNL     1      41.231 273.595 162.588  1.00  0.00    -0.267 OA
ENDROOT
BRANCH   5   8
HETATM    8  C10 UNL     1      41.068 270.883 162.660  1.00  0.00     0.239 C 
BRANCH   8   9
HETATM    9  C11 UNL     1      41.077 270.412 161.205  1.00  0.00     0.256 C 
HETATM   10  O4  UNL     1      40.528 271.205 160.418  1.00  0.00    -0.270 OA
HETATM   11  N3  UNL     1      41.679 269.181 160.906  1.00  0.00    -0.243 N 
ATOM     12  H3  UNL     1      42.080 268.668 161.692  1.00  0.00     0.192 HD
BRANCH  11  13
HETATM   13  N4  UNL     1      41.786 268.591 159.669  1.00  0.00    -0.135 N 
HETATM   14  N5  UNL     1      40.719 268.216 158.918  1.00  0.00    -0.225 N 
HETATM   15  C12 UNL     1      41.105 267.677 157.781  1.00  0.00     0.344 A 
ATOM     16  H5  UNL     1      39.746 268.335 159.199  1.00  0.00     0.194 HD
HETATM   17  O5  UNL     1      40.347 267.221 156.850  1.00  0.00    -0.245 OA
HETATM   18  N6  UNL     1      42.436 267.677 157.739  1.00  0.00    -0.257 N 
HETATM   19  C13 UNL     1      42.840 268.246 158.915  1.00  0.00     0.365 A 
ATOM     20  H6  UNL     1      43.029 267.326 156.987  1.00  0.00     0.175 HD
HETATM   21  O6  UNL     1      44.075 268.387 159.171  1.00  0.00    -0.243 OA
ENDBRANCH  11  13
ENDBRANCH   8   9
ENDBRANCH   5   8
BRANCH   4  22
HETATM   22  O3  UNL     1      43.376 269.579 163.240  1.00  0.00    -0.344 OA
ATOM     23  H3  UNL     1      43.973 269.066 162.707  1.00  0.00     0.219 HD
ENDBRANCH   4  22
BRANCH   3  24
HETATM   24  N1  UNL     1      45.765 270.981 163.730  1.00  0.00    -0.384 N 
HETATM   25  C7  UNL     1      46.605 270.597 162.626  1.00  0.00     0.149 C 
HETATM   26  C8  UNL     1      46.162 270.667 165.083  1.00  0.00     0.149 C 
ENDBRANCH   3  24
BRANCH   1  27
HETATM   27  C3  UNL     1      43.458 275.197 163.032  1.00  0.00     0.125 C 
BRANCH  27  28
HETATM   28  C2  UNL     1      43.955 275.740 161.767  1.00  0.00     0.127 C 
HETATM   29  C1  UNL     1      45.123 276.656 161.704  1.00  0.00     0.091 C 
HETATM   30  O1  UNL     1      43.399 275.438 160.730  1.00  0.00    -0.298 OA
ENDBRANCH  27  28
ENDBRANCH   1  27
BRANCH   2  31
HETATM   31  O2  UNL     1      45.805 273.725 163.628  1.00  0.00    -0.358 OA
ATOM     32  H2  UNL     1      46.049 274.523 163.174  1.00  0.00     0.217 HD
ENDBRANCH   2  31
TORSDOF 8
ENDMDL
MODEL 4
REMARK VINA RESULT: -7.742338736      1.171      3.518
REMARK  8 active torsions:
REMARK  status: ('A' for Active; 'I' for Inactive)
REMARK    1  A    between atoms: C2_2  and  C3_4 
REMARK    2  A    between atoms: C3_4  and  C4_5 
REMARK    3  A    between atoms: C5_6  and  O2_7 
REMARK    4  A    between atoms: C6_9  and  N1_10 
REMARK    5  A    between atoms: C9_13  and  O3_14 
REMARK    6  A    between atoms: N2_16  and  C10_17 
REMARK    7  A    between atoms: C10_17  and  C11_18 
REMARK       I    between atoms: C11_18  and  N3_20 
REMARK    8  A    between atoms: N3_20  and  N4_22 
ROOT
HETATM    1  C4  UNL     1      41.806 269.752 160.705  1.00  0.00     0.052 A 
HETATM    2  C5  UNL     1      40.460 269.916 160.471  1.00  0.00     0.108 A 
HETATM    3  C6  UNL     1      39.889 271.132 160.807  1.00  0.00     0.115 A 
HETATM    4  C9  UNL     1      40.616 272.157 161.355  1.00  0.00     0.175 A 
HETATM    5  N2  UNL     1      41.931 271.984 161.578  1.00  0.00    -0.283 N 
HETATM    6  C14 UNL     1      42.489 270.810 161.256  1.00  0.00     0.259 A 
HETATM    7  O7  UNL     1      43.722 270.663 161.471  1.00  0.00    -0.267 OA
ENDROOT
BRANCH   5   8
HETATM    8  C10 UNL     1      42.665 273.073 162.152  1.00  0.00     0.239 C 
BRANCH   8   9
HETATM    9  C11 UNL     1      42.746 272.861 163.664  1.00  0.00     0.256 C 
HETATM   10  O4  UNL     1      43.897 272.630 164.077  1.00  0.00    -0.270 OA
HETATM   11  N3  UNL     1      41.564 272.943 164.414  1.00  0.00    -0.243 N 
ATOM     12  H3  UNL     1      40.709 273.144 163.895  1.00  0.00     0.192 HD
BRANCH  11  13
HETATM   13  N4  UNL     1      41.433 272.783 165.774  1.00  0.00    -0.135 N 
HETATM   14  N5  UNL     1      40.583 273.513 166.540  1.00  0.00    -0.225 N 
HETATM   15  C12 UNL     1      40.658 273.156 167.804  1.00  0.00     0.344 A 
ATOM     16  H5  UNL     1      39.967 274.243 166.183  1.00  0.00     0.194 HD
HETATM   17  O5  UNL     1      39.989 273.648 168.784  1.00  0.00    -0.245 OA
HETATM   18  N6  UNL     1      41.557 272.180 167.920  1.00  0.00    -0.257 N 
HETATM   19  C13 UNL     1      42.026 271.962 166.653  1.00  0.00     0.365 A 
ATOM     20  H6  UNL     1      41.837 271.696 168.773  1.00  0.00     0.175 HD
HETATM   21  O6  UNL     1      42.908 271.076 166.436  1.00  0.00    -0.243 OA
ENDBRANCH  11  13
ENDBRANCH   8   9
ENDBRANCH   5   8
BRANCH   4  22
HETATM   22  O3  UNL     1      40.009 273.369 161.681  1.00  0.00    -0.344 OA
ATOM     23  H3  UNL     1      39.738 273.976 161.002  1.00  0.00     0.219 HD
ENDBRANCH   4  22
BRANCH   3  24
HETATM   24  N1  UNL     1      38.481 271.290 160.559  1.00  0.00    -0.384 N 
HETATM   25  C7  UNL     1      37.585 271.079 161.666  1.00  0.00     0.149 C 
HETATM   26  C8  UNL     1      37.955 271.646 159.261  1.00  0.00     0.149 C 
ENDBRANCH   3  24
BRANCH   1  27
HETATM   27  C3  UNL     1      42.430 268.471 160.356  1.00  0.00     0.125 C 
BRANCH  27  28
HETATM   28  C2  UNL     1      42.809 268.354 158.947  1.00  0.00     0.127 C 
HETATM   29  C1  UNL     1      44.211 268.529 158.488  1.00  0.00     0.091 C 
HETATM   30  O1  UNL     1      41.955 268.105 158.119  1.00  0.00    -0.298 OA
ENDBRANCH  27  28
ENDBRANCH   1  27
BRANCH   2  31
HETATM   31  O2  UNL     1      39.664 268.898 159.911  1.00  0.00    -0.358 OA
ATOM     32  H2  UNL     1      39.384 268.914 159.004  1.00  0.00     0.217 HD
ENDBRANCH   2  31
TORSDOF 8
ENDMDL
MODEL 5
REMARK VINA RESULT: -7.706834319      2.006      3.105
REMARK  8 active torsions:
REMARK  status: ('A' for Active; 'I' for Inactive)
REMARK    1  A    between atoms: C2_2  and  C3_4 
REMARK    2  A    between atoms: C3_4  and  C4_5 
REMARK    3  A    between atoms: C5_6  and  O2_7 
REMARK    4  A    between atoms: C6_9  and  N1_10 
REMARK    5  A    between atoms: C9_13  and  O3_14 
REMARK    6  A    between atoms: N2_16  and  C10_17 
REMARK    7  A    between atoms: C10_17  and  C11_18 
REMARK       I    between atoms: C11_18  and  N3_20 
REMARK    8  A    between atoms: N3_20  and  N4_22 
ROOT
HETATM    1  C4  UNL     1      41.871 269.432 160.589  1.00  0.00     0.052 A 
HETATM    2  C5  UNL     1      43.158 269.193 161.012  1.00  0.00     0.108 A 
HETATM    3  C6  UNL     1      43.819 270.211 161.678  1.00  0.00     0.115 A 
HETATM    4  C9  UNL     1      43.235 271.428 161.923  1.00  0.00     0.175 A 
HETATM    5  N2  UNL     1      41.976 271.649 161.504  1.00  0.00    -0.283 N 
HETATM    6  C14 UNL     1      41.332 270.668 160.859  1.00  0.00     0.259 A 
HETATM    7  O7  UNL     1      40.154 270.890 160.473  1.00  0.00    -0.267 OA
ENDROOT
BRANCH   5   8
HETATM    8  C10 UNL     1      41.394 272.929 161.774  1.00  0.00     0.239 C 
BRANCH   8   9
HETATM    9  C11 UNL     1      40.862 272.930 163.207  1.00  0.00     0.256 C 
HETATM   10  O4  UNL     1      39.636 273.125 163.288  1.00  0.00    -0.270 OA
HETATM   11  N3  UNL     1      41.771 272.720 164.255  1.00  0.00    -0.243 N 
ATOM     12  H3  UNL     1      42.745 272.576 163.990  1.00  0.00     0.192 HD
BRANCH  11  13
HETATM   13  N4  UNL     1      41.489 272.687 165.601  1.00  0.00    -0.135 N 
HETATM   14  N5  UNL     1      40.475 273.382 166.175  1.00  0.00    -0.225 N 
HETATM   15  C12 UNL     1      40.430 273.170 167.474  1.00  0.00     0.344 A 
ATOM     16  H5  UNL     1      39.832 273.989 165.668  1.00  0.00     0.194 HD
HETATM   17  O5  UNL     1      39.593 273.675 168.307  1.00  0.00    -0.245 OA
HETATM   18  N6  UNL     1      41.409 272.330 167.803  1.00  0.00    -0.257 N 
HETATM   19  C13 UNL     1      42.054 272.042 166.632  1.00  0.00     0.365 A 
ATOM     20  H6  UNL     1      41.632 271.976 168.734  1.00  0.00     0.175 HD
HETATM   21  O6  UNL     1      43.049 271.253 166.621  1.00  0.00    -0.243 OA
ENDBRANCH  11  13
ENDBRANCH   8   9
ENDBRANCH   5   8
BRANCH   4  22
HETATM   22  O3  UNL     1      43.931 272.431 162.597  1.00  0.00    -0.344 OA
ATOM     23  H3  UNL     1      43.467 273.120 163.057  1.00  0.00     0.219 HD
ENDBRANCH   4  22
BRANCH   3  24
HETATM   24  N1  UNL     1      45.165 269.949 162.114  1.00  0.00    -0.384 N 
HETATM   25  C7  UNL     1      45.333 269.277 163.377  1.00  0.00     0.149 C 
HETATM   26  C8  UNL     1      46.322 270.333 161.340  1.00  0.00     0.149 C 
ENDBRANCH   3  24
BRANCH   1  27
HETATM   27  C3  UNL     1      41.153 268.366 159.882  1.00  0.00     0.125 C 
BRANCH  27  28
HETATM   28  C2  UNL     1      41.641 268.112 158.526  1.00  0.00     0.127 C 
HETATM   29  C1  UNL     1      40.832 267.378 157.519  1.00  0.00     0.091 C 
HETATM   30  O1  UNL     1      42.742 268.512 158.204  1.00  0.00    -0.298 OA
ENDBRANCH  27  28
ENDBRANCH   1  27
BRANCH   2  31
HETATM   31  O2  UNL     1      43.807 267.964 160.789  1.00  0.00    -0.358 OA
ATOM     32  H2  UNL     1      44.627 267.902 160.313  1.00  0.00     0.217 HD
ENDBRANCH   2  31
TORSDOF 8
ENDMDL
