MODEL 1
REMARK VINA RESULT: -8.829945536      0.000      0.000
REMARK  8 active torsions:
REMARK  status: ('A' for Active; 'I' for Inactive)
REMARK    1  A    between atoms: C2_2  and  C3_3 
REMARK    2  A    between atoms: N2_7  and  O2_8 
REMARK    3  A    between atoms: C4_10  and  C5_11 
REMARK    4  A    between atoms: C5_11  and  O3_12 
REMARK    5  A    between atoms: C5_11  and  C6_14 
REMARK    6  A    between atoms: C11_26  and  O4_27 
REMARK    7  A    between atoms: O4_27  and  C12_28 
REMARK    8  A    between atoms: C12_28  and  C13_29 
REMARK       I    between atoms: C13_29  and  N7_31 
REMARK       I    between atoms: N7_31  and  C14_33 
ROOT
HETATM    1  C6  UNL     1      42.764 271.276 161.826  1.00  0.00     0.053 A 
HETATM    2  C7  UNL     1      44.020 270.710 161.814  1.00  0.00     0.130 A 
HETATM    3  N3  UNL     1      45.087 271.456 162.444  1.00  0.00    -0.082 NA
HETATM    4  N4  UNL     1      44.266 269.524 161.250  1.00  0.00    -0.329 N 
ATOM      5  H4  UNL     1      45.210 269.137 161.262  1.00  0.00     0.168 HD
HETATM    6  C8  UNL     1      43.244 268.829 160.654  1.00  0.00     0.124 A 
HETATM    7  N5  UNL     1      43.418 267.732 160.117  1.00  0.00    -0.384 N 
ATOM      8  H51 UNL     1      42.659 267.214 159.674  1.00  0.00     0.157 HD
ATOM      9  H52 UNL     1      44.355 267.328 160.118  1.00  0.00     0.157 HD
HETATM   10  C9  UNL     1      41.953 269.386 160.653  1.00  0.00     0.122 A 
HETATM   11  C10 UNL     1      40.851 268.695 160.044  1.00  0.00     0.106 C 
HETATM   12  N6  UNL     1      39.971 268.154 159.539  1.00  0.00    -0.191 NA
HETATM   13  C11 UNL     1      41.718 270.601 161.236  1.00  0.00     0.106 A 
ENDROOT
BRANCH  13  14
HETATM   14  O4  UNL     1      40.431 271.176 161.247  1.00  0.00    -0.340 OA
BRANCH  14  15
HETATM   15  C12 UNL     1      39.849 271.555 160.005  1.00  0.00     0.278 C 
BRANCH  15  16
HETATM   16  C13 UNL     1      38.373 271.555 160.086  1.00  0.00     0.249 C 
HETATM   17  O5  UNL     1      37.838 271.567 161.221  1.00  0.00    -0.271 OA
HETATM   18  N7  UNL     1      37.538 271.540 158.940  1.00  0.00    -0.280 N 
HETATM   19  C14 UNL     1      36.113 271.539 159.056  1.00  0.00     0.335 C 
ATOM     20  H7  UNL     1      37.963 271.531 158.012  1.00  0.00     0.173 HD
HETATM   21  N8  UNL     1      35.507 271.552 160.365  1.00  0.00    -0.040 NA
HETATM   22  O6  UNL     1      35.363 271.529 158.051  1.00  0.00    -0.251 OA
ENDBRANCH  15  16
ENDBRANCH  14  15
ENDBRANCH  13  14
BRANCH   1  23
HETATM   23  C5  UNL     1      42.518 272.597 162.471  1.00  0.00     0.214 C 
BRANCH  23  24
HETATM   24  C4  UNL     1      41.763 272.455 163.733  1.00  0.00     0.129 A 
HETATM   25  C3  UNL     1      42.218 271.978 164.941  1.00  0.00     0.086 A 
HETATM   26  N1  UNL     1      41.128 272.082 165.771  1.00  0.00    -0.237 N 
HETATM   27  O1  UNL     1      40.136 272.571 165.104  1.00  0.00    -0.128 OA
ATOM     28  H1  UNL     1      41.106 271.816 166.756  1.00  0.00     0.197 HD
HETATM   29  N2  UNL     1      40.452 272.817 163.878  1.00  0.00    -0.101 N 
BRANCH  25  30
HETATM   30  C2  UNL     1      43.523 271.461 165.334  1.00  0.00     0.023 C 
HETATM   31  C1  UNL     1      43.872 271.434 166.611  1.00  0.00     0.013 C 
ENDBRANCH  25  30
BRANCH  29  32
HETATM   32  O2  UNL     1      39.626 273.341 162.906  1.00  0.00    -0.261 OA
ATOM     33  H2  UNL     1      38.811 272.966 162.594  1.00  0.00     0.247 HD
ENDBRANCH  29  32
ENDBRANCH  23  24
BRANCH  23  34
HETATM   34  O3  UNL     1      41.830 273.355 161.548  1.00  0.00    -0.384 OA
ATOM     35  H3  UNL     1      41.062 272.901 161.223  1.00  0.00     0.211 HD
ENDBRANCH  23  34
ENDBRANCH   1  23
TORSDOF 8
ENDMDL
MODEL 2
REMARK VINA RESULT: -8.207307497      3.568      5.052
REMARK  8 active torsions:
REMARK  status: ('A' for Active; 'I' for Inactive)
REMARK    1  A    between atoms: C2_2  and  C3_3 
REMARK    2  A    between atoms: N2_7  and  O2_8 
REMARK    3  A    between atoms: C4_10  and  C5_11 
REMARK    4  A    between atoms: C5_11  and  O3_12 
REMARK    5  A    between atoms: C5_11  and  C6_14 
REMARK    6  A    between atoms: C11_26  and  O4_27 
REMARK    7  A    between atoms: O4_27  and  C12_28 
REMARK    8  A    between atoms: C12_28  and  C13_29 
REMARK       I    between atoms: C13_29  and  N7_31 
REMARK       I    between atoms: N7_31  and  C14_33 
ROOT
HETATM    1  C6  UNL     1      42.985 268.723 159.593  1.00  0.00     0.053 A 
HETATM    2  C7  UNL     1      44.214 269.147 160.050  1.00  0.00     0.130 A 
HETATM    3  N3  UNL     1      44.332 269.425 161.465  1.00  0.00    -0.082 NA
HETATM    4  N4  UNL     1      45.264 269.302 159.240  1.00  0.00    -0.329 N 
ATOM      5  H4  UNL     1      46.159 269.617 159.617  1.00  0.00     0.168 HD
HETATM    6  C8  UNL     1      45.137 269.036 157.901  1.00  0.00     0.124 A 
HETATM    7  N5  UNL     1      46.075 269.165 157.110  1.00  0.00    -0.384 N 
ATOM      8  H51 UNL     1      45.980 268.968 156.113  1.00  0.00     0.157 HD
ATOM      9  H52 UNL     1      46.978 269.479 157.466  1.00  0.00     0.157 HD
HETATM   10  C9  UNL     1      43.892 268.603 157.409  1.00  0.00     0.122 A 
HETATM   11  C10 UNL     1      43.710 268.311 156.015  1.00  0.00     0.106 C 
HETATM   12  N6  UNL     1      43.555 268.095 154.897  1.00  0.00    -0.191 NA
HETATM   13  C11 UNL     1      42.826 268.449 158.252  1.00  0.00     0.106 A 
ENDROOT
BRANCH  13  14
HETATM   14  O4  UNL     1      41.571 268.014 157.780  1.00  0.00    -0.340 OA
BRANCH  14  15
HETATM   15  C12 UNL     1      41.498 266.764 157.104  1.00  0.00     0.278 C 
BRANCH  15  16
HETATM   16  C13 UNL     1      40.289 266.686 156.258  1.00  0.00     0.249 C 
HETATM   17  O5  UNL     1      40.405 266.236 155.091  1.00  0.00    -0.271 OA
HETATM   18  N7  UNL     1      39.006 267.096 156.704  1.00  0.00    -0.280 N 
HETATM   19  C14 UNL     1      37.858 267.008 155.856  1.00  0.00     0.335 C 
ATOM     20  H7  UNL     1      38.902 267.463 157.651  1.00  0.00     0.173 HD
HETATM   21  N8  UNL     1      38.002 266.491 154.518  1.00  0.00    -0.040 NA
HETATM   22  O6  UNL     1      36.719 267.365 156.240  1.00  0.00    -0.251 OA
ENDBRANCH  15  16
ENDBRANCH  14  15
ENDBRANCH  13  14
BRANCH   1  23
HETATM   23  C5  UNL     1      41.832 268.552 160.521  1.00  0.00     0.214 C 
BRANCH  23  24
HETATM   24  C4  UNL     1      40.897 269.694 160.447  1.00  0.00     0.129 A 
HETATM   25  C3  UNL     1      41.083 270.971 160.925  1.00  0.00     0.086 A 
HETATM   26  N1  UNL     1      39.929 271.628 160.575  1.00  0.00    -0.237 N 
HETATM   27  O1  UNL     1      39.148 270.806 159.956  1.00  0.00    -0.128 OA
ATOM     28  H1  UNL     1      39.721 272.607 160.773  1.00  0.00     0.197 HD
HETATM   29  N2  UNL     1      39.670 269.632 159.846  1.00  0.00    -0.101 N 
BRANCH  25  30
HETATM   30  C2  UNL     1      42.201 271.568 161.645  1.00  0.00     0.023 C 
HETATM   31  C1  UNL     1      42.166 272.847 161.988  1.00  0.00     0.013 C 
ENDBRANCH  25  30
BRANCH  29  32
HETATM   32  O2  UNL     1      39.100 268.532 159.241  1.00  0.00    -0.261 OA
ATOM     33  H2  UNL     1      39.222 268.254 158.342  1.00  0.00     0.247 HD
ENDBRANCH  29  32
ENDBRANCH  23  24
BRANCH  23  34
HETATM   34  O3  UNL     1      42.370 268.414 161.783  1.00  0.00    -0.384 OA
ATOM     35  H3  UNL     1      43.050 267.751 161.805  1.00  0.00     0.211 HD
ENDBRANCH  23  34
ENDBRANCH   1  23
TORSDOF 8
ENDMDL
MODEL 3
REMARK VINA RESULT: -8.020731665      2.876      5.039
REMARK  8 active torsions:
REMARK  status: ('A' for Active; 'I' for Inactive)
REMARK    1  A    between atoms: C2_2  and  C3_3 
REMARK    2  A    between atoms: N2_7  and  O2_8 
REMARK    3  A    between atoms: C4_10  and  C5_11 
REMARK    4  A    between atoms: C5_11  and  O3_12 
REMARK    5  A    between atoms: C5_11  and  C6_14 
REMARK    6  A    between atoms: C11_26  and  O4_27 
REMARK    7  A    between atoms: O4_27  and  C12_28 
REMARK    8  A    between atoms: C12_28  and  C13_29 
REMARK       I    between atoms: C13_29  and  N7_31 
REMARK       I    between atoms: N7_31  and  C14_33 
ROOT
HETATM    1  C6  UNL     1      42.617 270.441 162.908  1.00  0.00     0.053 A 
HETATM    2  C7  UNL     1      42.372 271.239 164.004  1.00  0.00     0.130 A 
HETATM    3  N3  UNL     1      43.229 271.061 165.156  1.00  0.00    -0.082 NA
HETATM    4  N4  UNL     1      41.392 272.146 164.025  1.00  0.00    -0.329 N 
ATOM      5  H4  UNL     1      41.243 272.720 164.855  1.00  0.00     0.168 HD
HETATM    6  C8  UNL     1      40.586 272.303 162.926  1.00  0.00     0.124 A 
HETATM    7  N5  UNL     1      39.665 273.123 162.894  1.00  0.00    -0.384 N 
ATOM      8  H51 UNL     1      39.066 273.240 162.077  1.00  0.00     0.157 HD
ATOM      9  H52 UNL     1      39.499 273.707 163.714  1.00  0.00     0.157 HD
HETATM   10  C9  UNL     1      40.815 271.498 161.795  1.00  0.00     0.122 A 
HETATM   11  C10 UNL     1      39.999 271.627 160.620  1.00  0.00     0.106 C 
HETATM   12  N6  UNL     1      39.336 271.713 159.686  1.00  0.00    -0.191 NA
HETATM   13  C11 UNL     1      41.824 270.575 161.790  1.00  0.00     0.106 A 
ENDROOT
BRANCH  13  14
HETATM   14  O4  UNL     1      42.071 269.760 160.666  1.00  0.00    -0.340 OA
BRANCH  14  15
HETATM   15  C12 UNL     1      41.067 268.832 160.270  1.00  0.00     0.278 C 
BRANCH  15  16
HETATM   16  C13 UNL     1      41.333 268.306 158.915  1.00  0.00     0.249 C 
HETATM   17  O5  UNL     1      42.501 268.391 158.461  1.00  0.00    -0.271 OA
HETATM   18  N7  UNL     1      40.330 267.713 158.107  1.00  0.00    -0.280 N 
HETATM   19  C14 UNL     1      40.623 267.215 156.799  1.00  0.00     0.335 C 
ATOM     20  H7  UNL     1      39.378 267.639 158.468  1.00  0.00     0.173 HD
HETATM   21  N8  UNL     1      41.967 267.318 156.285  1.00  0.00    -0.040 NA
HETATM   22  O6  UNL     1      39.746 266.687 156.076  1.00  0.00    -0.251 OA
ENDBRANCH  15  16
ENDBRANCH  14  15
ENDBRANCH  13  14
BRANCH   1  23
HETATM   23  C5  UNL     1      43.724 269.443 162.911  1.00  0.00     0.214 C 
BRANCH  23  24
HETATM   24  C4  UNL     1      44.958 269.997 162.315  1.00  0.00     0.129 A 
HETATM   25  C3  UNL     1      45.962 270.694 162.946  1.00  0.00     0.086 A 
HETATM   26  N1  UNL     1      46.869 270.949 161.946  1.00  0.00    -0.237 N 
HETATM   27  O1  UNL     1      46.427 270.448 160.840  1.00  0.00    -0.128 OA
ATOM     28  H1  UNL     1      47.748 271.453 162.058  1.00  0.00     0.197 HD
HETATM   29  N2  UNL     1      45.289 269.864 160.994  1.00  0.00    -0.101 N 
BRANCH  25  30
HETATM   30  C2  UNL     1      46.109 271.111 164.335  1.00  0.00     0.023 C 
HETATM   31  C1  UNL     1      46.842 270.393 165.173  1.00  0.00     0.013 C 
ENDBRANCH  25  30
BRANCH  29  32
HETATM   32  O2  UNL     1      44.551 269.231 160.017  1.00  0.00    -0.261 OA
ATOM     33  H2  UNL     1      43.619 269.048 160.040  1.00  0.00     0.247 HD
ENDBRANCH  29  32
ENDBRANCH  23  24
BRANCH  23  34
HETATM   34  O3  UNL     1      43.262 268.352 162.206  1.00  0.00    -0.384 OA
ATOM     35  H3  UNL     1      43.266 267.564 162.737  1.00  0.00     0.211 HD
ENDBRANCH  23  34
ENDBRANCH   1  23
TORSDOF 8
ENDMDL
MODEL 4
REMARK VINA RESULT: -7.951885701      3.003      7.515
REMARK  8 active torsions:
REMARK  status: ('A' for Active; 'I' for Inactive)
REMARK    1  A    between atoms: C2_2  and  C3_3 
REMARK    2  A    between atoms: N2_7  and  O2_8 
REMARK    3  A    between atoms: C4_10  and  C5_11 
REMARK    4  A    between atoms: C5_11  and  O3_12 
REMARK    5  A    between atoms: C5_11  and  C6_14 
REMARK    6  A    between atoms: C11_26  and  O4_27 
REMARK    7  A    between atoms: O4_27  and  C12_28 
REMARK    8  A    between atoms: C12_28  and  C13_29 
REMARK       I    between atoms: C13_29  and  N7_31 
REMARK       I    between atoms: N7_31  and  C14_33 
ROOT
HETATM    1  C6  UNL     1      41.840 272.175 163.320  1.00  0.00     0.053 A 
HETATM    2  C7  UNL     1      40.694 272.914 163.521  1.00  0.00     0.130 A 
HETATM    3  N3  UNL     1      39.941 273.298 162.348  1.00  0.00    -0.082 NA
HETATM    4  N4  UNL     1      40.278 273.271 164.739  1.00  0.00    -0.329 N 
ATOM      5  H4  UNL     1      39.423 273.817 164.849  1.00  0.00     0.168 HD
HETATM    6  C8  UNL     1      41.004 272.901 165.843  1.00  0.00     0.124 A 
HETATM    7  N5  UNL     1      40.665 273.207 166.989  1.00  0.00    -0.384 N 
ATOM      8  H51 UNL     1      41.205 272.932 167.810  1.00  0.00     0.157 HD
ATOM      9  H52 UNL     1      39.814 273.753 167.120  1.00  0.00     0.157 HD
HETATM   10  C9  UNL     1      42.178 272.146 165.663  1.00  0.00     0.122 A 
HETATM   11  C10 UNL     1      42.970 271.734 166.787  1.00  0.00     0.106 C 
HETATM   12  N6  UNL     1      43.617 271.419 167.683  1.00  0.00    -0.191 NA
HETATM   13  C11 UNL     1      42.589 271.788 164.409  1.00  0.00     0.106 A 
ENDROOT
BRANCH  13  14
HETATM   14  O4  UNL     1      43.762 271.031 164.206  1.00  0.00    -0.340 OA
BRANCH  14  15
HETATM   15  C12 UNL     1      45.017 271.646 164.474  1.00  0.00     0.278 C 
BRANCH  15  16
HETATM   16  C13 UNL     1      46.090 270.636 164.592  1.00  0.00     0.249 C 
HETATM   17  O5  UNL     1      47.117 270.931 165.252  1.00  0.00    -0.271 OA
HETATM   18  N7  UNL     1      46.011 269.352 163.993  1.00  0.00    -0.280 N 
HETATM   19  C14 UNL     1      47.070 268.401 164.127  1.00  0.00     0.335 C 
ATOM     20  H7  UNL     1      45.180 269.103 163.456  1.00  0.00     0.173 HD
HETATM   21  N8  UNL     1      48.246 268.749 164.886  1.00  0.00    -0.040 NA
HETATM   22  O6  UNL     1      47.011 267.262 163.605  1.00  0.00    -0.251 OA
ENDBRANCH  15  16
ENDBRANCH  14  15
ENDBRANCH  13  14
BRANCH   1  23
HETATM   23  C5  UNL     1      42.274 271.783 161.949  1.00  0.00     0.214 C 
BRANCH  23  24
HETATM   24  C4  UNL     1      41.647 270.516 161.519  1.00  0.00     0.129 A 
HETATM   25  C3  UNL     1      40.510 270.349 160.764  1.00  0.00     0.086 A 
HETATM   26  N1  UNL     1      40.389 268.986 160.641  1.00  0.00    -0.237 N 
HETATM   27  O1  UNL     1      41.365 268.419 161.269  1.00  0.00    -0.128 OA
ATOM     28  H1  UNL     1      39.649 268.500 160.135  1.00  0.00     0.197 HD
HETATM   29  N2  UNL     1      42.154 269.280 161.816  1.00  0.00    -0.101 N 
BRANCH  25  30
HETATM   30  C2  UNL     1      39.590 271.326 160.194  1.00  0.00     0.023 C 
HETATM   31  C1  UNL     1      38.291 271.071 160.150  1.00  0.00     0.013 C 
ENDBRANCH  25  30
BRANCH  29  32
HETATM   32  O2  UNL     1      43.284 269.005 162.556  1.00  0.00    -0.261 OA
ATOM     33  H2  UNL     1      43.857 268.254 162.456  1.00  0.00     0.247 HD
ENDBRANCH  29  32
ENDBRANCH  23  24
BRANCH  23  34
HETATM   34  O3  UNL     1      43.649 271.683 161.994  1.00  0.00    -0.384 OA
ATOM     35  H3  UNL     1      43.949 271.341 162.828  1.00  0.00     0.211 HD
ENDBRANCH  23  34
ENDBRANCH   1  23
TORSDOF 8
ENDMDL
MODEL 5
REMARK VINA RESULT: -7.943346791      1.447      1.928
REMARK  8 active torsions:
REMARK  status: ('A' for Active; 'I' for Inactive)
REMARK    1  A    between atoms: C2_2  and  C3_3 
REMARK    2  A    between atoms: N2_7  and  O2_8 
REMARK    3  A    between atoms: C4_10  and  C5_11 
REMARK    4  A    between atoms: C5_11  and  O3_12 
REMARK    5  A    between atoms: C5_11  and  C6_14 
REMARK    6  A    between atoms: C11_26  and  O4_27 
REMARK    7  A    between atoms: O4_27  and  C12_28 
REMARK    8  A    between atoms: C12_28  and  C13_29 
REMARK       I    between atoms: C13_29  and  N7_31 
REMARK       I    between atoms: N7_31  and  C14_33 
ROOT
HETATM    1  C6  UNL     1      42.156 270.499 162.764  1.00  0.00     0.053 A 
HETATM    2  C7  UNL     1      43.423 269.973 162.889  1.00  0.00     0.130 A 
HETATM    3  N3  UNL     1      44.232 270.450 163.989  1.00  0.00    -0.082 NA
HETATM    4  N4  UNL     1      43.905 269.060 162.042  1.00  0.00    -0.329 N 
ATOM      5  H4  UNL     1      44.849 268.692 162.167  1.00  0.00     0.168 HD
HETATM    6  C8  UNL     1      43.128 268.618 161.002  1.00  0.00     0.124 A 
HETATM    7  N5  UNL     1      43.526 267.778 160.190  1.00  0.00    -0.384 N 
ATOM      8  H51 UNL     1      42.948 267.449 159.417  1.00  0.00     0.157 HD
ATOM      9  H52 UNL     1      44.467 267.399 160.298  1.00  0.00     0.157 HD
HETATM   10  C9  UNL     1      41.830 269.140 160.853  1.00  0.00     0.122 A 
HETATM   11  C10 UNL     1      40.978 268.708 159.781  1.00  0.00     0.106 C 
HETATM   12  N6  UNL     1      40.301 268.378 158.913  1.00  0.00    -0.191 NA
HETATM   13  C11 UNL     1      41.352 270.074 161.730  1.00  0.00     0.106 A 
ENDROOT
BRANCH  13  14
HETATM   14  O4  UNL     1      40.054 270.610 161.599  1.00  0.00    -0.340 OA
BRANCH  14  15
HETATM   15  C12 UNL     1      39.707 271.251 160.377  1.00  0.00     0.278 C 
BRANCH  15  16
HETATM   16  C13 UNL     1      38.243 271.417 160.259  1.00  0.00     0.249 C 
HETATM   17  O5  UNL     1      37.629 271.979 161.200  1.00  0.00    -0.271 OA
HETATM   18  N7  UNL     1      37.504 270.970 159.135  1.00  0.00    -0.280 N 
HETATM   19  C14 UNL     1      36.087 271.146 159.056  1.00  0.00     0.335 C 
ATOM     20  H7  UNL     1      37.994 270.513 158.365  1.00  0.00     0.173 HD
HETATM   21  N8  UNL     1      35.390 271.792 160.141  1.00  0.00    -0.040 NA
HETATM   22  O6  UNL     1      35.422 270.758 158.066  1.00  0.00    -0.251 OA
ENDBRANCH  15  16
ENDBRANCH  14  15
ENDBRANCH  13  14
BRANCH   1  23
HETATM   23  C5  UNL     1      41.641 271.510 163.730  1.00  0.00     0.214 C 
BRANCH  23  24
HETATM   24  C4  UNL     1      41.781 272.885 163.206  1.00  0.00     0.129 A 
HETATM   25  C3  UNL     1      42.939 273.598 163.000  1.00  0.00     0.086 A 
HETATM   26  N1  UNL     1      42.506 274.795 162.485  1.00  0.00    -0.237 N 
HETATM   27  O1  UNL     1      41.217 274.777 162.404  1.00  0.00    -0.128 OA
ATOM     28  H1  UNL     1      43.105 275.574 162.211  1.00  0.00     0.197 HD
HETATM   29  N2  UNL     1      40.722 273.661 162.819  1.00  0.00    -0.101 N 
BRANCH  25  30
HETATM   30  C2  UNL     1      44.333 273.248 163.245  1.00  0.00     0.023 C 
HETATM   31  C1  UNL     1      45.271 274.182 163.214  1.00  0.00     0.013 C 
ENDBRANCH  25  30
BRANCH  29  32
HETATM   32  O2  UNL     1      39.387 273.320 162.865  1.00  0.00    -0.261 OA
ATOM     33  H2  UNL     1      38.998 272.514 162.548  1.00  0.00     0.247 HD
ENDBRANCH  29  32
ENDBRANCH  23  24
BRANCH  23  34
HETATM   34  O3  UNL     1      42.359 271.333 164.894  1.00  0.00    -0.384 OA
ATOM     35  H3  UNL     1      43.052 270.692 164.785  1.00  0.00     0.211 HD
ENDBRANCH  23  34
ENDBRANCH   1  23
TORSDOF 8
ENDMDL
