MODEL 1
REMARK VINA RESULT: -9.599643221      0.000      0.000
REMARK  9 active torsions:
REMARK  status: ('A' for Active; 'I' for Inactive)
REMARK    1  A    between atoms: O1_2  and  C2_3 
REMARK    2  A    between atoms: C2_3  and  C3_5 
REMARK    3  A    between atoms: C3_5  and  C4_7 
REMARK    4  A    between atoms: C4_7  and  C5_8 
REMARK    5  A    between atoms: C5_8  and  N2_9 
REMARK    6  A    between atoms: C7_11  and  N3_12 
REMARK    7  A    between atoms: N3_12  and  C8_14 
REMARK    8  A    between atoms: C9_15  and  N4_16 
REMARK    9  A    between atoms: N4_16  and  C10_18 
ROOT
HETATM    1  C8  UNL     1      41.326 270.623 161.285  1.00  0.00     0.119 A 
HETATM    2  C9  UNL     1      40.313 270.538 160.321  1.00  0.00     0.134 A 
HETATM    3  C12 UNL     1      40.518 269.206 160.254  1.00  0.00     0.253 A 
HETATM    4  O4  UNL     1      40.047 268.210 159.618  1.00  0.00    -0.281 OA
HETATM    5  C13 UNL     1      41.534 269.265 161.214  1.00  0.00     0.253 A 
HETATM    6  O5  UNL     1      42.284 268.413 161.754  1.00  0.00    -0.281 OA
ENDROOT
BRANCH   1   7
HETATM    7  N3  UNL     1      41.804 271.752 161.995  1.00  0.00    -0.349 N 
ATOM      8  H3  UNL     1      42.268 272.481 161.453  1.00  0.00     0.166 HD
BRANCH   7   9
HETATM    9  C7  UNL     1      41.695 271.951 163.378  1.00  0.00     0.067 A 
HETATM   10  C6  UNL     1      40.862 272.748 164.114  1.00  0.00     0.141 A 
HETATM   11  N2  UNL     1      41.160 272.618 165.421  1.00  0.00    -0.298 N 
HETATM   12  N8  UNL     1      42.150 271.767 165.530  1.00  0.00    -0.308 N 
HETATM   13  C14 UNL     1      42.515 271.329 164.320  1.00  0.00     0.138 A 
ATOM     14  H8  UNL     1      42.580 271.479 166.409  1.00  0.00     0.186 HD
BRANCH  11  15
HETATM   15  C5  UNL     1      40.463 273.332 166.486  1.00  0.00     0.177 C 
BRANCH  15  16
HETATM   16  C4  UNL     1      40.503 272.515 167.697  1.00  0.00     0.027 C 
BRANCH  16  17
HETATM   17  C3  UNL     1      41.093 272.779 168.806  1.00  0.00     0.119 C 
HETATM   18  N1  UNL     1      40.450 273.769 169.668  1.00  0.00    -0.096 NA
BRANCH  17  19
HETATM   19  C2  UNL     1      42.319 272.196 169.280  1.00  0.00     0.306 C 
HETATM   20  O2  UNL     1      42.353 271.829 170.515  1.00  0.00    -0.258 OA
BRANCH  19  21
HETATM   21  O1  UNL     1      43.481 271.966 168.602  1.00  0.00    -0.322 OA
HETATM   22  C1  UNL     1      44.711 271.650 169.237  1.00  0.00     0.213 C 
ENDBRANCH  19  21
ENDBRANCH  17  19
ENDBRANCH  16  17
ENDBRANCH  15  16
ENDBRANCH  11  15
ENDBRANCH   7   9
ENDBRANCH   1   7
BRANCH   2  23
HETATM   23  N4  UNL     1      39.413 271.409 159.649  1.00  0.00    -0.184 N 
ATOM     24  H4  UNL     1      39.758 272.070 158.954  1.00  0.00     0.184 HD
BRANCH  23  25
HETATM   25  C10 UNL     1      38.167 271.351 159.925  1.00  0.00     0.701 A 
HETATM   26  N5  UNL     1      37.640 271.066 161.116  1.00  0.00    -0.128 N 
HETATM   27  N6  UNL     1      36.328 271.106 160.993  1.00  0.00    -0.237 N 
ATOM     28  H5  UNL     1      38.157 270.856 161.970  1.00  0.00     0.205 HD
HETATM   29  C11 UNL     1      35.996 271.416 159.729  1.00  0.00     0.353 A 
ATOM     30  H6  UNL     1      35.663 270.929 161.746  1.00  0.00     0.192 HD
HETATM   31  O3  UNL     1      34.825 271.528 159.304  1.00  0.00    -0.245 OA
HETATM   32  N7  UNL     1      37.160 271.566 159.072  1.00  0.00    -0.139 N 
ATOM     33  H7  UNL     1      37.259 271.804 158.086  1.00  0.00     0.189 HD
ENDBRANCH  23  25
ENDBRANCH   2  23
TORSDOF 9
ENDMDL
MODEL 2
REMARK VINA RESULT: -9.262031074      1.428      1.891
REMARK  9 active torsions:
REMARK  status: ('A' for Active; 'I' for Inactive)
REMARK    1  A    between atoms: O1_2  and  C2_3 
REMARK    2  A    between atoms: C2_3  and  C3_5 
REMARK    3  A    between atoms: C3_5  and  C4_7 
REMARK    4  A    between atoms: C4_7  and  C5_8 
REMARK    5  A    between atoms: C5_8  and  N2_9 
REMARK    6  A    between atoms: C7_11  and  N3_12 
REMARK    7  A    between atoms: N3_12  and  C8_14 
REMARK    8  A    between atoms: C9_15  and  N4_16 
REMARK    9  A    between atoms: N4_16  and  C10_18 
ROOT
HETATM    1  C8  UNL     1      40.042 271.461 160.910  1.00  0.00     0.119 A 
HETATM    2  C9  UNL     1      38.842 270.755 160.757  1.00  0.00     0.134 A 
HETATM    3  C12 UNL     1      39.534 269.742 160.196  1.00  0.00     0.253 A 
HETATM    4  O4  UNL     1      39.293 268.593 159.705  1.00  0.00    -0.281 OA
HETATM    5  C13 UNL     1      40.745 270.427 160.337  1.00  0.00     0.253 A 
HETATM    6  O5  UNL     1      41.941 270.166 160.051  1.00  0.00    -0.281 OA
ENDROOT
BRANCH   1   7
HETATM    7  N3  UNL     1      40.274 272.731 161.492  1.00  0.00    -0.349 N 
ATOM      8  H3  UNL     1      39.965 273.549 160.965  1.00  0.00     0.166 HD
BRANCH   7   9
HETATM    9  C7  UNL     1      40.892 272.960 162.728  1.00  0.00     0.067 A 
HETATM   10  C6  UNL     1      40.796 272.303 163.924  1.00  0.00     0.141 A 
HETATM   11  N2  UNL     1      41.568 272.922 164.838  1.00  0.00    -0.298 N 
HETATM   12  N8  UNL     1      42.147 273.944 164.255  1.00  0.00    -0.308 N 
HETATM   13  C14 UNL     1      41.772 274.015 162.973  1.00  0.00     0.138 A 
ATOM     14  H8  UNL     1      42.789 274.590 164.713  1.00  0.00     0.186 HD
BRANCH  11  15
HETATM   15  C5  UNL     1      41.697 272.482 166.223  1.00  0.00     0.177 C 
BRANCH  15  16
HETATM   16  C4  UNL     1      40.595 273.050 166.995  1.00  0.00     0.027 C 
BRANCH  16  17
HETATM   17  C3  UNL     1      40.248 272.767 168.199  1.00  0.00     0.119 C 
HETATM   18  N1  UNL     1      38.888 272.263 168.384  1.00  0.00    -0.096 NA
BRANCH  17  19
HETATM   19  C2  UNL     1      41.065 272.895 169.374  1.00  0.00     0.306 C 
HETATM   20  O2  UNL     1      40.948 273.984 170.053  1.00  0.00    -0.258 OA
BRANCH  19  21
HETATM   21  O1  UNL     1      41.969 272.014 169.894  1.00  0.00    -0.322 OA
HETATM   22  C1  UNL     1      43.365 272.080 169.640  1.00  0.00     0.213 C 
ENDBRANCH  19  21
ENDBRANCH  17  19
ENDBRANCH  16  17
ENDBRANCH  15  16
ENDBRANCH  11  15
ENDBRANCH   7   9
ENDBRANCH   1   7
BRANCH   2  23
HETATM   23  N4  UNL     1      37.460 270.938 161.037  1.00  0.00    -0.184 N 
ATOM     24  H4  UNL     1      37.082 270.689 161.951  1.00  0.00     0.184 HD
BRANCH  23  25
HETATM   25  C10 UNL     1      36.699 271.418 160.131  1.00  0.00     0.701 A 
HETATM   26  N5  UNL     1      36.836 271.241 158.816  1.00  0.00    -0.128 N 
HETATM   27  N6  UNL     1      35.857 271.894 158.221  1.00  0.00    -0.237 N 
ATOM     28  H5  UNL     1      37.566 270.699 158.354  1.00  0.00     0.205 HD
HETATM   29  C11 UNL     1      35.082 272.494 159.138  1.00  0.00     0.353 A 
ATOM     30  H6  UNL     1      35.710 271.936 157.212  1.00  0.00     0.192 HD
HETATM   31  O3  UNL     1      34.074 273.187 158.880  1.00  0.00    -0.245 OA
HETATM   32  N7  UNL     1      35.624 272.187 160.331  1.00  0.00    -0.139 N 
ATOM     33  H7  UNL     1      35.272 272.490 161.239  1.00  0.00     0.189 HD
ENDBRANCH  23  25
ENDBRANCH   2  23
TORSDOF 9
ENDMDL
MODEL 3
REMARK VINA RESULT: -9.199763874      3.051      3.585
REMARK  9 active torsions:
REMARK  status: ('A' for Active; 'I' for Inactive)
REMARK    1  A    between atoms: O1_2  and  C2_3 
REMARK    2  A    between atoms: C2_3  and  C3_5 
REMARK    3  A    between atoms: C3_5  and  C4_7 
REMARK    4  A    between atoms: C4_7  and  C5_8 
REMARK    5  A    between atoms: C5_8  and  N2_9 
REMARK    6  A    between atoms: C7_11  and  N3_12 
REMARK    7  A    between atoms: N3_12  and  C8_14 
REMARK    8  A    between atoms: C9_15  and  N4_16 
REMARK    9  A    between atoms: N4_16  and  C10_18 
ROOT
HETATM    1  C8  UNL     1      42.306 270.308 161.000  1.00  0.00     0.119 A 
HETATM    2  C9  UNL     1      41.853 269.096 160.464  1.00  0.00     0.134 A 
HETATM    3  C12 UNL     1      43.122 268.637 160.484  1.00  0.00     0.253 A 
HETATM    4  O4  UNL     1      43.746 267.574 160.171  1.00  0.00    -0.281 OA
HETATM    5  C13 UNL     1      43.599 269.839 161.019  1.00  0.00     0.253 A 
HETATM    6  O5  UNL     1      44.733 270.261 161.360  1.00  0.00    -0.281 OA
ENDROOT
BRANCH   1   7
HETATM    7  N3  UNL     1      41.572 271.464 161.363  1.00  0.00    -0.349 N 
ATOM      8  H3  UNL     1      41.014 271.910 160.636  1.00  0.00     0.166 HD
BRANCH   7   9
HETATM    9  C7  UNL     1      41.549 272.046 162.638  1.00  0.00     0.067 A 
HETATM   10  C6  UNL     1      41.827 271.530 163.874  1.00  0.00     0.141 A 
HETATM   11  N2  UNL     1      41.632 272.480 164.809  1.00  0.00    -0.298 N 
HETATM   12  N8  UNL     1      41.243 273.574 164.201  1.00  0.00    -0.308 N 
HETATM   13  C14 UNL     1      41.174 273.368 162.882  1.00  0.00     0.138 A 
ATOM     14  H8  UNL     1      41.023 274.455 164.668  1.00  0.00     0.186 HD
BRANCH  11  15
HETATM   15  C5  UNL     1      41.837 272.266 166.238  1.00  0.00     0.177 C 
BRANCH  15  16
HETATM   16  C4  UNL     1      40.766 272.940 166.967  1.00  0.00     0.027 C 
BRANCH  16  17
HETATM   17  C3  UNL     1      40.356 272.703 168.161  1.00  0.00     0.119 C 
HETATM   18  N1  UNL     1      38.987 272.206 168.293  1.00  0.00    -0.096 NA
BRANCH  17  19
HETATM   19  C2  UNL     1      41.109 272.877 169.372  1.00  0.00     0.306 C 
HETATM   20  O2  UNL     1      40.930 273.977 170.021  1.00  0.00    -0.258 OA
BRANCH  19  21
HETATM   21  O1  UNL     1      42.009 272.033 169.955  1.00  0.00    -0.322 OA
HETATM   22  C1  UNL     1      43.402 272.055 169.679  1.00  0.00     0.213 C 
ENDBRANCH  19  21
ENDBRANCH  17  19
ENDBRANCH  16  17
ENDBRANCH  15  16
ENDBRANCH  11  15
ENDBRANCH   7   9
ENDBRANCH   1   7
BRANCH   2  23
HETATM   23  N4  UNL     1      40.625 268.512 160.049  1.00  0.00    -0.184 N 
ATOM     24  H4  UNL     1      39.823 268.498 160.677  1.00  0.00     0.184 HD
BRANCH  23  25
HETATM   25  C10 UNL     1      40.540 268.005 158.879  1.00  0.00     0.701 A 
HETATM   26  N5  UNL     1      39.412 267.702 158.236  1.00  0.00    -0.128 N 
HETATM   27  N6  UNL     1      39.743 267.202 157.061  1.00  0.00    -0.237 N 
ATOM     28  H5  UNL     1      38.463 267.833 158.588  1.00  0.00     0.205 HD
HETATM   29  C11 UNL     1      41.079 267.178 156.934  1.00  0.00     0.353 A 
ATOM     30  H6  UNL     1      39.082 266.882 156.354  1.00  0.00     0.192 HD
HETATM   31  O3  UNL     1      41.695 266.759 155.929  1.00  0.00    -0.245 OA
HETATM   32  N7  UNL     1      41.564 267.684 158.082  1.00  0.00    -0.139 N 
ATOM     33  H7  UNL     1      42.551 267.804 158.308  1.00  0.00     0.189 HD
ENDBRANCH  23  25
ENDBRANCH   2  23
TORSDOF 9
ENDMDL
MODEL 4
REMARK VINA RESULT: -9.135165315      1.141      1.402
REMARK  9 active torsions:
REMARK  status: ('A' for Active; 'I' for Inactive)
REMARK    1  A    between atoms: O1_2  and  C2_3 
REMARK    2  A    between atoms: C2_3  and  C3_5 
REMARK    3  A    between atoms: C3_5  and  C4_7 
REMARK    4  A    between atoms: C4_7  and  C5_8 
REMARK    5  A    between atoms: C5_8  and  N2_9 
REMARK    6  A    between atoms: C7_11  and  N3_12 
REMARK    7  A    between atoms: N3_12  and  C8_14 
REMARK    8  A    between atoms: C9_15  and  N4_16 
REMARK    9  A    between atoms: N4_16  and  C10_18 
ROOT
HETATM    1  C8  UNL     1      41.015 270.563 161.148  1.00  0.00     0.119 A 
HETATM    2  C9  UNL     1      40.020 270.556 160.163  1.00  0.00     0.134 A 
HETATM    3  C12 UNL     1      40.238 269.237 159.981  1.00  0.00     0.253 A 
HETATM    4  O4  UNL     1      39.787 268.297 159.253  1.00  0.00    -0.281 OA
HETATM    5  C13 UNL     1      41.237 269.218 160.961  1.00  0.00     0.253 A 
HETATM    6  O5  UNL     1      41.986 268.328 161.436  1.00  0.00    -0.281 OA
ENDROOT
BRANCH   1   7
HETATM    7  N3  UNL     1      41.471 271.629 161.962  1.00  0.00    -0.349 N 
ATOM      8  H3  UNL     1      41.210 272.574 161.682  1.00  0.00     0.166 HD
BRANCH   7   9
HETATM    9  C7  UNL     1      42.250 271.494 163.119  1.00  0.00     0.067 A 
HETATM   10  C6  UNL     1      41.956 271.707 164.437  1.00  0.00     0.141 A 
HETATM   11  N2  UNL     1      43.052 271.468 165.184  1.00  0.00    -0.298 N 
HETATM   12  N8  UNL     1      44.022 271.111 164.379  1.00  0.00    -0.308 N 
HETATM   13  C14 UNL     1      43.591 271.109 163.113  1.00  0.00     0.138 A 
ATOM     14  H8  UNL     1      44.968 270.869 164.675  1.00  0.00     0.186 HD
BRANCH  11  15
HETATM   15  C5  UNL     1      43.088 271.602 166.637  1.00  0.00     0.177 C 
BRANCH  15  16
HETATM   16  C4  UNL     1      41.716 271.691 167.130  1.00  0.00     0.027 C 
BRANCH  16  17
HETATM   17  C3  UNL     1      41.191 272.627 167.835  1.00  0.00     0.119 C 
HETATM   18  N1  UNL     1      40.339 273.579 167.123  1.00  0.00    -0.096 NA
BRANCH  17  19
HETATM   19  C2  UNL     1      41.358 272.827 169.248  1.00  0.00     0.306 C 
HETATM   20  O2  UNL     1      40.716 273.809 169.781  1.00  0.00    -0.258 OA
BRANCH  19  21
HETATM   21  O1  UNL     1      42.114 272.116 170.134  1.00  0.00    -0.322 OA
HETATM   22  C1  UNL     1      43.517 272.279 170.280  1.00  0.00     0.213 C 
ENDBRANCH  19  21
ENDBRANCH  17  19
ENDBRANCH  16  17
ENDBRANCH  15  16
ENDBRANCH  11  15
ENDBRANCH   7   9
ENDBRANCH   1   7
BRANCH   2  23
HETATM   23  N4  UNL     1      39.122 271.475 159.554  1.00  0.00    -0.184 N 
ATOM     24  H4  UNL     1      39.469 272.183 158.908  1.00  0.00     0.184 HD
BRANCH  23  25
HETATM   25  C10 UNL     1      37.876 271.402 159.826  1.00  0.00     0.701 A 
HETATM   26  N5  UNL     1      37.348 271.126 161.019  1.00  0.00    -0.128 N 
HETATM   27  N6  UNL     1      36.036 271.145 160.889  1.00  0.00    -0.237 N 
ATOM     28  H5  UNL     1      37.865 270.935 161.877  1.00  0.00     0.205 HD
HETATM   29  C11 UNL     1      35.705 271.431 159.621  1.00  0.00     0.353 A 
ATOM     30  H6  UNL     1      35.371 270.967 161.642  1.00  0.00     0.192 HD
HETATM   31  O3  UNL     1      34.534 271.520 159.189  1.00  0.00    -0.245 OA
HETATM   32  N7  UNL     1      36.870 271.590 158.966  1.00  0.00    -0.139 N 
ATOM     33  H7  UNL     1      36.969 271.816 157.977  1.00  0.00     0.189 HD
ENDBRANCH  23  25
ENDBRANCH   2  23
TORSDOF 9
ENDMDL
MODEL 5
REMARK VINA RESULT: -8.971192183      4.609      9.437
REMARK  9 active torsions:
REMARK  status: ('A' for Active; 'I' for Inactive)
REMARK    1  A    between atoms: O1_2  and  C2_3 
REMARK    2  A    between atoms: C2_3  and  C3_5 
REMARK    3  A    between atoms: C3_5  and  C4_7 
REMARK    4  A    between atoms: C4_7  and  C5_8 
REMARK    5  A    between atoms: C5_8  and  N2_9 
REMARK    6  A    between atoms: C7_11  and  N3_12 
REMARK    7  A    between atoms: N3_12  and  C8_14 
REMARK    8  A    between atoms: C9_15  and  N4_16 
REMARK    9  A    between atoms: N4_16  and  C10_18 
ROOT
HETATM    1  C8  UNL     1      40.531 270.527 161.246  1.00  0.00     0.119 A 
HETATM    2  C9  UNL     1      39.523 271.430 161.605  1.00  0.00     0.134 A 
HETATM    3  C12 UNL     1      40.463 272.384 161.767  1.00  0.00     0.253 A 
HETATM    4  O4  UNL     1      40.516 273.610 162.100  1.00  0.00    -0.281 OA
HETATM    5  C13 UNL     1      41.488 271.501 161.412  1.00  0.00     0.253 A 
HETATM    6  O5  UNL     1      42.736 271.601 161.302  1.00  0.00    -0.281 OA
ENDROOT
BRANCH   1   7
HETATM    7  N3  UNL     1      40.429 269.171 160.851  1.00  0.00    -0.349 N 
ATOM      8  H3  UNL     1      39.950 268.534 161.488  1.00  0.00     0.166 HD
BRANCH   7   9
HETATM    9  C7  UNL     1      40.930 268.630 159.659  1.00  0.00     0.067 A 
HETATM   10  C6  UNL     1      40.311 267.970 158.634  1.00  0.00     0.141 A 
HETATM   11  N2  UNL     1      41.227 267.615 157.712  1.00  0.00    -0.298 N 
HETATM   12  N8  UNL     1      42.399 268.031 158.124  1.00  0.00    -0.308 N 
HETATM   13  C14 UNL     1      42.279 268.654 159.301  1.00  0.00     0.138 A 
ATOM     14  H8  UNL     1      43.276 267.899 157.620  1.00  0.00     0.186 HD
BRANCH  11  15
HETATM   15  C5  UNL     1      40.906 266.892 156.486  1.00  0.00     0.177 C 
BRANCH  15  16
HETATM   16  C4  UNL     1      39.528 267.202 156.111  1.00  0.00     0.027 C 
BRANCH  16  17
HETATM   17  C3  UNL     1      38.723 266.487 155.412  1.00  0.00     0.119 C 
HETATM   18  N1  UNL     1      37.389 266.274 155.971  1.00  0.00    -0.096 NA
BRANCH  17  19
HETATM   19  C2  UNL     1      39.004 265.882 154.139  1.00  0.00     0.306 C 
HETATM   20  O2  UNL     1      39.308 264.630 154.141  1.00  0.00    -0.258 OA
BRANCH  19  21
HETATM   21  O1  UNL     1      38.997 266.447 152.897  1.00  0.00    -0.322 OA
HETATM   22  C1  UNL     1      39.948 266.140 151.888  1.00  0.00     0.213 C 
ENDBRANCH  19  21
ENDBRANCH  17  19
ENDBRANCH  16  17
ENDBRANCH  15  16
ENDBRANCH  11  15
ENDBRANCH   7   9
ENDBRANCH   1   7
BRANCH   2  23
HETATM   23  N4  UNL     1      38.109 271.437 161.760  1.00  0.00    -0.184 N 
ATOM     24  H4  UNL     1      37.692 271.443 162.690  1.00  0.00     0.184 HD
BRANCH  23  25
HETATM   25  C10 UNL     1      37.369 271.435 160.719  1.00  0.00     0.701 A 
HETATM   26  N5  UNL     1      37.682 270.910 159.533  1.00  0.00    -0.128 N 
HETATM   27  N6  UNL     1      36.660 271.110 158.725  1.00  0.00    -0.237 N 
ATOM     28  H5  UNL     1      38.555 270.440 159.294  1.00  0.00     0.205 HD
HETATM   29  C11 UNL     1      35.682 271.761 159.375  1.00  0.00     0.353 A 
ATOM     30  H6  UNL     1      36.619 270.815 157.750  1.00  0.00     0.192 HD
HETATM   31  O3  UNL     1      34.586 272.092 158.872  1.00  0.00    -0.245 OA
HETATM   32  N7  UNL     1      36.142 271.957 160.624  1.00  0.00    -0.139 N 
ATOM     33  H7  UNL     1      35.637 272.427 161.375  1.00  0.00     0.189 HD
ENDBRANCH  23  25
ENDBRANCH   2  23
TORSDOF 9
ENDMDL
