MODEL 1
REMARK VINA RESULT: -7.843406700      0.000      0.000
REMARK  9 active torsions:
REMARK  status: ('A' for Active; 'I' for Inactive)
REMARK    1  A    between atoms: C2_2  and  N1_3 
REMARK    2  A    between atoms: C2_2  and  C8_22 
REMARK    3  A    between atoms: N1_3  and  C3_5 
REMARK    4  A    between atoms: C3_5  and  N2_7 
REMARK    5  A    between atoms: N2_7  and  N3_9 
REMARK       I    between atoms: N3_9  and  C4_11 
REMARK    6  A    between atoms: C4_11  and  C5_13 
REMARK    7  A    between atoms: C5_13  and  N4_14 
REMARK    8  A    between atoms: C5_13  and  C6_18 
REMARK    9  A    between atoms: C6_18  and  O3_20 
ROOT
HETATM    1  N2  UNL     1     -23.851  -1.344 -25.923  1.00  0.00    -0.273 N 
ATOM      2  H2  UNL     1     -23.199  -1.712 -26.616  1.00  0.00     0.189 HD
ENDROOT
BRANCH   1   3
HETATM    3  C3  UNL     1     -25.163  -1.879 -25.846  1.00  0.00     0.191 C 
HETATM    4  S1  UNL     1     -25.695  -2.506 -24.436  1.00  0.00    -0.039 SA
BRANCH   3   5
HETATM    5  N1  UNL     1     -26.020  -1.879 -26.974  1.00  0.00    -0.332 N 
ATOM      6  H1  UNL     1     -26.451  -2.736 -27.320  1.00  0.00     0.168 HD
BRANCH   5   7
HETATM    7  C2  UNL     1     -26.252  -0.601 -27.608  1.00  0.00     0.035 C 
HETATM    8  C1  UNL     1     -26.720   0.356 -26.836  1.00  0.00     0.044 C 
BRANCH   7   9
HETATM    9  C8  UNL     1     -25.968  -0.455 -29.021  1.00  0.00    -0.010 A 
HETATM   10  C9  UNL     1     -24.690  -0.337 -29.477  1.00  0.00     0.013 A 
HETATM   11  C10 UNL     1     -24.437  -0.197 -30.846  1.00  0.00     0.001 A 
HETATM   12  C11 UNL     1     -25.486  -0.176 -31.755  1.00  0.00     0.000 A 
HETATM   13  C12 UNL     1     -26.771  -0.296 -31.291  1.00  0.00     0.001 A 
HETATM   14  C13 UNL     1     -26.990  -0.433 -29.933  1.00  0.00     0.013 A 
ENDBRANCH   7   9
ENDBRANCH   5   7
ENDBRANCH   3   5
ENDBRANCH   1   3
BRANCH   1  15
HETATM   15  N3  UNL     1     -23.440  -0.330 -25.071  1.00  0.00    -0.266 N 
HETATM   16  C4  UNL     1     -22.631  -0.638 -23.956  1.00  0.00     0.276 C 
HETATM   17  O1  UNL     1     -22.272  -1.816 -23.716  1.00  0.00    -0.269 OA
ATOM     18  H3  UNL     1     -23.722   0.634 -25.249  1.00  0.00     0.190 HD
BRANCH  16  19
HETATM   19  C5  UNL     1     -22.203   0.458 -23.058  1.00  0.00     0.374 C 
BRANCH  19  20
HETATM   20  N4  UNL     1     -21.249   1.329 -23.695  1.00  0.00    -0.057 N 
ATOM     21  H43 UNL     1     -21.586   1.645 -24.605  1.00  0.00     0.275 HD
ATOM     22  H42 UNL     1     -21.197   2.231 -23.222  1.00  0.00     0.275 HD
ATOM     23  H41 UNL     1     -20.329   0.895 -23.770  1.00  0.00     0.275 HD
ENDBRANCH  19  20
BRANCH  19  24
HETATM   24  C6  UNL     1     -23.408   1.203 -22.599  1.00  0.00     0.298 C 
HETATM   25  O2  UNL     1     -24.505   0.595 -22.615  1.00  0.00    -0.262 OA
BRANCH  24  26
HETATM   26  O3  UNL     1     -23.384   2.497 -22.167  1.00  0.00    -0.324 OA
HETATM   27  C7  UNL     1     -24.441   3.143 -21.499  1.00  0.00     0.213 C 
ENDBRANCH  24  26
ENDBRANCH  19  24
ENDBRANCH  16  19
ENDBRANCH   1  15
TORSDOF 9
ENDMDL
MODEL 2
REMARK VINA RESULT: -7.831107560      0.028      1.031
REMARK  9 active torsions:
REMARK  status: ('A' for Active; 'I' for Inactive)
REMARK    1  A    between atoms: C2_2  and  N1_3 
REMARK    2  A    between atoms: C2_2  and  C8_22 
REMARK    3  A    between atoms: N1_3  and  C3_5 
REMARK    4  A    between atoms: C3_5  and  N2_7 
REMARK    5  A    between atoms: N2_7  and  N3_9 
REMARK       I    between atoms: N3_9  and  C4_11 
REMARK    6  A    between atoms: C4_11  and  C5_13 
REMARK    7  A    between atoms: C5_13  and  N4_14 
REMARK    8  A    between atoms: C5_13  and  C6_18 
REMARK    9  A    between atoms: C6_18  and  O3_20 
ROOT
HETATM    1  N2  UNL     1     -23.848  -1.343 -25.929  1.00  0.00    -0.273 N 
ATOM      2  H2  UNL     1     -23.196  -1.709 -26.622  1.00  0.00     0.189 HD
ENDROOT
BRANCH   1   3
HETATM    3  C3  UNL     1     -25.160  -1.880 -25.854  1.00  0.00     0.191 C 
HETATM    4  S1  UNL     1     -25.699  -2.491 -24.439  1.00  0.00    -0.039 SA
BRANCH   3   5
HETATM    5  N1  UNL     1     -26.009  -1.896 -26.987  1.00  0.00    -0.332 N 
ATOM      6  H1  UNL     1     -26.420  -2.761 -27.337  1.00  0.00     0.168 HD
BRANCH   5   7
HETATM    7  C2  UNL     1     -26.265  -0.622 -27.620  1.00  0.00     0.035 C 
HETATM    8  C1  UNL     1     -26.728   0.333 -26.841  1.00  0.00     0.044 C 
BRANCH   7   9
HETATM    9  C8  UNL     1     -26.007  -0.476 -29.037  1.00  0.00    -0.010 A 
HETATM   10  C9  UNL     1     -27.023  -0.462 -29.944  1.00  0.00     0.013 A 
HETATM   11  C10 UNL     1     -26.752  -0.320 -31.309  1.00  0.00     0.001 A 
HETATM   12  C11 UNL     1     -25.444  -0.192 -31.755  1.00  0.00     0.000 A 
HETATM   13  C12 UNL     1     -24.424  -0.206 -30.839  1.00  0.00     0.001 A 
HETATM   14  C13 UNL     1     -24.723  -0.348 -29.497  1.00  0.00     0.013 A 
ENDBRANCH   7   9
ENDBRANCH   5   7
ENDBRANCH   3   5
ENDBRANCH   1   3
BRANCH   1  15
HETATM   15  N3  UNL     1     -23.440  -0.330 -25.075  1.00  0.00    -0.266 N 
HETATM   16  C4  UNL     1     -22.633  -0.640 -23.958  1.00  0.00     0.276 C 
HETATM   17  O1  UNL     1     -22.276  -1.818 -23.719  1.00  0.00    -0.269 OA
ATOM     18  H3  UNL     1     -23.720   0.634 -25.253  1.00  0.00     0.190 HD
BRANCH  16  19
HETATM   19  C5  UNL     1     -22.207   0.455 -23.058  1.00  0.00     0.374 C 
BRANCH  19  20
HETATM   20  N4  UNL     1     -21.266   1.338 -23.698  1.00  0.00    -0.057 N 
ATOM     21  H43 UNL     1     -20.516   0.815 -24.150  1.00  0.00     0.275 HD
ATOM     22  H42 UNL     1     -21.673   1.780 -24.522  1.00  0.00     0.275 HD
ATOM     23  H41 UNL     1     -20.896   2.032 -23.048  1.00  0.00     0.275 HD
ENDBRANCH  19  20
BRANCH  19  24
HETATM   24  C6  UNL     1     -23.414   1.187 -22.585  1.00  0.00     0.298 C 
HETATM   25  O2  UNL     1     -24.506   0.570 -22.594  1.00  0.00    -0.262 OA
BRANCH  24  26
HETATM   26  O3  UNL     1     -23.398   2.480 -22.148  1.00  0.00    -0.324 OA
HETATM   27  C7  UNL     1     -24.453   3.112 -21.464  1.00  0.00     0.213 C 
ENDBRANCH  24  26
ENDBRANCH  19  24
ENDBRANCH  16  19
ENDBRANCH   1  15
TORSDOF 9
ENDMDL
MODEL 3
REMARK VINA RESULT: -7.757761886      1.277      1.630
REMARK  9 active torsions:
REMARK  status: ('A' for Active; 'I' for Inactive)
REMARK    1  A    between atoms: C2_2  and  N1_3 
REMARK    2  A    between atoms: C2_2  and  C8_22 
REMARK    3  A    between atoms: N1_3  and  C3_5 
REMARK    4  A    between atoms: C3_5  and  N2_7 
REMARK    5  A    between atoms: N2_7  and  N3_9 
REMARK       I    between atoms: N3_9  and  C4_11 
REMARK    6  A    between atoms: C4_11  and  C5_13 
REMARK    7  A    between atoms: C5_13  and  N4_14 
REMARK    8  A    between atoms: C5_13  and  C6_18 
REMARK    9  A    between atoms: C6_18  and  O3_20 
ROOT
HETATM    1  N2  UNL     1     -24.382  -0.739 -26.160  1.00  0.00    -0.273 N 
ATOM      2  H2  UNL     1     -24.334  -0.004 -26.866  1.00  0.00     0.189 HD
ENDROOT
BRANCH   1   3
HETATM    3  C3  UNL     1     -25.399  -1.726 -26.248  1.00  0.00     0.191 C 
HETATM    4  S1  UNL     1     -25.327  -3.043 -25.287  1.00  0.00    -0.039 SA
BRANCH   3   5
HETATM    5  N1  UNL     1     -26.475  -1.587 -27.158  1.00  0.00    -0.332 N 
ATOM      6  H1  UNL     1     -27.166  -2.326 -27.287  1.00  0.00     0.168 HD
BRANCH   5   7
HETATM    7  C2  UNL     1     -26.544  -0.344 -27.892  1.00  0.00     0.035 C 
HETATM    8  C1  UNL     1     -27.014   0.695 -27.235  1.00  0.00     0.044 C 
BRANCH   7   9
HETATM    9  C8  UNL     1     -26.108  -0.317 -29.272  1.00  0.00    -0.010 A 
HETATM   10  C9  UNL     1     -24.788  -0.228 -29.597  1.00  0.00     0.013 A 
HETATM   11  C10 UNL     1     -24.389  -0.204 -30.938  1.00  0.00     0.001 A 
HETATM   12  C11 UNL     1     -25.333  -0.270 -31.953  1.00  0.00     0.000 A 
HETATM   13  C12 UNL     1     -26.661  -0.360 -31.621  1.00  0.00     0.001 A 
HETATM   14  C13 UNL     1     -27.026  -0.382 -30.288  1.00  0.00     0.013 A 
ENDBRANCH   7   9
ENDBRANCH   5   7
ENDBRANCH   3   5
ENDBRANCH   1   3
BRANCH   1  15
HETATM   15  N3  UNL     1     -23.455  -0.757 -25.129  1.00  0.00    -0.266 N 
HETATM   16  C4  UNL     1     -23.748  -0.102 -23.912  1.00  0.00     0.276 C 
HETATM   17  O1  UNL     1     -24.836   0.499 -23.742  1.00  0.00    -0.269 OA
ATOM     18  H3  UNL     1     -22.565  -1.240 -25.249  1.00  0.00     0.190 HD
BRANCH  16  19
HETATM   19  C5  UNL     1     -22.746  -0.133 -22.824  1.00  0.00     0.374 C 
BRANCH  19  20
HETATM   20  N4  UNL     1     -22.277  -1.470 -22.566  1.00  0.00    -0.057 N 
ATOM     21  H43 UNL     1     -21.474  -1.466 -21.937  1.00  0.00     0.275 HD
ATOM     22  H42 UNL     1     -22.935  -1.988 -21.982  1.00  0.00     0.275 HD
ATOM     23  H41 UNL     1     -22.071  -1.972 -23.429  1.00  0.00     0.275 HD
ENDBRANCH  19  20
BRANCH  19  24
HETATM   24  C6  UNL     1     -21.626   0.784 -23.175  1.00  0.00     0.298 C 
HETATM   25  O2  UNL     1     -20.607   0.278 -23.701  1.00  0.00    -0.262 OA
BRANCH  24  26
HETATM   26  O3  UNL     1     -21.648   2.131 -22.957  1.00  0.00    -0.324 OA
HETATM   27  C7  UNL     1     -22.693   2.827 -22.323  1.00  0.00     0.213 C 
ENDBRANCH  24  26
ENDBRANCH  19  24
ENDBRANCH  16  19
ENDBRANCH   1  15
TORSDOF 9
ENDMDL
MODEL 4
REMARK VINA RESULT: -7.596469175      0.942      1.188
REMARK  9 active torsions:
REMARK  status: ('A' for Active; 'I' for Inactive)
REMARK    1  A    between atoms: C2_2  and  N1_3 
REMARK    2  A    between atoms: C2_2  and  C8_22 
REMARK    3  A    between atoms: N1_3  and  C3_5 
REMARK    4  A    between atoms: C3_5  and  N2_7 
REMARK    5  A    between atoms: N2_7  and  N3_9 
REMARK       I    between atoms: N3_9  and  C4_11 
REMARK    6  A    between atoms: C4_11  and  C5_13 
REMARK    7  A    between atoms: C5_13  and  N4_14 
REMARK    8  A    between atoms: C5_13  and  C6_18 
REMARK    9  A    between atoms: C6_18  and  O3_20 
ROOT
HETATM    1  N2  UNL     1     -25.029  -0.756 -24.327  1.00  0.00    -0.273 N 
ATOM      2  H2  UNL     1     -25.785  -1.036 -23.702  1.00  0.00     0.189 HD
ENDROOT
BRANCH   1   3
HETATM    3  C3  UNL     1     -24.944  -1.334 -25.621  1.00  0.00     0.191 C 
HETATM    4  S1  UNL     1     -25.122  -2.947 -25.794  1.00  0.00    -0.039 SA
BRANCH   3   5
HETATM    5  N1  UNL     1     -24.708  -0.534 -26.765  1.00  0.00    -0.332 N 
ATOM      6  H1  UNL     1     -23.768  -0.237 -27.026  1.00  0.00     0.168 HD
BRANCH   5   7
HETATM    7  C2  UNL     1     -25.867  -0.162 -27.544  1.00  0.00     0.035 C 
HETATM    8  C1  UNL     1     -26.921   0.239 -26.864  1.00  0.00     0.044 C 
BRANCH   7   9
HETATM    9  C8  UNL     1     -25.804  -0.254 -28.988  1.00  0.00    -0.010 A 
HETATM   10  C9  UNL     1     -24.613  -0.222 -29.648  1.00  0.00     0.013 A 
HETATM   11  C10 UNL     1     -24.575  -0.312 -31.044  1.00  0.00     0.001 A 
HETATM   12  C11 UNL     1     -25.750  -0.435 -31.772  1.00  0.00     0.000 A 
HETATM   13  C12 UNL     1     -26.947  -0.468 -31.102  1.00  0.00     0.001 A 
HETATM   14  C13 UNL     1     -26.954  -0.376 -29.723  1.00  0.00     0.013 A 
ENDBRANCH   7   9
ENDBRANCH   5   7
ENDBRANCH   3   5
ENDBRANCH   1   3
BRANCH   1  15
HETATM   15  N3  UNL     1     -24.103   0.184 -23.901  1.00  0.00    -0.266 N 
HETATM   16  C4  UNL     1     -22.957  -0.236 -23.190  1.00  0.00     0.276 C 
HETATM   17  O1  UNL     1     -22.757  -1.448 -22.935  1.00  0.00    -0.269 OA
ATOM     18  H3  UNL     1     -24.249   1.174 -24.099  1.00  0.00     0.190 HD
BRANCH  16  19
HETATM   19  C5  UNL     1     -21.980   0.781 -22.744  1.00  0.00     0.374 C 
BRANCH  19  20
HETATM   20  N4  UNL     1     -20.982   1.042 -23.749  1.00  0.00    -0.057 N 
ATOM     21  H43 UNL     1     -20.053   0.765 -23.430  1.00  0.00     0.275 HD
ATOM     22  H42 UNL     1     -21.075   0.404 -24.539  1.00  0.00     0.275 HD
ATOM     23  H41 UNL     1     -20.996   2.015 -24.053  1.00  0.00     0.275 HD
ENDBRANCH  19  20
BRANCH  19  24
HETATM   24  C6  UNL     1     -22.714   2.020 -22.363  1.00  0.00     0.298 C 
HETATM   25  O2  UNL     1     -22.152   3.118 -22.591  1.00  0.00    -0.262 OA
BRANCH  24  26
HETATM   26  O3  UNL     1     -23.951   2.026 -21.786  1.00  0.00    -0.324 OA
HETATM   27  C7  UNL     1     -24.639   3.180 -21.370  1.00  0.00     0.213 C 
ENDBRANCH  24  26
ENDBRANCH  19  24
ENDBRANCH  16  19
ENDBRANCH   1  15
TORSDOF 9
ENDMDL
MODEL 5
REMARK VINA RESULT: -7.591028901      0.948      1.570
REMARK  9 active torsions:
REMARK  status: ('A' for Active; 'I' for Inactive)
REMARK    1  A    between atoms: C2_2  and  N1_3 
REMARK    2  A    between atoms: C2_2  and  C8_22 
REMARK    3  A    between atoms: N1_3  and  C3_5 
REMARK    4  A    between atoms: C3_5  and  N2_7 
REMARK    5  A    between atoms: N2_7  and  N3_9 
REMARK       I    between atoms: N3_9  and  C4_11 
REMARK    6  A    between atoms: C4_11  and  C5_13 
REMARK    7  A    between atoms: C5_13  and  N4_14 
REMARK    8  A    between atoms: C5_13  and  C6_18 
REMARK    9  A    between atoms: C6_18  and  O3_20 
ROOT
HETATM    1  N2  UNL     1     -25.030  -0.727 -24.354  1.00  0.00    -0.273 N 
ATOM      2  H2  UNL     1     -25.789  -1.015 -23.737  1.00  0.00     0.189 HD
ENDROOT
BRANCH   1   3
HETATM    3  C3  UNL     1     -24.930  -1.299 -25.650  1.00  0.00     0.191 C 
HETATM    4  S1  UNL     1     -25.069  -2.916 -25.828  1.00  0.00    -0.039 SA
BRANCH   3   5
HETATM    5  N1  UNL     1     -24.711  -0.491 -26.791  1.00  0.00    -0.332 N 
ATOM      6  H1  UNL     1     -23.776  -0.179 -27.056  1.00  0.00     0.168 HD
BRANCH   5   7
HETATM    7  C2  UNL     1     -25.879  -0.131 -27.562  1.00  0.00     0.035 C 
HETATM    8  C1  UNL     1     -26.930   0.267 -26.875  1.00  0.00     0.044 C 
BRANCH   7   9
HETATM    9  C8  UNL     1     -25.828  -0.231 -29.005  1.00  0.00    -0.010 A 
HETATM   10  C9  UNL     1     -26.962  -0.381 -29.745  1.00  0.00     0.013 A 
HETATM   11  C10 UNL     1     -26.891  -0.476 -31.139  1.00  0.00     0.001 A 
HETATM   12  C11 UNL     1     -25.664  -0.418 -31.785  1.00  0.00     0.000 A 
HETATM   13  C12 UNL     1     -24.525  -0.267 -31.036  1.00  0.00     0.001 A 
HETATM   14  C13 UNL     1     -24.626  -0.177 -29.661  1.00  0.00     0.013 A 
ENDBRANCH   7   9
ENDBRANCH   5   7
ENDBRANCH   3   5
ENDBRANCH   1   3
BRANCH   1  15
HETATM   15  N3  UNL     1     -24.113   0.216 -23.916  1.00  0.00    -0.266 N 
HETATM   16  C4  UNL     1     -22.957  -0.203 -23.221  1.00  0.00     0.276 C 
HETATM   17  O1  UNL     1     -22.739  -1.417 -22.991  1.00  0.00    -0.269 OA
ATOM     18  H3  UNL     1     -24.273   1.207 -24.094  1.00  0.00     0.190 HD
BRANCH  16  19
HETATM   19  C5  UNL     1     -21.989   0.818 -22.761  1.00  0.00     0.374 C 
BRANCH  19  20
HETATM   20  N4  UNL     1     -20.987   1.093 -23.758  1.00  0.00    -0.057 N 
ATOM     21  H43 UNL     1     -20.157   0.517 -23.619  1.00  0.00     0.275 HD
ATOM     22  H42 UNL     1     -21.270   0.747 -24.675  1.00  0.00     0.275 HD
ATOM     23  H41 UNL     1     -20.749   2.085 -23.792  1.00  0.00     0.275 HD
ENDBRANCH  19  20
BRANCH  19  24
HETATM   24  C6  UNL     1     -22.735   2.049 -22.376  1.00  0.00     0.298 C 
HETATM   25  O2  UNL     1     -22.186   3.153 -22.607  1.00  0.00    -0.262 OA
BRANCH  24  26
HETATM   26  O3  UNL     1     -23.968   2.041 -21.792  1.00  0.00    -0.324 OA
HETATM   27  C7  UNL     1     -24.642   3.182 -21.320  1.00  0.00     0.213 C 
ENDBRANCH  24  26
ENDBRANCH  19  24
ENDBRANCH  16  19
ENDBRANCH   1  15
TORSDOF 9
ENDMDL
