MODEL 1
REMARK VINA RESULT: -7.679250687      0.000      0.000
REMARK  6 active torsions:
REMARK  status: ('A' for Active; 'I' for Inactive)
REMARK    1  A    between atoms: C2_2  and  C3_3 
REMARK    2  A    between atoms: C3_3  and  N1_4 
REMARK    3  A    between atoms: C7_8  and  C8_9 
REMARK       I    between atoms: C8_9  and  N2_11 
REMARK    4  A    between atoms: N2_11  and  N3_13 
REMARK       I    between atoms: N3_13  and  C9_15 
REMARK    5  A    between atoms: C9_15  and  C10_17 
REMARK       I    between atoms: C10_17  and  N4_19 
REMARK    6  A    between atoms: N4_19  and  N5_21 
ROOT
HETATM    1  C8  UNL     1     -24.835  -1.160 -26.632  1.00  0.00     0.269 C 
HETATM    2  O1  UNL     1     -24.202  -0.106 -26.849  1.00  0.00    -0.269 OA
HETATM    3  N2  UNL     1     -25.285  -1.913 -27.744  1.00  0.00    -0.265 N 
ATOM      4  H2  UNL     1     -25.804  -2.775 -27.577  1.00  0.00     0.190 HD
ENDROOT
BRANCH   1   5
HETATM    5  C7  UNL     1     -25.137  -1.660 -25.265  1.00  0.00     0.315 C 
HETATM    6  N1  UNL     1     -23.961  -1.629 -24.419  1.00  0.00     0.102 N 
HETATM    7  C4  UNL     1     -23.349  -2.900 -24.490  1.00  0.00     0.273 C 
HETATM    8  C5  UNL     1     -24.539  -3.878 -24.569  1.00  0.00     0.033 C 
HETATM    9  C6  UNL     1     -25.513  -3.110 -25.408  1.00  0.00     0.047 C 
BRANCH   6  10
HETATM   10  C3  UNL     1     -24.158  -1.027 -23.168  1.00  0.00     0.282 C 
BRANCH  10  11
HETATM   11  C2  UNL     1     -23.543   0.323 -23.078  1.00  0.00    -0.018 C 
HETATM   12  C1  UNL     1     -24.510   1.351 -22.536  1.00  0.00     0.017 C 
HETATM   13  C11 UNL     1     -22.280   0.343 -22.169  1.00  0.00     0.011 C 
HETATM   14  C12 UNL     1     -21.760   1.425 -23.092  1.00  0.00     0.002 C 
HETATM   15  C13 UNL     1     -22.623   0.777 -24.165  1.00  0.00     0.011 C 
ENDBRANCH  10  11
ENDBRANCH   6  10
ENDBRANCH   1   5
BRANCH   3  16
HETATM   16  N3  UNL     1     -25.044  -1.518 -29.059  1.00  0.00    -0.259 N 
HETATM   17  C9  UNL     1     -25.914  -0.668 -29.787  1.00  0.00     0.329 C 
HETATM   18  O2  UNL     1     -26.951  -0.227 -29.270  1.00  0.00    -0.261 OA
ATOM     19  H3  UNL     1     -24.201  -1.857 -29.521  1.00  0.00     0.190 HD
BRANCH  17  20
HETATM   20  C10 UNL     1     -25.606  -0.297 -31.158  1.00  0.00     0.329 C 
HETATM   21  O3  UNL     1     -24.444   0.134 -31.425  1.00  0.00    -0.261 OA
HETATM   22  N4  UNL     1     -26.541  -0.391 -32.209  1.00  0.00    -0.268 N 
ATOM     23  H4  UNL     1     -27.482  -0.733 -32.016  1.00  0.00     0.190 HD
BRANCH  22  24
HETATM   24  N5  UNL     1     -26.197  -0.021 -33.507  1.00  0.00    -0.342 N 
ATOM     25  H52 UNL     1     -25.681   0.848 -33.647  1.00  0.00     0.176 HD
ATOM     26  H51 UNL     1     -26.453  -0.606 -34.303  1.00  0.00     0.176 HD
ENDBRANCH  22  24
ENDBRANCH  17  20
ENDBRANCH   3  16
TORSDOF 6
ENDMDL
MODEL 2
REMARK VINA RESULT: -7.185686407      3.754      6.824
REMARK  6 active torsions:
REMARK  status: ('A' for Active; 'I' for Inactive)
REMARK    1  A    between atoms: C2_2  and  C3_3 
REMARK    2  A    between atoms: C3_3  and  N1_4 
REMARK    3  A    between atoms: C7_8  and  C8_9 
REMARK       I    between atoms: C8_9  and  N2_11 
REMARK    4  A    between atoms: N2_11  and  N3_13 
REMARK       I    between atoms: N3_13  and  C9_15 
REMARK    5  A    between atoms: C9_15  and  C10_17 
REMARK       I    between atoms: C10_17  and  N4_19 
REMARK    6  A    between atoms: N4_19  and  N5_21 
ROOT
HETATM    1  C8  UNL     1     -22.992  -1.133 -24.312  1.00  0.00     0.269 C 
HETATM    2  O1  UNL     1     -21.916  -1.154 -23.679  1.00  0.00    -0.269 OA
HETATM    3  N2  UNL     1     -23.835  -0.005 -24.165  1.00  0.00    -0.265 N 
ATOM      4  H2  UNL     1     -24.717   0.021 -24.677  1.00  0.00     0.190 HD
ENDROOT
BRANCH   1   5
HETATM    5  C7  UNL     1     -23.428  -2.234 -25.211  1.00  0.00     0.315 C 
HETATM    6  N1  UNL     1     -24.756  -1.992 -25.736  1.00  0.00     0.102 N 
HETATM    7  C4  UNL     1     -25.678  -2.642 -24.887  1.00  0.00     0.273 C 
HETATM    8  C5  UNL     1     -24.951  -3.939 -24.477  1.00  0.00     0.033 C 
HETATM    9  C6  UNL     1     -23.533  -3.471 -24.361  1.00  0.00     0.047 C 
BRANCH   6  10
HETATM   10  C3  UNL     1     -24.872  -2.146 -27.126  1.00  0.00     0.282 C 
BRANCH  10  11
HETATM   11  C2  UNL     1     -25.477  -0.961 -27.786  1.00  0.00    -0.018 C 
HETATM   12  C1  UNL     1     -24.628   0.279 -27.615  1.00  0.00     0.017 C 
HETATM   13  C11 UNL     1     -25.691  -1.173 -29.313  1.00  0.00     0.011 C 
HETATM   14  C12 UNL     1     -26.902  -0.276 -29.163  1.00  0.00     0.002 C 
HETATM   15  C13 UNL     1     -26.958  -0.770 -27.724  1.00  0.00     0.011 C 
ENDBRANCH  10  11
ENDBRANCH   6  10
ENDBRANCH   1   5
BRANCH   3  16
HETATM   16  N3  UNL     1     -23.504   1.072 -23.344  1.00  0.00    -0.259 N 
HETATM   17  C9  UNL     1     -24.469   1.922 -22.749  1.00  0.00     0.329 C 
HETATM   18  O2  UNL     1     -25.681   1.737 -22.937  1.00  0.00    -0.261 OA
ATOM     19  H3  UNL     1     -22.518   1.259 -23.163  1.00  0.00     0.190 HD
BRANCH  17  20
HETATM   20  C10 UNL     1     -24.056   3.031 -21.905  1.00  0.00     0.329 C 
HETATM   21  O3  UNL     1     -24.635   3.195 -20.790  1.00  0.00    -0.261 OA
HETATM   22  N4  UNL     1     -23.039   3.937 -22.269  1.00  0.00    -0.268 N 
ATOM     23  H4  UNL     1     -22.561   3.824 -23.162  1.00  0.00     0.190 HD
BRANCH  22  24
HETATM   24  N5  UNL     1     -22.680   4.985 -21.424  1.00  0.00    -0.342 N 
ATOM     25  H52 UNL     1     -22.590   4.798 -20.426  1.00  0.00     0.176 HD
ATOM     26  H51 UNL     1     -22.509   5.921 -21.794  1.00  0.00     0.176 HD
ENDBRANCH  22  24
ENDBRANCH  17  20
ENDBRANCH   3  16
TORSDOF 6
ENDMDL
MODEL 3
REMARK VINA RESULT: -7.019928252      0.615      1.039
REMARK  6 active torsions:
REMARK  status: ('A' for Active; 'I' for Inactive)
REMARK    1  A    between atoms: C2_2  and  C3_3 
REMARK    2  A    between atoms: C3_3  and  N1_4 
REMARK    3  A    between atoms: C7_8  and  C8_9 
REMARK       I    between atoms: C8_9  and  N2_11 
REMARK    4  A    between atoms: N2_11  and  N3_13 
REMARK       I    between atoms: N3_13  and  C9_15 
REMARK    5  A    between atoms: C9_15  and  C10_17 
REMARK       I    between atoms: C10_17  and  N4_19 
REMARK    6  A    between atoms: N4_19  and  N5_21 
ROOT
HETATM    1  C8  UNL     1     -24.845  -0.769 -26.985  1.00  0.00     0.269 C 
HETATM    2  O1  UNL     1     -24.190   0.261 -27.246  1.00  0.00    -0.269 OA
HETATM    3  N2  UNL     1     -25.280  -1.578 -28.063  1.00  0.00    -0.265 N 
ATOM      4  H2  UNL     1     -25.818  -2.421 -27.860  1.00  0.00     0.190 HD
ENDROOT
BRANCH   1   5
HETATM    5  C7  UNL     1     -25.190  -1.184 -25.600  1.00  0.00     0.315 C 
HETATM    6  N1  UNL     1     -24.059  -1.038 -24.707  1.00  0.00     0.102 N 
HETATM    7  C4  UNL     1     -23.389  -2.280 -24.657  1.00  0.00     0.273 C 
HETATM    8  C5  UNL     1     -24.530  -3.317 -24.717  1.00  0.00     0.033 C 
HETATM    9  C6  UNL     1     -25.495  -2.657 -25.653  1.00  0.00     0.047 C 
BRANCH   6  10
HETATM   10  C3  UNL     1     -24.341  -0.358 -23.513  1.00  0.00     0.282 C 
BRANCH  10  11
HETATM   11  C2  UNL     1     -23.163   0.367 -22.974  1.00  0.00    -0.018 C 
HETATM   12  C1  UNL     1     -22.264  -0.537 -22.161  1.00  0.00     0.017 C 
HETATM   13  C11 UNL     1     -22.292   1.007 -24.095  1.00  0.00     0.011 C 
HETATM   14  C12 UNL     1     -21.983   2.096 -23.090  1.00  0.00     0.002 C 
HETATM   15  C13 UNL     1     -23.334   1.765 -22.473  1.00  0.00     0.011 C 
ENDBRANCH  10  11
ENDBRANCH   6  10
ENDBRANCH   1   5
BRANCH   3  16
HETATM   16  N3  UNL     1     -25.000  -1.264 -29.392  1.00  0.00    -0.259 N 
HETATM   17  C9  UNL     1     -25.905  -0.571 -30.235  1.00  0.00     0.329 C 
HETATM   18  O2  UNL     1     -27.012  -0.204 -29.813  1.00  0.00    -0.261 OA
ATOM     19  H3  UNL     1     -24.099  -1.546 -29.778  1.00  0.00     0.190 HD
BRANCH  17  20
HETATM   20  C10 UNL     1     -25.552  -0.277 -31.613  1.00  0.00     0.329 C 
HETATM   21  O3  UNL     1     -24.380   0.135 -31.867  1.00  0.00    -0.261 OA
HETATM   22  N4  UNL     1     -26.454  -0.426 -32.687  1.00  0.00    -0.268 N 
ATOM     23  H4  UNL     1     -27.402  -0.754 -32.505  1.00  0.00     0.190 HD
BRANCH  22  24
HETATM   24  N5  UNL     1     -26.067  -0.130 -33.992  1.00  0.00    -0.342 N 
ATOM     25  H52 UNL     1     -25.127  -0.389 -34.293  1.00  0.00     0.176 HD
ATOM     26  H51 UNL     1     -26.707   0.336 -34.635  1.00  0.00     0.176 HD
ENDBRANCH  22  24
ENDBRANCH  17  20
ENDBRANCH   3  16
TORSDOF 6
ENDMDL
MODEL 4
REMARK VINA RESULT: -6.928668501      0.451      1.081
REMARK  6 active torsions:
REMARK  status: ('A' for Active; 'I' for Inactive)
REMARK    1  A    between atoms: C2_2  and  C3_3 
REMARK    2  A    between atoms: C3_3  and  N1_4 
REMARK    3  A    between atoms: C7_8  and  C8_9 
REMARK       I    between atoms: C8_9  and  N2_11 
REMARK    4  A    between atoms: N2_11  and  N3_13 
REMARK       I    between atoms: N3_13  and  C9_15 
REMARK    5  A    between atoms: C9_15  and  C10_17 
REMARK       I    between atoms: C10_17  and  N4_19 
REMARK    6  A    between atoms: N4_19  and  N5_21 
ROOT
HETATM    1  C8  UNL     1     -24.737  -1.079 -26.510  1.00  0.00     0.269 C 
HETATM    2  O1  UNL     1     -24.161   0.002 -26.751  1.00  0.00    -0.269 OA
HETATM    3  N2  UNL     1     -25.166  -1.868 -27.606  1.00  0.00    -0.265 N 
ATOM      4  H2  UNL     1     -25.638  -2.753 -27.420  1.00  0.00     0.190 HD
ENDROOT
BRANCH   1   5
HETATM    5  C7  UNL     1     -24.992  -1.575 -25.133  1.00  0.00     0.315 C 
HETATM    6  N1  UNL     1     -23.765  -1.669 -24.369  1.00  0.00     0.102 N 
HETATM    7  C4  UNL     1     -23.280  -2.989 -24.498  1.00  0.00     0.273 C 
HETATM    8  C5  UNL     1     -24.558  -3.853 -24.508  1.00  0.00     0.033 C 
HETATM    9  C6  UNL     1     -25.510  -2.982 -25.269  1.00  0.00     0.047 C 
BRANCH   6  10
HETATM   10  C3  UNL     1     -23.821  -1.076 -23.099  1.00  0.00     0.282 C 
BRANCH  10  11
HETATM   11  C2  UNL     1     -23.217   0.281 -23.074  1.00  0.00    -0.018 C 
HETATM   12  C1  UNL     1     -22.311   0.521 -24.260  1.00  0.00     0.017 C 
HETATM   13  C11 UNL     1     -24.288   1.410 -23.068  1.00  0.00     0.011 C 
HETATM   14  C12 UNL     1     -23.297   2.204 -22.243  1.00  0.00     0.002 C 
HETATM   15  C13 UNL     1     -22.774   0.856 -21.767  1.00  0.00     0.011 C 
ENDBRANCH  10  11
ENDBRANCH   6  10
ENDBRANCH   1   5
BRANCH   3  16
HETATM   16  N3  UNL     1     -24.966  -1.479 -28.930  1.00  0.00    -0.259 N 
HETATM   17  C9  UNL     1     -25.880  -0.668 -29.648  1.00  0.00     0.329 C 
HETATM   18  O2  UNL     1     -26.922  -0.260 -29.115  1.00  0.00    -0.261 OA
ATOM     19  H3  UNL     1     -24.120  -1.793 -29.405  1.00  0.00     0.190 HD
BRANCH  17  20
HETATM   20  C10 UNL     1     -25.612  -0.301 -31.029  1.00  0.00     0.329 C 
HETATM   21  O3  UNL     1     -24.465   0.149 -31.327  1.00  0.00    -0.261 OA
HETATM   22  N4  UNL     1     -26.572  -0.418 -32.055  1.00  0.00    -0.268 N 
ATOM     23  H4  UNL     1     -27.501  -0.776 -31.837  1.00  0.00     0.190 HD
BRANCH  22  24
HETATM   24  N5  UNL     1     -26.266  -0.052 -33.364  1.00  0.00    -0.342 N 
ATOM     25  H52 UNL     1     -25.953   0.902 -33.544  1.00  0.00     0.176 HD
ATOM     26  H51 UNL     1     -26.352  -0.721 -34.129  1.00  0.00     0.176 HD
ENDBRANCH  22  24
ENDBRANCH  17  20
ENDBRANCH   3  16
TORSDOF 6
ENDMDL
MODEL 5
REMARK VINA RESULT: -6.787183982      3.939      6.658
REMARK  6 active torsions:
REMARK  status: ('A' for Active; 'I' for Inactive)
REMARK    1  A    between atoms: C2_2  and  C3_3 
REMARK    2  A    between atoms: C3_3  and  N1_4 
REMARK    3  A    between atoms: C7_8  and  C8_9 
REMARK       I    between atoms: C8_9  and  N2_11 
REMARK    4  A    between atoms: N2_11  and  N3_13 
REMARK       I    between atoms: N3_13  and  C9_15 
REMARK    5  A    between atoms: C9_15  and  C10_17 
REMARK       I    between atoms: C10_17  and  N4_19 
REMARK    6  A    between atoms: N4_19  and  N5_21 
ROOT
HETATM    1  C8  UNL     1     -22.784  -0.940 -24.176  1.00  0.00     0.269 C 
HETATM    2  O1  UNL     1     -21.612  -0.766 -23.780  1.00  0.00    -0.269 OA
HETATM    3  N2  UNL     1     -23.720   0.104 -23.978  1.00  0.00    -0.265 N 
ATOM      4  H2  UNL     1     -24.680  -0.028 -24.297  1.00  0.00     0.190 HD
ENDROOT
BRANCH   1   5
HETATM    5  C7  UNL     1     -23.240  -2.188 -24.841  1.00  0.00     0.315 C 
HETATM    6  N1  UNL     1     -24.626  -2.090 -25.252  1.00  0.00     0.102 N 
HETATM    7  C4  UNL     1     -25.419  -2.635 -24.219  1.00  0.00     0.273 C 
HETATM    8  C5  UNL     1     -24.579  -3.818 -23.694  1.00  0.00     0.033 C 
HETATM    9  C6  UNL     1     -23.187  -3.277 -23.804  1.00  0.00     0.047 C 
BRANCH   6  10
HETATM   10  C3  UNL     1     -24.870  -2.469 -26.581  1.00  0.00     0.282 C 
BRANCH  10  11
HETATM   11  C2  UNL     1     -25.432  -1.363 -27.398  1.00  0.00    -0.018 C 
HETATM   12  C1  UNL     1     -26.814  -0.962 -26.935  1.00  0.00     0.017 C 
HETATM   13  C11 UNL     1     -24.541  -0.087 -27.369  1.00  0.00     0.011 C 
HETATM   14  C12 UNL     1     -25.023   0.156 -28.783  1.00  0.00     0.002 C 
HETATM   15  C13 UNL     1     -25.192  -1.354 -28.874  1.00  0.00     0.011 C 
ENDBRANCH  10  11
ENDBRANCH   6  10
ENDBRANCH   1   5
BRANCH   3  16
HETATM   16  N3  UNL     1     -23.376   1.308 -23.364  1.00  0.00    -0.259 N 
HETATM   17  C9  UNL     1     -24.296   2.094 -22.626  1.00  0.00     0.329 C 
HETATM   18  O2  UNL     1     -25.475   1.734 -22.491  1.00  0.00    -0.261 OA
ATOM     19  H3  UNL     1     -22.416   1.640 -23.450  1.00  0.00     0.190 HD
BRANCH  17  20
HETATM   20  C10 UNL     1     -23.874   3.342 -22.013  1.00  0.00     0.329 C 
HETATM   21  O3  UNL     1     -24.509   3.769 -21.002  1.00  0.00    -0.261 OA
HETATM   22  N4  UNL     1     -22.789   4.106 -22.490  1.00  0.00    -0.268 N 
ATOM     23  H4  UNL     1     -22.265   3.782 -23.303  1.00  0.00     0.190 HD
BRANCH  22  24
HETATM   24  N5  UNL     1     -22.424   5.297 -21.866  1.00  0.00    -0.342 N 
ATOM     25  H52 UNL     1     -22.170   5.273 -20.879  1.00  0.00     0.176 HD
ATOM     26  H51 UNL     1     -22.409   6.176 -22.384  1.00  0.00     0.176 HD
ENDBRANCH  22  24
ENDBRANCH  17  20
ENDBRANCH   3  16
TORSDOF 6
ENDMDL
