MODEL 1
REMARK VINA RESULT: -4.014795883      0.000      0.000
REMARK  9 active torsions:
REMARK  status: ('A' for Active; 'I' for Inactive)
REMARK       I    between atoms: N1_2  and  C2_4 
REMARK    1  A    between atoms: C2_4  and  C3_6 
REMARK    2  A    between atoms: C6_9  and  N2_10 
REMARK    3  A    between atoms: C6_9  and  C7_16 
REMARK    4  A    between atoms: N2_10  and  N3_12 
REMARK    5  A    between atoms: N3_12  and  N4_13 
REMARK    6  A    between atoms: C7_16  and  O2_17 
REMARK    7  A    between atoms: C7_16  and  C8_19 
REMARK    8  A    between atoms: C8_19  and  O3_20 
REMARK    9  A    between atoms: C9_22  and  O4_24 
ROOT
HETATM    1  C3  UNL     1     -26.518  -6.120 -32.332  1.00  0.00     0.264 C 
HETATM    2  C4  UNL     1     -25.235  -6.955 -32.434  1.00  0.00     0.067 C 
HETATM    3  C5  UNL     1     -27.244  -6.503 -31.040  1.00  0.00     0.101 C 
HETATM    4  C6  UNL     1     -28.252  -7.529 -31.498  1.00  0.00     0.156 C 
HETATM    5  C9  UNL     1     -28.582  -7.043 -32.890  1.00  0.00     0.311 C 
HETATM    6  C10 UNL     1     -29.023  -8.202 -33.761  1.00  0.00     0.092 C 
HETATM    7  N5  UNL     1     -27.407  -6.375 -33.409  1.00  0.00     0.063 N 
HETATM    8  C11 UNL     1     -26.778  -7.181 -34.470  1.00  0.00     0.362 C 
HETATM    9  O5  UNL     1     -27.852  -5.265 -34.056  1.00  0.00    -0.060 OA
ENDROOT
BRANCH   4  10
HETATM   10  N2  UNL     1     -27.665  -8.857 -31.572  1.00  0.00    -0.234 N 
ATOM     11  H2  UNL     1     -27.745  -9.383 -32.442  1.00  0.00     0.198 HD
BRANCH  10  12
HETATM   12  N3  UNL     1     -27.081  -9.363 -30.631  1.00  0.00    -0.247 NA
BRANCH  12  13
HETATM   13  N4  UNL     1     -26.609  -9.873 -29.639  1.00  0.00    -0.261 N 
ATOM     14  H42 UNL     1     -25.984 -10.291 -30.330  1.00  0.00     0.193 HD
ATOM     15  H41 UNL     1     -26.282 -10.252 -28.750  1.00  0.00     0.193 HD
ENDBRANCH  12  13
ENDBRANCH  10  12
ENDBRANCH   4  10
BRANCH   4  16
HETATM   16  C7  UNL     1     -29.498  -7.510 -30.675  1.00  0.00     0.178 C 
BRANCH  16  17
HETATM   17  O2  UNL     1     -29.295  -7.193 -29.347  1.00  0.00    -0.391 OA
ATOM     18  H2  UNL     1     -29.968  -6.639 -28.971  1.00  0.00     0.210 HD
ENDBRANCH  16  17
BRANCH  16  19
HETATM   19  C8  UNL     1     -30.276  -8.802 -30.718  1.00  0.00     0.198 C 
BRANCH  19  20
HETATM   20  O3  UNL     1     -29.778  -9.725 -29.796  1.00  0.00    -0.398 OA
ATOM     21  H3  UNL     1     -29.444 -10.500 -30.231  1.00  0.00     0.209 HD
ENDBRANCH  19  20
ENDBRANCH  16  19
ENDBRANCH   4  16
BRANCH   5  22
HETATM   22  O4  UNL     1     -29.655  -6.161 -32.838  1.00  0.00    -0.356 OA
ATOM     23  H4  UNL     1     -30.356  -6.474 -33.398  1.00  0.00     0.213 HD
ENDBRANCH   5  22
BRANCH   1  24
HETATM   24  C2  UNL     1     -26.041  -4.707 -32.238  1.00  0.00     0.262 C 
HETATM   25  N1  UNL     1     -26.909  -3.746 -31.601  1.00  0.00    -0.363 N 
HETATM   26  C1  UNL     1     -26.546  -2.365 -31.458  1.00  0.00     0.149 C 
ATOM     27  H1  UNL     1     -27.810  -4.060 -31.240  1.00  0.00     0.162 HD
HETATM   28  O1  UNL     1     -24.958  -4.283 -32.660  1.00  0.00    -0.270 OA
ENDBRANCH   1  24
TORSDOF 9
ENDMDL
MODEL 2
REMARK VINA RESULT: -3.881540808      8.655     11.071
REMARK  9 active torsions:
REMARK  status: ('A' for Active; 'I' for Inactive)
REMARK       I    between atoms: N1_2  and  C2_4 
REMARK    1  A    between atoms: C2_4  and  C3_6 
REMARK    2  A    between atoms: C6_9  and  N2_10 
REMARK    3  A    between atoms: C6_9  and  C7_16 
REMARK    4  A    between atoms: N2_10  and  N3_12 
REMARK    5  A    between atoms: N3_12  and  N4_13 
REMARK    6  A    between atoms: C7_16  and  O2_17 
REMARK    7  A    between atoms: C7_16  and  C8_19 
REMARK    8  A    between atoms: C8_19  and  O3_20 
REMARK    9  A    between atoms: C9_22  and  O4_24 
ROOT
HETATM    1  C3  UNL     1     -24.096  -1.682 -25.470  1.00  0.00     0.264 C 
HETATM    2  C4  UNL     1     -22.793  -2.153 -26.131  1.00  0.00     0.067 C 
HETATM    3  C5  UNL     1     -23.848  -0.309 -24.837  1.00  0.00     0.101 C 
HETATM    4  C6  UNL     1     -23.537  -0.642 -23.397  1.00  0.00     0.156 C 
HETATM    5  C9  UNL     1     -24.392  -1.866 -23.167  1.00  0.00     0.311 C 
HETATM    6  C10 UNL     1     -23.783  -2.737 -22.088  1.00  0.00     0.092 C 
HETATM    7  N5  UNL     1     -24.515  -2.557 -24.434  1.00  0.00     0.063 N 
HETATM    8  C11 UNL     1     -23.742  -3.810 -24.419  1.00  0.00     0.362 C 
HETATM    9  O5  UNL     1     -25.808  -2.966 -24.523  1.00  0.00    -0.060 OA
ENDROOT
BRANCH   4  10
HETATM   10  N2  UNL     1     -22.136  -0.985 -23.220  1.00  0.00    -0.234 N 
ATOM     11  H2  UNL     1     -21.899  -1.870 -22.773  1.00  0.00     0.198 HD
BRANCH  10  12
HETATM   12  N3  UNL     1     -21.235  -0.253 -23.588  1.00  0.00    -0.247 NA
BRANCH  12  13
HETATM   13  N4  UNL     1     -20.383   0.558 -23.875  1.00  0.00    -0.261 N 
ATOM     14  H42 UNL     1     -21.096   1.208 -23.543  1.00  0.00     0.193 HD
ATOM     15  H41 UNL     1     -19.606   1.162 -24.146  1.00  0.00     0.193 HD
ENDBRANCH  12  13
ENDBRANCH  10  12
ENDBRANCH   4  10
BRANCH   4  16
HETATM   16  C7  UNL     1     -23.975   0.434 -22.458  1.00  0.00     0.178 C 
BRANCH  16  17
HETATM   17  O2  UNL     1     -24.941   1.276 -22.971  1.00  0.00    -0.391 OA
ATOM     18  H2  UNL     1     -24.595   2.028 -23.437  1.00  0.00     0.210 HD
ENDBRANCH  16  17
BRANCH  16  19
HETATM   19  C8  UNL     1     -22.845   1.295 -21.950  1.00  0.00     0.198 C 
BRANCH  19  20
HETATM   20  O3  UNL     1     -22.518   2.295 -22.870  1.00  0.00    -0.398 OA
ATOM     21  H3  UNL     1     -22.731   3.156 -22.531  1.00  0.00     0.209 HD
ENDBRANCH  19  20
ENDBRANCH  16  19
ENDBRANCH   4  16
BRANCH   5  22
HETATM   22  O4  UNL     1     -25.645  -1.484 -22.703  1.00  0.00    -0.356 OA
ATOM     23  H4  UNL     1     -26.254  -2.208 -22.789  1.00  0.00     0.213 HD
ENDBRANCH   5  22
BRANCH   1  24
HETATM   24  C2  UNL     1     -25.063  -1.544 -26.601  1.00  0.00     0.262 C 
HETATM   25  N1  UNL     1     -26.298  -0.844 -26.346  1.00  0.00    -0.363 N 
HETATM   26  C1  UNL     1     -27.294  -0.656 -27.362  1.00  0.00     0.149 C 
ATOM     27  H1  UNL     1     -26.470  -0.471 -25.412  1.00  0.00     0.162 HD
HETATM   28  O1  UNL     1     -24.897  -1.978 -27.747  1.00  0.00    -0.270 OA
ENDBRANCH   1  24
TORSDOF 9
ENDMDL
MODEL 3
REMARK VINA RESULT: -3.507972978      2.123      2.397
REMARK  9 active torsions:
REMARK  status: ('A' for Active; 'I' for Inactive)
REMARK       I    between atoms: N1_2  and  C2_4 
REMARK    1  A    between atoms: C2_4  and  C3_6 
REMARK    2  A    between atoms: C6_9  and  N2_10 
REMARK    3  A    between atoms: C6_9  and  C7_16 
REMARK    4  A    between atoms: N2_10  and  N3_12 
REMARK    5  A    between atoms: N3_12  and  N4_13 
REMARK    6  A    between atoms: C7_16  and  O2_17 
REMARK    7  A    between atoms: C7_16  and  C8_19 
REMARK    8  A    between atoms: C8_19  and  O3_20 
REMARK    9  A    between atoms: C9_22  and  O4_24 
ROOT
HETATM    1  C3  UNL     1     -26.567  -4.715 -32.827  1.00  0.00     0.264 C 
HETATM    2  C4  UNL     1     -25.629  -4.856 -34.033  1.00  0.00     0.067 C 
HETATM    3  C5  UNL     1     -26.039  -5.603 -31.697  1.00  0.00     0.101 C 
HETATM    4  C6  UNL     1     -26.842  -6.873 -31.849  1.00  0.00     0.156 C 
HETATM    5  C9  UNL     1     -28.161  -6.348 -32.365  1.00  0.00     0.311 C 
HETATM    6  C10 UNL     1     -28.861  -7.408 -33.192  1.00  0.00     0.092 C 
HETATM    7  N5  UNL     1     -27.887  -5.146 -33.123  1.00  0.00     0.063 N 
HETATM    8  C11 UNL     1     -28.083  -5.384 -34.564  1.00  0.00     0.362 C 
HETATM    9  O5  UNL     1     -28.863  -4.257 -32.799  1.00  0.00    -0.060 OA
ENDROOT
BRANCH   4  10
HETATM   10  N2  UNL     1     -26.251  -7.762 -32.836  1.00  0.00    -0.234 N 
ATOM     11  H2  UNL     1     -26.865  -8.261 -33.478  1.00  0.00     0.198 HD
BRANCH  10  12
HETATM   12  N3  UNL     1     -25.049  -7.931 -32.921  1.00  0.00    -0.247 NA
BRANCH  12  13
HETATM   13  N4  UNL     1     -23.842  -8.040 -32.901  1.00  0.00    -0.261 N 
ATOM     14  H42 UNL     1     -23.977  -8.099 -33.910  1.00  0.00     0.193 HD
ATOM     15  H41 UNL     1     -22.832  -8.124 -32.781  1.00  0.00     0.193 HD
ENDBRANCH  12  13
ENDBRANCH  10  12
ENDBRANCH   4  10
BRANCH   4  16
HETATM   16  C7  UNL     1     -27.075  -7.558 -30.543  1.00  0.00     0.178 C 
BRANCH  16  17
HETATM   17  O2  UNL     1     -26.205  -7.180 -29.541  1.00  0.00    -0.391 OA
ATOM     18  H2  UNL     1     -26.439  -7.501 -28.678  1.00  0.00     0.210 HD
ENDBRANCH  16  17
BRANCH  16  19
HETATM   19  C8  UNL     1     -27.038  -9.064 -30.631  1.00  0.00     0.198 C 
BRANCH  19  20
HETATM   20  O3  UNL     1     -25.725  -9.537 -30.664  1.00  0.00    -0.398 OA
ATOM     21  H3  UNL     1     -25.358  -9.471 -31.537  1.00  0.00     0.209 HD
ENDBRANCH  19  20
ENDBRANCH  16  19
ENDBRANCH   4  16
BRANCH   5  22
HETATM   22  O4  UNL     1     -29.004  -6.063 -31.298  1.00  0.00    -0.356 OA
ATOM     23  H4  UNL     1     -28.541  -5.543 -30.652  1.00  0.00     0.213 HD
ENDBRANCH   5  22
BRANCH   1  24
HETATM   24  C2  UNL     1     -26.454  -3.279 -32.428  1.00  0.00     0.262 C 
HETATM   25  N1  UNL     1     -26.820  -2.926 -31.078  1.00  0.00    -0.363 N 
HETATM   26  C1  UNL     1     -26.747  -1.577 -30.595  1.00  0.00     0.149 C 
ATOM     27  H1  UNL     1     -27.140  -3.660 -30.446  1.00  0.00     0.162 HD
HETATM   28  O1  UNL     1     -26.070  -2.357 -33.158  1.00  0.00    -0.270 OA
ENDBRANCH   1  24
TORSDOF 9
ENDMDL
MODEL 4
REMARK VINA RESULT: -3.417263633      2.873      3.621
REMARK  9 active torsions:
REMARK  status: ('A' for Active; 'I' for Inactive)
REMARK       I    between atoms: N1_2  and  C2_4 
REMARK    1  A    between atoms: C2_4  and  C3_6 
REMARK    2  A    between atoms: C6_9  and  N2_10 
REMARK    3  A    between atoms: C6_9  and  C7_16 
REMARK    4  A    between atoms: N2_10  and  N3_12 
REMARK    5  A    between atoms: N3_12  and  N4_13 
REMARK    6  A    between atoms: C7_16  and  O2_17 
REMARK    7  A    between atoms: C7_16  and  C8_19 
REMARK    8  A    between atoms: C8_19  and  O3_20 
REMARK    9  A    between atoms: C9_22  and  O4_24 
ROOT
HETATM    1  C3  UNL     1     -25.884  -4.167 -32.919  1.00  0.00     0.264 C 
HETATM    2  C4  UNL     1     -25.213  -3.635 -34.193  1.00  0.00     0.067 C 
HETATM    3  C5  UNL     1     -24.987  -5.253 -32.317  1.00  0.00     0.101 C 
HETATM    4  C6  UNL     1     -25.581  -6.531 -32.857  1.00  0.00     0.156 C 
HETATM    5  C9  UNL     1     -27.048  -6.183 -32.943  1.00  0.00     0.311 C 
HETATM    6  C10 UNL     1     -27.721  -7.004 -34.024  1.00  0.00     0.092 C 
HETATM    7  N5  UNL     1     -27.145  -4.759 -33.187  1.00  0.00     0.063 N 
HETATM    8  C11 UNL     1     -27.600  -4.498 -34.564  1.00  0.00     0.362 C 
HETATM    9  O5  UNL     1     -28.165  -4.306 -32.410  1.00  0.00    -0.060 OA
ENDROOT
BRANCH   4  10
HETATM   10  N2  UNL     1     -25.073  -6.836 -34.185  1.00  0.00    -0.234 N 
ATOM     11  H2  UNL     1     -25.679  -6.683 -34.990  1.00  0.00     0.198 HD
BRANCH  10  12
HETATM   12  N3  UNL     1     -23.950  -7.268 -34.368  1.00  0.00    -0.247 NA
BRANCH  12  13
HETATM   13  N4  UNL     1     -22.817  -7.693 -34.430  1.00  0.00    -0.261 N 
ATOM     14  H42 UNL     1     -22.807  -7.393 -33.454  1.00  0.00     0.193 HD
ATOM     15  H41 UNL     1     -21.883  -8.075 -34.580  1.00  0.00     0.193 HD
ENDBRANCH  12  13
ENDBRANCH  10  12
ENDBRANCH   4  10
BRANCH   4  16
HETATM   16  C7  UNL     1     -25.413  -7.678 -31.915  1.00  0.00     0.178 C 
BRANCH  16  17
HETATM   17  O2  UNL     1     -24.110  -7.903 -31.521  1.00  0.00    -0.391 OA
ATOM     18  H2  UNL     1     -23.882  -8.821 -31.431  1.00  0.00     0.210 HD
ENDBRANCH  16  17
BRANCH  16  19
HETATM   19  C8  UNL     1     -25.960  -8.982 -32.440  1.00  0.00     0.198 C 
BRANCH  19  20
HETATM   20  O3  UNL     1     -25.043  -9.611 -33.286  1.00  0.00    -0.398 OA
ATOM     21  H3  UNL     1     -25.302 -10.506 -33.469  1.00  0.00     0.209 HD
ENDBRANCH  19  20
ENDBRANCH  16  19
ENDBRANCH   4  16
BRANCH   5  22
HETATM   22  O4  UNL     1     -27.680  -6.512 -31.750  1.00  0.00    -0.356 OA
ATOM     23  H4  UNL     1     -28.470  -7.008 -31.931  1.00  0.00     0.213 HD
ENDBRANCH   5  22
BRANCH   1  24
HETATM   24  C2  UNL     1     -25.929  -2.990 -31.999  1.00  0.00     0.262 C 
HETATM   25  N1  UNL     1     -26.193  -1.695 -32.578  1.00  0.00    -0.363 N 
HETATM   26  C1  UNL     1     -26.258  -0.501 -31.784  1.00  0.00     0.149 C 
ATOM     27  H1  UNL     1     -26.338  -1.626 -33.586  1.00  0.00     0.162 HD
HETATM   28  O1  UNL     1     -25.761  -3.026 -30.774  1.00  0.00    -0.270 OA
ENDBRANCH   1  24
TORSDOF 9
ENDMDL
MODEL 5
REMARK VINA RESULT: -3.367236942      1.469      1.891
REMARK  9 active torsions:
REMARK  status: ('A' for Active; 'I' for Inactive)
REMARK       I    between atoms: N1_2  and  C2_4 
REMARK    1  A    between atoms: C2_4  and  C3_6 
REMARK    2  A    between atoms: C6_9  and  N2_10 
REMARK    3  A    between atoms: C6_9  and  C7_16 
REMARK    4  A    between atoms: N2_10  and  N3_12 
REMARK    5  A    between atoms: N3_12  and  N4_13 
REMARK    6  A    between atoms: C7_16  and  O2_17 
REMARK    7  A    between atoms: C7_16  and  C8_19 
REMARK    8  A    between atoms: C8_19  and  O3_20 
REMARK    9  A    between atoms: C9_22  and  O4_24 
ROOT
HETATM    1  C3  UNL     1     -26.418  -5.786 -32.252  1.00  0.00     0.264 C 
HETATM    2  C4  UNL     1     -25.392  -5.867 -31.113  1.00  0.00     0.067 C 
HETATM    3  C5  UNL     1     -27.749  -6.348 -31.744  1.00  0.00     0.101 C 
HETATM    4  C6  UNL     1     -27.722  -7.783 -32.214  1.00  0.00     0.156 C 
HETATM    5  C9  UNL     1     -26.950  -7.673 -33.508  1.00  0.00     0.311 C 
HETATM    6  C10 UNL     1     -26.241  -8.977 -33.810  1.00  0.00     0.092 C 
HETATM    7  N5  UNL     1     -26.031  -6.561 -33.376  1.00  0.00     0.063 N 
HETATM    8  C11 UNL     1     -24.644  -7.043 -33.267  1.00  0.00     0.362 C 
HETATM    9  O5  UNL     1     -26.059  -5.898 -34.562  1.00  0.00    -0.060 OA
ENDROOT
BRANCH   4  10
HETATM   10  N2  UNL     1     -26.998  -8.635 -31.285  1.00  0.00    -0.234 N 
ATOM     11  H2  UNL     1     -26.483  -9.435 -31.651  1.00  0.00     0.198 HD
BRANCH  10  12
HETATM   12  N3  UNL     1     -26.985  -8.425 -30.086  1.00  0.00    -0.247 NA
BRANCH  12  13
HETATM   13  N4  UNL     1     -27.092  -8.202 -28.900  1.00  0.00    -0.261 N 
ATOM     14  H42 UNL     1     -26.140  -7.858 -29.027  1.00  0.00     0.193 HD
ATOM     15  H41 UNL     1     -27.278  -8.053 -27.908  1.00  0.00     0.193 HD
ENDBRANCH  12  13
ENDBRANCH  10  12
ENDBRANCH   4  10
BRANCH   4  16
HETATM   16  C7  UNL     1     -29.087  -8.309 -32.512  1.00  0.00     0.178 C 
BRANCH  16  17
HETATM   17  O2  UNL     1     -30.063  -7.338 -32.598  1.00  0.00    -0.391 OA
ATOM     18  H2  UNL     1     -30.945  -7.678 -32.696  1.00  0.00     0.210 HD
ENDBRANCH  16  17
BRANCH  16  19
HETATM   19  C8  UNL     1     -29.566  -9.349 -31.530  1.00  0.00     0.198 C 
BRANCH  19  20
HETATM   20  O3  UNL     1     -29.875  -8.774 -30.295  1.00  0.00    -0.398 OA
ATOM     21  H3  UNL     1     -30.284  -9.405 -29.715  1.00  0.00     0.209 HD
ENDBRANCH  19  20
ENDBRANCH  16  19
ENDBRANCH   4  16
BRANCH   5  22
HETATM   22  O4  UNL     1     -27.827  -7.450 -34.562  1.00  0.00    -0.356 OA
ATOM     23  H4  UNL     1     -27.363  -7.051 -35.288  1.00  0.00     0.213 HD
ENDBRANCH   5  22
BRANCH   1  24
HETATM   24  C2  UNL     1     -26.564  -4.323 -32.522  1.00  0.00     0.262 C 
HETATM   25  N1  UNL     1     -25.361  -3.555 -32.727  1.00  0.00    -0.363 N 
HETATM   26  C1  UNL     1     -25.390  -2.145 -32.993  1.00  0.00     0.149 C 
ATOM     27  H1  UNL     1     -24.459  -4.030 -32.682  1.00  0.00     0.162 HD
HETATM   28  O1  UNL     1     -27.635  -3.706 -32.587  1.00  0.00    -0.270 OA
ENDBRANCH   1  24
TORSDOF 9
ENDMDL
