MODEL 1
REMARK VINA RESULT: -10.059450392      0.000      0.000
REMARK  10 active torsions:
REMARK  status: ('A' for Active; 'I' for Inactive)
REMARK    1  A    between atoms: C2_2  and  N1_3 
REMARK    2  A    between atoms: C2_2  and  C10_18 
REMARK       I    between atoms: N1_3  and  C3_5 
REMARK    3  A    between atoms: C3_5  and  C4_7 
REMARK    4  A    between atoms: C4_7  and  N2_8 
REMARK       I    between atoms: N2_8  and  C5_10 
REMARK    5  A    between atoms: C5_10  and  C6_12 
REMARK    6  A    between atoms: C8_14  and  C9_16 
REMARK    7  A    between atoms: C13_21  and  O3_22 
REMARK    8  A    between atoms: O3_22  and  C14_23 
REMARK    9  A    between atoms: N3_26  and  C17_27 
REMARK   10  A    between atoms: C24_39  and  C25_40 
ROOT
HETATM    1  C10 UNL     1      -6.181  27.975  14.646  1.00  0.00    -0.027 A 
HETATM    2  C11 UNL     1      -5.085  28.594  15.251  1.00  0.00     0.012 A 
HETATM    3  C12 UNL     1      -3.782  28.331  14.838  1.00  0.00     0.037 A 
HETATM    4  C13 UNL     1      -3.503  27.452  13.815  1.00  0.00     0.070 A 
HETATM    5  C23 UNL     1      -4.596  26.848  13.227  1.00  0.00     0.047 A 
HETATM    6  C24 UNL     1      -5.897  27.100  13.628  1.00  0.00    -0.019 A 
ENDROOT
BRANCH   1   7
HETATM    7  C2  UNL     1      -7.542  28.270  15.122  1.00  0.00     0.114 C 
HETATM    8  C1  UNL     1      -7.472  29.331  16.254  1.00  0.00     0.037 C 
BRANCH   7   9
HETATM    9  N1  UNL     1      -8.199  27.112  15.743  1.00  0.00    -0.351 N 
HETATM   10  C3  UNL     1      -9.507  26.727  15.382  1.00  0.00     0.235 C 
HETATM   11  O1  UNL     1     -10.114  27.389  14.515  1.00  0.00    -0.272 OA
ATOM     12  H1  UNL     1      -7.698  26.575  16.450  1.00  0.00     0.163 HD
BRANCH  10  13
HETATM   13  C4  UNL     1     -10.141  25.565  16.016  1.00  0.00     0.225 C 
BRANCH  13  14
HETATM   14  N2  UNL     1     -10.778  24.734  15.043  1.00  0.00    -0.352 N 
HETATM   15  C5  UNL     1     -12.167  24.520  15.059  1.00  0.00     0.224 C 
HETATM   16  O2  UNL     1     -12.894  25.051  15.914  1.00  0.00    -0.273 OA
ATOM     17  H2  UNL     1     -10.212  24.287  14.321  1.00  0.00     0.162 HD
BRANCH  15  18
HETATM   18  C6  UNL     1     -12.783  23.646  14.039  1.00  0.00     0.105 A 
HETATM   19  C7  UNL     1     -13.305  22.332  14.632  1.00  0.00     0.045 A 
HETATM   20  C8  UNL     1     -12.174  22.346  13.655  1.00  0.00     0.076 A 
HETATM   21 CL1  UNL     1     -10.564  21.915  14.241  1.00  0.00    -0.116 Cl
BRANCH  20  22
HETATM   22  C9  UNL     1     -12.562  21.861  12.254  1.00  0.00     0.248 C 
HETATM   23  F1  UNL     1     -13.298  22.832  11.583  1.00  0.00    -0.253 F 
ENDBRANCH  20  22
ENDBRANCH  15  18
ENDBRANCH  13  14
ENDBRANCH  10  13
ENDBRANCH   7   9
ENDBRANCH   1   7
BRANCH   6  24
HETATM   24  C25 UNL     1      -7.040  26.404  12.934  1.00  0.00     0.261 C 
HETATM   25  F3  UNL     1      -6.558  25.733  11.850  1.00  0.00    -0.251 F 
ENDBRANCH   6  24
BRANCH   4  26
HETATM   26  O3  UNL     1      -2.214  27.167  13.378  1.00  0.00    -0.344 OA
BRANCH  26  27
HETATM   27  C14 UNL     1      -1.111  26.846  14.134  1.00  0.00     0.148 C 
HETATM   28  C15 UNL     1      -1.405  26.830  15.636  1.00  0.00     0.054 C 
HETATM   29  C16 UNL     1      -0.172  26.118  16.136  1.00  0.00     0.126 C 
HETATM   30  N3  UNL     1       0.101  25.092  15.166  1.00  0.00    -0.374 N 
HETATM   31  C22 UNL     1      -0.632  25.399  13.959  1.00  0.00     0.155 C 
BRANCH  30  32
HETATM   32  C17 UNL     1       1.001  23.981  15.348  1.00  0.00     0.096 A 
HETATM   33  C18 UNL     1       2.355  24.208  15.423  1.00  0.00     0.160 A 
HETATM   34  F2  UNL     1       2.897  25.437  15.268  1.00  0.00    -0.202 F 
HETATM   35  C19 UNL     1       3.180  23.103  15.643  1.00  0.00     0.134 A 
HETATM   36  N4  UNL     1       2.716  21.855  15.780  1.00  0.00    -0.352 N 
HETATM   37  C20 UNL     1       1.401  21.605  15.712  1.00  0.00     0.127 A 
ATOM     38  H4  UNL     1       3.369  21.088  15.939  1.00  0.00     0.166 HD
HETATM   39 CL2  UNL     1       0.768  19.987  15.888  1.00  0.00    -0.063 Cl
HETATM   40  C21 UNL     1       0.535  22.682  15.493  1.00  0.00     0.102 A 
HETATM   41 CL3  UNL     1      -1.158  22.290  15.439  1.00  0.00    -0.078 Cl
ENDBRANCH  30  32
ENDBRANCH  26  27
ENDBRANCH   4  26
TORSDOF 10
ENDMDL
MODEL 2
REMARK VINA RESULT: -9.855675407      0.901      1.164
REMARK  10 active torsions:
REMARK  status: ('A' for Active; 'I' for Inactive)
REMARK    1  A    between atoms: C2_2  and  N1_3 
REMARK    2  A    between atoms: C2_2  and  C10_18 
REMARK       I    between atoms: N1_3  and  C3_5 
REMARK    3  A    between atoms: C3_5  and  C4_7 
REMARK    4  A    between atoms: C4_7  and  N2_8 
REMARK       I    between atoms: N2_8  and  C5_10 
REMARK    5  A    between atoms: C5_10  and  C6_12 
REMARK    6  A    between atoms: C8_14  and  C9_16 
REMARK    7  A    between atoms: C13_21  and  O3_22 
REMARK    8  A    between atoms: O3_22  and  C14_23 
REMARK    9  A    between atoms: N3_26  and  C17_27 
REMARK   10  A    between atoms: C24_39  and  C25_40 
ROOT
HETATM    1  C10 UNL     1      -7.025  28.350  15.452  1.00  0.00    -0.027 A 
HETATM    2  C11 UNL     1      -6.173  28.890  16.419  1.00  0.00     0.012 A 
HETATM    3  C12 UNL     1      -4.789  28.832  16.283  1.00  0.00     0.037 A 
HETATM    4  C13 UNL     1      -4.186  28.242  15.196  1.00  0.00     0.070 A 
HETATM    5  C23 UNL     1      -5.039  27.712  14.249  1.00  0.00     0.047 A 
HETATM    6  C24 UNL     1      -6.417  27.763  14.371  1.00  0.00    -0.019 A 
ENDROOT
BRANCH   1   7
HETATM    7  C2  UNL     1      -8.482  28.421  15.639  1.00  0.00     0.114 C 
HETATM    8  C1  UNL     1      -8.816  29.548  16.654  1.00  0.00     0.037 C 
BRANCH   7   9
HETATM    9  N1  UNL     1      -9.045  27.205  16.240  1.00  0.00    -0.351 N 
HETATM   10  C3  UNL     1     -10.010  26.429  15.566  1.00  0.00     0.235 C 
HETATM   11  O1  UNL     1     -10.391  26.789  14.433  1.00  0.00    -0.272 OA
ATOM     12  H1  UNL     1      -8.732  26.916  17.167  1.00  0.00     0.163 HD
BRANCH  10  13
HETATM   13  C4  UNL     1     -10.558  25.217  16.188  1.00  0.00     0.225 C 
BRANCH  13  14
HETATM   14  N2  UNL     1     -11.112  24.342  15.203  1.00  0.00    -0.352 N 
HETATM   15  C5  UNL     1     -12.495  24.299  14.956  1.00  0.00     0.224 C 
HETATM   16  O2  UNL     1     -13.287  25.026  15.579  1.00  0.00    -0.273 OA
ATOM     17  H2  UNL     1     -10.490  23.735  14.668  1.00  0.00     0.162 HD
BRANCH  15  18
HETATM   18  C6  UNL     1     -13.027  23.372  13.936  1.00  0.00     0.105 A 
HETATM   19  C7  UNL     1     -13.266  21.963  14.492  1.00  0.00     0.045 A 
HETATM   20  C8  UNL     1     -12.233  22.217  13.442  1.00  0.00     0.076 A 
HETATM   21 CL1  UNL     1     -10.533  22.054  13.892  1.00  0.00    -0.116 Cl
BRANCH  20  22
HETATM   22  C9  UNL     1     -12.637  21.729  12.047  1.00  0.00     0.248 C 
HETATM   23  F1  UNL     1     -13.347  22.713  11.367  1.00  0.00    -0.253 F 
ENDBRANCH  20  22
ENDBRANCH  15  18
ENDBRANCH  13  14
ENDBRANCH  10  13
ENDBRANCH   7   9
ENDBRANCH   1   7
BRANCH   6  24
HETATM   24  C25 UNL     1      -7.284  27.165  13.292  1.00  0.00     0.261 C 
HETATM   25  F3  UNL     1      -6.520  26.355  12.507  1.00  0.00    -0.251 F 
ENDBRANCH   6  24
BRANCH   4  26
HETATM   26  O3  UNL     1      -2.807  28.165  15.030  1.00  0.00    -0.344 OA
BRANCH  26  27
HETATM   27  C14 UNL     1      -2.067  27.119  14.533  1.00  0.00     0.148 C 
HETATM   28  C15 UNL     1      -0.947  27.575  13.595  1.00  0.00     0.054 C 
HETATM   29  C16 UNL     1      -0.132  26.308  13.524  1.00  0.00     0.126 C 
HETATM   30  N3  UNL     1      -0.153  25.761  14.854  1.00  0.00    -0.374 N 
HETATM   31  C22 UNL     1      -1.224  26.392  15.590  1.00  0.00     0.155 C 
BRANCH  30  32
HETATM   32  C17 UNL     1       0.710  24.718  15.347  1.00  0.00     0.096 A 
HETATM   33  C18 UNL     1       1.987  25.026  15.754  1.00  0.00     0.160 A 
HETATM   34  F2  UNL     1       2.502  26.272  15.652  1.00  0.00    -0.202 F 
HETATM   35  C19 UNL     1       2.768  23.986  16.263  1.00  0.00     0.134 A 
HETATM   36  N4  UNL     1       2.333  22.726  16.370  1.00  0.00    -0.352 N 
HETATM   37  C20 UNL     1       1.093  22.396  15.982  1.00  0.00     0.127 A 
ATOM     38  H4  UNL     1       2.951  22.008  16.751  1.00  0.00     0.166 HD
HETATM   39 CL2  UNL     1       0.500  20.758  16.109  1.00  0.00    -0.063 Cl
HETATM   40  C21 UNL     1       0.275  23.406  15.464  1.00  0.00     0.102 A 
HETATM   41 CL3  UNL     1      -1.328  22.914  15.003  1.00  0.00    -0.078 Cl
ENDBRANCH  30  32
ENDBRANCH  26  27
ENDBRANCH   4  26
TORSDOF 10
ENDMDL
MODEL 3
REMARK VINA RESULT: -9.622972752      1.868      2.300
REMARK  10 active torsions:
REMARK  status: ('A' for Active; 'I' for Inactive)
REMARK    1  A    between atoms: C2_2  and  N1_3 
REMARK    2  A    between atoms: C2_2  and  C10_18 
REMARK       I    between atoms: N1_3  and  C3_5 
REMARK    3  A    between atoms: C3_5  and  C4_7 
REMARK    4  A    between atoms: C4_7  and  N2_8 
REMARK       I    between atoms: N2_8  and  C5_10 
REMARK    5  A    between atoms: C5_10  and  C6_12 
REMARK    6  A    between atoms: C8_14  and  C9_16 
REMARK    7  A    between atoms: C13_21  and  O3_22 
REMARK    8  A    between atoms: O3_22  and  C14_23 
REMARK    9  A    between atoms: N3_26  and  C17_27 
REMARK   10  A    between atoms: C24_39  and  C25_40 
ROOT
HETATM    1  C10 UNL     1      -5.620  25.399  13.334  1.00  0.00    -0.027 A 
HETATM    2  C11 UNL     1      -5.552  26.793  13.399  1.00  0.00     0.012 A 
HETATM    3  C12 UNL     1      -4.335  27.457  13.521  1.00  0.00     0.037 A 
HETATM    4  C13 UNL     1      -3.138  26.781  13.585  1.00  0.00     0.070 A 
HETATM    5  C23 UNL     1      -3.219  25.405  13.520  1.00  0.00     0.047 A 
HETATM    6  C24 UNL     1      -4.423  24.731  13.399  1.00  0.00    -0.019 A 
ENDROOT
BRANCH   1   7
HETATM    7  C2  UNL     1      -6.928  24.734  13.219  1.00  0.00     0.114 C 
HETATM    8  C1  UNL     1      -7.625  25.196  11.910  1.00  0.00     0.037 C 
BRANCH   7   9
HETATM    9  N1  UNL     1      -7.862  25.112  14.287  1.00  0.00    -0.351 N 
HETATM   10  C3  UNL     1      -7.906  24.408  15.509  1.00  0.00     0.235 C 
HETATM   11  O1  UNL     1      -7.131  23.444  15.679  1.00  0.00    -0.272 OA
ATOM     12  H1  UNL     1      -8.492  25.900  14.142  1.00  0.00     0.163 HD
BRANCH  10  13
HETATM   13  C4  UNL     1      -8.848  24.805  16.561  1.00  0.00     0.225 C 
BRANCH  13  14
HETATM   14  N2  UNL     1     -10.156  25.016  16.024  1.00  0.00    -0.352 N 
HETATM   15  C5  UNL     1     -11.162  24.041  16.139  1.00  0.00     0.224 C 
HETATM   16  O2  UNL     1     -10.954  22.963  16.720  1.00  0.00    -0.273 OA
ATOM     17  H2  UNL     1     -10.363  25.893  15.546  1.00  0.00     0.162 HD
BRANCH  15  18
HETATM   18  C6  UNL     1     -12.497  24.297  15.561  1.00  0.00     0.105 A 
HETATM   19  C7  UNL     1     -13.443  23.100  15.722  1.00  0.00     0.045 A 
HETATM   20  C8  UNL     1     -12.988  23.552  14.372  1.00  0.00     0.076 A 
HETATM   21 CL1  UNL     1     -11.890  22.502  13.470  1.00  0.00    -0.116 Cl
BRANCH  20  22
HETATM   22  C9  UNL     1     -14.065  24.291  13.571  1.00  0.00     0.248 C 
HETATM   23  F1  UNL     1     -13.891  24.089  12.206  1.00  0.00    -0.253 F 
ENDBRANCH  20  22
ENDBRANCH  15  18
ENDBRANCH  13  14
ENDBRANCH  10  13
ENDBRANCH   7   9
ENDBRANCH   1   7
BRANCH   6  24
HETATM   24  C25 UNL     1      -4.431  23.225  13.331  1.00  0.00     0.261 C 
HETATM   25  F3  UNL     1      -4.247  22.724  14.584  1.00  0.00    -0.251 F 
ENDBRANCH   6  24
BRANCH   4  26
HETATM   26  O3  UNL     1      -1.904  27.414  13.708  1.00  0.00    -0.344 OA
BRANCH  26  27
HETATM   27  C14 UNL     1      -0.802  26.997  14.418  1.00  0.00     0.148 C 
HETATM   28  C15 UNL     1      -1.056  26.931  15.925  1.00  0.00     0.054 C 
HETATM   29  C16 UNL     1       0.145  26.128  16.358  1.00  0.00     0.126 C 
HETATM   30  N3  UNL     1       0.332  25.132  15.337  1.00  0.00    -0.374 N 
HETATM   31  C22 UNL     1      -0.414  25.534  14.166  1.00  0.00     0.155 C 
BRANCH  30  32
HETATM   32  C17 UNL     1       1.170  23.965  15.444  1.00  0.00     0.096 A 
HETATM   33  C18 UNL     1       2.537  24.108  15.456  1.00  0.00     0.160 A 
HETATM   34  F2  UNL     1       3.146  25.306  15.305  1.00  0.00    -0.202 F 
HETATM   35  C19 UNL     1       3.303  22.949  15.605  1.00  0.00     0.134 A 
HETATM   36  N4  UNL     1       2.771  21.729  15.735  1.00  0.00    -0.352 N 
HETATM   37  C20 UNL     1       1.441  21.559  15.727  1.00  0.00     0.127 A 
ATOM     38  H4  UNL     1       3.382  20.919  15.841  1.00  0.00     0.166 HD
HETATM   39 CL2  UNL     1       0.720  19.978  15.894  1.00  0.00    -0.063 Cl
HETATM   40  C21 UNL     1       0.634  22.693  15.580  1.00  0.00     0.102 A 
HETATM   41 CL3  UNL     1      -1.081  22.404  15.603  1.00  0.00    -0.078 Cl
ENDBRANCH  30  32
ENDBRANCH  26  27
ENDBRANCH   4  26
TORSDOF 10
ENDMDL
MODEL 4
REMARK VINA RESULT: -9.492526872      1.662      1.961
REMARK  10 active torsions:
REMARK  status: ('A' for Active; 'I' for Inactive)
REMARK    1  A    between atoms: C2_2  and  N1_3 
REMARK    2  A    between atoms: C2_2  and  C10_18 
REMARK       I    between atoms: N1_3  and  C3_5 
REMARK    3  A    between atoms: C3_5  and  C4_7 
REMARK    4  A    between atoms: C4_7  and  N2_8 
REMARK       I    between atoms: N2_8  and  C5_10 
REMARK    5  A    between atoms: C5_10  and  C6_12 
REMARK    6  A    between atoms: C8_14  and  C9_16 
REMARK    7  A    between atoms: C13_21  and  O3_22 
REMARK    8  A    between atoms: O3_22  and  C14_23 
REMARK    9  A    between atoms: N3_26  and  C17_27 
REMARK   10  A    between atoms: C24_39  and  C25_40 
ROOT
HETATM    1  C10 UNL     1      -7.126  28.334  15.394  1.00  0.00    -0.027 A 
HETATM    2  C11 UNL     1      -6.242  28.861  16.339  1.00  0.00     0.012 A 
HETATM    3  C12 UNL     1      -4.864  28.814  16.151  1.00  0.00     0.037 A 
HETATM    4  C13 UNL     1      -4.299  28.249  15.030  1.00  0.00     0.070 A 
HETATM    5  C23 UNL     1      -5.183  27.732  14.106  1.00  0.00     0.047 A 
HETATM    6  C24 UNL     1      -6.557  27.772  14.281  1.00  0.00    -0.019 A 
ENDROOT
BRANCH   1   7
HETATM    7  C2  UNL     1      -8.576  28.391  15.638  1.00  0.00     0.114 C 
HETATM    8  C1  UNL     1      -8.879  29.505  16.677  1.00  0.00     0.037 C 
BRANCH   7   9
HETATM    9  N1  UNL     1      -9.108  27.164  16.246  1.00  0.00    -0.351 N 
HETATM   10  C3  UNL     1     -10.081  26.381  15.592  1.00  0.00     0.235 C 
HETATM   11  O1  UNL     1     -10.497  26.744  14.472  1.00  0.00    -0.272 OA
ATOM     12  H1  UNL     1      -8.765  26.873  17.161  1.00  0.00     0.163 HD
BRANCH  10  13
HETATM   13  C4  UNL     1     -10.596  25.158  16.221  1.00  0.00     0.225 C 
BRANCH  13  14
HETATM   14  N2  UNL     1     -11.143  24.272  15.242  1.00  0.00    -0.352 N 
HETATM   15  C5  UNL     1     -12.522  24.247  14.965  1.00  0.00     0.224 C 
HETATM   16  O2  UNL     1     -13.314  25.001  15.555  1.00  0.00    -0.273 OA
ATOM     17  H2  UNL     1     -10.521  23.643  14.735  1.00  0.00     0.162 HD
BRANCH  15  18
HETATM   18  C6  UNL     1     -13.047  23.309  13.953  1.00  0.00     0.105 A 
HETATM   19  C7  UNL     1     -13.234  21.892  14.510  1.00  0.00     0.045 A 
HETATM   20  C8  UNL     1     -12.230  22.178  13.440  1.00  0.00     0.076 A 
HETATM   21 CL1  UNL     1     -10.517  22.063  13.855  1.00  0.00    -0.116 Cl
BRANCH  20  22
HETATM   22  C9  UNL     1     -12.649  21.682  12.052  1.00  0.00     0.248 C 
HETATM   23  F1  UNL     1     -13.296  22.688  11.342  1.00  0.00    -0.253 F 
ENDBRANCH  20  22
ENDBRANCH  15  18
ENDBRANCH  13  14
ENDBRANCH  10  13
ENDBRANCH   7   9
ENDBRANCH   1   7
BRANCH   6  24
HETATM   24  C25 UNL     1      -7.460  27.189  13.224  1.00  0.00     0.261 C 
HETATM   25  F3  UNL     1      -6.751  26.295  12.478  1.00  0.00    -0.251 F 
ENDBRANCH   6  24
BRANCH   4  26
HETATM   26  O3  UNL     1      -2.926  28.185  14.812  1.00  0.00    -0.344 OA
BRANCH  26  27
HETATM   27  C14 UNL     1      -2.192  27.133  14.315  1.00  0.00     0.148 C 
HETATM   28  C15 UNL     1      -0.874  27.577  13.677  1.00  0.00     0.054 C 
HETATM   29  C16 UNL     1      -0.171  26.247  13.577  1.00  0.00     0.126 C 
HETATM   30  N3  UNL     1      -0.501  25.544  14.788  1.00  0.00    -0.374 N 
HETATM   31  C22 UNL     1      -1.641  26.192  15.395  1.00  0.00     0.155 C 
BRANCH  30  32
HETATM   32  C17 UNL     1       0.156  24.359  15.277  1.00  0.00     0.096 A 
HETATM   33  C18 UNL     1      -0.460  23.136  15.147  1.00  0.00     0.160 A 
HETATM   34  F2  UNL     1      -1.702  22.998  14.631  1.00  0.00    -0.202 F 
HETATM   35  C19 UNL     1       0.238  22.014  15.600  1.00  0.00     0.134 A 
HETATM   36  N4  UNL     1       1.459  22.078  16.144  1.00  0.00    -0.352 N 
HETATM   37  C20 UNL     1       2.083  23.256  16.283  1.00  0.00     0.127 A 
ATOM     38  H4  UNL     1       1.919  21.223  16.456  1.00  0.00     0.166 HD
HETATM   39 CL2  UNL     1       3.676  23.369  16.990  1.00  0.00    -0.063 Cl
HETATM   40  C21 UNL     1       1.422  24.408  15.844  1.00  0.00     0.102 A 
HETATM   41 CL3  UNL     1       2.298  25.898  16.032  1.00  0.00    -0.078 Cl
ENDBRANCH  30  32
ENDBRANCH  26  27
ENDBRANCH   4  26
TORSDOF 10
ENDMDL
MODEL 5
REMARK VINA RESULT: -9.471327263      2.835      4.322
REMARK  10 active torsions:
REMARK  status: ('A' for Active; 'I' for Inactive)
REMARK    1  A    between atoms: C2_2  and  N1_3 
REMARK    2  A    between atoms: C2_2  and  C10_18 
REMARK       I    between atoms: N1_3  and  C3_5 
REMARK    3  A    between atoms: C3_5  and  C4_7 
REMARK    4  A    between atoms: C4_7  and  N2_8 
REMARK       I    between atoms: N2_8  and  C5_10 
REMARK    5  A    between atoms: C5_10  and  C6_12 
REMARK    6  A    between atoms: C8_14  and  C9_16 
REMARK    7  A    between atoms: C13_21  and  O3_22 
REMARK    8  A    between atoms: O3_22  and  C14_23 
REMARK    9  A    between atoms: N3_26  and  C17_27 
REMARK   10  A    between atoms: C24_39  and  C25_40 
ROOT
HETATM    1  C10 UNL     1      -5.523  25.278  13.162  1.00  0.00    -0.027 A 
HETATM    2  C11 UNL     1      -5.253  26.464  12.475  1.00  0.00     0.012 A 
HETATM    3  C12 UNL     1      -4.027  27.111  12.597  1.00  0.00     0.037 A 
HETATM    4  C13 UNL     1      -3.019  26.623  13.397  1.00  0.00     0.070 A 
HETATM    5  C23 UNL     1      -3.300  25.451  14.070  1.00  0.00     0.047 A 
HETATM    6  C24 UNL     1      -4.515  24.796  13.958  1.00  0.00    -0.019 A 
ENDROOT
BRANCH   1   7
HETATM    7  C2  UNL     1      -6.837  24.632  13.016  1.00  0.00     0.114 C 
HETATM    8  C1  UNL     1      -7.531  25.162  11.732  1.00  0.00     0.037 C 
BRANCH   7   9
HETATM    9  N1  UNL     1      -7.768  24.966  14.103  1.00  0.00    -0.351 N 
HETATM   10  C3  UNL     1      -8.618  23.994  14.669  1.00  0.00     0.235 C 
HETATM   11  O1  UNL     1      -8.575  22.825  14.232  1.00  0.00    -0.272 OA
ATOM     12  H1  UNL     1      -7.799  25.922  14.455  1.00  0.00     0.163 HD
BRANCH  10  13
HETATM   13  C4  UNL     1      -9.538  24.353  15.754  1.00  0.00     0.225 C 
BRANCH  13  14
HETATM   14  N2  UNL     1      -9.007  25.421  16.543  1.00  0.00    -0.352 N 
HETATM   15  C5  UNL     1      -9.212  26.766  16.188  1.00  0.00     0.224 C 
HETATM   16  O2  UNL     1      -9.869  27.076  15.180  1.00  0.00    -0.273 OA
ATOM     17  H2  UNL     1      -8.469  25.202  17.381  1.00  0.00     0.162 HD
BRANCH  15  18
HETATM   18  C6  UNL     1      -8.638  27.838  17.025  1.00  0.00     0.105 A 
HETATM   19  C7  UNL     1      -8.907  29.235  16.454  1.00  0.00     0.045 A 
HETATM   20  C8  UNL     1      -7.519  28.689  16.544  1.00  0.00     0.076 A 
HETATM   21 CL1  UNL     1      -6.684  28.287  15.040  1.00  0.00    -0.116 Cl
BRANCH  20  22
HETATM   22  C9  UNL     1      -6.681  29.315  17.664  1.00  0.00     0.248 C 
HETATM   23  F1  UNL     1      -5.326  29.063  17.467  1.00  0.00    -0.253 F 
ENDBRANCH  20  22
ENDBRANCH  15  18
ENDBRANCH  13  14
ENDBRANCH  10  13
ENDBRANCH   7   9
ENDBRANCH   1   7
BRANCH   6  24
HETATM   24  C25 UNL     1      -4.747  23.518  14.722  1.00  0.00     0.261 C 
HETATM   25  F3  UNL     1      -4.231  22.476  14.011  1.00  0.00    -0.251 F 
ENDBRANCH   6  24
BRANCH   4  26
HETATM   26  O3  UNL     1      -1.783  27.245  13.542  1.00  0.00    -0.344 OA
BRANCH  26  27
HETATM   27  C14 UNL     1      -0.702  26.826  14.280  1.00  0.00     0.148 C 
HETATM   28  C15 UNL     1      -0.986  26.791  15.783  1.00  0.00     0.054 C 
HETATM   29  C16 UNL     1       0.195  25.979  16.254  1.00  0.00     0.126 C 
HETATM   30  N3  UNL     1       0.387  24.962  15.255  1.00  0.00    -0.374 N 
HETATM   31  C22 UNL     1      -0.330  25.353  14.063  1.00  0.00     0.155 C 
BRANCH  30  32
HETATM   32  C17 UNL     1       1.205  23.785  15.400  1.00  0.00     0.096 A 
HETATM   33  C18 UNL     1       2.574  23.905  15.415  1.00  0.00     0.160 A 
HETATM   34  F2  UNL     1       3.203  25.089  15.232  1.00  0.00    -0.202 F 
HETATM   35  C19 UNL     1       3.320  22.739  15.601  1.00  0.00     0.134 A 
HETATM   36  N4  UNL     1       2.767  21.532  15.763  1.00  0.00    -0.352 N 
HETATM   37  C20 UNL     1       1.435  21.384  15.753  1.00  0.00     0.127 A 
ATOM     38  H4  UNL     1       3.365  20.715  15.895  1.00  0.00     0.166 HD
HETATM   39 CL2  UNL     1       0.686  19.820  15.962  1.00  0.00    -0.063 Cl
HETATM   40  C21 UNL     1       0.647  22.526  15.570  1.00  0.00     0.102 A 
HETATM   41 CL3  UNL     1      -1.072  22.266  15.592  1.00  0.00    -0.078 Cl
ENDBRANCH  30  32
ENDBRANCH  26  27
ENDBRANCH   4  26
TORSDOF 10
ENDMDL
