MODEL 1
REMARK VINA RESULT: -11.170829511      0.000      0.000
REMARK  10 active torsions:
REMARK  status: ('A' for Active; 'I' for Inactive)
REMARK       I    between atoms: N1_2  and  C3_4 
REMARK    1  A    between atoms: C3_4  and  C4_6 
REMARK    2  A    between atoms: C4_6  and  C5_7 
REMARK    3  A    between atoms: C4_6  and  N2_17 
REMARK    4  A    between atoms: C5_7  and  C6_8 
REMARK       I    between atoms: N2_17  and  C12_19 
REMARK    5  A    between atoms: C12_19  and  C13_21 
REMARK    6  A    between atoms: C13_21  and  C14_22 
REMARK    7  A    between atoms: C16_24  and  C17_25 
REMARK    8  A    between atoms: C17_25  and  O3_26 
REMARK    9  A    between atoms: O3_26  and  C18_27 
REMARK   10  A    between atoms: C25_39  and  C26_40 
ROOT
HETATM    1  C14 UNL     1      -4.294  24.496  13.356  1.00  0.00    -0.004 C 
HETATM    2  C15 UNL     1      -3.852  25.223  14.567  1.00  0.00     0.016 C 
HETATM    3  C16 UNL     1      -2.867  26.323  14.172  1.00  0.00    -0.017 C 
HETATM    4  C23 UNL     1      -3.695  27.582  13.976  1.00  0.00     0.013 C 
HETATM    5  C24 UNL     1      -3.842  27.745  12.452  1.00  0.00     0.021 C 
HETATM    6  C25 UNL     1      -3.478  26.339  11.934  1.00  0.00     0.049 C 
HETATM    7  C27 UNL     1      -4.635  25.457  12.233  1.00  0.00     0.025 C 
HETATM    8  C28 UNL     1      -2.271  26.107  12.842  1.00  0.00     0.032 C 
ENDROOT
BRANCH   1   9
HETATM    9  C13 UNL     1      -5.303  23.436  13.528  1.00  0.00     0.107 C 
BRANCH   9  10
HETATM   10  C12 UNL     1      -6.481  23.731  14.343  1.00  0.00     0.218 C 
HETATM   11  N2  UNL     1      -7.659  24.309  13.845  1.00  0.00    -0.347 N 
ATOM     12  H2  UNL     1      -7.669  24.528  12.848  1.00  0.00     0.163 HD
HETATM   13  O2  UNL     1      -6.429  23.449  15.576  1.00  0.00    -0.274 OA
BRANCH  11  14
HETATM   14  C4  UNL     1      -8.865  24.632  14.589  1.00  0.00     0.181 C 
BRANCH  14  15
HETATM   15  C3  UNL     1      -9.932  23.673  14.370  1.00  0.00     0.242 C 
HETATM   16  N1  UNL     1     -11.099  23.631  15.161  1.00  0.00    -0.359 N 
HETATM   17  C1  UNL     1     -12.193  22.682  14.833  1.00  0.00     0.152 C 
HETATM   18  C2  UNL     1     -11.350  24.412  16.356  1.00  0.00     0.152 C 
HETATM   19  O1  UNL     1      -9.875  22.794  13.440  1.00  0.00    -0.271 OA
ENDBRANCH  14  15
BRANCH  14  20
HETATM   20  C5  UNL     1      -9.249  26.050  14.386  1.00  0.00     0.076 C 
BRANCH  20  21
HETATM   21  C6  UNL     1      -8.501  27.078  15.131  1.00  0.00    -0.014 A 
HETATM   22  C7  UNL     1      -8.912  27.394  16.428  1.00  0.00     0.055 A 
HETATM   23  C8  UNL     1      -8.264  28.367  17.124  1.00  0.00     0.155 A 
HETATM   24  F1  UNL     1      -8.662  28.690  18.396  1.00  0.00    -0.203 F 
HETATM   25  C9  UNL     1      -7.190  29.070  16.586  1.00  0.00     0.157 A 
HETATM   26  F2  UNL     1      -6.554  30.046  17.299  1.00  0.00    -0.203 F 
HETATM   27  C10 UNL     1      -6.816  28.729  15.313  1.00  0.00     0.088 A 
HETATM   28  C11 UNL     1      -7.441  27.751  14.566  1.00  0.00     0.125 A 
HETATM   29  F3  UNL     1      -6.960  27.456  13.309  1.00  0.00    -0.205 F 
ENDBRANCH  20  21
ENDBRANCH  14  20
ENDBRANCH  11  14
ENDBRANCH   9  10
ENDBRANCH   1   9
BRANCH   3  30
HETATM   30  C17 UNL     1      -1.886  26.507  15.318  1.00  0.00     0.185 C 
BRANCH  30  31
HETATM   31  O3  UNL     1      -0.921  25.654  15.460  1.00  0.00    -0.346 OA
BRANCH  31  32
HETATM   32  C18 UNL     1      -0.004  24.775  15.635  1.00  0.00     0.126 A 
HETATM   33  C19 UNL     1       1.329  25.178  15.809  1.00  0.00     0.130 A 
HETATM   34  N3  UNL     1       2.310  24.302  15.991  1.00  0.00    -0.338 N 
HETATM   35  C20 UNL     1       2.070  22.967  16.016  1.00  0.00     0.230 A 
ATOM     36  H3  UNL     1       3.264  24.640  16.115  1.00  0.00     0.167 HD
HETATM   37  F4  UNL     1       3.064  22.077  16.199  1.00  0.00    -0.183 F 
HETATM   38  C21 UNL     1       0.777  22.542  15.850  1.00  0.00     0.213 A 
HETATM   39  F5  UNL     1       0.510  21.196  15.874  1.00  0.00    -0.198 F 
HETATM   40  C22 UNL     1      -0.252  23.407  15.661  1.00  0.00     0.194 A 
HETATM   41  F6  UNL     1      -1.532  22.935  15.508  1.00  0.00    -0.200 F 
ENDBRANCH  31  32
ENDBRANCH  30  31
ENDBRANCH   3  30
BRANCH   6  42
HETATM   42  C26 UNL     1      -3.058  26.359  10.519  1.00  0.00     0.181 C 
HETATM   43  O4  UNL     1      -2.438  25.389  10.059  1.00  0.00    -0.647 OA
HETATM   44  O5  UNL     1      -3.338  27.434   9.693  1.00  0.00    -0.647 OA
ENDBRANCH   6  42
TORSDOF 10
ENDMDL
MODEL 2
REMARK VINA RESULT: -10.864862789      2.412      4.260
REMARK  10 active torsions:
REMARK  status: ('A' for Active; 'I' for Inactive)
REMARK       I    between atoms: N1_2  and  C3_4 
REMARK    1  A    between atoms: C3_4  and  C4_6 
REMARK    2  A    between atoms: C4_6  and  C5_7 
REMARK    3  A    between atoms: C4_6  and  N2_17 
REMARK    4  A    between atoms: C5_7  and  C6_8 
REMARK       I    between atoms: N2_17  and  C12_19 
REMARK    5  A    between atoms: C12_19  and  C13_21 
REMARK    6  A    between atoms: C13_21  and  C14_22 
REMARK    7  A    between atoms: C16_24  and  C17_25 
REMARK    8  A    between atoms: C17_25  and  O3_26 
REMARK    9  A    between atoms: O3_26  and  C18_27 
REMARK   10  A    between atoms: C25_39  and  C26_40 
ROOT
HETATM    1  C14 UNL     1      -4.270  24.205  13.591  1.00  0.00    -0.004 C 
HETATM    2  C15 UNL     1      -3.866  25.247  14.561  1.00  0.00     0.016 C 
HETATM    3  C16 UNL     1      -2.706  26.060  13.986  1.00  0.00    -0.017 C 
HETATM    4  C23 UNL     1      -3.332  27.254  13.284  1.00  0.00     0.013 C 
HETATM    5  C24 UNL     1      -3.291  26.917  11.783  1.00  0.00     0.021 C 
HETATM    6  C25 UNL     1      -3.066  25.391  11.794  1.00  0.00     0.049 C 
HETATM    7  C27 UNL     1      -4.356  24.768  12.185  1.00  0.00     0.025 C 
HETATM    8  C28 UNL     1      -2.005  25.362  12.894  1.00  0.00     0.032 C 
ENDROOT
BRANCH   1   9
HETATM    9  C13 UNL     1      -5.424  23.359  13.940  1.00  0.00     0.107 C 
BRANCH   9  10
HETATM   10  C12 UNL     1      -6.748  23.979  13.973  1.00  0.00     0.218 C 
HETATM   11  N2  UNL     1      -7.340  24.511  15.130  1.00  0.00    -0.347 N 
ATOM     12  H2  UNL     1      -6.791  24.450  15.988  1.00  0.00     0.163 HD
HETATM   13  O2  UNL     1      -7.400  24.033  12.890  1.00  0.00    -0.274 OA
BRANCH  11  14
HETATM   14  C4  UNL     1      -8.646  25.140  15.241  1.00  0.00     0.181 C 
BRANCH  14  15
HETATM   15  C3  UNL     1      -8.593  26.427  15.908  1.00  0.00     0.242 C 
HETATM   16  N1  UNL     1      -8.016  27.572  15.320  1.00  0.00    -0.359 N 
HETATM   17  C1  UNL     1      -8.068  28.882  16.018  1.00  0.00     0.152 C 
HETATM   18  C2  UNL     1      -7.290  27.614  14.065  1.00  0.00     0.152 C 
HETATM   19  O1  UNL     1      -9.065  26.602  17.086  1.00  0.00    -0.271 OA
ENDBRANCH  14  15
BRANCH  14  20
HETATM   20  C5  UNL     1      -9.644  24.191  15.794  1.00  0.00     0.076 C 
BRANCH  20  21
HETATM   21  C6  UNL     1     -10.577  23.550  14.851  1.00  0.00    -0.014 A 
HETATM   22  C7  UNL     1     -10.174  22.381  14.202  1.00  0.00     0.055 A 
HETATM   23  C8  UNL     1     -11.001  21.791  13.298  1.00  0.00     0.155 A 
HETATM   24  F1  UNL     1     -10.613  20.646  12.650  1.00  0.00    -0.203 F 
HETATM   25  C9  UNL     1     -12.254  22.314  12.989  1.00  0.00     0.157 A 
HETATM   26  F2  UNL     1     -13.068  21.709  12.075  1.00  0.00    -0.203 F 
HETATM   27  C10 UNL     1     -12.613  23.460  13.648  1.00  0.00     0.088 A 
HETATM   28  C11 UNL     1     -11.810  24.096  14.573  1.00  0.00     0.125 A 
HETATM   29  F3  UNL     1     -12.285  25.222  15.211  1.00  0.00    -0.205 F 
ENDBRANCH  20  21
ENDBRANCH  14  20
ENDBRANCH  11  14
ENDBRANCH   9  10
ENDBRANCH   1   9
BRANCH   3  30
HETATM   30  C17 UNL     1      -1.838  26.521  15.145  1.00  0.00     0.185 C 
BRANCH  30  31
HETATM   31  O3  UNL     1      -0.809  25.808  15.480  1.00  0.00    -0.346 OA
BRANCH  31  32
HETATM   32  C18 UNL     1       0.195  25.063  15.763  1.00  0.00     0.126 A 
HETATM   33  C19 UNL     1       1.398  25.645  16.194  1.00  0.00     0.130 A 
HETATM   34  N3  UNL     1       2.464  24.912  16.495  1.00  0.00    -0.338 N 
HETATM   35  C20 UNL     1       2.442  23.559  16.400  1.00  0.00     0.230 A 
ATOM     36  H3  UNL     1       3.317  25.377  16.805  1.00  0.00     0.167 HD
HETATM   37  F4  UNL     1       3.523  22.815  16.704  1.00  0.00    -0.183 F 
HETATM   38  C21 UNL     1       1.281  22.962  15.984  1.00  0.00     0.213 A 
HETATM   39  F5  UNL     1       1.234  21.594  15.883  1.00  0.00    -0.198 F 
HETATM   40  C22 UNL     1       0.171  23.676  15.666  1.00  0.00     0.194 A 
HETATM   41  F6  UNL     1      -0.973  23.033  15.262  1.00  0.00    -0.200 F 
ENDBRANCH  31  32
ENDBRANCH  30  31
ENDBRANCH   3  30
BRANCH   6  42
HETATM   42  C26 UNL     1      -2.498  24.904  10.521  1.00  0.00     0.181 C 
HETATM   43  O4  UNL     1      -2.020  23.761  10.472  1.00  0.00    -0.647 OA
HETATM   44  O5  UNL     1      -2.483  25.691   9.383  1.00  0.00    -0.647 OA
ENDBRANCH   6  42
TORSDOF 10
ENDMDL
MODEL 3
REMARK VINA RESULT: -10.798370176      3.164      9.677
REMARK  10 active torsions:
REMARK  status: ('A' for Active; 'I' for Inactive)
REMARK       I    between atoms: N1_2  and  C3_4 
REMARK    1  A    between atoms: C3_4  and  C4_6 
REMARK    2  A    between atoms: C4_6  and  C5_7 
REMARK    3  A    between atoms: C4_6  and  N2_17 
REMARK    4  A    between atoms: C5_7  and  C6_8 
REMARK       I    between atoms: N2_17  and  C12_19 
REMARK    5  A    between atoms: C12_19  and  C13_21 
REMARK    6  A    between atoms: C13_21  and  C14_22 
REMARK    7  A    between atoms: C16_24  and  C17_25 
REMARK    8  A    between atoms: C17_25  and  O3_26 
REMARK    9  A    between atoms: O3_26  and  C18_27 
REMARK   10  A    between atoms: C25_39  and  C26_40 
ROOT
HETATM    1  C14 UNL     1      -6.213  27.982  14.651  1.00  0.00    -0.004 C 
HETATM    2  C15 UNL     1      -7.027  27.146  13.740  1.00  0.00     0.016 C 
HETATM    3  C16 UNL     1      -8.267  26.643  14.480  1.00  0.00    -0.017 C 
HETATM    4  C23 UNL     1      -9.368  27.652  14.197  1.00  0.00     0.013 C 
HETATM    5  C24 UNL     1      -9.474  28.514  15.468  1.00  0.00     0.021 C 
HETATM    6  C25 UNL     1      -8.136  28.218  16.177  1.00  0.00     0.049 C 
HETATM    7  C27 UNL     1      -7.081  28.950  15.432  1.00  0.00     0.025 C 
HETATM    8  C28 UNL     1      -8.125  26.708  15.944  1.00  0.00     0.032 C 
ENDROOT
BRANCH   1   9
HETATM    9  C13 UNL     1      -5.004  28.616  14.097  1.00  0.00     0.107 C 
BRANCH   9  10
HETATM   10  C12 UNL     1      -3.737  27.894  14.203  1.00  0.00     0.218 C 
HETATM   11  N2  UNL     1      -3.418  26.749  13.456  1.00  0.00    -0.347 N 
ATOM     12  H2  UNL     1      -4.131  26.420  12.804  1.00  0.00     0.163 HD
HETATM   13  O2  UNL     1      -2.879  28.329  15.025  1.00  0.00    -0.274 OA
BRANCH  11  14
HETATM   14  C4  UNL     1      -2.185  25.980  13.506  1.00  0.00     0.181 C 
BRANCH  14  15
HETATM   15  C3  UNL     1      -1.914  25.275  12.268  1.00  0.00     0.242 C 
HETATM   16  N1  UNL     1      -1.159  25.835  11.216  1.00  0.00    -0.359 N 
HETATM   17  C1  UNL     1      -0.844  25.030  10.008  1.00  0.00     0.152 C 
HETATM   18  C2  UNL     1      -0.670  27.198  11.147  1.00  0.00     0.152 C 
HETATM   19  O1  UNL     1      -2.354  24.091  12.050  1.00  0.00    -0.271 OA
ENDBRANCH  14  15
BRANCH  14  20
HETATM   20  C5  UNL     1      -2.136  25.139  14.728  1.00  0.00     0.076 C 
BRANCH  20  21
HETATM   21  C6  UNL     1      -0.812  24.806  15.279  1.00  0.00    -0.014 A 
HETATM   22  C7  UNL     1       0.141  25.822  15.391  1.00  0.00     0.055 A 
HETATM   23  C8  UNL     1       1.384  25.533  15.861  1.00  0.00     0.155 A 
HETATM   24  F1  UNL     1       2.329  26.522  15.969  1.00  0.00    -0.203 F 
HETATM   25  C9  UNL     1       1.751  24.245  16.240  1.00  0.00     0.157 A 
HETATM   26  F2  UNL     1       3.006  23.975  16.706  1.00  0.00    -0.203 F 
HETATM   27  C10 UNL     1       0.789  23.278  16.118  1.00  0.00     0.088 A 
HETATM   28  C11 UNL     1      -0.485  23.520  15.647  1.00  0.00     0.125 A 
HETATM   29  F3  UNL     1      -1.392  22.483  15.603  1.00  0.00    -0.205 F 
ENDBRANCH  20  21
ENDBRANCH  14  20
ENDBRANCH  11  14
ENDBRANCH   9  10
ENDBRANCH   1   9
BRANCH   3  30
HETATM   30  C17 UNL     1      -8.634  25.284  13.907  1.00  0.00     0.185 C 
BRANCH  30  31
HETATM   31  O3  UNL     1      -9.780  24.763  14.213  1.00  0.00    -0.346 OA
BRANCH  31  32
HETATM   32  C18 UNL     1     -10.905  24.266  14.576  1.00  0.00     0.126 A 
HETATM   33  C19 UNL     1     -11.697  24.941  15.518  1.00  0.00     0.130 A 
HETATM   34  N3  UNL     1     -12.867  24.462  15.925  1.00  0.00    -0.338 N 
HETATM   35  C20 UNL     1     -13.355  23.290  15.446  1.00  0.00     0.230 A 
ATOM     36  H3  UNL     1     -13.409  24.986  16.610  1.00  0.00     0.167 HD
HETATM   37  F4  UNL     1     -14.541  22.802  15.859  1.00  0.00    -0.183 F 
HETATM   38  C21 UNL     1     -12.605  22.609  14.523  1.00  0.00     0.213 A 
HETATM   39  F5  UNL     1     -13.081  21.422  14.023  1.00  0.00    -0.198 F 
HETATM   40  C22 UNL     1     -11.405  23.066  14.084  1.00  0.00     0.194 A 
HETATM   41  F6  UNL     1     -10.693  22.353  13.151  1.00  0.00    -0.200 F 
ENDBRANCH  31  32
ENDBRANCH  30  31
ENDBRANCH   3  30
BRANCH   6  42
HETATM   42  C26 UNL     1      -8.197  28.513  17.623  1.00  0.00     0.181 C 
HETATM   43  O4  UNL     1      -9.289  28.450  18.206  1.00  0.00    -0.647 OA
HETATM   44  O5  UNL     1      -7.067  28.861  18.342  1.00  0.00    -0.647 OA
ENDBRANCH   6  42
TORSDOF 10
ENDMDL
MODEL 4
REMARK VINA RESULT: -10.753859616      1.172      1.585
REMARK  10 active torsions:
REMARK  status: ('A' for Active; 'I' for Inactive)
REMARK       I    between atoms: N1_2  and  C3_4 
REMARK    1  A    between atoms: C3_4  and  C4_6 
REMARK    2  A    between atoms: C4_6  and  C5_7 
REMARK    3  A    between atoms: C4_6  and  N2_17 
REMARK    4  A    between atoms: C5_7  and  C6_8 
REMARK       I    between atoms: N2_17  and  C12_19 
REMARK    5  A    between atoms: C12_19  and  C13_21 
REMARK    6  A    between atoms: C13_21  and  C14_22 
REMARK    7  A    between atoms: C16_24  and  C17_25 
REMARK    8  A    between atoms: C17_25  and  O3_26 
REMARK    9  A    between atoms: O3_26  and  C18_27 
REMARK   10  A    between atoms: C25_39  and  C26_40 
ROOT
HETATM    1  C14 UNL     1      -3.665  23.939  13.278  1.00  0.00    -0.004 C 
HETATM    2  C15 UNL     1      -3.332  24.994  14.260  1.00  0.00     0.016 C 
HETATM    3  C16 UNL     1      -2.264  25.919  13.675  1.00  0.00    -0.017 C 
HETATM    4  C23 UNL     1      -3.012  27.064  13.013  1.00  0.00     0.013 C 
HETATM    5  C24 UNL     1      -2.980  26.761  11.504  1.00  0.00     0.021 C 
HETATM    6  C25 UNL     1      -2.618  25.261  11.478  1.00  0.00     0.049 C 
HETATM    7  C27 UNL     1      -3.837  24.517  11.886  1.00  0.00     0.025 C 
HETATM    8  C28 UNL     1      -1.532  25.308  12.552  1.00  0.00     0.032 C 
ENDROOT
BRANCH   1   9
HETATM    9  C13 UNL     1      -4.729  22.985  13.637  1.00  0.00     0.107 C 
BRANCH   9  10
HETATM   10  C12 UNL     1      -5.916  23.501  14.319  1.00  0.00     0.218 C 
HETATM   11  N2  UNL     1      -6.997  24.112  13.664  1.00  0.00    -0.347 N 
ATOM     12  H2  UNL     1      -6.927  24.188  12.649  1.00  0.00     0.163 HD
HETATM   13  O2  UNL     1      -5.965  23.392  15.578  1.00  0.00    -0.274 OA
BRANCH  11  14
HETATM   14  C4  UNL     1      -8.205  24.648  14.270  1.00  0.00     0.181 C 
BRANCH  14  15
HETATM   15  C3  UNL     1      -9.330  23.736  14.178  1.00  0.00     0.242 C 
HETATM   16  N1  UNL     1     -10.455  23.820  15.024  1.00  0.00    -0.359 N 
HETATM   17  C1  UNL     1     -11.613  22.911  14.825  1.00  0.00     0.152 C 
HETATM   18  C2  UNL     1     -10.603  24.704  16.164  1.00  0.00     0.152 C 
HETATM   19  O1  UNL     1      -9.366  22.787  13.319  1.00  0.00    -0.271 OA
ENDBRANCH  14  15
BRANCH  14  20
HETATM   20  C5  UNL     1      -8.475  26.024  13.784  1.00  0.00     0.076 C 
BRANCH  20  21
HETATM   21  C6  UNL     1      -7.990  27.148  14.603  1.00  0.00    -0.014 A 
HETATM   22  C7  UNL     1      -6.612  27.324  14.749  1.00  0.00     0.055 A 
HETATM   23  C8  UNL     1      -6.138  28.331  15.531  1.00  0.00     0.155 A 
HETATM   24  F1  UNL     1      -4.787  28.510  15.686  1.00  0.00    -0.203 F 
HETATM   25  C9  UNL     1      -6.986  29.207  16.203  1.00  0.00     0.157 A 
HETATM   26  F2  UNL     1      -6.491  30.210  16.987  1.00  0.00    -0.203 F 
HETATM   27  C10 UNL     1      -8.329  29.003  16.033  1.00  0.00     0.088 A 
HETATM   28  C11 UNL     1      -8.860  27.997  15.251  1.00  0.00     0.125 A 
HETATM   29  F3  UNL     1     -10.228  27.904  15.114  1.00  0.00    -0.205 F 
ENDBRANCH  20  21
ENDBRANCH  14  20
ENDBRANCH  11  14
ENDBRANCH   9  10
ENDBRANCH   1   9
BRANCH   3  30
HETATM   30  C17 UNL     1      -1.412  26.434  14.822  1.00  0.00     0.185 C 
BRANCH  30  31
HETATM   31  O3  UNL     1      -0.442  25.697  15.263  1.00  0.00    -0.346 OA
BRANCH  31  32
HETATM   32  C18 UNL     1       0.528  24.948  15.640  1.00  0.00     0.126 A 
HETATM   33  C19 UNL     1       1.657  25.518  16.248  1.00  0.00     0.130 A 
HETATM   34  N3  UNL     1       2.685  24.781  16.652  1.00  0.00    -0.338 N 
HETATM   35  C20 UNL     1       2.694  23.434  16.494  1.00  0.00     0.230 A 
ATOM     36  H3  UNL     1       3.485  25.238  17.090  1.00  0.00     0.167 HD
HETATM   37  F4  UNL     1       3.737  22.685  16.901  1.00  0.00    -0.183 F 
HETATM   38  C21 UNL     1       1.604  22.847  15.905  1.00  0.00     0.213 A 
HETATM   39  F5  UNL     1       1.590  21.485  15.737  1.00  0.00    -0.198 F 
HETATM   40  C22 UNL     1       0.535  23.567  15.479  1.00  0.00     0.194 A 
HETATM   41  F6  UNL     1      -0.538  22.934  14.902  1.00  0.00    -0.200 F 
ENDBRANCH  31  32
ENDBRANCH  30  31
ENDBRANCH   3  30
BRANCH   6  42
HETATM   42  C26 UNL     1      -2.042  24.851  10.183  1.00  0.00     0.181 C 
HETATM   43  O4  UNL     1      -2.332  25.494   9.162  1.00  0.00    -0.647 OA
HETATM   44  O5  UNL     1      -1.187  23.767  10.077  1.00  0.00    -0.647 OA
ENDBRANCH   6  42
TORSDOF 10
ENDMDL
MODEL 5
REMARK VINA RESULT: -10.745765979      2.435      4.191
REMARK  10 active torsions:
REMARK  status: ('A' for Active; 'I' for Inactive)
REMARK       I    between atoms: N1_2  and  C3_4 
REMARK    1  A    between atoms: C3_4  and  C4_6 
REMARK    2  A    between atoms: C4_6  and  C5_7 
REMARK    3  A    between atoms: C4_6  and  N2_17 
REMARK    4  A    between atoms: C5_7  and  C6_8 
REMARK       I    between atoms: N2_17  and  C12_19 
REMARK    5  A    between atoms: C12_19  and  C13_21 
REMARK    6  A    between atoms: C13_21  and  C14_22 
REMARK    7  A    between atoms: C16_24  and  C17_25 
REMARK    8  A    between atoms: C17_25  and  O3_26 
REMARK    9  A    between atoms: O3_26  and  C18_27 
REMARK   10  A    between atoms: C25_39  and  C26_40 
ROOT
HETATM    1  C14 UNL     1      -4.533  24.395  13.493  1.00  0.00    -0.004 C 
HETATM    2  C15 UNL     1      -4.133  25.412  14.490  1.00  0.00     0.016 C 
HETATM    3  C16 UNL     1      -2.907  26.172  13.982  1.00  0.00    -0.017 C 
HETATM    4  C23 UNL     1      -3.440  27.398  13.256  1.00  0.00     0.013 C 
HETATM    5  C24 UNL     1      -3.336  27.066  11.757  1.00  0.00     0.021 C 
HETATM    6  C25 UNL     1      -3.183  25.531  11.769  1.00  0.00     0.049 C 
HETATM    7  C27 UNL     1      -4.519  24.967  12.088  1.00  0.00     0.025 C 
HETATM    8  C28 UNL     1      -2.184  25.448  12.923  1.00  0.00     0.032 C 
ENDROOT
BRANCH   1   9
HETATM    9  C13 UNL     1      -5.742  23.601  13.776  1.00  0.00     0.107 C 
BRANCH   9  10
HETATM   10  C12 UNL     1      -7.022  24.304  13.862  1.00  0.00     0.218 C 
HETATM   11  N2  UNL     1      -7.589  24.760  15.063  1.00  0.00    -0.347 N 
ATOM     12  H2  UNL     1      -7.056  24.579  15.914  1.00  0.00     0.163 HD
HETATM   13  O2  UNL     1      -7.656  24.507  12.787  1.00  0.00    -0.274 OA
BRANCH  11  14
HETATM   14  C4  UNL     1      -8.852  25.462  15.228  1.00  0.00     0.181 C 
BRANCH  14  15
HETATM   15  C3  UNL     1      -8.708  26.709  15.956  1.00  0.00     0.242 C 
HETATM   16  N1  UNL     1      -7.985  27.811  15.454  1.00  0.00    -0.359 N 
HETATM   17  C1  UNL     1      -7.945  29.089  16.209  1.00  0.00     0.152 C 
HETATM   18  C2  UNL     1      -7.185  27.828  14.245  1.00  0.00     0.152 C 
HETATM   19  O1  UNL     1      -9.229  26.884  17.114  1.00  0.00    -0.271 OA
ENDBRANCH  14  15
BRANCH  14  20
HETATM   20  C5  UNL     1      -9.899  24.550  15.752  1.00  0.00     0.076 C 
BRANCH  20  21
HETATM   21  C6  UNL     1     -10.670  23.759  14.778  1.00  0.00    -0.014 A 
HETATM   22  C7  UNL     1     -11.893  24.261  14.326  1.00  0.00     0.055 A 
HETATM   23  C8  UNL     1     -12.643  23.532  13.456  1.00  0.00     0.155 A 
HETATM   24  F1  UNL     1     -13.848  24.013  13.011  1.00  0.00    -0.203 F 
HETATM   25  C9  UNL     1     -12.234  22.286  12.991  1.00  0.00     0.157 A 
HETATM   26  F2  UNL     1     -13.003  21.568  12.121  1.00  0.00    -0.203 F 
HETATM   27  C10 UNL     1     -11.029  21.830  13.455  1.00  0.00     0.088 A 
HETATM   28  C11 UNL     1     -10.231  22.530  14.337  1.00  0.00     0.125 A 
HETATM   29  F3  UNL     1      -9.016  21.999  14.710  1.00  0.00    -0.205 F 
ENDBRANCH  20  21
ENDBRANCH  14  20
ENDBRANCH  11  14
ENDBRANCH   9  10
ENDBRANCH   1   9
BRANCH   3  30
HETATM   30  C17 UNL     1      -2.081  26.587  15.188  1.00  0.00     0.185 C 
BRANCH  30  31
HETATM   31  O3  UNL     1      -1.036  25.889  15.501  1.00  0.00    -0.346 OA
BRANCH  31  32
HETATM   32  C18 UNL     1      -0.020  25.154  15.769  1.00  0.00     0.126 A 
HETATM   33  C19 UNL     1       1.196  25.750  16.140  1.00  0.00     0.130 A 
HETATM   34  N3  UNL     1       2.274  25.028  16.423  1.00  0.00    -0.338 N 
HETATM   35  C20 UNL     1       2.252  23.673  16.367  1.00  0.00     0.230 A 
ATOM     36  H3  UNL     1       3.137  25.502  16.689  1.00  0.00     0.167 HD
HETATM   37  F4  UNL     1       3.346  22.939  16.653  1.00  0.00    -0.183 F 
HETATM   38  C21 UNL     1       1.078  23.062  16.010  1.00  0.00     0.213 A 
HETATM   39  F5  UNL     1       1.032  21.691  15.949  1.00  0.00    -0.198 F 
HETATM   40  C22 UNL     1      -0.044  23.765  15.712  1.00  0.00     0.194 A 
HETATM   41  F6  UNL     1      -1.200  23.109  15.368  1.00  0.00    -0.200 F 
ENDBRANCH  31  32
ENDBRANCH  30  31
ENDBRANCH   3  30
BRANCH   6  42
HETATM   42  C26 UNL     1      -2.572  25.024  10.525  1.00  0.00     0.181 C 
HETATM   43  O4  UNL     1      -2.081  23.885  10.514  1.00  0.00    -0.647 OA
HETATM   44  O5  UNL     1      -2.533  25.786   9.370  1.00  0.00    -0.647 OA
ENDBRANCH   6  42
TORSDOF 10
ENDMDL
