MODEL 1
REMARK VINA RESULT: -9.712450861      0.000      0.000
REMARK  12 active torsions:
REMARK  status: ('A' for Active; 'I' for Inactive)
REMARK    1  A    between atoms: C2_2  and  C4_4 
REMARK    2  A    between atoms: C4_4  and  N1_5 
REMARK    3  A    between atoms: C4_4  and  C16_28 
REMARK       I    between atoms: N1_5  and  C5_7 
REMARK    4  A    between atoms: C5_7  and  O2_9 
REMARK    5  A    between atoms: O2_9  and  C6_10 
REMARK    6  A    between atoms: C6_10  and  C7_11 
REMARK    7  A    between atoms: C6_10  and  C8_15 
REMARK    8  A    between atoms: C8_15  and  C9_18 
REMARK    9  A    between atoms: C9_18  and  C10_19 
REMARK       I    between atoms: C10_19  and  N2_21 
REMARK   10  A    between atoms: C13_24  and  C14_25 
REMARK   11  A    between atoms: C16_28  and  C17_30 
REMARK       I    between atoms: C17_30  and  N3_32 
REMARK   12  A    between atoms: N3_32  and  C18_33 
ROOT
HETATM    1  N1  UNL     1      -4.061  25.700  14.491  1.00  0.00    -0.325 N 
ATOM      2  H1  UNL     1      -3.995  25.120  15.328  1.00  0.00     0.165 HD
HETATM    3  C5  UNL     1      -5.099  26.648  14.337  1.00  0.00     0.362 C 
HETATM    4  O1  UNL     1      -5.120  27.327  13.261  1.00  0.00    -0.238 OA
ENDROOT
BRANCH   3   5
HETATM    5  O2  UNL     1      -6.094  26.908  15.236  1.00  0.00    -0.283 OA
BRANCH   5   6
HETATM    6  C6  UNL     1      -6.930  28.142  15.057  1.00  0.00     0.317 C 
BRANCH   6   7
HETATM    7  C7  UNL     1      -6.546  28.937  16.267  1.00  0.00     0.420 C 
HETATM    8  F1  UNL     1      -7.023  28.604  17.471  1.00  0.00    -0.168 F 
HETATM    9  F2  UNL     1      -5.179  29.119  16.388  1.00  0.00    -0.168 F 
HETATM   10  F3  UNL     1      -7.031  30.241  16.012  1.00  0.00    -0.168 F 
ENDBRANCH   6   7
BRANCH   6  11
HETATM   11  C8  UNL     1      -8.314  27.675  14.902  1.00  0.00     0.301 C 
HETATM   12  F4  UNL     1      -8.378  26.658  15.986  1.00  0.00    -0.198 F 
HETATM   13  F5  UNL     1      -9.303  28.519  15.262  1.00  0.00    -0.198 F 
BRANCH  11  14
HETATM   14  C9  UNL     1      -8.672  26.787  13.755  1.00  0.00     0.128 C 
BRANCH  14  15
HETATM   15  C10 UNL     1      -8.973  25.394  13.903  1.00  0.00     0.245 C 
HETATM   16  O3  UNL     1      -8.049  24.556  13.610  1.00  0.00    -0.269 OA
HETATM   17  N2  UNL     1     -10.204  24.831  14.349  1.00  0.00    -0.348 N 
HETATM   18  C11 UNL     1     -11.372  25.558  14.769  1.00  0.00     0.126 C 
HETATM   19  C15 UNL     1     -10.482  23.421  14.453  1.00  0.00     0.131 C 
HETATM   20  C12 UNL     1     -12.227  24.617  15.553  1.00  0.00     0.027 C 
HETATM   21  C13 UNL     1     -11.741  23.247  15.215  1.00  0.00     0.015 C 
BRANCH  21  22
HETATM   22  C14 UNL     1     -12.791  22.461  14.444  1.00  0.00     0.091 C 
HETATM   23 BR1  UNL     1     -12.130  21.801  12.767  1.00  0.00    -0.096 Br
ENDBRANCH  21  22
ENDBRANCH  14  15
ENDBRANCH  11  14
ENDBRANCH   6  11
ENDBRANCH   5   6
ENDBRANCH   3   5
BRANCH   1  24
HETATM   24  C4  UNL     1      -3.082  25.580  13.403  1.00  0.00     0.171 C 
BRANCH  24  25
HETATM   25  C2  UNL     1      -2.927  24.067  13.224  1.00  0.00     0.008 C 
HETATM   26  C1  UNL     1      -2.175  23.713  11.987  1.00  0.00     0.012 C 
HETATM   27  C3  UNL     1      -4.227  23.328  13.367  1.00  0.00     0.012 C 
ENDBRANCH  24  25
BRANCH  24  28
HETATM   28  C16 UNL     1      -1.840  26.223  13.754  1.00  0.00     0.253 C 
HETATM   29  O4  UNL     1      -1.115  26.779  12.922  1.00  0.00    -0.284 OA
BRANCH  28  30
HETATM   30  C17 UNL     1      -1.381  26.236  15.176  1.00  0.00     0.359 C 
HETATM   31  O5  UNL     1      -1.800  27.248  15.809  1.00  0.00    -0.248 OA
HETATM   32  N3  UNL     1      -0.590  25.215  15.659  1.00  0.00    -0.403 NA
BRANCH  32  33
HETATM   33  C18 UNL     1       0.177  24.230  16.135  1.00  0.00     0.167 C 
HETATM   34  C19 UNL     1       1.679  24.619  16.171  1.00  0.00     0.039 C 
HETATM   35  C20 UNL     1       2.482  23.812  15.206  1.00  0.00     0.003 C 
HETATM   36  C21 UNL     1       2.455  22.330  15.505  1.00  0.00     0.000 C 
HETATM   37  C22 UNL     1       1.052  21.942  15.900  1.00  0.00     0.003 C 
HETATM   38  C23 UNL     1       0.089  22.922  15.296  1.00  0.00     0.039 C 
ENDBRANCH  32  33
ENDBRANCH  28  30
ENDBRANCH  24  28
ENDBRANCH   1  24
TORSDOF 12
ENDMDL
MODEL 2
REMARK VINA RESULT: -9.660763021      1.342      1.610
REMARK  12 active torsions:
REMARK  status: ('A' for Active; 'I' for Inactive)
REMARK    1  A    between atoms: C2_2  and  C4_4 
REMARK    2  A    between atoms: C4_4  and  N1_5 
REMARK    3  A    between atoms: C4_4  and  C16_28 
REMARK       I    between atoms: N1_5  and  C5_7 
REMARK    4  A    between atoms: C5_7  and  O2_9 
REMARK    5  A    between atoms: O2_9  and  C6_10 
REMARK    6  A    between atoms: C6_10  and  C7_11 
REMARK    7  A    between atoms: C6_10  and  C8_15 
REMARK    8  A    between atoms: C8_15  and  C9_18 
REMARK    9  A    between atoms: C9_18  and  C10_19 
REMARK       I    between atoms: C10_19  and  N2_21 
REMARK   10  A    between atoms: C13_24  and  C14_25 
REMARK   11  A    between atoms: C16_28  and  C17_30 
REMARK       I    between atoms: C17_30  and  N3_32 
REMARK   12  A    between atoms: N3_32  and  C18_33 
ROOT
HETATM    1  N1  UNL     1      -4.343  26.484  14.153  1.00  0.00    -0.325 N 
ATOM      2  H1  UNL     1      -4.664  25.567  14.463  1.00  0.00     0.165 HD
HETATM    3  C5  UNL     1      -4.983  27.669  14.587  1.00  0.00     0.362 C 
HETATM    4  O1  UNL     1      -4.531  28.776  14.149  1.00  0.00    -0.238 OA
ENDROOT
BRANCH   3   5
HETATM    5  O2  UNL     1      -6.050  27.745  15.436  1.00  0.00    -0.283 OA
BRANCH   5   6
HETATM    6  C6  UNL     1      -7.337  28.334  14.934  1.00  0.00     0.317 C 
BRANCH   6   7
HETATM    7  C7  UNL     1      -7.904  28.916  16.191  1.00  0.00     0.420 C 
HETATM    8  F1  UNL     1      -9.039  29.624  16.154  1.00  0.00    -0.168 F 
HETATM    9  F2  UNL     1      -8.014  27.995  17.218  1.00  0.00    -0.168 F 
HETATM   10  F3  UNL     1      -6.913  29.812  16.656  1.00  0.00    -0.168 F 
ENDBRANCH   6   7
BRANCH   6  11
HETATM   11  C8  UNL     1      -8.045  27.241  14.253  1.00  0.00     0.301 C 
HETATM   12  F4  UNL     1      -9.455  27.601  14.562  1.00  0.00    -0.198 F 
HETATM   13  F5  UNL     1      -8.052  27.245  12.904  1.00  0.00    -0.198 F 
BRANCH  11  14
HETATM   14  C9  UNL     1      -8.039  25.871  14.849  1.00  0.00     0.128 C 
BRANCH  14  15
HETATM   15  C10 UNL     1      -8.927  24.827  14.430  1.00  0.00     0.245 C 
HETATM   16  O3  UNL     1      -8.607  24.168  13.378  1.00  0.00    -0.269 OA
HETATM   17  N2  UNL     1     -10.141  24.435  15.064  1.00  0.00    -0.348 N 
HETATM   18  C11 UNL     1     -10.692  24.993  16.270  1.00  0.00     0.126 C 
HETATM   19  C15 UNL     1     -11.027  23.401  14.593  1.00  0.00     0.131 C 
HETATM   20  C12 UNL     1     -11.692  24.016  16.798  1.00  0.00     0.027 C 
HETATM   21  C13 UNL     1     -12.010  23.104  15.662  1.00  0.00     0.015 C 
BRANCH  21  22
HETATM   22  C14 UNL     1     -13.449  23.270  15.201  1.00  0.00     0.091 C 
HETATM   23 BR1  UNL     1     -13.577  24.097  13.473  1.00  0.00    -0.096 Br
ENDBRANCH  21  22
ENDBRANCH  14  15
ENDBRANCH  11  14
ENDBRANCH   6  11
ENDBRANCH   5   6
ENDBRANCH   3   5
BRANCH   1  24
HETATM   24  C4  UNL     1      -3.201  26.623  13.240  1.00  0.00     0.171 C 
BRANCH  24  25
HETATM   25  C2  UNL     1      -3.775  26.207  11.882  1.00  0.00     0.008 C 
HETATM   26  C1  UNL     1      -3.399  27.150  10.791  1.00  0.00     0.012 C 
HETATM   27  C3  UNL     1      -5.245  25.909  11.937  1.00  0.00     0.012 C 
ENDBRANCH  24  25
BRANCH  24  28
HETATM   28  C16 UNL     1      -2.104  25.785  13.655  1.00  0.00     0.253 C 
HETATM   29  O4  UNL     1      -1.673  24.855  12.965  1.00  0.00    -0.284 OA
BRANCH  28  30
HETATM   30  C17 UNL     1      -1.437  26.025  14.970  1.00  0.00     0.359 C 
HETATM   31  O5  UNL     1      -1.717  27.162  15.453  1.00  0.00    -0.248 OA
HETATM   32  N3  UNL     1      -0.624  25.060  15.522  1.00  0.00    -0.403 NA
BRANCH  32  33
HETATM   33  C18 UNL     1       0.167  24.128  16.065  1.00  0.00     0.167 C 
HETATM   34  C19 UNL     1       1.647  24.587  16.145  1.00  0.00     0.039 C 
HETATM   35  C20 UNL     1       2.524  23.784  15.243  1.00  0.00     0.003 C 
HETATM   36  C21 UNL     1       2.551  22.314  15.596  1.00  0.00     0.000 C 
HETATM   37  C22 UNL     1       1.152  21.876  15.950  1.00  0.00     0.003 C 
HETATM   38  C23 UNL     1       0.171  22.788  15.272  1.00  0.00     0.039 C 
ENDBRANCH  32  33
ENDBRANCH  28  30
ENDBRANCH  24  28
ENDBRANCH   1  24
TORSDOF 12
ENDMDL
MODEL 3
REMARK VINA RESULT: -9.629684640      1.108      1.359
REMARK  12 active torsions:
REMARK  status: ('A' for Active; 'I' for Inactive)
REMARK    1  A    between atoms: C2_2  and  C4_4 
REMARK    2  A    between atoms: C4_4  and  N1_5 
REMARK    3  A    between atoms: C4_4  and  C16_28 
REMARK       I    between atoms: N1_5  and  C5_7 
REMARK    4  A    between atoms: C5_7  and  O2_9 
REMARK    5  A    between atoms: O2_9  and  C6_10 
REMARK    6  A    between atoms: C6_10  and  C7_11 
REMARK    7  A    between atoms: C6_10  and  C8_15 
REMARK    8  A    between atoms: C8_15  and  C9_18 
REMARK    9  A    between atoms: C9_18  and  C10_19 
REMARK       I    between atoms: C10_19  and  N2_21 
REMARK   10  A    between atoms: C13_24  and  C14_25 
REMARK   11  A    between atoms: C16_28  and  C17_30 
REMARK       I    between atoms: C17_30  and  N3_32 
REMARK   12  A    between atoms: N3_32  and  C18_33 
ROOT
HETATM    1  N1  UNL     1      -4.014  25.910  14.349  1.00  0.00    -0.325 N 
ATOM      2  H1  UNL     1      -4.161  25.251  15.114  1.00  0.00     0.165 HD
HETATM    3  C5  UNL     1      -4.818  27.066  14.213  1.00  0.00     0.362 C 
HETATM    4  O1  UNL     1      -4.580  27.836  13.229  1.00  0.00    -0.238 OA
ENDROOT
BRANCH   3   5
HETATM    5  O2  UNL     1      -5.838  27.440  15.041  1.00  0.00    -0.283 OA
BRANCH   5   6
HETATM    6  C6  UNL     1      -7.146  27.863  14.437  1.00  0.00     0.317 C 
BRANCH   6   7
HETATM    7  C7  UNL     1      -7.818  28.508  15.609  1.00  0.00     0.420 C 
HETATM    8  F1  UNL     1      -9.070  28.967  15.501  1.00  0.00    -0.168 F 
HETATM    9  F2  UNL     1      -7.742  27.751  16.766  1.00  0.00    -0.168 F 
HETATM   10  F3  UNL     1      -7.023  29.641  15.905  1.00  0.00    -0.168 F 
ENDBRANCH   6   7
BRANCH   6  11
HETATM   11  C8  UNL     1      -7.727  26.653  13.840  1.00  0.00     0.301 C 
HETATM   12  F4  UNL     1      -9.155  27.060  13.743  1.00  0.00    -0.198 F 
HETATM   13  F5  UNL     1      -7.432  26.389  12.551  1.00  0.00    -0.198 F 
BRANCH  11  14
HETATM   14  C9  UNL     1      -7.911  25.429  14.677  1.00  0.00     0.128 C 
BRANCH  14  15
HETATM   15  C10 UNL     1      -8.923  24.448  14.424  1.00  0.00     0.245 C 
HETATM   16  O3  UNL     1      -8.691  23.583  13.507  1.00  0.00    -0.269 OA
HETATM   17  N2  UNL     1     -10.177  24.325  15.091  1.00  0.00    -0.348 N 
HETATM   18  C11 UNL     1     -10.651  25.146  16.173  1.00  0.00     0.126 C 
HETATM   19  C15 UNL     1     -11.186  23.344  14.785  1.00  0.00     0.131 C 
HETATM   20  C12 UNL     1     -11.766  24.407  16.839  1.00  0.00     0.027 C 
HETATM   21  C13 UNL     1     -12.197  23.359  15.869  1.00  0.00     0.015 C 
BRANCH  21  22
HETATM   22  C14 UNL     1     -13.605  23.621  15.356  1.00  0.00     0.091 C 
HETATM   23 BR1  UNL     1     -13.636  24.077  13.492  1.00  0.00    -0.096 Br
ENDBRANCH  21  22
ENDBRANCH  14  15
ENDBRANCH  11  14
ENDBRANCH   6  11
ENDBRANCH   5   6
ENDBRANCH   3   5
BRANCH   1  24
HETATM   24  C4  UNL     1      -2.960  25.694  13.350  1.00  0.00     0.171 C 
BRANCH  24  25
HETATM   25  C2  UNL     1      -2.876  24.169  13.240  1.00  0.00     0.008 C 
HETATM   26  C1  UNL     1      -2.008  23.725  12.113  1.00  0.00     0.012 C 
HETATM   27  C3  UNL     1      -4.225  23.509  13.255  1.00  0.00     0.012 C 
ENDBRANCH  24  25
BRANCH  24  28
HETATM   28  C16 UNL     1      -1.716  26.285  13.776  1.00  0.00     0.253 C 
HETATM   29  O4  UNL     1      -0.942  26.852  12.998  1.00  0.00    -0.284 OA
BRANCH  28  30
HETATM   30  C17 UNL     1      -1.316  26.228  15.215  1.00  0.00     0.359 C 
HETATM   31  O5  UNL     1      -1.765  27.208  15.880  1.00  0.00    -0.248 OA
HETATM   32  N3  UNL     1      -0.543  25.186  15.679  1.00  0.00    -0.403 NA
BRANCH  32  33
HETATM   33  C18 UNL     1       0.206  24.179  16.138  1.00  0.00     0.167 C 
HETATM   34  C19 UNL     1       1.714  24.543  16.186  1.00  0.00     0.039 C 
HETATM   35  C20 UNL     1       2.507  23.742  15.207  1.00  0.00     0.003 C 
HETATM   36  C21 UNL     1       2.455  22.255  15.477  1.00  0.00     0.000 C 
HETATM   37  C22 UNL     1       1.045  21.882  15.860  1.00  0.00     0.003 C 
HETATM   38  C23 UNL     1       0.099  22.889  15.273  1.00  0.00     0.039 C 
ENDBRANCH  32  33
ENDBRANCH  28  30
ENDBRANCH  24  28
ENDBRANCH   1  24
TORSDOF 12
ENDMDL
MODEL 4
REMARK VINA RESULT: -9.502355214      1.058      1.317
REMARK  12 active torsions:
REMARK  status: ('A' for Active; 'I' for Inactive)
REMARK    1  A    between atoms: C2_2  and  C4_4 
REMARK    2  A    between atoms: C4_4  and  N1_5 
REMARK    3  A    between atoms: C4_4  and  C16_28 
REMARK       I    between atoms: N1_5  and  C5_7 
REMARK    4  A    between atoms: C5_7  and  O2_9 
REMARK    5  A    between atoms: O2_9  and  C6_10 
REMARK    6  A    between atoms: C6_10  and  C7_11 
REMARK    7  A    between atoms: C6_10  and  C8_15 
REMARK    8  A    between atoms: C8_15  and  C9_18 
REMARK    9  A    between atoms: C9_18  and  C10_19 
REMARK       I    between atoms: C10_19  and  N2_21 
REMARK   10  A    between atoms: C13_24  and  C14_25 
REMARK   11  A    between atoms: C16_28  and  C17_30 
REMARK       I    between atoms: C17_30  and  N3_32 
REMARK   12  A    between atoms: N3_32  and  C18_33 
ROOT
HETATM    1  N1  UNL     1      -4.359  25.965  14.669  1.00  0.00    -0.325 N 
ATOM      2  H1  UNL     1      -4.321  25.383  15.506  1.00  0.00     0.165 HD
HETATM    3  C5  UNL     1      -5.280  27.033  14.560  1.00  0.00     0.362 C 
HETATM    4  O1  UNL     1      -5.274  27.708  13.481  1.00  0.00    -0.238 OA
ENDROOT
BRANCH   3   5
HETATM    5  O2  UNL     1      -6.185  27.417  15.508  1.00  0.00    -0.283 OA
BRANCH   5   6
HETATM    6  C6  UNL     1      -7.504  27.983  15.066  1.00  0.00     0.317 C 
BRANCH   6   7
HETATM    7  C7  UNL     1      -7.778  28.975  16.153  1.00  0.00     0.420 C 
HETATM    8  F1  UNL     1      -8.979  29.557  16.247  1.00  0.00    -0.168 F 
HETATM    9  F2  UNL     1      -7.431  28.516  17.411  1.00  0.00    -0.168 F 
HETATM   10  F3  UNL     1      -6.863  30.028  15.922  1.00  0.00    -0.168 F 
ENDBRANCH   6   7
BRANCH   6  11
HETATM   11  C8  UNL     1      -8.400  26.832  14.887  1.00  0.00     0.301 C 
HETATM   12  F4  UNL     1      -9.546  27.488  14.203  1.00  0.00    -0.198 F 
HETATM   13  F5  UNL     1      -8.043  25.896  13.983  1.00  0.00    -0.198 F 
BRANCH  11  14
HETATM   14  C9  UNL     1      -9.140  26.280  16.062  1.00  0.00     0.128 C 
BRANCH  14  15
HETATM   15  C10 UNL     1      -9.632  24.936  16.121  1.00  0.00     0.245 C 
HETATM   16  O3  UNL     1      -8.928  24.077  16.761  1.00  0.00    -0.269 OA
HETATM   17  N2  UNL     1     -10.837  24.444  15.540  1.00  0.00    -0.348 N 
HETATM   18  C11 UNL     1     -11.808  25.213  14.809  1.00  0.00     0.126 C 
HETATM   19  C15 UNL     1     -11.283  23.074  15.591  1.00  0.00     0.131 C 
HETATM   20  C12 UNL     1     -13.076  24.422  14.782  1.00  0.00     0.027 C 
HETATM   21  C13 UNL     1     -12.691  23.024  15.132  1.00  0.00     0.015 C 
BRANCH  21  22
HETATM   22  C14 UNL     1     -12.893  22.081  13.956  1.00  0.00     0.091 C 
HETATM   23 BR1  UNL     1     -11.233  21.494  13.191  1.00  0.00    -0.096 Br
ENDBRANCH  21  22
ENDBRANCH  14  15
ENDBRANCH  11  14
ENDBRANCH   6  11
ENDBRANCH   5   6
ENDBRANCH   3   5
BRANCH   1  24
HETATM   24  C4  UNL     1      -3.462  25.722  13.532  1.00  0.00     0.171 C 
BRANCH  24  25
HETATM   25  C2  UNL     1      -3.394  24.195  13.447  1.00  0.00     0.008 C 
HETATM   26  C1  UNL     1      -2.639  23.723  12.252  1.00  0.00     0.012 C 
HETATM   27  C3  UNL     1      -4.738  23.543  13.603  1.00  0.00     0.012 C 
ENDBRANCH  24  25
BRANCH  24  28
HETATM   28  C16 UNL     1      -2.169  26.320  13.758  1.00  0.00     0.253 C 
HETATM   29  O4  UNL     1      -1.482  26.796  12.849  1.00  0.00    -0.284 OA
BRANCH  28  30
HETATM   30  C17 UNL     1      -1.608  26.382  15.142  1.00  0.00     0.359 C 
HETATM   31  O5  UNL     1      -1.955  27.432  15.757  1.00  0.00    -0.248 OA
HETATM   32  N3  UNL     1      -0.809  25.363  15.613  1.00  0.00    -0.403 NA
BRANCH  32  33
HETATM   33  C18 UNL     1      -0.032  24.379  16.077  1.00  0.00     0.167 C 
HETATM   34  C19 UNL     1       1.449  24.818  16.225  1.00  0.00     0.039 C 
HETATM   35  C20 UNL     1       2.337  24.098  15.265  1.00  0.00     0.003 C 
HETATM   36  C21 UNL     1       2.350  22.600  15.478  1.00  0.00     0.000 C 
HETATM   37  C22 UNL     1       0.943  22.140  15.765  1.00  0.00     0.003 C 
HETATM   38  C23 UNL     1      -0.022  23.120  15.161  1.00  0.00     0.039 C 
ENDBRANCH  32  33
ENDBRANCH  28  30
ENDBRANCH  24  28
ENDBRANCH   1  24
TORSDOF 12
ENDMDL
MODEL 5
REMARK VINA RESULT: -9.377441213      3.527      9.026
REMARK  12 active torsions:
REMARK  status: ('A' for Active; 'I' for Inactive)
REMARK    1  A    between atoms: C2_2  and  C4_4 
REMARK    2  A    between atoms: C4_4  and  N1_5 
REMARK    3  A    between atoms: C4_4  and  C16_28 
REMARK       I    between atoms: N1_5  and  C5_7 
REMARK    4  A    between atoms: C5_7  and  O2_9 
REMARK    5  A    between atoms: O2_9  and  C6_10 
REMARK    6  A    between atoms: C6_10  and  C7_11 
REMARK    7  A    between atoms: C6_10  and  C8_15 
REMARK    8  A    between atoms: C8_15  and  C9_18 
REMARK    9  A    between atoms: C9_18  and  C10_19 
REMARK       I    between atoms: C10_19  and  N2_21 
REMARK   10  A    between atoms: C13_24  and  C14_25 
REMARK   11  A    between atoms: C16_28  and  C17_30 
REMARK       I    between atoms: C17_30  and  N3_32 
REMARK   12  A    between atoms: N3_32  and  C18_33 
ROOT
HETATM    1  N1  UNL     1      -9.492  23.522  13.402  1.00  0.00    -0.325 N 
ATOM      2  H1  UNL     1      -9.691  23.662  12.411  1.00  0.00     0.165 HD
HETATM    3  C5  UNL     1      -8.165  23.522  13.890  1.00  0.00     0.362 C 
HETATM    4  O1  UNL     1      -7.996  23.332  15.137  1.00  0.00    -0.238 OA
ENDROOT
BRANCH   3   5
HETATM    5  O2  UNL     1      -7.033  23.705  13.148  1.00  0.00    -0.283 OA
BRANCH   5   6
HETATM    6  C6  UNL     1      -6.039  24.743  13.583  1.00  0.00     0.317 C 
BRANCH   6   7
HETATM    7  C7  UNL     1      -6.222  25.788  12.527  1.00  0.00     0.420 C 
HETATM    8  F1  UNL     1      -5.568  25.693  11.364  1.00  0.00    -0.168 F 
HETATM    9  F2  UNL     1      -7.552  26.051  12.245  1.00  0.00    -0.168 F 
HETATM   10  F3  UNL     1      -5.768  26.988  13.122  1.00  0.00    -0.168 F 
ENDBRANCH   6   7
BRANCH   6  11
HETATM   11  C8  UNL     1      -4.750  24.046  13.702  1.00  0.00     0.301 C 
HETATM   12  F4  UNL     1      -4.448  24.284  15.139  1.00  0.00    -0.198 F 
HETATM   13  F5  UNL     1      -4.761  22.698  13.647  1.00  0.00    -0.198 F 
BRANCH  11  14
HETATM   14  C9  UNL     1      -3.519  24.661  13.120  1.00  0.00     0.128 C 
BRANCH  14  15
HETATM   15  C10 UNL     1      -2.591  25.439  13.887  1.00  0.00     0.245 C 
HETATM   16  O3  UNL     1      -2.784  26.704  13.940  1.00  0.00    -0.269 OA
HETATM   17  N2  UNL     1      -1.463  24.951  14.608  1.00  0.00    -0.348 N 
HETATM   18  C11 UNL     1      -1.059  23.576  14.732  1.00  0.00     0.126 C 
HETATM   19  C15 UNL     1      -0.531  25.769  15.341  1.00  0.00     0.131 C 
HETATM   20  C12 UNL     1      -0.133  23.486  15.901  1.00  0.00     0.027 C 
HETATM   21  C13 UNL     1       0.316  24.882  16.174  1.00  0.00     0.015 C 
BRANCH  21  22
HETATM   22  C14 UNL     1       1.801  25.053  15.895  1.00  0.00     0.091 C 
HETATM   23 BR1  UNL     1       2.662  23.395  15.455  1.00  0.00    -0.096 Br
ENDBRANCH  21  22
ENDBRANCH  14  15
ENDBRANCH  11  14
ENDBRANCH   6  11
ENDBRANCH   5   6
ENDBRANCH   3   5
BRANCH   1  24
HETATM   24  C4  UNL     1     -10.574  23.314  14.373  1.00  0.00     0.171 C 
BRANCH  24  25
HETATM   25  C2  UNL     1     -11.590  22.465  13.603  1.00  0.00     0.008 C 
HETATM   26  C1  UNL     1     -12.851  22.252  14.368  1.00  0.00     0.012 C 
HETATM   27  C3  UNL     1     -10.996  21.198  13.059  1.00  0.00     0.012 C 
ENDBRANCH  24  25
BRANCH  24  28
HETATM   28  C16 UNL     1     -11.125  24.573  14.810  1.00  0.00     0.253 C 
HETATM   29  O4  UNL     1     -11.827  25.285  14.083  1.00  0.00    -0.284 OA
BRANCH  28  30
HETATM   30  C17 UNL     1     -10.856  25.067  16.194  1.00  0.00     0.359 C 
HETATM   31  O5  UNL     1     -11.705  24.642  17.032  1.00  0.00    -0.248 OA
HETATM   32  N3  UNL     1      -9.778  25.890  16.440  1.00  0.00    -0.403 NA
BRANCH  32  33
HETATM   33  C18 UNL     1      -8.736  26.689  16.686  1.00  0.00     0.167 C 
HETATM   34  C19 UNL     1      -9.122  27.902  17.573  1.00  0.00     0.039 C 
HETATM   35  C20 UNL     1      -9.018  29.190  16.824  1.00  0.00     0.003 C 
HETATM   36  C21 UNL     1      -7.614  29.486  16.345  1.00  0.00     0.000 C 
HETATM   37  C22 UNL     1      -6.999  28.208  15.831  1.00  0.00     0.003 C 
HETATM   38  C23 UNL     1      -8.096  27.281  15.396  1.00  0.00     0.039 C 
ENDBRANCH  32  33
ENDBRANCH  28  30
ENDBRANCH  24  28
ENDBRANCH   1  24
TORSDOF 12
ENDMDL
