MODEL 1
REMARK VINA RESULT: -10.136082725      0.000      0.000
REMARK  11 active torsions:
REMARK  status: ('A' for Active; 'I' for Inactive)
REMARK    1  A    between atoms: C4_4  and  C5_5 
REMARK       I    between atoms: C5_5  and  N1_7 
REMARK    2  A    between atoms: N1_7  and  C6_9 
REMARK    3  A    between atoms: C6_9  and  C8_11 
REMARK       I    between atoms: C8_11  and  N2_13 
REMARK    4  A    between atoms: N2_13  and  C9_15 
REMARK    5  A    between atoms: C9_15  and  C10_16 
REMARK    6  A    between atoms: C9_15  and  C18_30 
REMARK    7  A    between atoms: C10_16  and  N3_17 
REMARK    8  A    between atoms: N3_17  and  C11_18 
REMARK    9  A    between atoms: N3_17  and  C12_20 
REMARK   10  A    between atoms: C22_34  and  N4_35 
REMARK   11  A    between atoms: C27_41  and  C28_42 
ROOT
HETATM    1  C6  UNL     1      -7.084  23.495  15.034  1.00  0.00     0.172 C 
HETATM    2  C7  UNL     1      -6.985  22.891  16.423  1.00  0.00     0.042 C 
ENDROOT
BRANCH   1   3
HETATM    3  N1  UNL     1      -5.863  24.153  14.639  1.00  0.00    -0.344 N 
HETATM    4  C5  UNL     1      -5.474  24.182  13.287  1.00  0.00     0.252 C 
HETATM    5  O1  UNL     1      -6.184  23.630  12.381  1.00  0.00    -0.268 OA
ATOM      6  H1  UNL     1      -5.279  24.601  15.345  1.00  0.00     0.163 HD
BRANCH   4   7
HETATM    7  C4  UNL     1      -4.257  24.830  12.848  1.00  0.00     0.034 A 
HETATM    8  C3  UNL     1      -4.237  25.574  11.708  1.00  0.00     0.024 A 
HETATM    9  C2  UNL     1      -3.081  26.229  11.245  1.00  0.00    -0.047 A 
HETATM   10  C1  UNL     1      -3.065  27.030  10.013  1.00  0.00     0.049 C 
HETATM   11  C27 UNL     1      -1.908  26.119  11.974  1.00  0.00     0.038 A 
HETATM   12  C22 UNL     1      -1.913  25.371  13.122  1.00  0.00     0.043 A 
HETATM   13  C21 UNL     1      -3.070  24.736  13.556  1.00  0.00     0.047 A 
BRANCH  11  14
HETATM   14  C28 UNL     1      -0.703  26.796  11.540  1.00  0.00     0.389 C 
HETATM   15  F5  UNL     1      -0.056  25.976  10.595  1.00  0.00    -0.209 F 
HETATM   16  F6  UNL     1      -0.887  28.047  11.009  1.00  0.00    -0.209 F 
ENDBRANCH  11  14
BRANCH  12  17
HETATM   17  N4  UNL     1      -0.749  25.180  13.888  1.00  0.00    -0.376 N 
HETATM   18  C23 UNL     1      -0.343  26.109  14.890  1.00  0.00     0.149 C 
HETATM   19  C24 UNL     1       0.624  25.512  15.892  1.00  0.00     0.187 C 
HETATM   20  O4  UNL     1       1.495  24.588  15.329  1.00  0.00    -0.388 OA
HETATM   21  C25 UNL     1       0.733  23.505  14.879  1.00  0.00     0.187 C 
HETATM   22  C26 UNL     1       0.038  23.981  13.620  1.00  0.00     0.149 C 
ENDBRANCH  12  17
ENDBRANCH   4   7
ENDBRANCH   1   3
BRANCH   1  23
HETATM   23  C8  UNL     1      -8.267  24.353  14.895  1.00  0.00     0.240 C 
HETATM   24  O2  UNL     1      -8.805  24.473  13.769  1.00  0.00    -0.271 OA
HETATM   25  N2  UNL     1      -8.813  25.046  15.992  1.00  0.00    -0.350 N 
ATOM     26  H2  UNL     1      -8.384  24.957  16.913  1.00  0.00     0.163 HD
BRANCH  25  27
HETATM   27  C9  UNL     1     -10.033  25.921  15.814  1.00  0.00     0.127 C 
BRANCH  27  28
HETATM   28  C10 UNL     1     -11.042  25.291  16.675  1.00  0.00     0.098 C 
BRANCH  28  29
HETATM   29  N3  UNL     1     -11.501  23.974  16.497  1.00  0.00    -0.299 N 
BRANCH  29  30
HETATM   30  C11 UNL     1     -11.611  23.052  17.572  1.00  0.00     0.360 C 
HETATM   31  O3  UNL     1     -10.626  22.541  18.145  1.00  0.00    -0.283 OA
ENDBRANCH  29  30
BRANCH  29  32
HETATM   32  C12 UNL     1     -11.862  23.447  15.201  1.00  0.00     0.085 A 
HETATM   33  C13 UNL     1     -11.222  22.368  14.655  1.00  0.00     0.079 A 
HETATM   34  C14 UNL     1     -11.589  21.876  13.396  1.00  0.00     0.160 A 
HETATM   35  F1  UNL     1     -10.925  20.816  12.916  1.00  0.00    -0.203 F 
HETATM   36  C15 UNL     1     -12.596  22.491  12.721  1.00  0.00     0.196 A 
HETATM   37  F2  UNL     1     -12.996  22.056  11.489  1.00  0.00    -0.199 F 
HETATM   38  C16 UNL     1     -13.251  23.595  13.278  1.00  0.00     0.198 A 
HETATM   39  F3  UNL     1     -14.250  24.184  12.584  1.00  0.00    -0.199 F 
HETATM   40  C17 UNL     1     -12.885  24.069  14.512  1.00  0.00     0.185 A 
HETATM   41  F4  UNL     1     -13.521  25.141  15.057  1.00  0.00    -0.200 F 
ENDBRANCH  29  32
ENDBRANCH  28  29
ENDBRANCH  27  28
BRANCH  27  42
HETATM   42  C18 UNL     1      -9.545  27.294  16.157  1.00  0.00     0.005 C 
HETATM   43  C19 UNL     1      -8.869  27.430  17.482  1.00  0.00     0.012 C 
HETATM   44  C20 UNL     1      -8.671  27.876  15.042  1.00  0.00     0.012 C 
ENDBRANCH  27  42
ENDBRANCH  25  27
ENDBRANCH   1  23
TORSDOF 11
ENDMDL
MODEL 2
REMARK VINA RESULT: -10.126723948      2.904     10.737
REMARK  11 active torsions:
REMARK  status: ('A' for Active; 'I' for Inactive)
REMARK    1  A    between atoms: C4_4  and  C5_5 
REMARK       I    between atoms: C5_5  and  N1_7 
REMARK    2  A    between atoms: N1_7  and  C6_9 
REMARK    3  A    between atoms: C6_9  and  C8_11 
REMARK       I    between atoms: C8_11  and  N2_13 
REMARK    4  A    between atoms: N2_13  and  C9_15 
REMARK    5  A    between atoms: C9_15  and  C10_16 
REMARK    6  A    between atoms: C9_15  and  C18_30 
REMARK    7  A    between atoms: C10_16  and  N3_17 
REMARK    8  A    between atoms: N3_17  and  C11_18 
REMARK    9  A    between atoms: N3_17  and  C12_20 
REMARK   10  A    between atoms: C22_34  and  N4_35 
REMARK   11  A    between atoms: C27_41  and  C28_42 
ROOT
HETATM    1  C6  UNL     1      -4.770  27.500  13.305  1.00  0.00     0.172 C 
HETATM    2  C7  UNL     1      -4.894  28.950  13.735  1.00  0.00     0.042 C 
ENDROOT
BRANCH   1   3
HETATM    3  N1  UNL     1      -5.618  26.629  14.080  1.00  0.00    -0.344 N 
HETATM    4  C5  UNL     1      -6.642  25.891  13.457  1.00  0.00     0.252 C 
HETATM    5  O1  UNL     1      -6.847  25.973  12.199  1.00  0.00    -0.268 OA
ATOM      6  H1  UNL     1      -5.474  26.547  15.086  1.00  0.00     0.163 HD
BRANCH   4   7
HETATM    7  C4  UNL     1      -7.516  25.006  14.197  1.00  0.00     0.034 A 
HETATM    8  C3  UNL     1      -7.034  24.245  15.217  1.00  0.00     0.024 A 
HETATM    9  C2  UNL     1      -7.845  23.376  15.969  1.00  0.00    -0.047 A 
HETATM   10  C1  UNL     1      -7.318  22.555  17.069  1.00  0.00     0.049 C 
HETATM   11  C27 UNL     1      -9.194  23.285  15.668  1.00  0.00     0.038 A 
HETATM   12  C22 UNL     1      -9.692  24.044  14.642  1.00  0.00     0.043 A 
HETATM   13  C21 UNL     1      -8.868  24.895  13.916  1.00  0.00     0.047 A 
BRANCH  11  14
HETATM   14  C28 UNL     1     -10.065  22.417  16.434  1.00  0.00     0.389 C 
HETATM   15  F5  UNL     1     -10.997  23.225  17.116  1.00  0.00    -0.209 F 
HETATM   16  F6  UNL     1     -10.732  21.462  15.711  1.00  0.00    -0.209 F 
ENDBRANCH  11  14
BRANCH  12  17
HETATM   17  N4  UNL     1     -11.043  23.971  14.253  1.00  0.00    -0.376 N 
HETATM   18  C23 UNL     1     -11.528  22.934  13.405  1.00  0.00     0.149 C 
HETATM   19  C24 UNL     1     -13.031  22.756  13.489  1.00  0.00     0.187 C 
HETATM   20  O4  UNL     1     -13.714  23.952  13.680  1.00  0.00    -0.388 OA
HETATM   21  C25 UNL     1     -13.342  24.458  14.930  1.00  0.00     0.187 C 
HETATM   22  C26 UNL     1     -11.940  25.005  14.756  1.00  0.00     0.149 C 
ENDBRANCH  12  17
ENDBRANCH   4   7
ENDBRANCH   1   3
BRANCH   1  23
HETATM   23  C8  UNL     1      -3.370  27.058  13.275  1.00  0.00     0.240 C 
HETATM   24  O2  UNL     1      -2.589  27.447  14.175  1.00  0.00    -0.271 OA
HETATM   25  N2  UNL     1      -2.882  26.209  12.264  1.00  0.00    -0.350 N 
ATOM     26  H2  UNL     1      -3.508  25.887  11.526  1.00  0.00     0.163 HD
BRANCH  25  27
HETATM   27  C9  UNL     1      -1.434  25.772  12.265  1.00  0.00     0.127 C 
BRANCH  27  28
HETATM   28  C10 UNL     1      -1.488  24.391  12.761  1.00  0.00     0.098 C 
BRANCH  28  29
HETATM   29  N3  UNL     1      -1.447  24.055  14.125  1.00  0.00    -0.299 N 
BRANCH  29  30
HETATM   30  C11 UNL     1      -2.622  23.861  14.899  1.00  0.00     0.360 C 
HETATM   31  O3  UNL     1      -3.778  23.968  14.436  1.00  0.00    -0.283 OA
ENDBRANCH  29  30
BRANCH  29  32
HETATM   32  C12 UNL     1      -0.207  23.914  14.852  1.00  0.00     0.085 A 
HETATM   33  C13 UNL     1       0.395  22.697  15.027  1.00  0.00     0.079 A 
HETATM   34  C14 UNL     1       1.597  22.586  15.738  1.00  0.00     0.160 A 
HETATM   35  F1  UNL     1       2.138  21.367  15.874  1.00  0.00    -0.203 F 
HETATM   36  C15 UNL     1       2.159  23.710  16.256  1.00  0.00     0.196 A 
HETATM   37  F2  UNL     1       3.329  23.662  16.959  1.00  0.00    -0.199 F 
HETATM   38  C16 UNL     1       1.544  24.955  16.078  1.00  0.00     0.198 A 
HETATM   39  F3  UNL     1       2.128  26.056  16.602  1.00  0.00    -0.199 F 
HETATM   40  C17 UNL     1       0.367  25.054  15.379  1.00  0.00     0.185 A 
HETATM   41  F4  UNL     1      -0.232  26.263  15.204  1.00  0.00    -0.200 F 
ENDBRANCH  29  32
ENDBRANCH  28  29
ENDBRANCH  27  28
BRANCH  27  42
HETATM   42  C18 UNL     1      -0.983  26.019  10.859  1.00  0.00     0.005 C 
HETATM   43  C19 UNL     1      -1.989  25.731   9.794  1.00  0.00     0.012 C 
HETATM   44  C20 UNL     1      -0.407  27.429  10.692  1.00  0.00     0.012 C 
ENDBRANCH  27  42
ENDBRANCH  25  27
ENDBRANCH   1  23
TORSDOF 11
ENDMDL
MODEL 3
REMARK VINA RESULT: -10.097765429      0.441      1.461
REMARK  11 active torsions:
REMARK  status: ('A' for Active; 'I' for Inactive)
REMARK    1  A    between atoms: C4_4  and  C5_5 
REMARK       I    between atoms: C5_5  and  N1_7 
REMARK    2  A    between atoms: N1_7  and  C6_9 
REMARK    3  A    between atoms: C6_9  and  C8_11 
REMARK       I    between atoms: C8_11  and  N2_13 
REMARK    4  A    between atoms: N2_13  and  C9_15 
REMARK    5  A    between atoms: C9_15  and  C10_16 
REMARK    6  A    between atoms: C9_15  and  C18_30 
REMARK    7  A    between atoms: C10_16  and  N3_17 
REMARK    8  A    between atoms: N3_17  and  C11_18 
REMARK    9  A    between atoms: N3_17  and  C12_20 
REMARK   10  A    between atoms: C22_34  and  N4_35 
REMARK   11  A    between atoms: C27_41  and  C28_42 
ROOT
HETATM    1  C6  UNL     1      -7.079  23.440  15.055  1.00  0.00     0.172 C 
HETATM    2  C7  UNL     1      -6.974  22.832  16.442  1.00  0.00     0.042 C 
ENDROOT
BRANCH   1   3
HETATM    3  N1  UNL     1      -5.860  24.099  14.658  1.00  0.00    -0.344 N 
HETATM    4  C5  UNL     1      -5.496  24.167  13.300  1.00  0.00     0.252 C 
HETATM    5  O1  UNL     1      -6.228  23.650  12.391  1.00  0.00    -0.268 OA
ATOM      6  H1  UNL     1      -5.257  24.519  15.366  1.00  0.00     0.163 HD
BRANCH   4   7
HETATM    7  C4  UNL     1      -4.281  24.818  12.858  1.00  0.00     0.034 A 
HETATM    8  C3  UNL     1      -4.263  25.553  11.713  1.00  0.00     0.024 A 
HETATM    9  C2  UNL     1      -3.109  26.211  11.247  1.00  0.00    -0.047 A 
HETATM   10  C1  UNL     1      -3.095  27.002  10.009  1.00  0.00     0.049 C 
HETATM   11  C27 UNL     1      -1.937  26.112  11.978  1.00  0.00     0.038 A 
HETATM   12  C22 UNL     1      -1.941  25.373  13.132  1.00  0.00     0.043 A 
HETATM   13  C21 UNL     1      -3.095  24.735  13.569  1.00  0.00     0.047 A 
BRANCH  11  14
HETATM   14  C28 UNL     1      -0.734  26.792  11.542  1.00  0.00     0.389 C 
HETATM   15  F5  UNL     1      -0.069  25.957  10.623  1.00  0.00    -0.209 F 
HETATM   16  F6  UNL     1      -0.927  28.028  10.978  1.00  0.00    -0.209 F 
ENDBRANCH  11  14
BRANCH  12  17
HETATM   17  N4  UNL     1      -0.777  25.194  13.902  1.00  0.00    -0.376 N 
HETATM   18  C23 UNL     1      -0.381  26.130  14.901  1.00  0.00     0.149 C 
HETATM   19  C24 UNL     1       0.589  25.545  15.908  1.00  0.00     0.187 C 
HETATM   20  O4  UNL     1       1.468  24.624  15.350  1.00  0.00    -0.388 OA
HETATM   21  C25 UNL     1       0.715  23.534  14.903  1.00  0.00     0.187 C 
HETATM   22  C26 UNL     1       0.020  24.000  13.640  1.00  0.00     0.149 C 
ENDBRANCH  12  17
ENDBRANCH   4   7
ENDBRANCH   1   3
BRANCH   1  23
HETATM   23  C8  UNL     1      -8.262  24.298  14.923  1.00  0.00     0.240 C 
HETATM   24  O2  UNL     1      -8.804  24.421  13.799  1.00  0.00    -0.271 OA
HETATM   25  N2  UNL     1      -8.805  24.987  16.024  1.00  0.00    -0.350 N 
ATOM     26  H2  UNL     1      -8.372  24.896  16.943  1.00  0.00     0.163 HD
BRANCH  25  27
HETATM   27  C9  UNL     1     -10.026  25.863  15.853  1.00  0.00     0.127 C 
BRANCH  27  28
HETATM   28  C10 UNL     1     -11.016  25.259  16.754  1.00  0.00     0.098 C 
BRANCH  28  29
HETATM   29  N3  UNL     1     -11.577  23.986  16.548  1.00  0.00    -0.299 N 
BRANCH  29  30
HETATM   30  C11 UNL     1     -11.783  23.064  17.609  1.00  0.00     0.360 C 
HETATM   31  O3  UNL     1     -10.857  22.594  18.304  1.00  0.00    -0.283 OA
ENDBRANCH  29  30
BRANCH  29  32
HETATM   32  C12 UNL     1     -11.954  23.507  15.239  1.00  0.00     0.085 A 
HETATM   33  C13 UNL     1     -12.944  24.105  14.508  1.00  0.00     0.079 A 
HETATM   34  C14 UNL     1     -13.294  23.619  13.241  1.00  0.00     0.160 A 
HETATM   35  F1  UNL     1     -14.271  24.249  12.573  1.00  0.00    -0.203 F 
HETATM   36  C15 UNL     1     -12.632  22.540  12.747  1.00  0.00     0.196 A 
HETATM   37  F2  UNL     1     -12.931  22.023  11.519  1.00  0.00    -0.199 F 
HETATM   38  C16 UNL     1     -11.620  21.928  13.494  1.00  0.00     0.198 A 
HETATM   39  F3  UNL     1     -10.977  20.857  12.976  1.00  0.00    -0.199 F 
HETATM   40  C17 UNL     1     -11.284  22.410  14.735  1.00  0.00     0.185 A 
HETATM   41  F4  UNL     1     -10.299  21.818  15.462  1.00  0.00    -0.200 F 
ENDBRANCH  29  32
ENDBRANCH  28  29
ENDBRANCH  27  28
BRANCH  27  42
HETATM   42  C18 UNL     1      -9.524  27.242  16.149  1.00  0.00     0.005 C 
HETATM   43  C19 UNL     1      -8.774  27.398  17.430  1.00  0.00     0.012 C 
HETATM   44  C20 UNL     1      -8.719  27.812  14.977  1.00  0.00     0.012 C 
ENDBRANCH  27  42
ENDBRANCH  25  27
ENDBRANCH   1  23
TORSDOF 11
ENDMDL
MODEL 4
REMARK VINA RESULT: -10.029725151      2.608      4.103
REMARK  11 active torsions:
REMARK  status: ('A' for Active; 'I' for Inactive)
REMARK    1  A    between atoms: C4_4  and  C5_5 
REMARK       I    between atoms: C5_5  and  N1_7 
REMARK    2  A    between atoms: N1_7  and  C6_9 
REMARK    3  A    between atoms: C6_9  and  C8_11 
REMARK       I    between atoms: C8_11  and  N2_13 
REMARK    4  A    between atoms: N2_13  and  C9_15 
REMARK    5  A    between atoms: C9_15  and  C10_16 
REMARK    6  A    between atoms: C9_15  and  C18_30 
REMARK    7  A    between atoms: C10_16  and  N3_17 
REMARK    8  A    between atoms: N3_17  and  C11_18 
REMARK    9  A    between atoms: N3_17  and  C12_20 
REMARK   10  A    between atoms: C22_34  and  N4_35 
REMARK   11  A    between atoms: C27_41  and  C28_42 
ROOT
HETATM    1  C6  UNL     1      -8.608  27.170  15.448  1.00  0.00     0.172 C 
HETATM    2  C7  UNL     1      -8.585  28.669  15.688  1.00  0.00     0.042 C 
ENDROOT
BRANCH   1   3
HETATM    3  N1  UNL     1      -7.450  26.719  14.717  1.00  0.00    -0.344 N 
HETATM    4  C5  UNL     1      -6.193  27.313  14.936  1.00  0.00     0.252 C 
HETATM    5  O1  UNL     1      -6.045  28.259  15.780  1.00  0.00    -0.268 OA
ATOM      6  H1  UNL     1      -7.543  25.965  14.037  1.00  0.00     0.163 HD
BRANCH   4   7
HETATM    7  C4  UNL     1      -5.005  26.892  14.224  1.00  0.00     0.034 A 
HETATM    8  C3  UNL     1      -4.899  27.074  12.879  1.00  0.00     0.024 A 
HETATM    9  C2  UNL     1      -3.763  26.688  12.145  1.00  0.00    -0.047 A 
HETATM   10  C1  UNL     1      -3.654  26.887  10.693  1.00  0.00     0.049 C 
HETATM   11  C27 UNL     1      -2.701  26.097  12.809  1.00  0.00     0.038 A 
HETATM   12  C22 UNL     1      -2.795  25.905  14.163  1.00  0.00     0.043 A 
HETATM   13  C21 UNL     1      -3.930  26.297  14.863  1.00  0.00     0.047 A 
BRANCH  11  14
HETATM   14  C28 UNL     1      -1.505  25.705  12.090  1.00  0.00     0.389 C 
HETATM   15  F5  UNL     1      -0.474  26.600  12.438  1.00  0.00    -0.209 F 
HETATM   16  F6  UNL     1      -1.084  24.417  12.303  1.00  0.00    -0.209 F 
ENDBRANCH  11  14
BRANCH  12  17
HETATM   17  N4  UNL     1      -1.775  25.272  14.895  1.00  0.00    -0.376 N 
HETATM   18  C23 UNL     1      -1.713  23.855  15.036  1.00  0.00     0.149 C 
HETATM   19  C24 UNL     1      -0.338  23.359  15.432  1.00  0.00     0.187 C 
HETATM   20  O4  UNL     1       0.333  24.228  16.284  1.00  0.00    -0.388 OA
HETATM   21  C25 UNL     1       0.568  25.415  15.582  1.00  0.00     0.187 C 
HETATM   22  C26 UNL     1      -0.766  26.127  15.513  1.00  0.00     0.149 C 
ENDBRANCH  12  17
ENDBRANCH   4   7
ENDBRANCH   1   3
BRANCH   1  23
HETATM   23  C8  UNL     1      -9.872  26.734  14.843  1.00  0.00     0.240 C 
HETATM   24  O2  UNL     1     -10.400  27.446  13.956  1.00  0.00    -0.271 OA
HETATM   25  N2  UNL     1     -10.507  25.540  15.230  1.00  0.00    -0.350 N 
ATOM     26  H2  UNL     1     -10.087  24.953  15.951  1.00  0.00     0.163 HD
BRANCH  25  27
HETATM   27  C9  UNL     1     -11.809  25.120  14.585  1.00  0.00     0.127 C 
BRANCH  27  28
HETATM   28  C10 UNL     1     -11.413  24.037  13.675  1.00  0.00     0.098 C 
BRANCH  28  29
HETATM   29  N3  UNL     1     -10.615  22.948  14.067  1.00  0.00    -0.299 N 
BRANCH  29  30
HETATM   30  C11 UNL     1     -11.144  21.642  14.249  1.00  0.00     0.360 C 
HETATM   31  O3  UNL     1     -12.174  21.229  13.675  1.00  0.00    -0.283 OA
ENDBRANCH  29  30
BRANCH  29  32
HETATM   32  C12 UNL     1      -9.204  23.080  14.347  1.00  0.00     0.085 A 
HETATM   33  C13 UNL     1      -8.311  23.476  13.388  1.00  0.00     0.079 A 
HETATM   34  C14 UNL     1      -6.947  23.595  13.683  1.00  0.00     0.160 A 
HETATM   35  F1  UNL     1      -6.122  23.989  12.703  1.00  0.00    -0.203 F 
HETATM   36  C15 UNL     1      -6.521  23.310  14.942  1.00  0.00     0.196 A 
HETATM   37  F2  UNL     1      -5.203  23.406  15.287  1.00  0.00    -0.199 F 
HETATM   38  C16 UNL     1      -7.434  22.904  15.923  1.00  0.00     0.198 A 
HETATM   39  F3  UNL     1      -6.982  22.629  17.167  1.00  0.00    -0.199 F 
HETATM   40  C17 UNL     1      -8.769  22.791  15.624  1.00  0.00     0.185 A 
HETATM   41  F4  UNL     1      -9.658  22.399  16.576  1.00  0.00    -0.200 F 
ENDBRANCH  29  32
ENDBRANCH  28  29
ENDBRANCH  27  28
BRANCH  27  42
HETATM   42  C18 UNL     1     -12.700  24.801  15.744  1.00  0.00     0.005 C 
HETATM   43  C19 UNL     1     -13.770  23.794  15.483  1.00  0.00     0.012 C 
HETATM   44  C20 UNL     1     -11.890  24.420  16.988  1.00  0.00     0.012 C 
ENDBRANCH  27  42
ENDBRANCH  25  27
ENDBRANCH   1  23
TORSDOF 11
ENDMDL
MODEL 5
REMARK VINA RESULT: -9.903246147      2.958      5.119
REMARK  11 active torsions:
REMARK  status: ('A' for Active; 'I' for Inactive)
REMARK    1  A    between atoms: C4_4  and  C5_5 
REMARK       I    between atoms: C5_5  and  N1_7 
REMARK    2  A    between atoms: N1_7  and  C6_9 
REMARK    3  A    between atoms: C6_9  and  C8_11 
REMARK       I    between atoms: C8_11  and  N2_13 
REMARK    4  A    between atoms: N2_13  and  C9_15 
REMARK    5  A    between atoms: C9_15  and  C10_16 
REMARK    6  A    between atoms: C9_15  and  C18_30 
REMARK    7  A    between atoms: C10_16  and  N3_17 
REMARK    8  A    between atoms: N3_17  and  C11_18 
REMARK    9  A    between atoms: N3_17  and  C12_20 
REMARK   10  A    between atoms: C22_34  and  N4_35 
REMARK   11  A    between atoms: C27_41  and  C28_42 
ROOT
HETATM    1  C6  UNL     1      -7.596  23.284  15.708  1.00  0.00     0.172 C 
HETATM    2  C7  UNL     1      -7.424  22.461  16.971  1.00  0.00     0.042 C 
ENDROOT
BRANCH   1   3
HETATM    3  N1  UNL     1      -6.363  23.906  15.293  1.00  0.00    -0.344 N 
HETATM    4  C5  UNL     1      -5.984  23.903  13.937  1.00  0.00     0.252 C 
HETATM    5  O1  UNL     1      -6.715  23.354  13.046  1.00  0.00    -0.268 OA
ATOM      6  H1  UNL     1      -5.762  24.350  15.986  1.00  0.00     0.163 HD
BRANCH   4   7
HETATM    7  C4  UNL     1      -4.755  24.514  13.478  1.00  0.00     0.034 A 
HETATM    8  C3  UNL     1      -4.736  25.275  12.349  1.00  0.00     0.024 A 
HETATM    9  C2  UNL     1      -3.568  25.895  11.868  1.00  0.00    -0.047 A 
HETATM   10  C1  UNL     1      -3.554  26.714  10.648  1.00  0.00     0.049 C 
HETATM   11  C27 UNL     1      -2.383  25.732  12.565  1.00  0.00     0.038 A 
HETATM   12  C22 UNL     1      -2.388  24.967  13.702  1.00  0.00     0.043 A 
HETATM   13  C21 UNL     1      -3.556  24.366  14.155  1.00  0.00     0.047 A 
BRANCH  11  14
HETATM   14  C28 UNL     1      -1.165  26.372  12.112  1.00  0.00     0.389 C 
HETATM   15  F5  UNL     1      -0.756  27.285  13.104  1.00  0.00    -0.209 F 
HETATM   16  F6  UNL     1      -0.127  25.525  11.816  1.00  0.00    -0.209 F 
ENDBRANCH  11  14
BRANCH  12  17
HETATM   17  N4  UNL     1      -1.213  24.723  14.437  1.00  0.00    -0.376 N 
HETATM   18  C23 UNL     1      -0.356  23.622  14.146  1.00  0.00     0.149 C 
HETATM   19  C24 UNL     1       1.042  23.798  14.703  1.00  0.00     0.187 C 
HETATM   20  O4  UNL     1       1.066  24.467  15.921  1.00  0.00    -0.388 OA
HETATM   21  C25 UNL     1       0.602  25.768  15.700  1.00  0.00     0.187 C 
HETATM   22  C26 UNL     1      -0.897  25.649  15.519  1.00  0.00     0.149 C 
ENDBRANCH  12  17
ENDBRANCH   4   7
ENDBRANCH   1   3
BRANCH   1  23
HETATM   23  C8  UNL     1      -8.706  24.238  15.825  1.00  0.00     0.240 C 
HETATM   24  O2  UNL     1      -8.963  24.739  16.945  1.00  0.00    -0.271 OA
HETATM   25  N2  UNL     1      -9.489  24.604  14.715  1.00  0.00    -0.350 N 
ATOM     26  H2  UNL     1      -9.290  24.202  13.799  1.00  0.00     0.163 HD
BRANCH  25  27
HETATM   27  C9  UNL     1     -10.625  25.590  14.871  1.00  0.00     0.127 C 
BRANCH  27  28
HETATM   28  C10 UNL     1     -10.160  26.776  14.140  1.00  0.00     0.098 C 
BRANCH  28  29
HETATM   29  N3  UNL     1      -8.823  27.212  14.141  1.00  0.00    -0.299 N 
BRANCH  29  30
HETATM   30  C11 UNL     1      -7.968  27.053  13.018  1.00  0.00     0.360 C 
HETATM   31  O3  UNL     1      -7.983  26.047  12.277  1.00  0.00    -0.283 OA
ENDBRANCH  29  30
BRANCH  29  32
HETATM   32  C12 UNL     1      -8.208  27.825  15.295  1.00  0.00     0.085 A 
HETATM   33  C13 UNL     1      -8.904  28.049  16.452  1.00  0.00     0.079 A 
HETATM   34  C14 UNL     1      -8.286  28.647  17.558  1.00  0.00     0.160 A 
HETATM   35  F1  UNL     1      -9.020  28.838  18.663  1.00  0.00    -0.203 F 
HETATM   36  C15 UNL     1      -6.978  29.004  17.464  1.00  0.00     0.196 A 
HETATM   37  F2  UNL     1      -6.324  29.592  18.509  1.00  0.00    -0.199 F 
HETATM   38  C16 UNL     1      -6.265  28.776  16.281  1.00  0.00     0.198 A 
HETATM   39  F3  UNL     1      -4.965  29.140  16.217  1.00  0.00    -0.199 F 
HETATM   40  C17 UNL     1      -6.879  28.190  15.203  1.00  0.00     0.185 A 
HETATM   41  F4  UNL     1      -6.189  27.965  14.052  1.00  0.00    -0.200 F 
ENDBRANCH  29  32
ENDBRANCH  28  29
ENDBRANCH  27  28
BRANCH  27  42
HETATM   42  C18 UNL     1     -11.820  24.848  14.360  1.00  0.00     0.005 C 
HETATM   43  C19 UNL     1     -11.576  23.436  13.941  1.00  0.00     0.012 C 
HETATM   44  C20 UNL     1     -12.994  24.926  15.341  1.00  0.00     0.012 C 
ENDBRANCH  27  42
ENDBRANCH  25  27
ENDBRANCH   1  23
TORSDOF 11
ENDMDL
