MODEL 1
REMARK VINA RESULT: -5.365453496      0.000      0.000
REMARK  9 active torsions:
REMARK  status: ('A' for Active; 'I' for Inactive)
REMARK    1  A    between atoms: C3_3  and  O1_4 
REMARK    2  A    between atoms: N1_7  and  C5_8 
REMARK    3  A    between atoms: C5_8  and  C6_9 
REMARK    4  A    between atoms: C6_9  and  N2_10 
REMARK    5  A    between atoms: C13_18  and  O3_19 
REMARK    6  A    between atoms: C13_18  and  C14_21 
REMARK    7  A    between atoms: C14_21  and  O4_22 
REMARK    8  A    between atoms: C14_21  and  N3_24 
REMARK    9  A    between atoms: N3_24  and  C15_26 
ROOT
HETATM    1  C1  UNL     1      17.073  41.200 -37.167  1.00  0.00     0.015 C 
HETATM    2  C2  UNL     1      17.473  41.888 -38.087  1.00  0.00    -0.074 C 
HETATM    3  C3  UNL     1      17.955  42.714 -39.210  1.00  0.00     0.171 C 
HETATM    4  C4  UNL     1      16.730  43.337 -39.862  1.00  0.00     0.181 C 
HETATM    5  N1  UNL     1      15.966  43.986 -38.858  1.00  0.00    -0.368 N 
HETATM    6  C11 UNL     1      16.614  44.897 -38.044  1.00  0.00     0.066 C 
HETATM    7  C12 UNL     1      17.994  44.585 -37.624  1.00  0.00     0.091 C 
HETATM    8  C13 UNL     1      18.828  43.768 -38.623  1.00  0.00     0.149 C 
ENDROOT
BRANCH   3   9
HETATM    9  O1  UNL     1      18.520  41.912 -40.154  1.00  0.00    -0.373 OA
ATOM     10  H1  UNL     1      19.445  42.114 -40.228  1.00  0.00     0.212 HD
ENDBRANCH   3   9
BRANCH   8  11
HETATM   11  O3  UNL     1      19.770  43.148 -37.786  1.00  0.00    -0.381 OA
ATOM     12  H3  UNL     1      20.466  43.769 -37.607  1.00  0.00     0.211 HD
ENDBRANCH   8  11
BRANCH   8  13
HETATM   13  C14 UNL     1      19.508  44.679 -39.602  1.00  0.00     0.253 C 
BRANCH  13  14
HETATM   14  O4  UNL     1      19.841  45.851 -38.906  1.00  0.00    -0.374 OA
ATOM     15  H4  UNL     1      19.142  46.474 -39.065  1.00  0.00     0.212 HD
ENDBRANCH  13  14
BRANCH  13  16
HETATM   16  N3  UNL     1      20.454  44.158 -40.418  1.00  0.00    -0.387 N 
ATOM     17  H3  UNL     1      21.093  43.532 -39.928  1.00  0.00     0.156 HD
BRANCH  16  18
HETATM   18  C15 UNL     1      20.749  44.276 -41.732  1.00  0.00     0.017 C 
HETATM   19  C16 UNL     1      22.329  44.339 -41.813  1.00  0.00     0.037 C 
HETATM   20  C17 UNL     1      20.439  43.170 -42.700  1.00  0.00     0.037 C 
HETATM   21  C18 UNL     1      20.357  45.576 -42.371  1.00  0.00     0.037 C 
ENDBRANCH  16  18
ENDBRANCH  13  16
ENDBRANCH   8  13
BRANCH   5  22
HETATM   22  C5  UNL     1      14.659  43.557 -38.658  1.00  0.00     0.093 C 
BRANCH  22  23
HETATM   23  C6  UNL     1      13.558  44.549 -38.702  1.00  0.00     0.317 C 
BRANCH  23  24
HETATM   24  N2  UNL     1      13.110  44.757 -37.314  1.00  0.00     0.097 N 
HETATM   25  C7  UNL     1      11.826  44.151 -37.088  1.00  0.00     0.299 C 
HETATM   26  C8  UNL     1      11.377  44.509 -35.696  1.00  0.00     0.198 C 
HETATM   27  O2  UNL     1      11.076  45.891 -35.746  1.00  0.00    -0.388 OA
HETATM   28  C9  UNL     1      12.277  46.535 -35.797  1.00  0.00     0.198 C 
HETATM   29  C10 UNL     1      13.193  46.127 -36.904  1.00  0.00     0.299 C 
ENDBRANCH  23  24
ENDBRANCH  22  23
ENDBRANCH   5  22
TORSDOF 9
ENDMDL
MODEL 2
REMARK VINA RESULT: -5.146111214      3.809      5.748
REMARK  9 active torsions:
REMARK  status: ('A' for Active; 'I' for Inactive)
REMARK    1  A    between atoms: C3_3  and  O1_4 
REMARK    2  A    between atoms: N1_7  and  C5_8 
REMARK    3  A    between atoms: C5_8  and  C6_9 
REMARK    4  A    between atoms: C6_9  and  N2_10 
REMARK    5  A    between atoms: C13_18  and  O3_19 
REMARK    6  A    between atoms: C13_18  and  C14_21 
REMARK    7  A    between atoms: C14_21  and  O4_22 
REMARK    8  A    between atoms: C14_21  and  N3_24 
REMARK    9  A    between atoms: N3_24  and  C15_26 
ROOT
HETATM    1  C1  UNL     1      16.938  43.824 -39.355  1.00  0.00     0.015 C 
HETATM    2  C2  UNL     1      17.894  44.028 -38.631  1.00  0.00    -0.074 C 
HETATM    3  C3  UNL     1      19.046  44.274 -37.744  1.00  0.00     0.171 C 
HETATM    4  C4  UNL     1      19.364  42.959 -37.050  1.00  0.00     0.181 C 
HETATM    5  N1  UNL     1      19.508  41.952 -38.038  1.00  0.00    -0.368 N 
HETATM    6  C11 UNL     1      20.388  42.192 -39.078  1.00  0.00     0.066 C 
HETATM    7  C12 UNL     1      20.456  43.562 -39.620  1.00  0.00     0.091 C 
HETATM    8  C13 UNL     1      20.178  44.692 -38.617  1.00  0.00     0.149 C 
ENDROOT
BRANCH   3   9
HETATM    9  O1  UNL     1      18.683  45.143 -36.760  1.00  0.00    -0.373 OA
ATOM     10  H1  UNL     1      18.449  45.980 -37.147  1.00  0.00     0.212 HD
ENDBRANCH   3   9
BRANCH   8  11
HETATM   11  O3  UNL     1      19.733  45.729 -39.453  1.00  0.00    -0.381 OA
ATOM     12  H3  UNL     1      20.369  46.434 -39.419  1.00  0.00     0.211 HD
ENDBRANCH   8  11
BRANCH   8  13
HETATM   13  C14 UNL     1      21.441  45.086 -37.910  1.00  0.00     0.253 C 
BRANCH  13  14
HETATM   14  O4  UNL     1      22.482  44.977 -38.845  1.00  0.00    -0.374 OA
ATOM     15  H4  UNL     1      22.846  44.104 -38.753  1.00  0.00     0.212 HD
ENDBRANCH  13  14
BRANCH  13  16
HETATM   16  N3  UNL     1      21.428  46.193 -37.132  1.00  0.00    -0.387 N 
ATOM     17  H3  UNL     1      20.908  46.962 -37.554  1.00  0.00     0.156 HD
BRANCH  16  18
HETATM   18  C15 UNL     1      21.944  46.516 -35.925  1.00  0.00     0.017 C 
HETATM   19  C16 UNL     1      20.835  47.386 -35.203  1.00  0.00     0.037 C 
HETATM   20  C17 UNL     1      22.224  45.462 -34.892  1.00  0.00     0.037 C 
HETATM   21  C18 UNL     1      23.109  47.463 -35.950  1.00  0.00     0.037 C 
ENDBRANCH  16  18
ENDBRANCH  13  16
ENDBRANCH   8  13
BRANCH   5  22
HETATM   22  C5  UNL     1      18.650  40.860 -37.982  1.00  0.00     0.093 C 
BRANCH  22  23
HETATM   23  C6  UNL     1      17.408  40.957 -37.178  1.00  0.00     0.317 C 
BRANCH  23  24
HETATM   24  N2  UNL     1      17.393  39.800 -36.266  1.00  0.00     0.097 N 
HETATM   25  C7  UNL     1      16.149  39.722 -35.550  1.00  0.00     0.299 C 
HETATM   26  C8  UNL     1      16.252  38.598 -34.554  1.00  0.00     0.198 C 
HETATM   27  O2  UNL     1      17.162  39.054 -33.570  1.00  0.00    -0.388 OA
HETATM   28  C9  UNL     1      18.397  38.996 -34.145  1.00  0.00     0.198 C 
HETATM   29  C10 UNL     1      18.556  39.735 -35.434  1.00  0.00     0.299 C 
ENDBRANCH  23  24
ENDBRANCH  22  23
ENDBRANCH   5  22
TORSDOF 9
ENDMDL
MODEL 3
REMARK VINA RESULT: -5.136966063      0.411      1.013
REMARK  9 active torsions:
REMARK  status: ('A' for Active; 'I' for Inactive)
REMARK    1  A    between atoms: C3_3  and  O1_4 
REMARK    2  A    between atoms: N1_7  and  C5_8 
REMARK    3  A    between atoms: C5_8  and  C6_9 
REMARK    4  A    between atoms: C6_9  and  N2_10 
REMARK    5  A    between atoms: C13_18  and  O3_19 
REMARK    6  A    between atoms: C13_18  and  C14_21 
REMARK    7  A    between atoms: C14_21  and  O4_22 
REMARK    8  A    between atoms: C14_21  and  N3_24 
REMARK    9  A    between atoms: N3_24  and  C15_26 
ROOT
HETATM    1  C1  UNL     1      17.105  41.242 -37.079  1.00  0.00     0.015 C 
HETATM    2  C2  UNL     1      17.475  41.931 -38.010  1.00  0.00    -0.074 C 
HETATM    3  C3  UNL     1      17.920  42.760 -39.147  1.00  0.00     0.171 C 
HETATM    4  C4  UNL     1      16.697  43.500 -39.664  1.00  0.00     0.181 C 
HETATM    5  N1  UNL     1      16.080  44.168 -38.574  1.00  0.00    -0.368 N 
HETATM    6  C11 UNL     1      16.870  44.994 -37.796  1.00  0.00     0.066 C 
HETATM    7  C12 UNL     1      18.252  44.560 -37.514  1.00  0.00     0.091 C 
HETATM    8  C13 UNL     1      18.925  43.719 -38.610  1.00  0.00     0.149 C 
ENDROOT
BRANCH   3   9
HETATM    9  O1  UNL     1      18.332  41.952 -40.163  1.00  0.00    -0.373 OA
ATOM     10  H1  UNL     1      19.267  41.799 -40.087  1.00  0.00     0.212 HD
ENDBRANCH   3   9
BRANCH   8  11
HETATM   11  O3  UNL     1      19.884  42.996 -37.883  1.00  0.00    -0.381 OA
ATOM     12  H3  UNL     1      19.973  43.395 -37.026  1.00  0.00     0.211 HD
ENDBRANCH   8  11
BRANCH   8  13
HETATM   13  C14 UNL     1      19.586  44.610 -39.620  1.00  0.00     0.253 C 
BRANCH  13  14
HETATM   14  O4  UNL     1      20.002  45.763 -38.936  1.00  0.00    -0.374 OA
ATOM     15  H4  UNL     1      20.729  45.507 -38.380  1.00  0.00     0.212 HD
ENDBRANCH  13  14
BRANCH  13  16
HETATM   16  N3  UNL     1      20.465  44.060 -40.489  1.00  0.00    -0.387 N 
ATOM     17  H3  UNL     1      21.069  43.366 -40.049  1.00  0.00     0.156 HD
BRANCH  16  18
HETATM   18  C15 UNL     1      20.729  44.218 -41.806  1.00  0.00     0.017 C 
HETATM   19  C16 UNL     1      22.305  44.329 -41.917  1.00  0.00     0.037 C 
HETATM   20  C17 UNL     1      20.431  43.127 -42.794  1.00  0.00     0.037 C 
HETATM   21  C18 UNL     1      20.287  45.521 -42.404  1.00  0.00     0.037 C 
ENDBRANCH  16  18
ENDBRANCH  13  16
ENDBRANCH   8  13
BRANCH   5  22
HETATM   22  C5  UNL     1      14.766  43.834 -38.269  1.00  0.00     0.093 C 
BRANCH  22  23
HETATM   23  C6  UNL     1      13.663  44.489 -39.012  1.00  0.00     0.317 C 
BRANCH  23  24
HETATM   24  N2  UNL     1      12.744  45.056 -38.009  1.00  0.00     0.097 N 
HETATM   25  C7  UNL     1      13.413  46.027 -37.185  1.00  0.00     0.299 C 
HETATM   26  C8  UNL     1      12.454  46.469 -36.111  1.00  0.00     0.198 C 
HETATM   27  O2  UNL     1      12.322  45.354 -35.249  1.00  0.00    -0.388 OA
HETATM   28  C9  UNL     1      11.550  44.451 -35.920  1.00  0.00     0.198 C 
HETATM   29  C10 UNL     1      12.036  44.051 -37.275  1.00  0.00     0.299 C 
ENDBRANCH  23  24
ENDBRANCH  22  23
ENDBRANCH   5  22
TORSDOF 9
ENDMDL
MODEL 4
REMARK VINA RESULT: -5.030473340      2.767      4.192
REMARK  9 active torsions:
REMARK  status: ('A' for Active; 'I' for Inactive)
REMARK    1  A    between atoms: C3_3  and  O1_4 
REMARK    2  A    between atoms: N1_7  and  C5_8 
REMARK    3  A    between atoms: C5_8  and  C6_9 
REMARK    4  A    between atoms: C6_9  and  N2_10 
REMARK    5  A    between atoms: C13_18  and  O3_19 
REMARK    6  A    between atoms: C13_18  and  C14_21 
REMARK    7  A    between atoms: C14_21  and  O4_22 
REMARK    8  A    between atoms: C14_21  and  N3_24 
REMARK    9  A    between atoms: N3_24  and  C15_26 
ROOT
HETATM    1  C1  UNL     1      19.331  43.709 -41.006  1.00  0.00     0.015 C 
HETATM    2  C2  UNL     1      19.488  44.138 -39.879  1.00  0.00    -0.074 C 
HETATM    3  C3  UNL     1      19.671  44.668 -38.515  1.00  0.00     0.171 C 
HETATM    4  C4  UNL     1      18.355  44.468 -37.779  1.00  0.00     0.181 C 
HETATM    5  N1  UNL     1      17.972  43.108 -37.902  1.00  0.00    -0.368 N 
HETATM    6  C11 UNL     1      18.895  42.144 -37.541  1.00  0.00     0.066 C 
HETATM    7  C12 UNL     1      20.312  42.388 -37.874  1.00  0.00     0.091 C 
HETATM    8  C13 UNL     1      20.751  43.860 -37.883  1.00  0.00     0.149 C 
ENDROOT
BRANCH   3   9
HETATM    9  O1  UNL     1      19.872  46.013 -38.574  1.00  0.00    -0.373 OA
ATOM     10  H1  UNL     1      20.540  46.262 -37.945  1.00  0.00     0.212 HD
ENDBRANCH   3   9
BRANCH   8  11
HETATM   11  O3  UNL     1      21.853  43.836 -38.754  1.00  0.00    -0.381 OA
ATOM     12  H3  UNL     1      22.297  43.002 -38.651  1.00  0.00     0.211 HD
ENDBRANCH   8  11
BRANCH   8  13
HETATM   13  C14 UNL     1      21.172  44.287 -36.508  1.00  0.00     0.253 C 
BRANCH  13  14
HETATM   14  O4  UNL     1      21.648  43.141 -35.852  1.00  0.00    -0.374 OA
ATOM     15  H4  UNL     1      22.311  42.757 -36.414  1.00  0.00     0.212 HD
ENDBRANCH  13  14
BRANCH  13  16
HETATM   16  N3  UNL     1      21.905  45.418 -36.379  1.00  0.00    -0.387 N 
ATOM     17  H3  UNL     1      22.639  45.492 -37.084  1.00  0.00     0.156 HD
BRANCH  16  18
HETATM   18  C15 UNL     1      21.890  46.472 -35.532  1.00  0.00     0.017 C 
HETATM   19  C16 UNL     1      22.884  47.536 -36.155  1.00  0.00     0.037 C 
HETATM   20  C17 UNL     1      20.649  47.294 -35.336  1.00  0.00     0.037 C 
HETATM   21  C18 UNL     1      22.505  46.230 -34.184  1.00  0.00     0.037 C 
ENDBRANCH  16  18
ENDBRANCH  13  16
ENDBRANCH   8  13
BRANCH   5  22
HETATM   22  C5  UNL     1      16.756  42.830 -38.517  1.00  0.00     0.093 C 
BRANCH  22  23
HETATM   23  C6  UNL     1      15.928  43.952 -39.020  1.00  0.00     0.317 C 
BRANCH  23  24
HETATM   24  N2  UNL     1      14.674  43.943 -38.245  1.00  0.00     0.097 N 
HETATM   25  C7  UNL     1      13.531  44.062 -39.110  1.00  0.00     0.299 C 
HETATM   26  C8  UNL     1      12.302  44.171 -38.247  1.00  0.00     0.198 C 
HETATM   27  O2  UNL     1      12.383  45.449 -37.644  1.00  0.00    -0.388 OA
HETATM   28  C9  UNL     1      13.352  45.353 -36.690  1.00  0.00     0.198 C 
HETATM   29  C10 UNL     1      14.688  44.874 -37.158  1.00  0.00     0.299 C 
ENDBRANCH  23  24
ENDBRANCH  22  23
ENDBRANCH   5  22
TORSDOF 9
ENDMDL
MODEL 5
REMARK VINA RESULT: -5.029912051      3.565      7.032
REMARK  9 active torsions:
REMARK  status: ('A' for Active; 'I' for Inactive)
REMARK    1  A    between atoms: C3_3  and  O1_4 
REMARK    2  A    between atoms: N1_7  and  C5_8 
REMARK    3  A    between atoms: C5_8  and  C6_9 
REMARK    4  A    between atoms: C6_9  and  N2_10 
REMARK    5  A    between atoms: C13_18  and  O3_19 
REMARK    6  A    between atoms: C13_18  and  C14_21 
REMARK    7  A    between atoms: C14_21  and  O4_22 
REMARK    8  A    between atoms: C14_21  and  N3_24 
REMARK    9  A    between atoms: N3_24  and  C15_26 
ROOT
HETATM    1  C1  UNL     1      22.043  41.928 -40.637  1.00  0.00     0.015 C 
HETATM    2  C2  UNL     1      20.999  42.178 -40.067  1.00  0.00    -0.074 C 
HETATM    3  C3  UNL     1      19.728  42.471 -39.377  1.00  0.00     0.171 C 
HETATM    4  C4  UNL     1      19.760  41.729 -38.050  1.00  0.00     0.181 C 
HETATM    5  N1  UNL     1      20.960  42.068 -37.374  1.00  0.00    -0.368 N 
HETATM    6  C11 UNL     1      21.245  43.410 -37.201  1.00  0.00     0.066 C 
HETATM    7  C12 UNL     1      20.910  44.332 -38.303  1.00  0.00     0.091 C 
HETATM    8  C13 UNL     1      19.691  43.943 -39.153  1.00  0.00     0.149 C 
ENDROOT
BRANCH   3   9
HETATM    9  O1  UNL     1      18.694  41.937 -40.085  1.00  0.00    -0.373 OA
ATOM     10  H1  UNL     1      18.834  41.003 -40.193  1.00  0.00     0.212 HD
ENDBRANCH   3   9
BRANCH   8  11
HETATM   11  O3  UNL     1      19.963  44.583 -40.373  1.00  0.00    -0.381 OA
ATOM     12  H3  UNL     1      20.174  45.492 -40.193  1.00  0.00     0.211 HD
ENDBRANCH   8  11
BRANCH   8  13
HETATM   13  C14 UNL     1      18.433  44.483 -38.540  1.00  0.00     0.253 C 
BRANCH  13  14
HETATM   14  O4  UNL     1      18.699  45.808 -38.163  1.00  0.00    -0.374 OA
ATOM     15  H4  UNL     1      18.106  46.361 -38.659  1.00  0.00     0.212 HD
ENDBRANCH  13  14
BRANCH  13  16
HETATM   16  N3  UNL     1      17.256  44.246 -39.165  1.00  0.00    -0.387 N 
ATOM     17  H3  UNL     1      17.325  44.343 -40.179  1.00  0.00     0.156 HD
BRANCH  16  18
HETATM   18  C15 UNL     1      16.011  43.910 -38.759  1.00  0.00     0.017 C 
HETATM   19  C16 UNL     1      16.179  42.581 -37.916  1.00  0.00     0.037 C 
HETATM   20  C17 UNL     1      15.244  44.781 -37.805  1.00  0.00     0.037 C 
HETATM   21  C18 UNL     1      15.072  43.470 -39.844  1.00  0.00     0.037 C 
ENDBRANCH  16  18
ENDBRANCH  13  16
ENDBRANCH   8  13
BRANCH   5  22
HETATM   22  C5  UNL     1      21.842  41.040 -37.063  1.00  0.00     0.093 C 
BRANCH  22  23
HETATM   23  C6  UNL     1      21.307  39.680 -36.810  1.00  0.00     0.317 C 
BRANCH  23  24
HETATM   24  N2  UNL     1      21.014  39.593 -35.369  1.00  0.00     0.097 N 
HETATM   25  C7  UNL     1      22.006  38.809 -34.685  1.00  0.00     0.299 C 
HETATM   26  C8  UNL     1      21.576  38.660 -33.250  1.00  0.00     0.198 C 
HETATM   27  O2  UNL     1      20.453  37.798 -33.285  1.00  0.00    -0.388 OA
HETATM   28  C9  UNL     1      19.424  38.544 -33.779  1.00  0.00     0.198 C 
HETATM   29  C10 UNL     1      19.664  39.198 -35.101  1.00  0.00     0.299 C 
ENDBRANCH  23  24
ENDBRANCH  22  23
ENDBRANCH   5  22
TORSDOF 9
ENDMDL
