MODEL 1
REMARK VINA RESULT: -5.257797884      0.000      0.000
REMARK  11 active torsions:
REMARK  status: ('A' for Active; 'I' for Inactive)
REMARK    1  A    between atoms: C2_2  and  C3_3 
REMARK    2  A    between atoms: C3_3  and  O1_4 
REMARK    3  A    between atoms: C3_3  and  C5_8 
REMARK    4  A    between atoms: O1_4  and  C4_5 
REMARK    5  A    between atoms: C6_9  and  O3_10 
REMARK    6  A    between atoms: C7_12  and  O4_13 
REMARK    7  A    between atoms: C8_15  and  O5_16 
REMARK    8  A    between atoms: O5_16  and  C9_17 
REMARK       I    between atoms: C9_17  and  N2_19 
REMARK    9  A    between atoms: N2_19  and  C10_20 
REMARK   10  A    between atoms: N2_19  and  C13_23 
REMARK   11  A    between atoms: C16_26  and  O7_27 
ROOT
HETATM    1  C5  UNL     1      15.037  44.204 -37.910  1.00  0.00     0.078 C 
HETATM    2  C6  UNL     1      14.168  43.767 -39.067  1.00  0.00     0.158 C 
HETATM    3  C7  UNL     1      12.766  44.322 -38.766  1.00  0.00     0.179 C 
HETATM    4  C8  UNL     1      12.804  44.413 -37.279  1.00  0.00     0.194 C 
HETATM    5  C16 UNL     1      14.173  45.084 -37.075  1.00  0.00     0.159 C 
ENDROOT
BRANCH   4   6
HETATM    6  O5  UNL     1      11.797  45.161 -36.699  1.00  0.00    -0.293 OA
BRANCH   6   7
HETATM    7  C9  UNL     1      11.619  45.201 -35.334  1.00  0.00     0.364 C 
HETATM    8  O6  UNL     1      11.785  44.112 -34.725  1.00  0.00    -0.238 OA
HETATM    9  N2  UNL     1      11.268  46.389 -34.626  1.00  0.00    -0.320 N 
BRANCH   9  10
HETATM   10  C10 UNL     1      11.106  46.330 -33.210  1.00  0.00     0.081 C 
HETATM   11  C11 UNL     1       9.783  45.769 -32.764  1.00  0.00     0.032 C 
HETATM   12  C12 UNL     1      12.183  45.457 -32.549  1.00  0.00     0.032 C 
ENDBRANCH   9  10
BRANCH   9  13
HETATM   13  C13 UNL     1      11.078  47.645 -35.333  1.00  0.00     0.081 C 
HETATM   14  C14 UNL     1       9.637  47.827 -35.772  1.00  0.00     0.032 C 
HETATM   15  C15 UNL     1      11.395  48.778 -34.380  1.00  0.00     0.032 C 
ENDBRANCH   9  13
ENDBRANCH   6   7
ENDBRANCH   4   6
BRANCH   3  16
HETATM   16  O4  UNL     1      12.675  45.538 -39.403  1.00  0.00    -0.390 OA
ATOM     17  H4  UNL     1      11.876  45.518 -39.917  1.00  0.00     0.210 HD
ENDBRANCH   3  16
BRANCH   5  18
HETATM   18  O7  UNL     1      14.048  46.373 -37.528  1.00  0.00    -0.392 OA
ATOM     19  H7  UNL     1      13.243  46.559 -37.996  1.00  0.00     0.210 HD
ENDBRANCH   5  18
BRANCH   2  20
HETATM   20  O3  UNL     1      14.124  42.379 -39.171  1.00  0.00    -0.392 OA
ATOM     21  H3  UNL     1      13.252  42.047 -38.996  1.00  0.00     0.210 HD
ENDBRANCH   2  20
BRANCH   1  22
HETATM   22  C3  UNL     1      16.289  44.774 -38.417  1.00  0.00     0.142 C 
BRANCH  22  23
HETATM   23  C2  UNL     1      17.508  44.534 -37.565  1.00  0.00     0.029 C 
HETATM   24  C1  UNL     1      18.569  45.575 -37.721  1.00  0.00     0.007 C 
ENDBRANCH  22  23
BRANCH  22  25
HETATM   25  O1  UNL     1      16.576  44.189 -39.675  1.00  0.00    -0.300 OA
BRANCH  25  26
HETATM   26  C4  UNL     1      17.493  43.175 -39.835  1.00  0.00     0.373 C 
HETATM   27  N1  UNL     1      18.682  43.439 -40.566  1.00  0.00    -0.032 NA
HETATM   28  O2  UNL     1      17.237  42.056 -39.327  1.00  0.00    -0.242 OA
ENDBRANCH  25  26
ENDBRANCH  22  25
ENDBRANCH   1  22
TORSDOF 11
ENDMDL
MODEL 2
REMARK VINA RESULT: -4.966955366      6.864      9.196
REMARK  11 active torsions:
REMARK  status: ('A' for Active; 'I' for Inactive)
REMARK    1  A    between atoms: C2_2  and  C3_3 
REMARK    2  A    between atoms: C3_3  and  O1_4 
REMARK    3  A    between atoms: C3_3  and  C5_8 
REMARK    4  A    between atoms: O1_4  and  C4_5 
REMARK    5  A    between atoms: C6_9  and  O3_10 
REMARK    6  A    between atoms: C7_12  and  O4_13 
REMARK    7  A    between atoms: C8_15  and  O5_16 
REMARK    8  A    between atoms: O5_16  and  C9_17 
REMARK       I    between atoms: C9_17  and  N2_19 
REMARK    9  A    between atoms: N2_19  and  C10_20 
REMARK   10  A    between atoms: N2_19  and  C13_23 
REMARK   11  A    between atoms: C16_26  and  O7_27 
ROOT
HETATM    1  C5  UNL     1      18.659  40.178 -36.932  1.00  0.00     0.078 C 
HETATM    2  C6  UNL     1      19.667  39.315 -37.656  1.00  0.00     0.158 C 
HETATM    3  C7  UNL     1      20.802  40.264 -38.073  1.00  0.00     0.179 C 
HETATM    4  C8  UNL     1      20.078  41.564 -38.154  1.00  0.00     0.194 C 
HETATM    5  C16 UNL     1      19.287  41.524 -36.835  1.00  0.00     0.159 C 
ENDROOT
BRANCH   4   6
HETATM    6  O5  UNL     1      20.875  42.691 -38.216  1.00  0.00    -0.293 OA
BRANCH   6   7
HETATM    7  C9  UNL     1      21.182  43.295 -39.415  1.00  0.00     0.364 C 
HETATM    8  O6  UNL     1      22.007  42.687 -40.144  1.00  0.00    -0.238 OA
HETATM    9  N2  UNL     1      20.613  44.537 -39.832  1.00  0.00    -0.320 N 
BRANCH   9  10
HETATM   10  C10 UNL     1      20.993  45.084 -41.092  1.00  0.00     0.081 C 
HETATM   11  C11 UNL     1      20.123  44.650 -42.241  1.00  0.00     0.032 C 
HETATM   12  C12 UNL     1      20.951  46.618 -41.084  1.00  0.00     0.032 C 
ENDBRANCH   9  10
BRANCH   9  13
HETATM   13  C13 UNL     1      19.659  45.236 -38.987  1.00  0.00     0.081 C 
HETATM   14  C14 UNL     1      18.329  44.510 -38.925  1.00  0.00     0.032 C 
HETATM   15  C15 UNL     1      20.209  45.268 -37.577  1.00  0.00     0.032 C 
ENDBRANCH   9  13
ENDBRANCH   6   7
ENDBRANCH   4   6
BRANCH   3  16
HETATM   16  O4  UNL     1      21.752  40.208 -37.079  1.00  0.00    -0.390 OA
ATOM     17  H4  UNL     1      22.169  41.061 -37.051  1.00  0.00     0.210 HD
ENDBRANCH   3  16
BRANCH   5  18
HETATM   18  O7  UNL     1      20.203  41.667 -35.824  1.00  0.00    -0.392 OA
ATOM     19  H7  UNL     1      20.900  41.021 -35.818  1.00  0.00     0.210 HD
ENDBRANCH   5  18
BRANCH   2  20
HETATM   20  O3  UNL     1      19.105  38.714 -38.780  1.00  0.00    -0.392 OA
ATOM     21  H3  UNL     1      19.626  38.877 -39.556  1.00  0.00     0.210 HD
ENDBRANCH   2  20
BRANCH   1  22
HETATM   22  C3  UNL     1      18.260  39.529 -35.679  1.00  0.00     0.142 C 
BRANCH  22  23
HETATM   23  C2  UNL     1      16.914  38.851 -35.694  1.00  0.00     0.029 C 
HETATM   24  C1  UNL     1      16.180  38.934 -34.396  1.00  0.00     0.007 C 
ENDBRANCH  22  23
BRANCH  22  25
HETATM   25  O1  UNL     1      19.200  38.513 -35.375  1.00  0.00    -0.300 OA
BRANCH  25  26
HETATM   26  C4  UNL     1      19.990  38.540 -34.247  1.00  0.00     0.373 C 
HETATM   27  N1  UNL     1      21.264  39.163 -34.321  1.00  0.00    -0.032 NA
HETATM   28  O2  UNL     1      19.547  38.010 -33.200  1.00  0.00    -0.242 OA
ENDBRANCH  25  26
ENDBRANCH  22  25
ENDBRANCH   1  22
TORSDOF 11
ENDMDL
MODEL 3
REMARK VINA RESULT: -4.958909409      2.606      7.461
REMARK  11 active torsions:
REMARK  status: ('A' for Active; 'I' for Inactive)
REMARK    1  A    between atoms: C2_2  and  C3_3 
REMARK    2  A    between atoms: C3_3  and  O1_4 
REMARK    3  A    between atoms: C3_3  and  C5_8 
REMARK    4  A    between atoms: O1_4  and  C4_5 
REMARK    5  A    between atoms: C6_9  and  O3_10 
REMARK    6  A    between atoms: C7_12  and  O4_13 
REMARK    7  A    between atoms: C8_15  and  O5_16 
REMARK    8  A    between atoms: O5_16  and  C9_17 
REMARK       I    between atoms: C9_17  and  N2_19 
REMARK    9  A    between atoms: N2_19  and  C10_20 
REMARK   10  A    between atoms: N2_19  and  C13_23 
REMARK   11  A    between atoms: C16_26  and  O7_27 
ROOT
HETATM    1  C5  UNL     1       9.991  46.897 -35.203  1.00  0.00     0.078 C 
HETATM    2  C6  UNL     1      10.187  46.086 -33.942  1.00  0.00     0.158 C 
HETATM    3  C7  UNL     1      11.495  45.306 -34.149  1.00  0.00     0.179 C 
HETATM    4  C8  UNL     1      11.547  45.218 -35.636  1.00  0.00     0.194 C 
HETATM    5  C16 UNL     1      11.220  46.674 -36.013  1.00  0.00     0.159 C 
ENDROOT
BRANCH   4   6
HETATM    6  O5  UNL     1      12.761  44.832 -36.171  1.00  0.00    -0.293 OA
BRANCH   6   7
HETATM    7  C9  UNL     1      12.852  44.254 -37.418  1.00  0.00     0.364 C 
HETATM    8  O6  UNL     1      11.762  44.054 -38.013  1.00  0.00    -0.238 OA
HETATM    9  N2  UNL     1      14.094  43.893 -38.023  1.00  0.00    -0.320 N 
BRANCH   9  10
HETATM   10  C10 UNL     1      14.085  43.299 -39.319  1.00  0.00     0.081 C 
HETATM   11  C11 UNL     1      13.939  44.284 -40.447  1.00  0.00     0.032 C 
HETATM   12  C12 UNL     1      15.379  42.521 -39.599  1.00  0.00     0.032 C 
ENDBRANCH   9  10
BRANCH   9  13
HETATM   13  C13 UNL     1      15.351  44.126 -37.331  1.00  0.00     0.081 C 
HETATM   14  C14 UNL     1      16.247  42.902 -37.372  1.00  0.00     0.032 C 
HETATM   15  C15 UNL     1      16.088  45.235 -38.050  1.00  0.00     0.032 C 
ENDBRANCH   9  13
ENDBRANCH   6   7
ENDBRANCH   4   6
BRANCH   3  16
HETATM   16  O4  UNL     1      12.501  46.062 -33.593  1.00  0.00    -0.390 OA
ATOM     17  H4  UNL     1      13.284  45.523 -33.599  1.00  0.00     0.210 HD
ENDBRANCH   3  16
BRANCH   5  18
HETATM   18  O7  UNL     1      12.305  47.427 -35.642  1.00  0.00    -0.392 OA
ATOM     19  H7  UNL     1      12.601  48.054 -36.292  1.00  0.00     0.210 HD
ENDBRANCH   5  18
BRANCH   2  20
HETATM   20  O3  UNL     1       9.128  45.205 -33.737  1.00  0.00    -0.392 OA
ATOM     21  H3  UNL     1       8.656  45.412 -32.939  1.00  0.00     0.210 HD
ENDBRANCH   2  20
BRANCH   1  22
HETATM   22  C3  UNL     1       9.656  48.281 -34.856  1.00  0.00     0.142 C 
BRANCH  22  23
HETATM   23  C2  UNL     1      10.548  48.932 -33.831  1.00  0.00     0.029 C 
HETATM   24  C1  UNL     1      11.337  50.085 -34.360  1.00  0.00     0.007 C 
ENDBRANCH  22  23
BRANCH  22  25
HETATM   25  O1  UNL     1       9.762  49.080 -36.022  1.00  0.00    -0.300 OA
BRANCH  25  26
HETATM   26  C4  UNL     1       8.667  49.617 -36.662  1.00  0.00     0.373 C 
HETATM   27  N1  UNL     1       8.854  50.749 -37.499  1.00  0.00    -0.032 NA
HETATM   28  O2  UNL     1       7.548  49.080 -36.476  1.00  0.00    -0.242 OA
ENDBRANCH  25  26
ENDBRANCH  22  25
ENDBRANCH   1  22
TORSDOF 11
ENDMDL
MODEL 4
REMARK VINA RESULT: -4.874430133      5.521      9.007
REMARK  11 active torsions:
REMARK  status: ('A' for Active; 'I' for Inactive)
REMARK    1  A    between atoms: C2_2  and  C3_3 
REMARK    2  A    between atoms: C3_3  and  O1_4 
REMARK    3  A    between atoms: C3_3  and  C5_8 
REMARK    4  A    between atoms: O1_4  and  C4_5 
REMARK    5  A    between atoms: C6_9  and  O3_10 
REMARK    6  A    between atoms: C7_12  and  O4_13 
REMARK    7  A    between atoms: C8_15  and  O5_16 
REMARK    8  A    between atoms: O5_16  and  C9_17 
REMARK       I    between atoms: C9_17  and  N2_19 
REMARK    9  A    between atoms: N2_19  and  C10_20 
REMARK   10  A    between atoms: N2_19  and  C13_23 
REMARK   11  A    between atoms: C16_26  and  O7_27 
ROOT
HETATM    1  C5  UNL     1      18.893  43.287 -37.576  1.00  0.00     0.078 C 
HETATM    2  C6  UNL     1      20.071  44.137 -37.157  1.00  0.00     0.158 C 
HETATM    3  C7  UNL     1      21.259  43.169 -37.039  1.00  0.00     0.179 C 
HETATM    4  C8  UNL     1      20.559  41.885 -36.749  1.00  0.00     0.194 C 
HETATM    5  C16 UNL     1      19.449  41.927 -37.814  1.00  0.00     0.159 C 
ENDROOT
BRANCH   4   6
HETATM    6  O5  UNL     1      21.325  40.743 -36.881  1.00  0.00    -0.293 OA
BRANCH   6   7
HETATM    7  C9  UNL     1      21.388  39.794 -35.884  1.00  0.00     0.364 C 
HETATM    8  O6  UNL     1      22.269  39.978 -35.005  1.00  0.00    -0.238 OA
HETATM    9  N2  UNL     1      20.521  38.662 -35.827  1.00  0.00    -0.320 N 
BRANCH   9  10
HETATM   10  C10 UNL     1      20.664  37.734 -34.754  1.00  0.00     0.081 C 
HETATM   11  C11 UNL     1      22.010  37.064 -34.692  1.00  0.00     0.032 C 
HETATM   12  C12 UNL     1      20.461  38.406 -33.388  1.00  0.00     0.032 C 
ENDBRANCH   9  10
BRANCH   9  13
HETATM   13  C13 UNL     1      19.505  38.453 -36.845  1.00  0.00     0.081 C 
HETATM   14  C14 UNL     1      19.471  37.011 -37.314  1.00  0.00     0.032 C 
HETATM   15  C15 UNL     1      18.153  38.750 -36.233  1.00  0.00     0.032 C 
ENDBRANCH   9  13
ENDBRANCH   6   7
ENDBRANCH   4   6
BRANCH   3  16
HETATM   16  O4  UNL     1      21.914  43.194 -38.248  1.00  0.00    -0.390 OA
ATOM     17  H4  UNL     1      21.274  42.960 -38.911  1.00  0.00     0.210 HD
ENDBRANCH   3  16
BRANCH   5  18
HETATM   18  O7  UNL     1      20.064  41.754 -39.028  1.00  0.00    -0.392 OA
ATOM     19  H7  UNL     1      19.941  40.899 -39.423  1.00  0.00     0.210 HD
ENDBRANCH   5  18
BRANCH   2  20
HETATM   20  O3  UNL     1      19.835  44.761 -35.935  1.00  0.00    -0.392 OA
ATOM     21  H3  UNL     1      20.642  44.886 -35.449  1.00  0.00     0.210 HD
ENDBRANCH   2  20
BRANCH   1  22
HETATM   22  C3  UNL     1      18.189  43.931 -38.690  1.00  0.00     0.142 C 
BRANCH  22  23
HETATM   23  C2  UNL     1      17.110  44.909 -38.303  1.00  0.00     0.029 C 
HETATM   24  C1  UNL     1      15.733  44.331 -38.326  1.00  0.00     0.007 C 
ENDBRANCH  22  23
BRANCH  22  25
HETATM   25  O1  UNL     1      19.127  44.671 -39.451  1.00  0.00    -0.300 OA
BRANCH  25  26
HETATM   26  C4  UNL     1      19.425  44.375 -40.763  1.00  0.00     0.373 C 
HETATM   27  N1  UNL     1      20.302  45.237 -41.474  1.00  0.00    -0.032 NA
HETATM   28  O2  UNL     1      18.906  43.353 -41.273  1.00  0.00    -0.242 OA
ENDBRANCH  25  26
ENDBRANCH  22  25
ENDBRANCH   1  22
TORSDOF 11
ENDMDL
MODEL 5
REMARK VINA RESULT: -4.831695533      6.786      9.087
REMARK  11 active torsions:
REMARK  status: ('A' for Active; 'I' for Inactive)
REMARK    1  A    between atoms: C2_2  and  C3_3 
REMARK    2  A    between atoms: C3_3  and  O1_4 
REMARK    3  A    between atoms: C3_3  and  C5_8 
REMARK    4  A    between atoms: O1_4  and  C4_5 
REMARK    5  A    between atoms: C6_9  and  O3_10 
REMARK    6  A    between atoms: C7_12  and  O4_13 
REMARK    7  A    between atoms: C8_15  and  O5_16 
REMARK    8  A    between atoms: O5_16  and  C9_17 
REMARK       I    between atoms: C9_17  and  N2_19 
REMARK    9  A    between atoms: N2_19  and  C10_20 
REMARK   10  A    between atoms: N2_19  and  C13_23 
REMARK   11  A    between atoms: C16_26  and  O7_27 
ROOT
HETATM    1  C5  UNL     1      19.223  39.870 -37.666  1.00  0.00     0.078 C 
HETATM    2  C6  UNL     1      20.379  40.400 -36.848  1.00  0.00     0.158 C 
HETATM    3  C7  UNL     1      20.341  41.927 -37.016  1.00  0.00     0.179 C 
HETATM    4  C8  UNL     1      19.666  42.057 -38.339  1.00  0.00     0.194 C 
HETATM    5  C16 UNL     1      18.495  41.076 -38.151  1.00  0.00     0.159 C 
ENDROOT
BRANCH   4   6
HETATM    6  O5  UNL     1      19.204  43.320 -38.654  1.00  0.00    -0.293 OA
BRANCH   6   7
HETATM    7  C9  UNL     1      19.308  43.832 -39.929  1.00  0.00     0.364 C 
HETATM    8  O6  UNL     1      18.496  43.373 -40.774  1.00  0.00    -0.238 OA
HETATM    9  N2  UNL     1      20.268  44.822 -40.297  1.00  0.00    -0.320 N 
BRANCH   9  10
HETATM   10  C10 UNL     1      20.297  45.290 -41.644  1.00  0.00     0.081 C 
HETATM   11  C11 UNL     1      20.764  46.712 -41.792  1.00  0.00     0.032 C 
HETATM   12  C12 UNL     1      21.229  44.442 -42.522  1.00  0.00     0.032 C 
ENDBRANCH   9  10
BRANCH   9  13
HETATM   13  C13 UNL     1      21.204  45.348 -39.318  1.00  0.00     0.081 C 
HETATM   14  C14 UNL     1      20.542  45.559 -37.969  1.00  0.00     0.032 C 
HETATM   15  C15 UNL     1      22.302  44.327 -39.115  1.00  0.00     0.032 C 
ENDBRANCH   9  13
ENDBRANCH   6   7
ENDBRANCH   4   6
BRANCH   3  16
HETATM   16  O4  UNL     1      19.613  42.425 -35.960  1.00  0.00    -0.390 OA
ATOM     17  H4  UNL     1      20.025  43.241 -35.704  1.00  0.00     0.210 HD
ENDBRANCH   3  16
BRANCH   5  18
HETATM   18  O7  UNL     1      17.647  41.649 -37.239  1.00  0.00    -0.392 OA
ATOM     19  H7  UNL     1      18.071  42.041 -36.485  1.00  0.00     0.210 HD
ENDBRANCH   5  18
BRANCH   2  20
HETATM   20  O3  UNL     1      21.594  39.895 -37.304  1.00  0.00    -0.392 OA
ATOM     21  H3  UNL     1      22.322  40.242 -36.802  1.00  0.00     0.210 HD
ENDBRANCH   2  20
BRANCH   1  22
HETATM   22  C3  UNL     1      18.462  38.897 -36.877  1.00  0.00     0.142 C 
BRANCH  22  23
HETATM   23  C2  UNL     1      19.027  37.501 -36.841  1.00  0.00     0.029 C 
HETATM   24  C1  UNL     1      19.517  37.012 -38.166  1.00  0.00     0.007 C 
ENDBRANCH  22  23
BRANCH  22  25
HETATM   25  O1  UNL     1      18.426  39.334 -35.530  1.00  0.00    -0.300 OA
BRANCH  25  26
HETATM   26  C4  UNL     1      17.276  39.328 -34.772  1.00  0.00     0.373 C 
HETATM   27  N1  UNL     1      17.343  38.856 -33.434  1.00  0.00    -0.032 NA
HETATM   28  O2  UNL     1      16.215  39.740 -35.300  1.00  0.00    -0.242 OA
ENDBRANCH  25  26
ENDBRANCH  22  25
ENDBRANCH   1  22
TORSDOF 11
ENDMDL
