MODEL 1
REMARK VINA RESULT: -7.127349800      0.000      0.000
REMARK  10 active torsions:
REMARK  status: ('A' for Active; 'I' for Inactive)
REMARK       I    between atoms: C2_2  and  N1_4 
REMARK    1  A    between atoms: N1_4  and  C3_6 
REMARK    2  A    between atoms: C3_6  and  C4_7 
REMARK    3  A    between atoms: C3_6  and  C6_11 
REMARK    4  A    between atoms: C4_7  and  O2_9 
REMARK    5  A    between atoms: C6_11  and  O3_12 
REMARK    6  A    between atoms: C6_11  and  C7_14 
REMARK    7  A    between atoms: C7_14  and  N2_15 
REMARK    8  A    between atoms: C7_14  and  C9_19 
REMARK    9  A    between atoms: N2_15  and  C8_17 
REMARK   10  A    between atoms: C9_19  and  C11_21 
ROOT
HETATM    1  C6  UNL     1      -6.063  19.117 -25.283  1.00  0.00     0.166 C 
ENDROOT
BRANCH   1   2
HETATM    2  C3  UNL     1      -6.079  19.504 -26.731  1.00  0.00     0.143 C 
BRANCH   2   3
HETATM    3  N1  UNL     1      -5.060  20.404 -27.166  1.00  0.00    -0.352 N 
HETATM    4  C2  UNL     1      -4.355  21.324 -26.358  1.00  0.00     0.214 C 
HETATM    5  C1  UNL     1      -3.324  22.193 -26.960  1.00  0.00     0.117 C 
HETATM    6  O1  UNL     1      -4.531  21.478 -25.124  1.00  0.00    -0.274 OA
ATOM      7  H1  UNL     1      -4.818  20.382 -28.156  1.00  0.00     0.163 HD
ENDBRANCH   2   3
BRANCH   2   8
HETATM    8  C4  UNL     1      -7.483  19.963 -27.052  1.00  0.00     0.139 C 
HETATM    9  C5  UNL     1      -7.582  21.334 -27.613  1.00  0.00     0.041 C 
BRANCH   8  10
HETATM   10  O2  UNL     1      -8.106  19.101 -27.959  1.00  0.00    -0.394 OA
ATOM     11  H2  UNL     1      -8.446  18.328 -27.523  1.00  0.00     0.210 HD
ENDBRANCH   8  10
ENDBRANCH   2   8
ENDBRANCH   1   2
BRANCH   1  12
HETATM   12  O3  UNL     1      -5.106  18.151 -24.990  1.00  0.00    -0.391 OA
ATOM     13  H3  UNL     1      -5.401  17.268 -25.180  1.00  0.00     0.210 HD
ENDBRANCH   1  12
BRANCH   1  14
HETATM   14  C7  UNL     1      -7.390  18.876 -24.711  1.00  0.00     0.118 C 
BRANCH  14  15
HETATM   15  N2  UNL     1      -8.026  17.621 -25.117  1.00  0.00    -0.361 N 
ATOM     16  H2  UNL     1      -8.705  17.626 -25.879  1.00  0.00     0.162 HD
BRANCH  15  17
HETATM   17  C8  UNL     1      -7.717  16.408 -24.475  1.00  0.00     0.348 C 
HETATM   18  O4  UNL     1      -6.786  15.651 -24.839  1.00  0.00    -0.284 OA
ENDBRANCH  15  17
ENDBRANCH  14  15
BRANCH  14  19
HETATM   19  C9  UNL     1      -7.532  19.007 -23.217  1.00  0.00     0.011 C 
HETATM   20  C10 UNL     1      -6.425  18.408 -22.415  1.00  0.00     0.012 C 
BRANCH  19  21
HETATM   21  C11 UNL     1      -8.040  20.323 -22.775  1.00  0.00    -0.009 C 
HETATM   22  C12 UNL     1      -9.091  20.260 -21.670  1.00  0.00     0.005 C 
HETATM   23  C13 UNL     1      -8.514  21.602 -21.197  1.00  0.00     0.001 C 
HETATM   24  C14 UNL     1      -7.223  21.236 -21.949  1.00  0.00     0.005 C 
ENDBRANCH  19  21
ENDBRANCH  14  19
ENDBRANCH   1  14
TORSDOF 10
ENDMDL
MODEL 2
REMARK VINA RESULT: -6.851178325      1.394      1.751
REMARK  10 active torsions:
REMARK  status: ('A' for Active; 'I' for Inactive)
REMARK       I    between atoms: C2_2  and  N1_4 
REMARK    1  A    between atoms: N1_4  and  C3_6 
REMARK    2  A    between atoms: C3_6  and  C4_7 
REMARK    3  A    between atoms: C3_6  and  C6_11 
REMARK    4  A    between atoms: C4_7  and  O2_9 
REMARK    5  A    between atoms: C6_11  and  O3_12 
REMARK    6  A    between atoms: C6_11  and  C7_14 
REMARK    7  A    between atoms: C7_14  and  N2_15 
REMARK    8  A    between atoms: C7_14  and  C9_19 
REMARK    9  A    between atoms: N2_15  and  C8_17 
REMARK   10  A    between atoms: C9_19  and  C11_21 
ROOT
HETATM    1  C6  UNL     1      -5.641  19.032 -24.652  1.00  0.00     0.166 C 
ENDROOT
BRANCH   1   2
HETATM    2  C3  UNL     1      -5.912  19.405 -26.079  1.00  0.00     0.143 C 
BRANCH   2   3
HETATM    3  N1  UNL     1      -5.746  20.780 -26.426  1.00  0.00    -0.352 N 
HETATM    4  C2  UNL     1      -4.519  21.449 -26.634  1.00  0.00     0.214 C 
HETATM    5  C1  UNL     1      -4.513  22.881 -26.990  1.00  0.00     0.117 C 
HETATM    6  O1  UNL     1      -3.386  20.915 -26.540  1.00  0.00    -0.274 OA
ATOM      7  H1  UNL     1      -6.596  21.333 -26.535  1.00  0.00     0.163 HD
ENDBRANCH   2   3
BRANCH   2   8
HETATM    8  C4  UNL     1      -7.269  18.842 -26.435  1.00  0.00     0.139 C 
HETATM    9  C5  UNL     1      -7.847  19.352 -27.703  1.00  0.00     0.041 C 
BRANCH   8  10
HETATM   10  O2  UNL     1      -7.233  17.447 -26.528  1.00  0.00    -0.394 OA
ATOM     11  H2  UNL     1      -8.099  17.071 -26.430  1.00  0.00     0.210 HD
ENDBRANCH   8  10
ENDBRANCH   2   8
ENDBRANCH   1   2
BRANCH   1  12
HETATM   12  O3  UNL     1      -4.830  17.909 -24.531  1.00  0.00    -0.391 OA
ATOM     13  H3  UNL     1      -4.994  17.418 -23.734  1.00  0.00     0.210 HD
ENDBRANCH   1  12
BRANCH   1  14
HETATM   14  C7  UNL     1      -6.826  19.045 -23.793  1.00  0.00     0.118 C 
BRANCH  14  15
HETATM   15  N2  UNL     1      -6.782  18.122 -22.656  1.00  0.00    -0.361 N 
ATOM     16  H2  UNL     1      -6.513  18.472 -21.737  1.00  0.00     0.162 HD
BRANCH  15  17
HETATM   17  C8  UNL     1      -7.104  16.762 -22.811  1.00  0.00     0.348 C 
HETATM   18  O4  UNL     1      -7.326  16.227 -23.923  1.00  0.00    -0.284 OA
ENDBRANCH  15  17
ENDBRANCH  14  15
BRANCH  14  19
HETATM   19  C9  UNL     1      -7.298  20.383 -23.287  1.00  0.00     0.011 C 
HETATM   20  C10 UNL     1      -8.350  21.045 -24.113  1.00  0.00     0.012 C 
BRANCH  19  21
HETATM   21  C11 UNL     1      -7.464  20.447 -21.820  1.00  0.00    -0.009 C 
HETATM   22  C12 UNL     1      -7.073  21.782 -21.192  1.00  0.00     0.005 C 
HETATM   23  C13 UNL     1      -8.170  21.492 -20.159  1.00  0.00     0.001 C 
HETATM   24  C14 UNL     1      -8.798  20.539 -21.190  1.00  0.00     0.005 C 
ENDBRANCH  19  21
ENDBRANCH  14  19
ENDBRANCH   1  14
TORSDOF 10
ENDMDL
MODEL 3
REMARK VINA RESULT: -6.176475649      7.004      9.902
REMARK  10 active torsions:
REMARK  status: ('A' for Active; 'I' for Inactive)
REMARK       I    between atoms: C2_2  and  N1_4 
REMARK    1  A    between atoms: N1_4  and  C3_6 
REMARK    2  A    between atoms: C3_6  and  C4_7 
REMARK    3  A    between atoms: C3_6  and  C6_11 
REMARK    4  A    between atoms: C4_7  and  O2_9 
REMARK    5  A    between atoms: C6_11  and  O3_12 
REMARK    6  A    between atoms: C6_11  and  C7_14 
REMARK    7  A    between atoms: C7_14  and  N2_15 
REMARK    8  A    between atoms: C7_14  and  C9_19 
REMARK    9  A    between atoms: N2_15  and  C8_17 
REMARK   10  A    between atoms: C9_19  and  C11_21 
ROOT
HETATM    1  C6  UNL     1     -11.916  21.976 -17.857  1.00  0.00     0.166 C 
ENDROOT
BRANCH   1   2
HETATM    2  C3  UNL     1     -12.774  20.914 -17.240  1.00  0.00     0.143 C 
BRANCH   2   3
HETATM    3  N1  UNL     1     -12.732  20.801 -15.817  1.00  0.00    -0.352 N 
HETATM    4  C2  UNL     1     -13.360  21.661 -14.890  1.00  0.00     0.214 C 
HETATM    5  C1  UNL     1     -13.222  21.410 -13.441  1.00  0.00     0.117 C 
HETATM    6  O1  UNL     1     -14.054  22.662 -15.196  1.00  0.00    -0.274 OA
ATOM      7  H1  UNL     1     -12.196  20.022 -15.433  1.00  0.00     0.163 HD
ENDBRANCH   2   3
BRANCH   2   8
HETATM    8  C4  UNL     1     -12.475  19.623 -17.968  1.00  0.00     0.139 C 
HETATM    9  C5  UNL     1     -11.714  18.620 -17.181  1.00  0.00     0.041 C 
BRANCH   8  10
HETATM   10  O2  UNL     1     -13.648  19.002 -18.405  1.00  0.00    -0.394 OA
ATOM     11  H2  UNL     1     -13.497  18.089 -18.618  1.00  0.00     0.210 HD
ENDBRANCH   8  10
ENDBRANCH   2   8
ENDBRANCH   1   2
BRANCH   1  12
HETATM   12  O3  UNL     1     -12.429  23.257 -17.682  1.00  0.00    -0.391 OA
ATOM     13  H3  UNL     1     -13.249  23.265 -17.203  1.00  0.00     0.210 HD
ENDBRANCH   1  12
BRANCH   1  14
HETATM   14  C7  UNL     1     -11.458  21.666 -19.213  1.00  0.00     0.118 C 
BRANCH  14  15
HETATM   15  N2  UNL     1     -12.248  22.265 -20.291  1.00  0.00    -0.361 N 
ATOM     16  H2  UNL     1     -11.896  23.095 -20.768  1.00  0.00     0.162 HD
BRANCH  15  17
HETATM   17  C8  UNL     1     -13.484  21.717 -20.679  1.00  0.00     0.348 C 
HETATM   18  O4  UNL     1     -13.635  20.515 -21.002  1.00  0.00    -0.284 OA
ENDBRANCH  15  17
ENDBRANCH  14  15
BRANCH  14  19
HETATM   19  C9  UNL     1     -10.002  21.898 -19.520  1.00  0.00     0.011 C 
HETATM   20  C10 UNL     1      -9.049  21.486 -18.447  1.00  0.00     0.012 C 
BRANCH  19  21
HETATM   21  C11 UNL     1      -9.621  21.573 -20.911  1.00  0.00    -0.009 C 
HETATM   22  C12 UNL     1      -8.164  21.869 -21.257  1.00  0.00     0.005 C 
HETATM   23  C13 UNL     1      -8.264  20.672 -22.214  1.00  0.00     0.001 C 
HETATM   24  C14 UNL     1      -9.448  20.177 -21.365  1.00  0.00     0.005 C 
ENDBRANCH  19  21
ENDBRANCH  14  19
ENDBRANCH   1  14
TORSDOF 10
ENDMDL
MODEL 4
REMARK VINA RESULT: -6.161374214      6.583      9.130
REMARK  10 active torsions:
REMARK  status: ('A' for Active; 'I' for Inactive)
REMARK       I    between atoms: C2_2  and  N1_4 
REMARK    1  A    between atoms: N1_4  and  C3_6 
REMARK    2  A    between atoms: C3_6  and  C4_7 
REMARK    3  A    between atoms: C3_6  and  C6_11 
REMARK    4  A    between atoms: C4_7  and  O2_9 
REMARK    5  A    between atoms: C6_11  and  O3_12 
REMARK    6  A    between atoms: C6_11  and  C7_14 
REMARK    7  A    between atoms: C7_14  and  N2_15 
REMARK    8  A    between atoms: C7_14  and  C9_19 
REMARK    9  A    between atoms: N2_15  and  C8_17 
REMARK   10  A    between atoms: C9_19  and  C11_21 
ROOT
HETATM    1  C6  UNL     1     -12.549  21.629 -20.155  1.00  0.00     0.166 C 
ENDROOT
BRANCH   1   2
HETATM    2  C3  UNL     1     -13.493  22.612 -19.529  1.00  0.00     0.143 C 
BRANCH   2   3
HETATM    3  N1  UNL     1     -13.903  22.343 -18.188  1.00  0.00    -0.352 N 
HETATM    4  C2  UNL     1     -13.540  23.079 -17.038  1.00  0.00     0.214 C 
HETATM    5  C1  UNL     1     -14.049  22.673 -15.713  1.00  0.00     0.117 C 
HETATM    6  O1  UNL     1     -12.793  24.089 -17.039  1.00  0.00    -0.274 OA
ATOM      7  H1  UNL     1     -14.518  21.542 -18.046  1.00  0.00     0.163 HD
ENDBRANCH   2   3
BRANCH   2   8
HETATM    8  C4  UNL     1     -14.640  22.804 -20.494  1.00  0.00     0.139 C 
HETATM    9  C5  UNL     1     -15.345  24.105 -20.380  1.00  0.00     0.041 C 
BRANCH   8  10
HETATM   10  O2  UNL     1     -14.215  22.679 -21.820  1.00  0.00    -0.394 OA
ATOM     11  H2  UNL     1     -14.881  22.979 -22.427  1.00  0.00     0.210 HD
ENDBRANCH   8  10
ENDBRANCH   2   8
ENDBRANCH   1   2
BRANCH   1  12
HETATM   12  O3  UNL     1     -13.180  20.462 -20.571  1.00  0.00    -0.391 OA
ATOM     13  H3  UNL     1     -12.574  19.748 -20.727  1.00  0.00     0.210 HD
ENDBRANCH   1  12
BRANCH   1  14
HETATM   14  C7  UNL     1     -11.303  21.436 -19.411  1.00  0.00     0.118 C 
BRANCH  14  15
HETATM   15  N2  UNL     1     -11.120  20.101 -18.837  1.00  0.00    -0.361 N 
ATOM     16  H2  UNL     1     -10.525  19.426 -19.318  1.00  0.00     0.162 HD
BRANCH  15  17
HETATM   17  C8  UNL     1     -11.752  19.733 -17.636  1.00  0.00     0.348 C 
HETATM   18  O4  UNL     1     -12.986  19.530 -17.538  1.00  0.00    -0.284 OA
ENDBRANCH  15  17
ENDBRANCH  14  15
BRANCH  14  19
HETATM   19  C9  UNL     1     -10.021  21.826 -20.100  1.00  0.00     0.011 C 
HETATM   20  C10 UNL     1      -8.885  22.162 -19.193  1.00  0.00     0.012 C 
BRANCH  19  21
HETATM   21  C11 UNL     1      -9.705  21.007 -21.289  1.00  0.00    -0.009 C 
HETATM   22  C12 UNL     1      -8.923  21.740 -22.376  1.00  0.00     0.005 C 
HETATM   23  C13 UNL     1      -8.287  20.376 -22.682  1.00  0.00     0.001 C 
HETATM   24  C14 UNL     1      -8.673  19.950 -21.256  1.00  0.00     0.005 C 
ENDBRANCH  19  21
ENDBRANCH  14  19
ENDBRANCH   1  14
TORSDOF 10
ENDMDL
MODEL 5
REMARK VINA RESULT: -6.054675582      6.611      9.531
REMARK  10 active torsions:
REMARK  status: ('A' for Active; 'I' for Inactive)
REMARK       I    between atoms: C2_2  and  N1_4 
REMARK    1  A    between atoms: N1_4  and  C3_6 
REMARK    2  A    between atoms: C3_6  and  C4_7 
REMARK    3  A    between atoms: C3_6  and  C6_11 
REMARK    4  A    between atoms: C4_7  and  O2_9 
REMARK    5  A    between atoms: C6_11  and  O3_12 
REMARK    6  A    between atoms: C6_11  and  C7_14 
REMARK    7  A    between atoms: C7_14  and  N2_15 
REMARK    8  A    between atoms: C7_14  and  C9_19 
REMARK    9  A    between atoms: N2_15  and  C8_17 
REMARK   10  A    between atoms: C9_19  and  C11_21 
ROOT
HETATM    1  C6  UNL     1     -11.780  21.473 -17.672  1.00  0.00     0.166 C 
ENDROOT
BRANCH   1   2
HETATM    2  C3  UNL     1     -12.409  20.177 -17.257  1.00  0.00     0.143 C 
BRANCH   2   3
HETATM    3  N1  UNL     1     -11.694  18.984 -17.579  1.00  0.00    -0.352 N 
HETATM    4  C2  UNL     1     -11.708  17.777 -16.845  1.00  0.00     0.214 C 
HETATM    5  C1  UNL     1     -10.910  16.624 -17.310  1.00  0.00     0.117 C 
HETATM    6  O1  UNL     1     -12.362  17.586 -15.791  1.00  0.00    -0.274 OA
ATOM      7  H1  UNL     1     -11.118  19.005 -18.420  1.00  0.00     0.163 HD
ENDBRANCH   2   3
BRANCH   2   8
HETATM    8  C4  UNL     1     -13.834  20.194 -17.762  1.00  0.00     0.139 C 
HETATM    9  C5  UNL     1     -14.259  18.969 -18.485  1.00  0.00     0.041 C 
BRANCH   8  10
HETATM   10  O2  UNL     1     -14.742  20.393 -16.717  1.00  0.00    -0.394 OA
ATOM     11  H2  UNL     1     -14.696  19.689 -16.081  1.00  0.00     0.210 HD
ENDBRANCH   8  10
ENDBRANCH   2   8
ENDBRANCH   1   2
BRANCH   1  12
HETATM   12  O3  UNL     1     -12.504  22.585 -17.256  1.00  0.00    -0.391 OA
ATOM     13  H3  UNL     1     -11.966  23.361 -17.157  1.00  0.00     0.210 HD
ENDBRANCH   1  12
BRANCH   1  14
HETATM   14  C7  UNL     1     -11.332  21.503 -19.066  1.00  0.00     0.118 C 
BRANCH  14  15
HETATM   15  N2  UNL     1     -12.163  22.300 -19.971  1.00  0.00    -0.361 N 
ATOM     16  H2  UNL     1     -12.026  23.310 -20.018  1.00  0.00     0.162 HD
BRANCH  15  17
HETATM   17  C8  UNL     1     -13.147  21.697 -20.775  1.00  0.00     0.348 C 
HETATM   18  O4  UNL     1     -14.107  22.326 -21.280  1.00  0.00    -0.284 OA
ENDBRANCH  15  17
ENDBRANCH  14  15
BRANCH  14  19
HETATM   19  C9  UNL     1      -9.891  21.864 -19.320  1.00  0.00     0.011 C 
HETATM   20  C10 UNL     1      -8.933  21.462 -18.249  1.00  0.00     0.012 C 
BRANCH  19  21
HETATM   21  C11 UNL     1      -9.456  21.654 -20.717  1.00  0.00    -0.009 C 
HETATM   22  C12 UNL     1      -7.961  21.852 -20.955  1.00  0.00     0.005 C 
HETATM   23  C13 UNL     1      -8.104  20.776 -22.040  1.00  0.00     0.001 C 
HETATM   24  C14 UNL     1      -9.374  20.304 -21.313  1.00  0.00     0.005 C 
ENDBRANCH  19  21
ENDBRANCH  14  19
ENDBRANCH   1  14
TORSDOF 10
ENDMDL
