MODEL 1
REMARK VINA RESULT: -7.753594442      0.000      0.000
REMARK  9 active torsions:
REMARK  status: ('A' for Active; 'I' for Inactive)
REMARK    1  A    between atoms: N1_2  and  C2_5 
REMARK    2  A    between atoms: C2_5  and  C3_6 
REMARK    3  A    between atoms: C2_5  and  C13_23 
REMARK    4  A    between atoms: C3_6  and  N2_7 
REMARK    5  A    between atoms: N2_7  and  C4_10 
REMARK    6  A    between atoms: C4_10  and  C5_11 
REMARK    7  A    between atoms: C4_10  and  C12_20 
REMARK    8  A    between atoms: C5_11  and  N3_12 
REMARK    9  A    between atoms: N3_12  and  C6_14 
ROOT
HETATM    1  C4  UNL     1      -6.846  18.433 -24.486  1.00  0.00     0.302 C 
ENDROOT
BRANCH   1   2
HETATM    2  N2  UNL     1      -5.640  18.764 -25.250  1.00  0.00    -0.058 N 
ATOM      3  H22 UNL     1      -5.602  18.294 -26.154  1.00  0.00     0.278 HD
ATOM      4  H21 UNL     1      -4.794  18.356 -24.851  1.00  0.00     0.278 HD
BRANCH   2   5
HETATM    5  C3  UNL     1      -5.569  20.228 -25.363  1.00  0.00     0.266 C 
BRANCH   5   6
HETATM    6  C2  UNL     1      -5.754  20.664 -26.775  1.00  0.00     0.215 C 
BRANCH   6   7
HETATM    7  N1  UNL     1      -6.266  19.661 -27.656  1.00  0.00    -0.073 N 
HETATM    8  C1  UNL     1      -7.690  19.884 -27.812  1.00  0.00     0.267 C 
ATOM      9  H12 UNL     1      -6.048  18.715 -27.346  1.00  0.00     0.277 HD
ATOM     10  H11 UNL     1      -5.772  19.631 -28.548  1.00  0.00     0.277 HD
ENDBRANCH   6   7
BRANCH   6  11
HETATM   11  C13 UNL     1      -4.569  21.397 -27.340  1.00  0.00     0.018 A 
HETATM   12  C14 UNL     1      -3.590  22.050 -26.442  1.00  0.00     0.007 A 
HETATM   13  C15 UNL     1      -4.463  22.871 -27.329  1.00  0.00     0.007 A 
ENDBRANCH   6  11
ENDBRANCH   5   6
ENDBRANCH   2   5
ENDBRANCH   1   2
BRANCH   1  14
HETATM   14  C5  UNL     1      -6.771  19.022 -23.094  1.00  0.00     0.158 C 
BRANCH  14  15
HETATM   15  N3  UNL     1      -8.087  19.317 -22.627  1.00  0.00    -0.415 N 
ATOM     16  H3  UNL     1      -8.908  18.863 -23.029  1.00  0.00     0.153 HD
BRANCH  15  17
HETATM   17  C6  UNL     1      -8.208  20.267 -21.582  1.00  0.00     0.076 C 
HETATM   18  C7  UNL     1      -9.472  21.106 -21.879  1.00  0.00     0.024 C 
HETATM   19  C8  UNL     1      -9.940  21.578 -20.518  1.00  0.00     0.002 C 
HETATM   20  C9  UNL     1      -8.725  21.954 -19.730  1.00  0.00     0.000 C 
HETATM   21  C10 UNL     1      -7.583  22.408 -20.597  1.00  0.00     0.002 C 
HETATM   22  C11 UNL     1      -7.091  21.288 -21.525  1.00  0.00     0.024 C 
ENDBRANCH  15  17
ENDBRANCH  14  15
ENDBRANCH   1  14
BRANCH   1  23
HETATM   23  C12 UNL     1      -6.859  16.956 -24.341  1.00  0.00     0.206 C 
HETATM   24  O1  UNL     1      -6.553  16.252 -25.335  1.00  0.00    -0.646 OA
HETATM   25  O2  UNL     1      -7.198  16.288 -23.167  1.00  0.00    -0.646 OA
ENDBRANCH   1  23
TORSDOF 9
ENDMDL
MODEL 2
REMARK VINA RESULT: -7.719898337      1.131      1.285
REMARK  9 active torsions:
REMARK  status: ('A' for Active; 'I' for Inactive)
REMARK    1  A    between atoms: N1_2  and  C2_5 
REMARK    2  A    between atoms: C2_5  and  C3_6 
REMARK    3  A    between atoms: C2_5  and  C13_23 
REMARK    4  A    between atoms: C3_6  and  N2_7 
REMARK    5  A    between atoms: N2_7  and  C4_10 
REMARK    6  A    between atoms: C4_10  and  C5_11 
REMARK    7  A    between atoms: C4_10  and  C12_20 
REMARK    8  A    between atoms: C5_11  and  N3_12 
REMARK    9  A    between atoms: N3_12  and  C6_14 
ROOT
HETATM    1  C4  UNL     1      -7.320  19.737 -24.168  1.00  0.00     0.302 C 
ENDROOT
BRANCH   1   2
HETATM    2  N2  UNL     1      -5.944  19.944 -24.626  1.00  0.00    -0.058 N 
ATOM      3  H22 UNL     1      -5.264  19.401 -24.094  1.00  0.00     0.278 HD
ATOM      4  H21 UNL     1      -5.585  20.871 -24.396  1.00  0.00     0.278 HD
BRANCH   2   5
HETATM    5  C3  UNL     1      -5.904  19.656 -26.067  1.00  0.00     0.266 C 
BRANCH   5   6
HETATM    6  C2  UNL     1      -6.098  20.898 -26.865  1.00  0.00     0.215 C 
BRANCH   6   7
HETATM    7  N1  UNL     1      -7.168  20.848 -27.813  1.00  0.00    -0.073 N 
HETATM    8  C1  UNL     1      -7.773  19.534 -27.740  1.00  0.00     0.267 C 
ATOM      9  H12 UNL     1      -6.870  21.093 -28.756  1.00  0.00     0.277 HD
ATOM     10  H11 UNL     1      -7.844  21.601 -27.683  1.00  0.00     0.277 HD
ENDBRANCH   6   7
BRANCH   6  11
HETATM   11  C13 UNL     1      -4.823  21.451 -27.442  1.00  0.00     0.018 A 
HETATM   12  C14 UNL     1      -3.782  22.019 -26.557  1.00  0.00     0.007 A 
HETATM   13  C15 UNL     1      -4.534  22.899 -27.496  1.00  0.00     0.007 A 
ENDBRANCH   6  11
ENDBRANCH   5   6
ENDBRANCH   2   5
ENDBRANCH   1   2
BRANCH   1  14
HETATM   14  C5  UNL     1      -7.583  20.526 -22.902  1.00  0.00     0.158 C 
BRANCH  14  15
HETATM   15  N3  UNL     1      -8.665  19.934 -22.184  1.00  0.00    -0.415 N 
ATOM     16  H3  UNL     1      -9.123  19.086 -22.518  1.00  0.00     0.153 HD
BRANCH  15  17
HETATM   17  C6  UNL     1      -9.077  20.574 -20.988  1.00  0.00     0.076 C 
HETATM   18  C7  UNL     1     -10.218  21.546 -21.366  1.00  0.00     0.024 C 
HETATM   19  C8  UNL     1     -11.047  21.665 -20.105  1.00  0.00     0.002 C 
HETATM   20  C9  UNL     1     -10.099  21.730 -18.949  1.00  0.00     0.000 C 
HETATM   21  C10 UNL     1      -8.767  22.322 -19.318  1.00  0.00     0.002 C 
HETATM   22  C11 UNL     1      -8.029  21.462 -20.354  1.00  0.00     0.024 C 
ENDBRANCH  15  17
ENDBRANCH  14  15
ENDBRANCH   1  14
BRANCH   1  23
HETATM   23  C12 UNL     1      -7.437  18.298 -23.823  1.00  0.00     0.206 C 
HETATM   24  O1  UNL     1      -8.244  17.589 -24.474  1.00  0.00    -0.646 OA
HETATM   25  O2  UNL     1      -6.712  17.674 -22.812  1.00  0.00    -0.646 OA
ENDBRANCH   1  23
TORSDOF 9
ENDMDL
MODEL 3
REMARK VINA RESULT: -7.464497453      1.275      1.813
REMARK  9 active torsions:
REMARK  status: ('A' for Active; 'I' for Inactive)
REMARK    1  A    between atoms: N1_2  and  C2_5 
REMARK    2  A    between atoms: C2_5  and  C3_6 
REMARK    3  A    between atoms: C2_5  and  C13_23 
REMARK    4  A    between atoms: C3_6  and  N2_7 
REMARK    5  A    between atoms: N2_7  and  C4_10 
REMARK    6  A    between atoms: C4_10  and  C5_11 
REMARK    7  A    between atoms: C4_10  and  C12_20 
REMARK    8  A    between atoms: C5_11  and  N3_12 
REMARK    9  A    between atoms: N3_12  and  C6_14 
ROOT
HETATM    1  C4  UNL     1      -7.137  18.465 -25.894  1.00  0.00     0.302 C 
ENDROOT
BRANCH   1   2
HETATM    2  N2  UNL     1      -6.271  19.039 -26.927  1.00  0.00    -0.058 N 
ATOM      3  H22 UNL     1      -6.140  18.417 -27.725  1.00  0.00     0.278 HD
ATOM      4  H21 UNL     1      -5.295  19.096 -26.639  1.00  0.00     0.278 HD
BRANCH   2   5
HETATM    5  C3  UNL     1      -6.832  20.344 -27.307  1.00  0.00     0.266 C 
BRANCH   5   6
HETATM    6  C2  UNL     1      -5.775  21.392 -27.337  1.00  0.00     0.215 C 
BRANCH   6   7
HETATM    7  N1  UNL     1      -5.549  21.988 -28.617  1.00  0.00    -0.073 N 
HETATM    8  C1  UNL     1      -5.522  23.427 -28.444  1.00  0.00     0.267 C 
ATOM      9  H12 UNL     1      -6.228  21.689 -29.317  1.00  0.00     0.277 HD
ATOM     10  H11 UNL     1      -4.711  21.631 -29.076  1.00  0.00     0.277 HD
ENDBRANCH   6   7
BRANCH   6  11
HETATM   11  C13 UNL     1      -4.503  20.986 -26.643  1.00  0.00     0.018 A 
HETATM   12  C14 UNL     1      -4.113  21.616 -25.361  1.00  0.00     0.007 A 
HETATM   13  C15 UNL     1      -3.309  21.855 -26.594  1.00  0.00     0.007 A 
ENDBRANCH   6  11
ENDBRANCH   5   6
ENDBRANCH   2   5
ENDBRANCH   1   2
BRANCH   1  14
HETATM   14  C5  UNL     1      -7.452  19.497 -24.832  1.00  0.00     0.158 C 
BRANCH  14  15
HETATM   15  N3  UNL     1      -7.822  18.841 -23.620  1.00  0.00    -0.415 N 
ATOM     16  H3  UNL     1      -7.952  17.829 -23.582  1.00  0.00     0.153 HD
BRANCH  15  17
HETATM   17  C6  UNL     1      -7.999  19.651 -22.470  1.00  0.00     0.076 C 
HETATM   18  C7  UNL     1      -8.528  21.018 -22.960  1.00  0.00     0.024 C 
HETATM   19  C8  UNL     1      -9.318  21.560 -21.788  1.00  0.00     0.002 C 
HETATM   20  C9  UNL     1      -8.554  21.238 -20.543  1.00  0.00     0.000 C 
HETATM   21  C10 UNL     1      -7.072  21.138 -20.776  1.00  0.00     0.002 C 
HETATM   22  C11 UNL     1      -6.721  19.991 -21.734  1.00  0.00     0.024 C 
ENDBRANCH  15  17
ENDBRANCH  14  15
ENDBRANCH   1  14
BRANCH   1  23
HETATM   23  C12 UNL     1      -6.355  17.385 -25.242  1.00  0.00     0.206 C 
HETATM   24  O1  UNL     1      -5.209  17.654 -24.806  1.00  0.00    -0.646 OA
HETATM   25  O2  UNL     1      -6.806  16.078 -25.085  1.00  0.00    -0.646 OA
ENDBRANCH   1  23
TORSDOF 9
ENDMDL
MODEL 4
REMARK VINA RESULT: -7.291661154      0.831      1.968
REMARK  9 active torsions:
REMARK  status: ('A' for Active; 'I' for Inactive)
REMARK    1  A    between atoms: N1_2  and  C2_5 
REMARK    2  A    between atoms: C2_5  and  C3_6 
REMARK    3  A    between atoms: C2_5  and  C13_23 
REMARK    4  A    between atoms: C3_6  and  N2_7 
REMARK    5  A    between atoms: N2_7  and  C4_10 
REMARK    6  A    between atoms: C4_10  and  C5_11 
REMARK    7  A    between atoms: C4_10  and  C12_20 
REMARK    8  A    between atoms: C5_11  and  N3_12 
REMARK    9  A    between atoms: N3_12  and  C6_14 
ROOT
HETATM    1  C4  UNL     1      -6.879  18.417 -24.294  1.00  0.00     0.302 C 
ENDROOT
BRANCH   1   2
HETATM    2  N2  UNL     1      -5.630  18.728 -24.994  1.00  0.00    -0.058 N 
ATOM      3  H22 UNL     1      -5.490  18.156 -25.827  1.00  0.00     0.278 HD
ATOM      4  H21 UNL     1      -4.802  18.423 -24.481  1.00  0.00     0.278 HD
BRANCH   2   5
HETATM    5  C3  UNL     1      -5.625  20.170 -25.282  1.00  0.00     0.266 C 
BRANCH   5   6
HETATM    6  C2  UNL     1      -5.262  20.429 -26.702  1.00  0.00     0.215 C 
BRANCH   6   7
HETATM    7  N1  UNL     1      -4.220  21.390 -26.895  1.00  0.00    -0.073 N 
HETATM    8  C1  UNL     1      -4.755  22.479 -27.687  1.00  0.00     0.267 C 
ATOM      9  H12 UNL     1      -3.379  20.983 -27.303  1.00  0.00     0.277 HD
ATOM     10  H11 UNL     1      -3.809  21.706 -26.018  1.00  0.00     0.277 HD
ENDBRANCH   6   7
BRANCH   6  11
HETATM   11  C13 UNL     1      -6.449  20.657 -27.598  1.00  0.00     0.018 A 
HETATM   12  C14 UNL     1      -7.790  20.902 -27.020  1.00  0.00     0.007 A 
HETATM   13  C15 UNL     1      -7.515  19.650 -27.781  1.00  0.00     0.007 A 
ENDBRANCH   6  11
ENDBRANCH   5   6
ENDBRANCH   2   5
ENDBRANCH   1   2
BRANCH   1  14
HETATM   14  C5  UNL     1      -6.883  19.040 -22.914  1.00  0.00     0.158 C 
BRANCH  14  15
HETATM   15  N3  UNL     1      -8.193  19.514 -22.606  1.00  0.00    -0.415 N 
ATOM     16  H3  UNL     1      -9.003  19.234 -23.160  1.00  0.00     0.153 HD
BRANCH  15  17
HETATM   17  C6  UNL     1      -8.323  20.391 -21.500  1.00  0.00     0.076 C 
HETATM   18  C7  UNL     1      -9.593  21.238 -21.743  1.00  0.00     0.024 C 
HETATM   19  C8  UNL     1     -10.068  21.614 -20.355  1.00  0.00     0.002 C 
HETATM   20  C9  UNL     1      -8.858  21.946 -19.541  1.00  0.00     0.000 C 
HETATM   21  C10 UNL     1      -7.718  22.465 -20.372  1.00  0.00     0.002 C 
HETATM   22  C11 UNL     1      -7.215  21.414 -21.372  1.00  0.00     0.024 C 
ENDBRANCH  15  17
ENDBRANCH  14  15
ENDBRANCH   1  14
BRANCH   1  23
HETATM   23  C12 UNL     1      -6.904  16.944 -24.113  1.00  0.00     0.206 C 
HETATM   24  O1  UNL     1      -6.991  16.483 -22.948  1.00  0.00    -0.646 OA
HETATM   25  O2  UNL     1      -6.830  16.026 -25.157  1.00  0.00    -0.646 OA
ENDBRANCH   1  23
TORSDOF 9
ENDMDL
MODEL 5
REMARK VINA RESULT: -7.226783355      1.335      2.085
REMARK  9 active torsions:
REMARK  status: ('A' for Active; 'I' for Inactive)
REMARK    1  A    between atoms: N1_2  and  C2_5 
REMARK    2  A    between atoms: C2_5  and  C3_6 
REMARK    3  A    between atoms: C2_5  and  C13_23 
REMARK    4  A    between atoms: C3_6  and  N2_7 
REMARK    5  A    between atoms: N2_7  and  C4_10 
REMARK    6  A    between atoms: C4_10  and  C5_11 
REMARK    7  A    between atoms: C4_10  and  C12_20 
REMARK    8  A    between atoms: C5_11  and  N3_12 
REMARK    9  A    between atoms: N3_12  and  C6_14 
ROOT
HETATM    1  C4  UNL     1      -7.151  18.557 -25.882  1.00  0.00     0.302 C 
ENDROOT
BRANCH   1   2
HETATM    2  N2  UNL     1      -6.365  19.171 -26.955  1.00  0.00    -0.058 N 
ATOM      3  H22 UNL     1      -6.760  19.003 -27.881  1.00  0.00     0.278 HD
ATOM      4  H21 UNL     1      -5.469  18.708 -27.105  1.00  0.00     0.278 HD
BRANCH   2   5
HETATM    5  C3  UNL     1      -6.225  20.601 -26.644  1.00  0.00     0.266 C 
BRANCH   5   6
HETATM    6  C2  UNL     1      -4.827  21.062 -26.872  1.00  0.00     0.215 C 
BRANCH   6   7
HETATM    7  N1  UNL     1      -4.101  21.403 -25.688  1.00  0.00    -0.073 N 
HETATM    8  C1  UNL     1      -2.769  21.815 -26.081  1.00  0.00     0.267 C 
ATOM      9  H12 UNL     1      -4.093  20.650 -25.000  1.00  0.00     0.277 HD
ATOM     10  H11 UNL     1      -4.579  22.103 -25.120  1.00  0.00     0.277 HD
ENDBRANCH   6   7
BRANCH   6  11
HETATM   11  C13 UNL     1      -4.701  22.094 -27.959  1.00  0.00     0.018 A 
HETATM   12  C14 UNL     1      -5.134  23.490 -27.724  1.00  0.00     0.007 A 
HETATM   13  C15 UNL     1      -5.869  22.627 -28.692  1.00  0.00     0.007 A 
ENDBRANCH   6  11
ENDBRANCH   5   6
ENDBRANCH   2   5
ENDBRANCH   1   2
BRANCH   1  14
HETATM   14  C5  UNL     1      -7.443  19.566 -24.793  1.00  0.00     0.158 C 
BRANCH  14  15
HETATM   15  N3  UNL     1      -7.833  18.887 -23.600  1.00  0.00    -0.415 N 
ATOM     16  H3  UNL     1      -7.972  17.876 -23.586  1.00  0.00     0.153 HD
BRANCH  15  17
HETATM   17  C6  UNL     1      -8.020  19.673 -22.435  1.00  0.00     0.076 C 
HETATM   18  C7  UNL     1      -8.580  21.038 -22.898  1.00  0.00     0.024 C 
HETATM   19  C8  UNL     1      -9.374  21.542 -21.712  1.00  0.00     0.002 C 
HETATM   20  C9  UNL     1      -8.595  21.215 -20.478  1.00  0.00     0.000 C 
HETATM   21  C10 UNL     1      -7.113  21.150 -20.722  1.00  0.00     0.002 C 
HETATM   22  C11 UNL     1      -6.745  20.027 -21.701  1.00  0.00     0.024 C 
ENDBRANCH  15  17
ENDBRANCH  14  15
ENDBRANCH   1  14
BRANCH   1  23
HETATM   23  C12 UNL     1      -6.296  17.500 -25.286  1.00  0.00     0.206 C 
HETATM   24  O1  UNL     1      -6.696  16.310 -25.327  1.00  0.00    -0.646 OA
HETATM   25  O2  UNL     1      -5.070  17.739 -24.672  1.00  0.00    -0.646 OA
ENDBRANCH   1  23
TORSDOF 9
ENDMDL
