MODEL 1
REMARK VINA RESULT: -7.499778705      0.000      0.000
REMARK  8 active torsions:
REMARK  status: ('A' for Active; 'I' for Inactive)
REMARK    1  A    between atoms: O1_2  and  C2_3 
REMARK    2  A    between atoms: C7_8  and  O2_9 
REMARK    3  A    between atoms: C8_12  and  N1_13 
REMARK    4  A    between atoms: C17_22  and  C18_23 
REMARK    5  A    between atoms: C18_23  and  C19_24 
REMARK    6  A    between atoms: C21_26  and  O4_27 
REMARK    7  A    between atoms: C23_29  and  O5_30 
REMARK    8  A    between atoms: C25_32  and  O6_33 
ROOT
HETATM    1  C2  UNL     1     -11.618 -22.415  29.388  1.00  0.00     0.102 A 
HETATM    2  C3  UNL     1     -10.624 -23.359  29.655  1.00  0.00     0.050 A 
HETATM    3  C4  UNL     1      -9.412 -23.310  28.978  1.00  0.00    -0.014 A 
HETATM    4  C5  UNL     1      -9.288 -22.274  28.056  1.00  0.00     0.081 A 
HETATM    5  C6  UNL     1     -10.264 -21.348  27.793  1.00  0.00     0.076 A 
HETATM    6  C7  UNL     1     -11.472 -21.407  28.471  1.00  0.00     0.101 A 
HETATM    7  O3  UNL     1      -8.055 -22.206  27.379  1.00  0.00    -0.325 OA
HETATM    8  C8  UNL     1      -6.908 -22.596  28.176  1.00  0.00     0.229 C 
HETATM    9  C16 UNL     1      -7.084 -24.030  28.459  1.00  0.00     0.067 C 
HETATM   10  C17 UNL     1      -8.378 -24.323  29.233  1.00  0.00     0.049 C 
ENDROOT
BRANCH  10  11
HETATM   11  C18 UNL     1      -8.737 -25.701  28.816  1.00  0.00    -0.006 C 
BRANCH  11  12
HETATM   12  C19 UNL     1      -9.639 -26.534  29.554  1.00  0.00    -0.034 A 
HETATM   13  C20 UNL     1     -10.840 -26.924  28.992  1.00  0.00     0.051 A 
HETATM   14  C21 UNL     1     -11.777 -27.733  29.613  1.00  0.00     0.105 A 
HETATM   15  C23 UNL     1     -11.471 -28.184  30.906  1.00  0.00     0.135 A 
HETATM   16  C25 UNL     1     -10.294 -27.820  31.495  1.00  0.00     0.105 A 
HETATM   17  C27 UNL     1      -9.408 -27.023  30.844  1.00  0.00     0.051 A 
BRANCH  14  18
HETATM   18  O4  UNL     1     -12.977 -28.122  29.049  1.00  0.00    -0.353 OA
HETATM   19  C22 UNL     1     -14.044 -27.258  28.758  1.00  0.00     0.210 C 
ENDBRANCH  14  18
BRANCH  15  20
HETATM   20  O5  UNL     1     -12.411 -29.005  31.537  1.00  0.00    -0.351 OA
HETATM   21  C24 UNL     1     -13.366 -28.403  32.379  1.00  0.00     0.210 C 
ENDBRANCH  15  20
BRANCH  16  22
HETATM   22  O6  UNL     1     -10.001 -28.268  32.772  1.00  0.00    -0.353 OA
HETATM   23  C26 UNL     1     -10.037 -27.411  33.902  1.00  0.00     0.210 C 
ENDBRANCH  16  22
ENDBRANCH  11  12
ENDBRANCH  10  11
BRANCH   8  24
HETATM   24  N1  UNL     1      -5.763 -22.199  27.441  1.00  0.00    -0.367 N 
HETATM   25  C9  UNL     1      -4.673 -21.722  28.232  1.00  0.00     0.125 C 
HETATM   26  C10 UNL     1      -3.509 -22.645  28.317  1.00  0.00     0.029 C 
HETATM   27  C11 UNL     1      -2.994 -22.798  26.879  1.00  0.00    -0.042 C 
HETATM   28  C12 UNL     1      -1.792 -23.741  26.897  1.00  0.00     0.015 C 
HETATM   29  C13 UNL     1      -2.629 -21.432  26.402  1.00  0.00     0.015 C 
HETATM   30  C14 UNL     1      -4.089 -23.466  26.120  1.00  0.00     0.053 C 
HETATM   31  C15 UNL     1      -5.441 -22.856  26.248  1.00  0.00     0.061 C 
ENDBRANCH   8  24
BRANCH   1  32
HETATM   32  O1  UNL     1     -12.833 -22.484  30.083  1.00  0.00    -0.353 OA
HETATM   33  C1  UNL     1     -13.420 -23.757  30.366  1.00  0.00     0.210 C 
ENDBRANCH   1  32
BRANCH   6  34
HETATM   34  O2  UNL     1     -12.479 -20.483  28.224  1.00  0.00    -0.358 OA
ATOM     35  H2  UNL     1     -12.292 -19.568  28.051  1.00  0.00     0.217 HD
ENDBRANCH   6  34
TORSDOF 8
ENDMDL
MODEL 2
REMARK VINA RESULT: -7.499769927      0.130      2.125
REMARK  8 active torsions:
REMARK  status: ('A' for Active; 'I' for Inactive)
REMARK    1  A    between atoms: O1_2  and  C2_3 
REMARK    2  A    between atoms: C7_8  and  O2_9 
REMARK    3  A    between atoms: C8_12  and  N1_13 
REMARK    4  A    between atoms: C17_22  and  C18_23 
REMARK    5  A    between atoms: C18_23  and  C19_24 
REMARK    6  A    between atoms: C21_26  and  O4_27 
REMARK    7  A    between atoms: C23_29  and  O5_30 
REMARK    8  A    between atoms: C25_32  and  O6_33 
ROOT
HETATM    1  C2  UNL     1     -11.654 -22.501  29.427  1.00  0.00     0.102 A 
HETATM    2  C3  UNL     1     -10.643 -23.426  29.699  1.00  0.00     0.050 A 
HETATM    3  C4  UNL     1      -9.432 -23.358  29.022  1.00  0.00    -0.014 A 
HETATM    4  C5  UNL     1      -9.326 -22.324  28.097  1.00  0.00     0.081 A 
HETATM    5  C6  UNL     1     -10.318 -21.416  27.829  1.00  0.00     0.076 A 
HETATM    6  C7  UNL     1     -11.525 -21.494  28.507  1.00  0.00     0.101 A 
HETATM    7  O3  UNL     1      -8.093 -22.237  27.420  1.00  0.00    -0.325 OA
HETATM    8  C8  UNL     1      -6.940 -22.604  28.219  1.00  0.00     0.229 C 
HETATM    9  C16 UNL     1      -7.091 -24.038  28.508  1.00  0.00     0.067 C 
HETATM   10  C17 UNL     1      -8.381 -24.352  29.282  1.00  0.00     0.049 C 
ENDROOT
BRANCH  10  11
HETATM   11  C18 UNL     1      -8.714 -25.738  28.870  1.00  0.00    -0.006 C 
BRANCH  11  12
HETATM   12  C19 UNL     1      -9.691 -26.542  29.542  1.00  0.00    -0.034 A 
HETATM   13  C20 UNL     1      -9.492 -26.920  30.857  1.00  0.00     0.051 A 
HETATM   14  C21 UNL     1     -10.375 -27.686  31.600  1.00  0.00     0.105 A 
HETATM   15  C23 UNL     1     -11.553 -28.100  30.960  1.00  0.00     0.135 A 
HETATM   16  C25 UNL     1     -11.784 -27.747  29.663  1.00  0.00     0.105 A 
HETATM   17  C27 UNL     1     -10.887 -26.994  28.975  1.00  0.00     0.051 A 
BRANCH  14  18
HETATM   18  O4  UNL     1     -10.174 -28.062  32.915  1.00  0.00    -0.353 OA
HETATM   19  C22 UNL     1     -10.255 -27.198  34.018  1.00  0.00     0.210 C 
ENDBRANCH  14  18
BRANCH  15  20
HETATM   20  O5  UNL     1     -12.450 -28.870  31.707  1.00  0.00    -0.351 OA
HETATM   21  C24 UNL     1     -13.518 -28.217  32.352  1.00  0.00     0.210 C 
ENDBRANCH  15  20
BRANCH  16  22
HETATM   22  O6  UNL     1     -12.949 -28.161  29.038  1.00  0.00    -0.353 OA
HETATM   23  C26 UNL     1     -13.951 -27.247  28.621  1.00  0.00     0.210 C 
ENDBRANCH  16  22
ENDBRANCH  11  12
ENDBRANCH  10  11
BRANCH   8  24
HETATM   24  N1  UNL     1      -5.802 -22.189  27.483  1.00  0.00    -0.367 N 
HETATM   25  C9  UNL     1      -4.716 -21.703  28.273  1.00  0.00     0.125 C 
HETATM   26  C10 UNL     1      -3.540 -22.613  28.351  1.00  0.00     0.029 C 
HETATM   27  C11 UNL     1      -3.028 -22.752  26.910  1.00  0.00    -0.042 C 
HETATM   28  C12 UNL     1      -1.815 -23.681  26.920  1.00  0.00     0.015 C 
HETATM   29  C13 UNL     1      -2.680 -21.379  26.439  1.00  0.00     0.015 C 
HETATM   30  C14 UNL     1      -4.117 -23.429  26.151  1.00  0.00     0.053 C 
HETATM   31  C15 UNL     1      -5.476 -22.836  26.286  1.00  0.00     0.061 C 
ENDBRANCH   8  24
BRANCH   1  32
HETATM   32  O1  UNL     1     -12.868 -22.589  30.122  1.00  0.00    -0.353 OA
HETATM   33  C1  UNL     1     -13.386 -23.870  30.491  1.00  0.00     0.210 C 
ENDBRANCH   1  32
BRANCH   6  34
HETATM   34  O2  UNL     1     -12.548 -20.589  28.256  1.00  0.00    -0.358 OA
ATOM     35  H2  UNL     1     -12.421 -19.651  28.330  1.00  0.00     0.217 HD
ENDBRANCH   6  34
TORSDOF 8
ENDMDL
MODEL 3
REMARK VINA RESULT: -7.390497348      2.306      3.050
REMARK  8 active torsions:
REMARK  status: ('A' for Active; 'I' for Inactive)
REMARK    1  A    between atoms: O1_2  and  C2_3 
REMARK    2  A    between atoms: C7_8  and  O2_9 
REMARK    3  A    between atoms: C8_12  and  N1_13 
REMARK    4  A    between atoms: C17_22  and  C18_23 
REMARK    5  A    between atoms: C18_23  and  C19_24 
REMARK    6  A    between atoms: C21_26  and  O4_27 
REMARK    7  A    between atoms: C23_29  and  O5_30 
REMARK    8  A    between atoms: C25_32  and  O6_33 
ROOT
HETATM    1  C2  UNL     1     -11.706 -22.591  29.459  1.00  0.00     0.102 A 
HETATM    2  C3  UNL     1     -10.708 -23.548  29.656  1.00  0.00     0.050 A 
HETATM    3  C4  UNL     1      -9.497 -23.446  28.983  1.00  0.00    -0.014 A 
HETATM    4  C5  UNL     1      -9.378 -22.345  28.139  1.00  0.00     0.081 A 
HETATM    5  C6  UNL     1     -10.357 -21.405  27.946  1.00  0.00     0.076 A 
HETATM    6  C7  UNL     1     -11.564 -21.518  28.619  1.00  0.00     0.101 A 
HETATM    7  O3  UNL     1      -8.146 -22.223  27.468  1.00  0.00    -0.325 OA
HETATM    8  C8  UNL     1      -6.996 -22.667  28.232  1.00  0.00     0.229 C 
HETATM    9  C16 UNL     1      -7.167 -24.118  28.411  1.00  0.00     0.067 C 
HETATM   10  C17 UNL     1      -8.460 -24.471  29.162  1.00  0.00     0.049 C 
ENDROOT
BRANCH  10  11
HETATM   11  C18 UNL     1      -8.814 -25.816  28.646  1.00  0.00    -0.006 C 
BRANCH  11  12
HETATM   12  C19 UNL     1      -8.251 -27.028  29.163  1.00  0.00    -0.034 A 
HETATM   13  C20 UNL     1      -7.614 -27.915  28.315  1.00  0.00     0.051 A 
HETATM   14  C21 UNL     1      -7.030 -29.106  28.712  1.00  0.00     0.105 A 
HETATM   15  C23 UNL     1      -7.096 -29.423  30.077  1.00  0.00     0.135 A 
HETATM   16  C25 UNL     1      -7.717 -28.573  30.946  1.00  0.00     0.105 A 
HETATM   17  C27 UNL     1      -8.276 -27.416  30.507  1.00  0.00     0.051 A 
BRANCH  14  18
HETATM   18  O4  UNL     1      -6.393 -29.990  27.862  1.00  0.00    -0.353 OA
HETATM   19  C22 UNL     1      -6.578 -30.041  26.472  1.00  0.00     0.210 C 
ENDBRANCH  14  18
BRANCH  15  20
HETATM   20  O5  UNL     1      -6.504 -30.623  30.485  1.00  0.00    -0.351 OA
HETATM   21  C24 UNL     1      -5.164 -30.595  30.919  1.00  0.00     0.210 C 
ENDBRANCH  15  20
BRANCH  16  22
HETATM   22  O6  UNL     1      -7.779 -28.894  32.291  1.00  0.00    -0.353 OA
HETATM   23  C26 UNL     1      -6.972 -28.246  33.263  1.00  0.00     0.210 C 
ENDBRANCH  16  22
ENDBRANCH  11  12
ENDBRANCH  10  11
BRANCH   8  24
HETATM   24  N1  UNL     1      -5.854 -22.213  27.527  1.00  0.00    -0.367 N 
HETATM   25  C9  UNL     1      -4.778 -21.758  28.350  1.00  0.00     0.125 C 
HETATM   26  C10 UNL     1      -3.598 -22.664  28.397  1.00  0.00     0.029 C 
HETATM   27  C11 UNL     1      -3.071 -22.735  26.956  1.00  0.00    -0.042 C 
HETATM   28  C12 UNL     1      -1.853 -23.657  26.935  1.00  0.00     0.015 C 
HETATM   29  C13 UNL     1      -2.727 -21.340  26.552  1.00  0.00     0.015 C 
HETATM   30  C14 UNL     1      -4.149 -23.382  26.157  1.00  0.00     0.053 C 
HETATM   31  C15 UNL     1      -5.512 -22.803  26.305  1.00  0.00     0.061 C 
ENDBRANCH   8  24
BRANCH   1  32
HETATM   32  O1  UNL     1     -12.919 -22.715  30.149  1.00  0.00    -0.353 OA
HETATM   33  C1  UNL     1     -13.432 -24.013  30.461  1.00  0.00     0.210 C 
ENDBRANCH   1  32
BRANCH   6  34
HETATM   34  O2  UNL     1     -12.574 -20.582  28.441  1.00  0.00    -0.358 OA
ATOM     35  H2  UNL     1     -12.528 -19.911  27.770  1.00  0.00     0.217 HD
ENDBRANCH   6  34
TORSDOF 8
ENDMDL
MODEL 4
REMARK VINA RESULT: -7.345098002      2.306      3.524
REMARK  8 active torsions:
REMARK  status: ('A' for Active; 'I' for Inactive)
REMARK    1  A    between atoms: O1_2  and  C2_3 
REMARK    2  A    between atoms: C7_8  and  O2_9 
REMARK    3  A    between atoms: C8_12  and  N1_13 
REMARK    4  A    between atoms: C17_22  and  C18_23 
REMARK    5  A    between atoms: C18_23  and  C19_24 
REMARK    6  A    between atoms: C21_26  and  O4_27 
REMARK    7  A    between atoms: C23_29  and  O5_30 
REMARK    8  A    between atoms: C25_32  and  O6_33 
ROOT
HETATM    1  C2  UNL     1     -11.667 -22.652  29.496  1.00  0.00     0.102 A 
HETATM    2  C3  UNL     1     -10.667 -23.609  29.682  1.00  0.00     0.050 A 
HETATM    3  C4  UNL     1      -9.466 -23.510  28.991  1.00  0.00    -0.014 A 
HETATM    4  C5  UNL     1      -9.359 -22.413  28.141  1.00  0.00     0.081 A 
HETATM    5  C6  UNL     1     -10.341 -21.474  27.958  1.00  0.00     0.076 A 
HETATM    6  C7  UNL     1     -11.538 -21.583  28.649  1.00  0.00     0.101 A 
HETATM    7  O3  UNL     1      -8.137 -22.295  27.451  1.00  0.00    -0.325 OA
HETATM    8  C8  UNL     1      -6.976 -22.736  28.201  1.00  0.00     0.229 C 
HETATM    9  C16 UNL     1      -7.145 -24.185  28.388  1.00  0.00     0.067 C 
HETATM   10  C17 UNL     1      -8.427 -24.536  29.159  1.00  0.00     0.049 C 
ENDROOT
BRANCH  10  11
HETATM   11  C18 UNL     1      -8.789 -25.883  28.654  1.00  0.00    -0.006 C 
BRANCH  11  12
HETATM   12  C19 UNL     1      -8.182 -27.089  29.132  1.00  0.00    -0.034 A 
HETATM   13  C20 UNL     1      -8.192 -27.382  30.483  1.00  0.00     0.051 A 
HETATM   14  C21 UNL     1      -7.644 -28.522  31.048  1.00  0.00     0.105 A 
HETATM   15  C23 UNL     1      -7.039 -29.437  30.174  1.00  0.00     0.135 A 
HETATM   16  C25 UNL     1      -7.008 -29.183  28.834  1.00  0.00     0.105 A 
HETATM   17  C27 UNL     1      -7.559 -28.049  28.328  1.00  0.00     0.051 A 
BRANCH  14  18
HETATM   18  O4  UNL     1      -7.657 -28.812  32.399  1.00  0.00    -0.353 OA
HETATM   19  C22 UNL     1      -6.964 -28.089  33.382  1.00  0.00     0.210 C 
ENDBRANCH  14  18
BRANCH  15  20
HETATM   20  O5  UNL     1      -6.487 -30.592  30.739  1.00  0.00    -0.351 OA
HETATM   21  C24 UNL     1      -5.109 -30.604  31.025  1.00  0.00     0.210 C 
ENDBRANCH  15  20
BRANCH  16  22
HETATM   22  O6  UNL     1      -6.408 -30.091  27.978  1.00  0.00    -0.353 OA
HETATM   23  C26 UNL     1      -6.550 -30.012  26.569  1.00  0.00     0.210 C 
ENDBRANCH  16  22
ENDBRANCH  11  12
ENDBRANCH  10  11
BRANCH   8  24
HETATM   24  N1  UNL     1      -5.844 -22.285  27.477  1.00  0.00    -0.367 N 
HETATM   25  C9  UNL     1      -4.771 -21.791  28.280  1.00  0.00     0.125 C 
HETATM   26  C10 UNL     1      -3.578 -22.678  28.347  1.00  0.00     0.029 C 
HETATM   27  C11 UNL     1      -3.057 -22.782  26.907  1.00  0.00    -0.042 C 
HETATM   28  C12 UNL     1      -1.825 -23.686  26.905  1.00  0.00     0.015 C 
HETATM   29  C13 UNL     1      -2.735 -21.394  26.461  1.00  0.00     0.015 C 
HETATM   30  C14 UNL     1      -4.129 -23.468  26.131  1.00  0.00     0.053 C 
HETATM   31  C15 UNL     1      -5.500 -22.905  26.270  1.00  0.00     0.061 C 
ENDBRANCH   8  24
BRANCH   1  32
HETATM   32  O1  UNL     1     -12.871 -22.773  30.204  1.00  0.00    -0.353 OA
HETATM   33  C1  UNL     1     -13.534 -24.038  30.271  1.00  0.00     0.210 C 
ENDBRANCH   1  32
BRANCH   6  34
HETATM   34  O2  UNL     1     -12.550 -20.647  28.482  1.00  0.00    -0.358 OA
ATOM     35  H2  UNL     1     -12.659 -20.161  27.674  1.00  0.00     0.217 HD
ENDBRANCH   6  34
TORSDOF 8
ENDMDL
MODEL 5
REMARK VINA RESULT: -7.293680911      1.669      2.304
REMARK  8 active torsions:
REMARK  status: ('A' for Active; 'I' for Inactive)
REMARK    1  A    between atoms: O1_2  and  C2_3 
REMARK    2  A    between atoms: C7_8  and  O2_9 
REMARK    3  A    between atoms: C8_12  and  N1_13 
REMARK    4  A    between atoms: C17_22  and  C18_23 
REMARK    5  A    between atoms: C18_23  and  C19_24 
REMARK    6  A    between atoms: C21_26  and  O4_27 
REMARK    7  A    between atoms: C23_29  and  O5_30 
REMARK    8  A    between atoms: C25_32  and  O6_33 
ROOT
HETATM    1  C2  UNL     1     -11.734 -22.514  29.435  1.00  0.00     0.102 A 
HETATM    2  C3  UNL     1     -10.738 -23.468  29.658  1.00  0.00     0.050 A 
HETATM    3  C4  UNL     1      -9.520 -23.376  28.997  1.00  0.00    -0.014 A 
HETATM    4  C5  UNL     1      -9.392 -22.289  28.138  1.00  0.00     0.081 A 
HETATM    5  C6  UNL     1     -10.369 -21.352  27.918  1.00  0.00     0.076 A 
HETATM    6  C7  UNL     1     -11.583 -21.455  28.579  1.00  0.00     0.101 A 
HETATM    7  O3  UNL     1      -8.152 -22.177  27.478  1.00  0.00    -0.325 OA
HETATM    8  C8  UNL     1      -7.011 -22.608  28.263  1.00  0.00     0.229 C 
HETATM    9  C16 UNL     1      -7.184 -24.056  28.462  1.00  0.00     0.067 C 
HETATM   10  C17 UNL     1      -8.485 -24.398  29.204  1.00  0.00     0.049 C 
ENDROOT
BRANCH  10  11
HETATM   11  C18 UNL     1      -8.833 -25.751  28.705  1.00  0.00    -0.006 C 
BRANCH  11  12
HETATM   12  C19 UNL     1      -8.715 -26.936  29.503  1.00  0.00    -0.034 A 
HETATM   13  C20 UNL     1      -9.774 -27.352  30.287  1.00  0.00     0.051 A 
HETATM   14  C21 UNL     1      -9.769 -28.484  31.086  1.00  0.00     0.105 A 
HETATM   15  C23 UNL     1      -8.597 -29.255  31.089  1.00  0.00     0.135 A 
HETATM   16  C25 UNL     1      -7.530 -28.876  30.327  1.00  0.00     0.105 A 
HETATM   17  C27 UNL     1      -7.583 -27.756  29.561  1.00  0.00     0.051 A 
BRANCH  14  18
HETATM   18  O4  UNL     1     -10.830 -28.897  31.868  1.00  0.00    -0.353 OA
HETATM   19  C22 UNL     1     -12.151 -29.044  31.417  1.00  0.00     0.210 C 
ENDBRANCH  14  18
BRANCH  15  20
HETATM   20  O5  UNL     1      -8.587 -30.401  31.890  1.00  0.00    -0.351 OA
HETATM   21  C24 UNL     1      -8.928 -31.633  31.300  1.00  0.00     0.210 C 
ENDBRANCH  15  20
BRANCH  16  22
HETATM   22  O6  UNL     1      -6.376 -29.642  30.337  1.00  0.00    -0.353 OA
HETATM   23  C26 UNL     1      -5.796 -30.153  29.147  1.00  0.00     0.210 C 
ENDBRANCH  16  22
ENDBRANCH  11  12
ENDBRANCH  10  11
BRANCH   8  24
HETATM   24  N1  UNL     1      -5.861 -22.165  27.564  1.00  0.00    -0.367 N 
HETATM   25  C9  UNL     1      -4.772 -21.753  28.392  1.00  0.00     0.125 C 
HETATM   26  C10 UNL     1      -3.613 -22.687  28.415  1.00  0.00     0.029 C 
HETATM   27  C11 UNL     1      -3.093 -22.738  26.971  1.00  0.00    -0.042 C 
HETATM   28  C12 UNL     1      -1.896 -23.687  26.926  1.00  0.00     0.015 C 
HETATM   29  C13 UNL     1      -2.717 -21.342  26.597  1.00  0.00     0.015 C 
HETATM   30  C14 UNL     1      -4.188 -23.342  26.162  1.00  0.00     0.053 C 
HETATM   31  C15 UNL     1      -5.537 -22.735  26.328  1.00  0.00     0.061 C 
ENDBRANCH   8  24
BRANCH   1  32
HETATM   32  O1  UNL     1     -12.956 -22.628  30.112  1.00  0.00    -0.353 OA
HETATM   33  C1  UNL     1     -13.441 -23.918  30.495  1.00  0.00     0.210 C 
ENDBRANCH   1  32
BRANCH   6  34
HETATM   34  O2  UNL     1     -12.592 -20.522  28.375  1.00  0.00    -0.358 OA
ATOM     35  H2  UNL     1     -13.103 -20.167  29.092  1.00  0.00     0.217 HD
ENDBRANCH   6  34
TORSDOF 8
ENDMDL
