MODEL 1
REMARK VINA RESULT: -8.264875705      0.000      0.000
REMARK  8 active torsions:
REMARK  status: ('A' for Active; 'I' for Inactive)
REMARK    1  A    between atoms: C2_2  and  C3_3 
REMARK    2  A    between atoms: C3_3  and  C4_4 
REMARK    3  A    between atoms: C4_4  and  C5_5 
REMARK    4  A    between atoms: C12_12  and  C14_14 
REMARK    5  A    between atoms: C14_14  and  C15_15 
REMARK    6  A    between atoms: C15_15  and  O1_16 
REMARK    7  A    between atoms: C15_15  and  C16_18 
REMARK    8  A    between atoms: C19_21  and  O2_22 
ROOT
HETATM    1  C5  UNL     1      -5.181 -22.842  29.442  1.00  0.00     0.067 C 
HETATM    2  C6  UNL     1      -5.247 -24.336  29.087  1.00  0.00     0.048 C 
HETATM    3  C7  UNL     1      -6.644 -24.612  28.848  1.00  0.00    -0.027 C 
HETATM    4  C8  UNL     1      -6.713 -24.143  27.422  1.00  0.00     0.016 C 
HETATM    5  C9  UNL     1      -7.497 -25.767  28.822  1.00  0.00     0.036 C 
HETATM    6  C10 UNL     1      -8.944 -25.366  28.959  1.00  0.00    -0.027 C 
HETATM    7  C11 UNL     1      -9.568 -24.123  28.587  1.00  0.00     0.007 C 
HETATM    8  C12 UNL     1      -9.731 -22.912  29.417  1.00  0.00     0.081 C 
HETATM    9  C13 UNL     1     -10.181 -21.821  28.396  1.00  0.00     0.051 C 
HETATM   10  O4  UNL     1      -8.643 -22.270  30.013  1.00  0.00    -0.346 OA
HETATM   11  C21 UNL     1      -7.518 -22.606  29.424  1.00  0.00     0.270 C 
HETATM   12  O5  UNL     1      -6.313 -22.061  29.391  1.00  0.00    -0.350 OA
HETATM   13  C22 UNL     1      -7.190 -23.921  30.024  1.00  0.00     0.085 C 
HETATM   14  C23 UNL     1      -6.251 -23.748  31.232  1.00  0.00     0.083 C 
HETATM   15  C24 UNL     1      -6.976 -23.008  32.330  1.00  0.00     0.049 C 
HETATM   16  C25 UNL     1      -6.195 -23.442  33.564  1.00  0.00     0.114 C 
HETATM   17  C26 UNL     1      -5.847 -24.832  33.230  1.00  0.00     0.259 C 
HETATM   18  O6  UNL     1      -5.442 -25.775  33.985  1.00  0.00    -0.265 OA
HETATM   19  O7  UNL     1      -6.031 -24.986  31.885  1.00  0.00    -0.309 OA
HETATM   20  C27 UNL     1      -5.016 -22.948  30.980  1.00  0.00     0.077 C 
ENDROOT
BRANCH   8  21
HETATM   21  C14 UNL     1     -10.939 -22.962  30.318  1.00  0.00     0.080 C 
BRANCH  21  22
HETATM   22  C15 UNL     1     -12.257 -22.956  29.666  1.00  0.00     0.178 C 
BRANCH  22  23
HETATM   23  O1  UNL     1     -12.939 -21.767  29.839  1.00  0.00    -0.389 OA
ATOM     24  H1  UNL     1     -13.543 -21.789  30.572  1.00  0.00     0.210 HD
ENDBRANCH  22  23
BRANCH  22  25
HETATM   25  C16 UNL     1     -13.135 -24.013  30.294  1.00  0.00     0.084 A 
HETATM   26  C17 UNL     1     -13.298 -25.322  29.916  1.00  0.00     0.040 A 
HETATM   27  C18 UNL     1     -14.191 -25.936  30.762  1.00  0.00     0.066 A 
HETATM   28  C19 UNL     1     -14.548 -24.924  31.662  1.00  0.00     0.185 A 
HETATM   29  O3  UNL     1     -13.914 -23.839  31.352  1.00  0.00    -0.290 OA
BRANCH  28  30
HETATM   30  O2  UNL     1     -15.455 -25.154  32.698  1.00  0.00    -0.335 OA
HETATM   31  C20 UNL     1     -16.788 -25.528  32.484  1.00  0.00     0.212 C 
ENDBRANCH  28  30
ENDBRANCH  22  25
ENDBRANCH  21  22
ENDBRANCH   8  21
BRANCH   1  32
HETATM   32  C4  UNL     1      -4.045 -22.143  28.812  1.00  0.00     0.038 C 
BRANCH  32  33
HETATM   33  C3  UNL     1      -3.127 -23.055  28.026  1.00  0.00     0.002 C 
BRANCH  33  34
HETATM   34  C2  UNL     1      -2.577 -22.191  26.882  1.00  0.00    -0.004 C 
HETATM   35  C1  UNL     1      -1.476 -22.949  26.205  1.00  0.00     0.005 C 
ENDBRANCH  33  34
ENDBRANCH  32  33
ENDBRANCH   1  32
TORSDOF 8
ENDMDL
MODEL 2
REMARK VINA RESULT: -8.137795326      1.425      1.816
REMARK  8 active torsions:
REMARK  status: ('A' for Active; 'I' for Inactive)
REMARK    1  A    between atoms: C2_2  and  C3_3 
REMARK    2  A    between atoms: C3_3  and  C4_4 
REMARK    3  A    between atoms: C4_4  and  C5_5 
REMARK    4  A    between atoms: C12_12  and  C14_14 
REMARK    5  A    between atoms: C14_14  and  C15_15 
REMARK    6  A    between atoms: C15_15  and  O1_16 
REMARK    7  A    between atoms: C15_15  and  C16_18 
REMARK    8  A    between atoms: C19_21  and  O2_22 
ROOT
HETATM    1  C5  UNL     1      -5.603 -22.575  29.898  1.00  0.00     0.067 C 
HETATM    2  C6  UNL     1      -5.455 -24.004  29.349  1.00  0.00     0.048 C 
HETATM    3  C7  UNL     1      -6.799 -24.441  29.050  1.00  0.00    -0.027 C 
HETATM    4  C8  UNL     1      -6.934 -23.802  27.697  1.00  0.00     0.016 C 
HETATM    5  C9  UNL     1      -7.478 -25.692  28.858  1.00  0.00     0.036 C 
HETATM    6  C10 UNL     1      -8.968 -25.522  29.019  1.00  0.00    -0.027 C 
HETATM    7  C11 UNL     1      -9.762 -24.341  28.801  1.00  0.00     0.007 C 
HETATM    8  C12 UNL     1     -10.097 -23.286  29.779  1.00  0.00     0.081 C 
HETATM    9  C13 UNL     1     -10.698 -22.144  28.901  1.00  0.00     0.051 C 
HETATM   10  O4  UNL     1      -9.111 -22.581  30.473  1.00  0.00    -0.346 OA
HETATM   11  C21 UNL     1      -7.950 -22.673  29.867  1.00  0.00     0.270 C 
HETATM   12  O5  UNL     1      -6.836 -21.963  29.928  1.00  0.00    -0.350 OA
HETATM   13  C22 UNL     1      -7.437 -23.996  30.296  1.00  0.00     0.085 C 
HETATM   14  C23 UNL     1      -6.533 -23.852  31.534  1.00  0.00     0.083 C 
HETATM   15  C24 UNL     1      -7.356 -23.374  32.705  1.00  0.00     0.049 C 
HETATM   16  C25 UNL     1      -6.521 -23.852  33.886  1.00  0.00     0.114 C 
HETATM   17  C26 UNL     1      -5.978 -25.122  33.380  1.00  0.00     0.259 C 
HETATM   18  O6  UNL     1      -5.442 -26.089  34.013  1.00  0.00    -0.265 OA
HETATM   19  O7  UNL     1      -6.138 -25.122  32.024  1.00  0.00    -0.309 OA
HETATM   20  C27 UNL     1      -5.424 -22.860  31.412  1.00  0.00     0.077 C 
ENDROOT
BRANCH   8  21
HETATM   21  C14 UNL     1     -11.285 -23.625  30.643  1.00  0.00     0.080 C 
BRANCH  21  22
HETATM   22  C15 UNL     1     -12.613 -23.521  30.020  1.00  0.00     0.178 C 
BRANCH  22  23
HETATM   23  O1  UNL     1     -13.506 -22.784  30.772  1.00  0.00    -0.389 OA
ATOM     24  H1  UNL     1     -14.390 -22.802  30.423  1.00  0.00     0.210 HD
ENDBRANCH  22  23
BRANCH  22  25
HETATM   25  C16 UNL     1     -13.226 -24.897  29.910  1.00  0.00     0.084 A 
HETATM   26  C17 UNL     1     -13.897 -25.612  30.870  1.00  0.00     0.040 A 
HETATM   27  C18 UNL     1     -14.290 -26.823  30.349  1.00  0.00     0.066 A 
HETATM   28  C19 UNL     1     -13.820 -26.788  29.031  1.00  0.00     0.185 A 
HETATM   29  O3  UNL     1     -13.216 -25.661  28.827  1.00  0.00    -0.290 OA
BRANCH  28  30
HETATM   30  O2  UNL     1     -14.023 -27.855  28.154  1.00  0.00    -0.335 OA
HETATM   31  C20 UNL     1     -14.301 -27.687  26.791  1.00  0.00     0.212 C 
ENDBRANCH  28  30
ENDBRANCH  22  25
ENDBRANCH  21  22
ENDBRANCH   8  21
BRANCH   1  32
HETATM   32  C4  UNL     1      -4.579 -21.645  29.386  1.00  0.00     0.038 C 
BRANCH  32  33
HETATM   33  C3  UNL     1      -3.572 -22.296  28.461  1.00  0.00     0.002 C 
BRANCH  33  34
HETATM   34  C2  UNL     1      -3.253 -21.236  27.397  1.00  0.00    -0.004 C 
HETATM   35  C1  UNL     1      -2.482 -21.892  26.293  1.00  0.00     0.005 C 
ENDBRANCH  33  34
ENDBRANCH  32  33
ENDBRANCH   1  32
TORSDOF 8
ENDMDL
MODEL 3
REMARK VINA RESULT: -7.795748613      1.760      2.195
REMARK  8 active torsions:
REMARK  status: ('A' for Active; 'I' for Inactive)
REMARK    1  A    between atoms: C2_2  and  C3_3 
REMARK    2  A    between atoms: C3_3  and  C4_4 
REMARK    3  A    between atoms: C4_4  and  C5_5 
REMARK    4  A    between atoms: C12_12  and  C14_14 
REMARK    5  A    between atoms: C14_14  and  C15_15 
REMARK    6  A    between atoms: C15_15  and  O1_16 
REMARK    7  A    between atoms: C15_15  and  C16_18 
REMARK    8  A    between atoms: C19_21  and  O2_22 
ROOT
HETATM    1  C5  UNL     1      -4.364 -22.984  27.403  1.00  0.00     0.067 C 
HETATM    2  C6  UNL     1      -4.415 -24.360  28.087  1.00  0.00     0.048 C 
HETATM    3  C7  UNL     1      -5.815 -24.608  28.344  1.00  0.00    -0.027 C 
HETATM    4  C8  UNL     1      -6.191 -25.131  26.986  1.00  0.00     0.016 C 
HETATM    5  C9  UNL     1      -6.590 -25.450  29.212  1.00  0.00     0.036 C 
HETATM    6  C10 UNL     1      -8.002 -24.934  29.336  1.00  0.00    -0.027 C 
HETATM    7  C11 UNL     1      -8.755 -24.150  28.392  1.00  0.00     0.007 C 
HETATM    8  C12 UNL     1      -8.818 -22.679  28.288  1.00  0.00     0.081 C 
HETATM    9  C13 UNL     1      -9.521 -22.433  26.916  1.00  0.00     0.051 C 
HETATM   10  O4  UNL     1      -7.670 -21.898  28.128  1.00  0.00    -0.346 OA
HETATM   11  C21 UNL     1      -6.668 -22.620  27.683  1.00  0.00     0.270 C 
HETATM   12  O5  UNL     1      -5.526 -22.317  27.088  1.00  0.00    -0.350 OA
HETATM   13  C22 UNL     1      -6.154 -23.291  28.900  1.00  0.00     0.085 C 
HETATM   14  C23 UNL     1      -5.005 -22.478  29.526  1.00  0.00     0.083 C 
HETATM   15  C24 UNL     1      -5.539 -21.158  30.026  1.00  0.00     0.049 C 
HETATM   16  C25 UNL     1      -4.505 -20.787  31.083  1.00  0.00     0.114 C 
HETATM   17  C26 UNL     1      -4.153 -22.102  31.638  1.00  0.00     0.259 C 
HETATM   18  O6  UNL     1      -3.555 -22.395  32.724  1.00  0.00    -0.265 OA
HETATM   19  O7  UNL     1      -4.591 -23.048  30.755  1.00  0.00    -0.309 OA
HETATM   20  C27 UNL     1      -3.891 -22.118  28.600  1.00  0.00     0.077 C 
ENDROOT
BRANCH   8  21
HETATM   21  C14 UNL     1      -9.818 -22.054  29.227  1.00  0.00     0.080 C 
BRANCH  21  22
HETATM   22  C15 UNL     1     -11.240 -22.205  28.882  1.00  0.00     0.178 C 
BRANCH  22  23
HETATM   23  O1  UNL     1     -11.924 -21.005  28.876  1.00  0.00    -0.389 OA
ATOM     24  H1  UNL     1     -12.866 -21.114  28.934  1.00  0.00     0.210 HD
ENDBRANCH  22  23
BRANCH  22  25
HETATM   25  C16 UNL     1     -11.926 -23.048  29.931  1.00  0.00     0.084 A 
HETATM   26  C17 UNL     1     -11.361 -23.735  30.977  1.00  0.00     0.040 A 
HETATM   27  C18 UNL     1     -12.348 -24.373  31.691  1.00  0.00     0.066 A 
HETATM   28  C19 UNL     1     -13.526 -24.029  31.016  1.00  0.00     0.185 A 
HETATM   29  O3  UNL     1     -13.230 -23.266  30.012  1.00  0.00    -0.290 OA
BRANCH  28  30
HETATM   30  O2  UNL     1     -14.773 -24.489  31.440  1.00  0.00    -0.335 OA
HETATM   31  C20 UNL     1     -14.935 -25.502  32.395  1.00  0.00     0.212 C 
ENDBRANCH  28  30
ENDBRANCH  22  25
ENDBRANCH  21  22
ENDBRANCH   8  21
BRANCH   1  32
HETATM   32  C4  UNL     1      -3.416 -22.929  26.275  1.00  0.00     0.038 C 
BRANCH  32  33
HETATM   33  C3  UNL     1      -2.110 -22.239  26.608  1.00  0.00     0.002 C 
BRANCH  33  34
HETATM   34  C2  UNL     1      -1.037 -23.334  26.518  1.00  0.00    -0.004 C 
HETATM   35  C1  UNL     1      -0.900 -23.742  25.083  1.00  0.00     0.005 C 
ENDBRANCH  33  34
ENDBRANCH  32  33
ENDBRANCH   1  32
TORSDOF 8
ENDMDL
MODEL 4
REMARK VINA RESULT: -7.792995827      4.078      7.267
REMARK  8 active torsions:
REMARK  status: ('A' for Active; 'I' for Inactive)
REMARK    1  A    between atoms: C2_2  and  C3_3 
REMARK    2  A    between atoms: C3_3  and  C4_4 
REMARK    3  A    between atoms: C4_4  and  C5_5 
REMARK    4  A    between atoms: C12_12  and  C14_14 
REMARK    5  A    between atoms: C14_14  and  C15_15 
REMARK    6  A    between atoms: C15_15  and  O1_16 
REMARK    7  A    between atoms: C15_15  and  C16_18 
REMARK    8  A    between atoms: C19_21  and  O2_22 
ROOT
HETATM    1  C5  UNL     1      -5.177 -22.621  30.932  1.00  0.00     0.067 C 
HETATM    2  C6  UNL     1      -6.083 -21.599  30.226  1.00  0.00     0.048 C 
HETATM    3  C7  UNL     1      -7.042 -22.384  29.484  1.00  0.00    -0.027 C 
HETATM    4  C8  UNL     1      -8.007 -22.655  30.603  1.00  0.00     0.016 C 
HETATM    5  C9  UNL     1      -7.926 -22.184  28.370  1.00  0.00     0.036 C 
HETATM    6  C10 UNL     1      -8.342 -23.506  27.774  1.00  0.00    -0.027 C 
HETATM    7  C11 UNL     1      -8.432 -24.790  28.419  1.00  0.00     0.007 C 
HETATM    8  C12 UNL     1      -7.374 -25.813  28.545  1.00  0.00     0.081 C 
HETATM    9  C13 UNL     1      -7.953 -26.819  29.588  1.00  0.00     0.051 C 
HETATM   10  O4  UNL     1      -6.135 -25.529  29.125  1.00  0.00    -0.346 OA
HETATM   11  C21 UNL     1      -6.201 -24.449  29.870  1.00  0.00     0.270 C 
HETATM   12  O5  UNL     1      -5.440 -23.968  30.840  1.00  0.00    -0.350 OA
HETATM   13  C22 UNL     1      -6.099 -23.342  28.890  1.00  0.00     0.085 C 
HETATM   14  C23 UNL     1      -4.637 -22.884  28.738  1.00  0.00     0.083 C 
HETATM   15  C24 UNL     1      -3.822 -23.998  28.129  1.00  0.00     0.049 C 
HETATM   16  C25 UNL     1      -2.656 -23.229  27.517  1.00  0.00     0.114 C 
HETATM   17  C26 UNL     1      -3.309 -21.987  27.077  1.00  0.00     0.259 C 
HETATM   18  O6  UNL     1      -2.901 -21.097  26.262  1.00  0.00    -0.265 OA
HETATM   19  O7  UNL     1      -4.514 -21.911  27.715  1.00  0.00    -0.309 OA
HETATM   20  C27 UNL     1      -3.933 -22.542  30.010  1.00  0.00     0.077 C 
ENDROOT
BRANCH   8  21
HETATM   21  C14 UNL     1      -7.256 -26.705  27.335  1.00  0.00     0.080 C 
BRANCH  21  22
HETATM   22  C15 UNL     1      -6.090 -26.493  26.463  1.00  0.00     0.178 C 
BRANCH  22  23
HETATM   23  O1  UNL     1      -6.084 -25.249  25.864  1.00  0.00    -0.389 OA
ATOM     24  H1  UNL     1      -5.375 -25.141  25.239  1.00  0.00     0.210 HD
ENDBRANCH  22  23
BRANCH  22  25
HETATM   25  C16 UNL     1      -6.129 -27.484  25.323  1.00  0.00     0.084 A 
HETATM   26  C17 UNL     1      -6.929 -28.589  25.179  1.00  0.00     0.040 A 
HETATM   27  C18 UNL     1      -6.638 -29.214  23.989  1.00  0.00     0.066 A 
HETATM   28  C19 UNL     1      -5.624 -28.423  23.435  1.00  0.00     0.185 A 
HETATM   29  O3  UNL     1      -5.368 -27.441  24.239  1.00  0.00    -0.290 OA
BRANCH  28  30
HETATM   30  O2  UNL     1      -5.047 -28.731  22.202  1.00  0.00    -0.335 OA
HETATM   31  C20 UNL     1      -5.030 -30.024  21.664  1.00  0.00     0.212 C 
ENDBRANCH  28  30
ENDBRANCH  22  25
ENDBRANCH  21  22
ENDBRANCH   8  21
BRANCH   1  32
HETATM   32  C4  UNL     1      -4.856 -22.252  32.324  1.00  0.00     0.038 C 
BRANCH  32  33
HETATM   33  C3  UNL     1      -3.566 -21.472  32.465  1.00  0.00     0.002 C 
BRANCH  33  34
HETATM   34  C2  UNL     1      -3.995 -20.032  32.785  1.00  0.00    -0.004 C 
HETATM   35  C1  UNL     1      -3.999 -19.861  34.273  1.00  0.00     0.005 C 
ENDBRANCH  33  34
ENDBRANCH  32  33
ENDBRANCH   1  32
TORSDOF 8
ENDMDL
MODEL 5
REMARK VINA RESULT: -7.734816282      1.271      1.550
REMARK  8 active torsions:
REMARK  status: ('A' for Active; 'I' for Inactive)
REMARK    1  A    between atoms: C2_2  and  C3_3 
REMARK    2  A    between atoms: C3_3  and  C4_4 
REMARK    3  A    between atoms: C4_4  and  C5_5 
REMARK    4  A    between atoms: C12_12  and  C14_14 
REMARK    5  A    between atoms: C14_14  and  C15_15 
REMARK    6  A    between atoms: C15_15  and  O1_16 
REMARK    7  A    between atoms: C15_15  and  C16_18 
REMARK    8  A    between atoms: C19_21  and  O2_22 
ROOT
HETATM    1  C5  UNL     1      -5.554 -22.519  29.890  1.00  0.00     0.067 C 
HETATM    2  C6  UNL     1      -5.365 -23.941  29.338  1.00  0.00     0.048 C 
HETATM    3  C7  UNL     1      -6.694 -24.411  29.026  1.00  0.00    -0.027 C 
HETATM    4  C8  UNL     1      -6.835 -23.770  27.674  1.00  0.00     0.016 C 
HETATM    5  C9  UNL     1      -7.340 -25.678  28.823  1.00  0.00     0.036 C 
HETATM    6  C10 UNL     1      -8.835 -25.546  28.972  1.00  0.00    -0.027 C 
HETATM    7  C11 UNL     1      -9.658 -24.385  28.753  1.00  0.00     0.007 C 
HETATM    8  C12 UNL     1     -10.027 -23.343  29.731  1.00  0.00     0.081 C 
HETATM    9  C13 UNL     1     -10.649 -22.213  28.853  1.00  0.00     0.051 C 
HETATM   10  O4  UNL     1      -9.065 -22.616  30.437  1.00  0.00    -0.346 OA
HETATM   11  C21 UNL     1      -7.897 -22.676  29.840  1.00  0.00     0.270 C 
HETATM   12  O5  UNL     1      -6.802 -21.938  29.913  1.00  0.00    -0.350 OA
HETATM   13  C22 UNL     1      -7.354 -23.987  30.268  1.00  0.00     0.085 C 
HETATM   14  C23 UNL     1      -6.464 -23.826  31.514  1.00  0.00     0.083 C 
HETATM   15  C24 UNL     1      -7.309 -23.373  32.680  1.00  0.00     0.049 C 
HETATM   16  C25 UNL     1      -6.471 -23.835  33.866  1.00  0.00     0.114 C 
HETATM   17  C26 UNL     1      -5.892 -25.089  33.360  1.00  0.00     0.259 C 
HETATM   18  O6  UNL     1      -5.337 -26.045  33.993  1.00  0.00    -0.265 OA
HETATM   19  O7  UNL     1      -6.041 -25.087  32.002  1.00  0.00    -0.309 OA
HETATM   20  C27 UNL     1      -5.380 -22.805  31.405  1.00  0.00     0.077 C 
ENDROOT
BRANCH   8  21
HETATM   21  C14 UNL     1     -11.213 -23.716  30.585  1.00  0.00     0.080 C 
BRANCH  21  22
HETATM   22  C15 UNL     1     -10.935 -24.119  31.972  1.00  0.00     0.178 C 
BRANCH  22  23
HETATM   23  O1  UNL     1     -10.016 -25.146  32.062  1.00  0.00    -0.389 OA
ATOM     24  H1  UNL     1     -10.018 -25.572  32.911  1.00  0.00     0.210 HD
ENDBRANCH  22  23
BRANCH  22  25
HETATM   25  C16 UNL     1     -12.197 -24.657  32.602  1.00  0.00     0.084 A 
HETATM   26  C17 UNL     1     -12.321 -25.565  33.624  1.00  0.00     0.040 A 
HETATM   27  C18 UNL     1     -13.653 -25.777  33.889  1.00  0.00     0.066 A 
HETATM   28  C19 UNL     1     -14.313 -24.949  32.973  1.00  0.00     0.185 A 
HETATM   29  O3  UNL     1     -13.433 -24.326  32.256  1.00  0.00    -0.290 OA
BRANCH  28  30
HETATM   30  O2  UNL     1     -15.706 -24.878  32.922  1.00  0.00    -0.335 OA
HETATM   31  C20 UNL     1     -16.545 -25.612  33.772  1.00  0.00     0.212 C 
ENDBRANCH  28  30
ENDBRANCH  22  25
ENDBRANCH  21  22
ENDBRANCH   8  21
BRANCH   1  32
HETATM   32  C4  UNL     1      -4.549 -21.561  29.391  1.00  0.00     0.038 C 
BRANCH  32  33
HETATM   33  C3  UNL     1      -3.529 -22.179  28.458  1.00  0.00     0.002 C 
BRANCH  33  34
HETATM   34  C2  UNL     1      -3.286 -21.125  27.367  1.00  0.00    -0.004 C 
HETATM   35  C1  UNL     1      -2.502 -21.763  26.262  1.00  0.00     0.005 C 
ENDBRANCH  33  34
ENDBRANCH  32  33
ENDBRANCH   1  32
TORSDOF 8
ENDMDL
