MODEL 1
REMARK VINA RESULT: -7.754164544      0.000      0.000
REMARK  7 active torsions:
REMARK  status: ('A' for Active; 'I' for Inactive)
REMARK    1  A    between atoms: O1_2  and  C2_3 
REMARK    2  A    between atoms: C2_3  and  C3_4 
REMARK    3  A    between atoms: C3_4  and  C4_5 
REMARK    4  A    between atoms: C3_4  and  C25_37 
REMARK    5  A    between atoms: N2_9  and  C6_11 
REMARK    6  A    between atoms: C6_11  and  C8_13 
REMARK    7  A    between atoms: C19_26  and  C20_27 
ROOT
HETATM    1  C4  UNL     1     -10.730 -23.668  30.345  1.00  0.00     0.089 A 
HETATM    2  N1  UNL     1      -9.663 -24.109  29.654  1.00  0.00    -0.331 N 
ATOM      3  H1  UNL     1      -9.657 -24.019  28.638  1.00  0.00     0.168 HD
HETATM    4  C5  UNL     1      -8.606 -24.663  30.269  1.00  0.00     0.111 A 
HETATM    5  N2  UNL     1      -7.610 -25.101  29.698  1.00  0.00    -0.367 N 
ATOM      6  H2  UNL     1      -6.943 -25.463  30.379  1.00  0.00     0.161 HD
HETATM    7  C17 UNL     1      -8.675 -24.757  31.686  1.00  0.00     0.010 A 
HETATM    8  C18 UNL     1      -7.537 -25.461  32.288  1.00  0.00     0.054 C 
HETATM    9  C19 UNL     1      -9.737 -24.318  32.396  1.00  0.00     0.058 A 
HETATM   10  N4  UNL     1     -10.779 -23.764  31.683  1.00  0.00    -0.344 N 
ATOM     11  H4  UNL     1     -11.601 -23.421  32.181  1.00  0.00     0.167 HD
ENDROOT
BRANCH   5  12
HETATM   12  C6  UNL     1      -7.112 -25.254  28.408  1.00  0.00     0.113 C 
HETATM   13  C7  UNL     1      -6.929 -26.723  28.017  1.00  0.00     0.037 C 
BRANCH  12  14
HETATM   14  C8  UNL     1      -5.953 -24.450  28.051  1.00  0.00    -0.027 A 
HETATM   15  C9  UNL     1      -4.692 -25.063  28.066  1.00  0.00     0.010 A 
HETATM   16  C10 UNL     1      -3.532 -24.434  27.731  1.00  0.00     0.013 A 
HETATM   17  C11 UNL     1      -3.589 -23.117  27.357  1.00  0.00    -0.001 A 
HETATM   18  C12 UNL     1      -4.797 -22.481  27.331  1.00  0.00     0.086 A 
HETATM   19  C16 UNL     1      -2.349 -22.421  26.958  1.00  0.00     0.212 C 
HETATM   20  C13 UNL     1      -5.964 -23.123  27.668  1.00  0.00    -0.020 A 
HETATM   21  O2  UNL     1      -4.791 -21.138  26.950  1.00  0.00    -0.325 OA
HETATM   22  C14 UNL     1      -7.272 -22.418  27.603  1.00  0.00     0.052 C 
HETATM   23  C15 UNL     1      -3.562 -20.429  26.853  1.00  0.00     0.345 C 
HETATM   24  O3  UNL     1      -2.580 -21.229  26.270  1.00  0.00    -0.362 OA
ENDBRANCH  12  14
ENDBRANCH   5  12
BRANCH   1  25
HETATM   25  C3  UNL     1     -11.878 -23.055  29.640  1.00  0.00     0.081 C 
BRANCH  25  26
HETATM   26  C2  UNL     1     -13.201 -23.386  30.287  1.00  0.00     0.179 C 
BRANCH  26  27
HETATM   27  O1  UNL     1     -13.458 -24.759  30.234  1.00  0.00    -0.395 OA
HETATM   28  C1  UNL     1     -14.330 -25.034  31.287  1.00  0.00     0.201 C 
ENDBRANCH  26  27
ENDBRANCH  25  26
BRANCH  25  29
HETATM   29  C25 UNL     1     -11.616 -21.591  29.493  1.00  0.00    -0.001 A 
HETATM   30  C26 UNL     1     -11.233 -21.141  28.113  1.00  0.00     0.006 A 
HETATM   31  C27 UNL     1     -12.482 -20.659  28.781  1.00  0.00     0.006 A 
ENDBRANCH  25  29
ENDBRANCH   1  25
BRANCH   9  32
HETATM   32  C20 UNL     1      -9.901 -24.471  33.823  1.00  0.00     0.047 A 
HETATM   33  C21 UNL     1      -9.445 -23.779  34.904  1.00  0.00     0.043 A 
HETATM   34  C22 UNL     1      -8.760 -22.477  34.937  1.00  0.00     0.071 C 
HETATM   35  N3  UNL     1      -9.806 -24.478  36.005  1.00  0.00    -0.265 N 
HETATM   36  O4  UNL     1     -10.448 -25.530  35.646  1.00  0.00    -0.242 OA
ATOM     37  H3  UNL     1      -9.601 -24.211  36.968  1.00  0.00     0.194 HD
HETATM   38  C23 UNL     1     -10.556 -25.612  34.350  1.00  0.00     0.087 A 
HETATM   39  C24 UNL     1     -11.227 -26.687  33.577  1.00  0.00     0.080 C 
ENDBRANCH   9  32
TORSDOF 7
ENDMDL
MODEL 2
REMARK VINA RESULT: -7.564427721      2.831      7.980
REMARK  7 active torsions:
REMARK  status: ('A' for Active; 'I' for Inactive)
REMARK    1  A    between atoms: O1_2  and  C2_3 
REMARK    2  A    between atoms: C2_3  and  C3_4 
REMARK    3  A    between atoms: C3_4  and  C4_5 
REMARK    4  A    between atoms: C3_4  and  C25_37 
REMARK    5  A    between atoms: N2_9  and  C6_11 
REMARK    6  A    between atoms: C6_11  and  C8_13 
REMARK    7  A    between atoms: C19_26  and  C20_27 
ROOT
HETATM    1  C4  UNL     1      -5.625 -23.270  28.932  1.00  0.00     0.089 A 
HETATM    2  N1  UNL     1      -6.964 -23.385  28.896  1.00  0.00    -0.331 N 
ATOM      3  H1  UNL     1      -7.431 -23.495  27.995  1.00  0.00     0.168 HD
HETATM    4  C5  UNL     1      -7.703 -23.361  30.017  1.00  0.00     0.111 A 
HETATM    5  N2  UNL     1      -8.929 -23.443  30.054  1.00  0.00    -0.367 N 
ATOM      6  H2  UNL     1      -9.257 -23.409  31.019  1.00  0.00     0.161 HD
HETATM    7  C17 UNL     1      -6.994 -23.209  31.240  1.00  0.00     0.010 A 
HETATM    8  C18 UNL     1      -7.863 -23.089  32.416  1.00  0.00     0.054 C 
HETATM    9  C19 UNL     1      -5.650 -23.095  31.295  1.00  0.00     0.058 A 
HETATM   10  N4  UNL     1      -4.970 -23.128  30.095  1.00  0.00    -0.344 N 
ATOM     11  H4  UNL     1      -3.953 -23.044  30.093  1.00  0.00     0.167 HD
ENDROOT
BRANCH   5  12
HETATM   12  C6  UNL     1     -10.006 -23.568  29.183  1.00  0.00     0.113 C 
HETATM   13  C7  UNL     1     -10.299 -22.275  28.417  1.00  0.00     0.037 C 
BRANCH  12  14
HETATM   14  C8  UNL     1     -11.221 -24.165  29.720  1.00  0.00    -0.027 A 
HETATM   15  C9  UNL     1     -12.251 -23.309  30.135  1.00  0.00     0.010 A 
HETATM   16  C10 UNL     1     -13.445 -23.736  30.633  1.00  0.00     0.013 A 
HETATM   17  C11 UNL     1     -13.661 -25.084  30.743  1.00  0.00    -0.001 A 
HETATM   18  C12 UNL     1     -12.682 -25.952  30.352  1.00  0.00     0.086 A 
HETATM   19  C16 UNL     1     -14.959 -25.573  31.248  1.00  0.00     0.212 C 
HETATM   20  C13 UNL     1     -11.481 -25.515  29.848  1.00  0.00    -0.020 A 
HETATM   21  O2  UNL     1     -12.957 -27.313  30.495  1.00  0.00    -0.325 OA
HETATM   22  C14 UNL     1     -10.441 -26.480  29.401  1.00  0.00     0.052 C 
HETATM   23  C15 UNL     1     -14.089 -27.739  31.245  1.00  0.00     0.345 C 
HETATM   24  O3  UNL     1     -15.187 -26.923  30.978  1.00  0.00    -0.362 OA
ENDBRANCH  12  14
ENDBRANCH   5  12
BRANCH   1  25
HETATM   25  C3  UNL     1      -4.836 -23.307  27.680  1.00  0.00     0.081 C 
BRANCH  25  26
HETATM   26  C2  UNL     1      -5.474 -22.511  26.568  1.00  0.00     0.179 C 
BRANCH  26  27
HETATM   27  O1  UNL     1      -6.371 -23.296  25.838  1.00  0.00    -0.395 OA
HETATM   28  C1  UNL     1      -5.635 -24.371  25.341  1.00  0.00     0.201 C 
ENDBRANCH  26  27
ENDBRANCH  25  26
BRANCH  25  29
HETATM   29  C25 UNL     1      -3.431 -22.905  27.994  1.00  0.00    -0.001 A 
HETATM   30  C26 UNL     1      -2.363 -23.735  27.342  1.00  0.00     0.006 A 
HETATM   31  C27 UNL     1      -2.515 -22.276  27.050  1.00  0.00     0.006 A 
ENDBRANCH  25  29
ENDBRANCH   1  25
BRANCH   9  32
HETATM   32  C20 UNL     1      -4.887 -22.847  32.496  1.00  0.00     0.047 A 
HETATM   33  C21 UNL     1      -4.691 -23.544  33.650  1.00  0.00     0.043 A 
HETATM   34  C22 UNL     1      -5.072 -24.932  33.959  1.00  0.00     0.071 C 
HETATM   35  N3  UNL     1      -3.988 -22.744  34.484  1.00  0.00    -0.265 N 
HETATM   36  O4  UNL     1      -3.751 -21.626  33.899  1.00  0.00    -0.242 OA
ATOM     37  H3  UNL     1      -3.692 -22.990  35.429  1.00  0.00     0.194 HD
HETATM   38  C23 UNL     1      -4.254 -21.595  32.697  1.00  0.00     0.087 A 
HETATM   39  C24 UNL     1      -4.182 -20.471  31.729  1.00  0.00     0.080 C 
ENDBRANCH   9  32
TORSDOF 7
ENDMDL
MODEL 3
REMARK VINA RESULT: -7.540249225      3.409      8.733
REMARK  7 active torsions:
REMARK  status: ('A' for Active; 'I' for Inactive)
REMARK    1  A    between atoms: O1_2  and  C2_3 
REMARK    2  A    between atoms: C2_3  and  C3_4 
REMARK    3  A    between atoms: C3_4  and  C4_5 
REMARK    4  A    between atoms: C3_4  and  C25_37 
REMARK    5  A    between atoms: N2_9  and  C6_11 
REMARK    6  A    between atoms: C6_11  and  C8_13 
REMARK    7  A    between atoms: C19_26  and  C20_27 
ROOT
HETATM    1  C4  UNL     1      -4.659 -21.905  31.188  1.00  0.00     0.089 A 
HETATM    2  N1  UNL     1      -5.941 -22.303  31.100  1.00  0.00    -0.331 N 
ATOM      3  H1  UNL     1      -6.496 -22.382  31.953  1.00  0.00     0.168 HD
HETATM    4  C5  UNL     1      -6.508 -22.597  29.920  1.00  0.00     0.111 A 
HETATM    5  N2  UNL     1      -7.665 -22.983  29.771  1.00  0.00    -0.367 N 
ATOM      6  H2  UNL     1      -7.864 -23.133  28.782  1.00  0.00     0.161 HD
HETATM    7  C17 UNL     1      -5.682 -22.464  28.770  1.00  0.00     0.010 A 
HETATM    8  C18 UNL     1      -6.328 -22.896  27.525  1.00  0.00     0.054 C 
HETATM    9  C19 UNL     1      -4.394 -22.064  28.838  1.00  0.00     0.058 A 
HETATM   10  N4  UNL     1      -3.893 -21.783  30.092  1.00  0.00    -0.344 N 
ATOM     11  H4  UNL     1      -2.924 -21.478  30.188  1.00  0.00     0.167 HD
ENDROOT
BRANCH   5  12
HETATM   12  C6  UNL     1      -8.787 -23.278  30.538  1.00  0.00     0.113 C 
HETATM   13  C7  UNL     1      -8.478 -23.340  32.038  1.00  0.00     0.037 C 
BRANCH  12  14
HETATM   14  C8  UNL     1      -9.602 -24.404  30.107  1.00  0.00    -0.027 A 
HETATM   15  C9  UNL     1      -8.968 -25.638  29.899  1.00  0.00     0.010 A 
HETATM   16  C10 UNL     1      -9.615 -26.774  29.518  1.00  0.00     0.013 A 
HETATM   17  C11 UNL     1     -10.969 -26.719  29.321  1.00  0.00    -0.001 A 
HETATM   18  C12 UNL     1     -11.625 -25.536  29.512  1.00  0.00     0.086 A 
HETATM   19  C16 UNL     1     -11.699 -27.945  28.941  1.00  0.00     0.212 C 
HETATM   20  C13 UNL     1     -10.966 -24.394  29.898  1.00  0.00    -0.020 A 
HETATM   21  O2  UNL     1     -13.003 -25.540  29.289  1.00  0.00    -0.325 OA
HETATM   22  C14 UNL     1     -11.707 -23.124  30.128  1.00  0.00     0.052 C 
HETATM   23  C15 UNL     1     -13.621 -26.651  28.651  1.00  0.00     0.345 C 
HETATM   24  O3  UNL     1     -13.079 -27.847  29.121  1.00  0.00    -0.362 OA
ENDBRANCH  12  14
ENDBRANCH   5  12
BRANCH   1  25
HETATM   25  C3  UNL     1      -4.063 -21.580  32.504  1.00  0.00     0.081 C 
BRANCH  25  26
HETATM   26  C2  UNL     1      -4.348 -20.163  32.936  1.00  0.00     0.179 C 
BRANCH  26  27
HETATM   27  O1  UNL     1      -3.184 -19.529  33.381  1.00  0.00    -0.395 OA
HETATM   28  C1  UNL     1      -3.480 -19.008  34.641  1.00  0.00     0.201 C 
ENDBRANCH  26  27
ENDBRANCH  25  26
BRANCH  25  29
HETATM   29  C25 UNL     1      -4.494 -22.620  33.487  1.00  0.00    -0.001 A 
HETATM   30  C26 UNL     1      -3.384 -23.287  34.247  1.00  0.00     0.006 A 
HETATM   31  C27 UNL     1      -4.431 -22.471  34.936  1.00  0.00     0.006 A 
ENDBRANCH  25  29
ENDBRANCH   1  25
BRANCH   9  32
HETATM   32  C20 UNL     1      -3.485 -21.999  27.718  1.00  0.00     0.047 A 
HETATM   33  C21 UNL     1      -3.180 -21.035  26.805  1.00  0.00     0.043 A 
HETATM   34  C22 UNL     1      -3.575 -19.617  26.802  1.00  0.00     0.071 C 
HETATM   35  N3  UNL     1      -2.353 -21.597  25.894  1.00  0.00    -0.265 N 
HETATM   36  O4  UNL     1      -2.145 -22.824  26.211  1.00  0.00    -0.242 OA
ATOM     37  H3  UNL     1      -1.956 -21.121  25.083  1.00  0.00     0.194 HD
HETATM   38  C23 UNL     1      -2.785 -23.157  27.296  1.00  0.00     0.087 A 
HETATM   39  C24 UNL     1      -2.786 -24.486  27.959  1.00  0.00     0.080 C 
ENDBRANCH   9  32
TORSDOF 7
ENDMDL
MODEL 4
REMARK VINA RESULT: -7.516567416      2.872      7.883
REMARK  7 active torsions:
REMARK  status: ('A' for Active; 'I' for Inactive)
REMARK    1  A    between atoms: O1_2  and  C2_3 
REMARK    2  A    between atoms: C2_3  and  C3_4 
REMARK    3  A    between atoms: C3_4  and  C4_5 
REMARK    4  A    between atoms: C3_4  and  C25_37 
REMARK    5  A    between atoms: N2_9  and  C6_11 
REMARK    6  A    between atoms: C6_11  and  C8_13 
REMARK    7  A    between atoms: C19_26  and  C20_27 
ROOT
HETATM    1  C4  UNL     1      -5.633 -23.264  28.944  1.00  0.00     0.089 A 
HETATM    2  N1  UNL     1      -6.974 -23.367  28.906  1.00  0.00    -0.331 N 
ATOM      3  H1  UNL     1      -7.437 -23.496  28.006  1.00  0.00     0.168 HD
HETATM    4  C5  UNL     1      -7.717 -23.305  30.022  1.00  0.00     0.111 A 
HETATM    5  N2  UNL     1      -8.944 -23.375  30.056  1.00  0.00    -0.367 N 
ATOM      6  H2  UNL     1      -9.275 -23.311  31.018  1.00  0.00     0.161 HD
HETATM    7  C17 UNL     1      -7.012 -23.127  31.244  1.00  0.00     0.010 A 
HETATM    8  C18 UNL     1      -7.885 -22.967  32.412  1.00  0.00     0.054 C 
HETATM    9  C19 UNL     1      -5.667 -23.024  31.302  1.00  0.00     0.058 A 
HETATM   10  N4  UNL     1      -4.982 -23.097  30.107  1.00  0.00    -0.344 N 
ATOM     11  H4  UNL     1      -3.965 -23.022  30.107  1.00  0.00     0.167 HD
ENDROOT
BRANCH   5  12
HETATM   12  C6  UNL     1     -10.018 -23.513  29.184  1.00  0.00     0.113 C 
HETATM   13  C7  UNL     1     -10.322 -22.225  28.411  1.00  0.00     0.037 C 
BRANCH  12  14
HETATM   14  C8  UNL     1     -11.228 -24.119  29.721  1.00  0.00    -0.027 A 
HETATM   15  C9  UNL     1     -12.269 -23.271  30.126  1.00  0.00     0.010 A 
HETATM   16  C10 UNL     1     -13.459 -23.707  30.624  1.00  0.00     0.013 A 
HETATM   17  C11 UNL     1     -13.662 -25.057  30.742  1.00  0.00    -0.001 A 
HETATM   18  C12 UNL     1     -12.672 -25.917  30.360  1.00  0.00     0.086 A 
HETATM   19  C16 UNL     1     -14.956 -25.556  31.247  1.00  0.00     0.212 C 
HETATM   20  C13 UNL     1     -11.475 -25.470  29.857  1.00  0.00    -0.020 A 
HETATM   21  O2  UNL     1     -12.934 -27.280  30.511  1.00  0.00    -0.325 OA
HETATM   22  C14 UNL     1     -10.423 -26.428  29.420  1.00  0.00     0.052 C 
HETATM   23  C15 UNL     1     -14.063 -27.713  31.260  1.00  0.00     0.345 C 
HETATM   24  O3  UNL     1     -15.169 -26.910  30.985  1.00  0.00    -0.362 OA
ENDBRANCH  12  14
ENDBRANCH   5  12
BRANCH   1  25
HETATM   25  C3  UNL     1      -4.839 -23.342  27.697  1.00  0.00     0.081 C 
BRANCH  25  26
HETATM   26  C2  UNL     1      -5.467 -22.574  26.560  1.00  0.00     0.179 C 
BRANCH  26  27
HETATM   27  O1  UNL     1      -6.350 -23.380  25.836  1.00  0.00    -0.395 OA
HETATM   28  C1  UNL     1      -5.592 -24.438  25.333  1.00  0.00     0.201 C 
ENDBRANCH  26  27
ENDBRANCH  25  26
BRANCH  25  29
HETATM   29  C25 UNL     1      -3.433 -22.941  28.006  1.00  0.00    -0.001 A 
HETATM   30  C26 UNL     1      -2.368 -23.779  27.362  1.00  0.00     0.006 A 
HETATM   31  C27 UNL     1      -2.517 -22.323  27.055  1.00  0.00     0.006 A 
ENDBRANCH  25  29
ENDBRANCH   1  25
BRANCH   9  32
HETATM   32  C20 UNL     1      -4.907 -22.751  32.499  1.00  0.00     0.047 A 
HETATM   33  C21 UNL     1      -4.138 -21.704  32.910  1.00  0.00     0.043 A 
HETATM   34  C22 UNL     1      -3.996 -20.373  32.296  1.00  0.00     0.071 C 
HETATM   35  N3  UNL     1      -3.553 -22.072  34.073  1.00  0.00    -0.265 N 
HETATM   36  O4  UNL     1      -3.929 -23.261  34.378  1.00  0.00    -0.242 OA
ATOM     37  H3  UNL     1      -2.914 -21.496  34.622  1.00  0.00     0.194 HD
HETATM   38  C23 UNL     1      -4.745 -23.752  33.489  1.00  0.00     0.087 A 
HETATM   39  C24 UNL     1      -5.380 -25.095  33.505  1.00  0.00     0.080 C 
ENDBRANCH   9  32
TORSDOF 7
ENDMDL
MODEL 5
REMARK VINA RESULT: -7.346549662      3.862      5.493
REMARK  7 active torsions:
REMARK  status: ('A' for Active; 'I' for Inactive)
REMARK    1  A    between atoms: O1_2  and  C2_3 
REMARK    2  A    between atoms: C2_3  and  C3_4 
REMARK    3  A    between atoms: C3_4  and  C4_5 
REMARK    4  A    between atoms: C3_4  and  C25_37 
REMARK    5  A    between atoms: N2_9  and  C6_11 
REMARK    6  A    between atoms: C6_11  and  C8_13 
REMARK    7  A    between atoms: C19_26  and  C20_27 
ROOT
HETATM    1  C4  UNL     1      -7.906 -22.934  30.138  1.00  0.00     0.089 A 
HETATM    2  N1  UNL     1      -7.402 -23.222  28.924  1.00  0.00    -0.331 N 
ATOM      3  H1  UNL     1      -8.038 -23.482  28.170  1.00  0.00     0.168 HD
HETATM    4  C5  UNL     1      -6.082 -23.176  28.681  1.00  0.00     0.111 A 
HETATM    5  N2  UNL     1      -5.555 -23.443  27.603  1.00  0.00    -0.367 N 
ATOM      6  H2  UNL     1      -4.544 -23.327  27.666  1.00  0.00     0.161 HD
HETATM    7  C17 UNL     1      -5.250 -22.804  29.772  1.00  0.00     0.010 A 
HETATM    8  C18 UNL     1      -3.815 -22.870  29.470  1.00  0.00     0.054 C 
HETATM    9  C19 UNL     1      -5.738 -22.509  30.996  1.00  0.00     0.058 A 
HETATM   10  N4  UNL     1      -7.106 -22.584  31.158  1.00  0.00    -0.344 N 
ATOM     11  H4  UNL     1      -7.516 -22.370  32.067  1.00  0.00     0.167 HD
ENDROOT
BRANCH   5  12
HETATM   12  C6  UNL     1      -5.915 -23.857  26.325  1.00  0.00     0.113 C 
HETATM   13  C7  UNL     1      -7.097 -23.064  25.759  1.00  0.00     0.037 C 
BRANCH  12  14
HETATM   14  C8  UNL     1      -6.075 -25.288  26.117  1.00  0.00    -0.027 A 
HETATM   15  C9  UNL     1      -6.606 -26.055  27.165  1.00  0.00     0.010 A 
HETATM   16  C10 UNL     1      -6.828 -27.396  27.094  1.00  0.00     0.013 A 
HETATM   17  C11 UNL     1      -6.516 -28.048  25.931  1.00  0.00    -0.001 A 
HETATM   18  C12 UNL     1      -5.995 -27.339  24.886  1.00  0.00     0.086 A 
HETATM   19  C16 UNL     1      -6.778 -29.497  25.817  1.00  0.00     0.212 C 
HETATM   20  C13 UNL     1      -5.775 -25.986  24.964  1.00  0.00    -0.020 A 
HETATM   21  O2  UNL     1      -5.689 -28.060  23.730  1.00  0.00    -0.325 OA
HETATM   22  C14 UNL     1      -5.235 -25.230  23.802  1.00  0.00     0.052 C 
HETATM   23  C15 UNL     1      -5.684 -29.482  23.755  1.00  0.00     0.345 C 
HETATM   24  O3  UNL     1      -6.760 -29.962  24.501  1.00  0.00    -0.362 OA
ENDBRANCH  12  14
ENDBRANCH   5  12
BRANCH   1  25
HETATM   25  C3  UNL     1      -9.366 -22.987  30.374  1.00  0.00     0.081 C 
BRANCH  25  26
HETATM   26  C2  UNL     1     -10.166 -22.824  29.105  1.00  0.00     0.179 C 
BRANCH  26  27
HETATM   27  O1  UNL     1      -9.828 -21.638  28.446  1.00  0.00    -0.395 OA
HETATM   28  C1  UNL     1     -11.028 -21.085  27.998  1.00  0.00     0.201 C 
ENDBRANCH  26  27
ENDBRANCH  25  26
BRANCH  25  29
HETATM   29  C25 UNL     1      -9.676 -24.234  31.138  1.00  0.00    -0.001 A 
HETATM   30  C26 UNL     1     -10.256 -24.023  32.507  1.00  0.00     0.006 A 
HETATM   31  C27 UNL     1     -11.020 -24.720  31.427  1.00  0.00     0.006 A 
ENDBRANCH  25  29
ENDBRANCH   1  25
BRANCH   9  32
HETATM   32  C20 UNL     1      -4.936 -22.217  32.161  1.00  0.00     0.047 A 
HETATM   33  C21 UNL     1      -4.119 -21.183  32.508  1.00  0.00     0.043 A 
HETATM   34  C22 UNL     1      -3.947 -19.885  31.837  1.00  0.00     0.071 C 
HETATM   35  N3  UNL     1      -3.516 -21.526  33.670  1.00  0.00    -0.265 N 
HETATM   36  O4  UNL     1      -3.926 -22.688  34.033  1.00  0.00    -0.242 OA
ATOM     37  H3  UNL     1      -2.842 -20.952  34.178  1.00  0.00     0.194 HD
HETATM   38  C23 UNL     1      -4.783 -23.183  33.186  1.00  0.00     0.087 A 
HETATM   39  C24 UNL     1      -5.465 -24.500  33.274  1.00  0.00     0.080 C 
ENDBRANCH   9  32
TORSDOF 7
ENDMDL
