MODEL 1
REMARK VINA RESULT: -7.864485222      0.000      0.000
REMARK  8 active torsions:
REMARK  status: ('A' for Active; 'I' for Inactive)
REMARK    1  A    between atoms: O1_2  and  C2_3 
REMARK    2  A    between atoms: C8_9  and  O2_10 
REMARK    3  A    between atoms: C13_16  and  O4_17 
REMARK    4  A    between atoms: O4_17  and  C14_18 
REMARK    5  A    between atoms: C14_18  and  C15_19 
REMARK    6  A    between atoms: C15_19  and  C16_20 
REMARK    7  A    between atoms: C16_20  and  N1_21 
REMARK    8  A    between atoms: C22_27  and  O5_28 
ROOT
HETATM    1  C2  UNL     1      -6.801 -27.606  26.432  1.00  0.00     0.102 A 
HETATM    2  C3  UNL     1      -6.389 -27.353  25.150  1.00  0.00     0.047 A 
HETATM    3  C4  UNL     1      -5.696 -26.191  24.818  1.00  0.00    -0.052 A 
HETATM    4  C5  UNL     1      -5.266 -25.952  23.417  1.00  0.00     0.049 C 
HETATM    5  C6  UNL     1      -5.407 -25.250  25.811  1.00  0.00    -0.036 A 
HETATM    6  C7  UNL     1      -5.813 -25.485  27.114  1.00  0.00     0.042 A 
HETATM    7  C8  UNL     1      -6.500 -26.651  27.402  1.00  0.00     0.115 A 
HETATM    8  C10 UNL     1      -5.481 -24.490  28.123  1.00  0.00     0.100 A 
HETATM    9  O3  UNL     1      -5.848 -24.677  29.378  1.00  0.00    -0.308 OA
HETATM   10  C11 UNL     1      -5.572 -23.810  30.326  1.00  0.00     0.093 A 
HETATM   11  C12 UNL     1      -5.982 -24.062  31.619  1.00  0.00     0.077 A 
HETATM   12  C13 UNL     1      -5.703 -23.169  32.620  1.00  0.00     0.104 A 
HETATM   13  C22 UNL     1      -5.008 -22.011  32.340  1.00  0.00     0.100 A 
HETATM   14  C23 UNL     1      -4.580 -21.719  31.064  1.00  0.00     0.057 A 
HETATM   15  C24 UNL     1      -4.878 -22.649  30.056  1.00  0.00     0.051 A 
HETATM   16  C25 UNL     1      -4.467 -22.393  28.770  1.00  0.00     0.194 A 
HETATM   17  O6  UNL     1      -3.838 -21.357  28.488  1.00  0.00    -0.287 OA
HETATM   18  C26 UNL     1      -4.786 -23.352  27.794  1.00  0.00     0.028 A 
HETATM   19  C27 UNL     1      -4.343 -23.070  26.426  1.00  0.00     0.050 A 
HETATM   20  C28 UNL     1      -4.677 -24.057  25.385  1.00  0.00     0.045 A 
ENDROOT
BRANCH  12  21
HETATM   21  O4  UNL     1      -6.099 -23.383  33.936  1.00  0.00    -0.348 OA
BRANCH  21  22
HETATM   22  C14 UNL     1      -7.351 -24.053  34.146  1.00  0.00     0.181 C 
BRANCH  22  23
HETATM   23  C15 UNL     1      -8.506 -23.139  33.793  1.00  0.00     0.071 C 
BRANCH  23  24
HETATM   24  C16 UNL     1      -9.744 -23.920  33.524  1.00  0.00     0.065 C 
BRANCH  24  25
HETATM   25  N1  UNL     1     -10.248 -23.829  32.211  1.00  0.00    -0.374 N 
HETATM   26  C17 UNL     1     -11.492 -24.443  31.942  1.00  0.00     0.127 C 
HETATM   27  C18 UNL     1     -12.191 -23.608  30.860  1.00  0.00     0.021 C 
HETATM   28  C19 UNL     1     -11.344 -23.680  29.640  1.00  0.00     0.007 C 
HETATM   29  C20 UNL     1      -9.915 -23.279  29.838  1.00  0.00     0.044 C 
HETATM   30  C21 UNL     1      -9.333 -23.694  31.153  1.00  0.00     0.063 C 
ENDBRANCH  24  25
ENDBRANCH  23  24
ENDBRANCH  22  23
ENDBRANCH  21  22
ENDBRANCH  12  21
BRANCH  13  31
HETATM   31  O5  UNL     1      -4.722 -21.099  33.360  1.00  0.00    -0.358 OA
ATOM     32  H5  UNL     1      -4.979 -20.189  33.273  1.00  0.00     0.217 HD
ENDBRANCH  13  31
BRANCH   7  33
HETATM   33  O2  UNL     1      -6.913 -26.904  28.681  1.00  0.00    -0.352 OA
HETATM   34  C9  UNL     1      -8.304 -26.737  29.009  1.00  0.00     0.210 C 
ENDBRANCH   7  33
BRANCH   1  35
HETATM   35  O1  UNL     1      -7.486 -28.767  26.726  1.00  0.00    -0.353 OA
HETATM   36  C1  UNL     1      -8.586 -29.132  25.920  1.00  0.00     0.210 C 
ENDBRANCH   1  35
TORSDOF 8
ENDMDL
MODEL 2
REMARK VINA RESULT: -7.741152353      3.170      6.964
REMARK  8 active torsions:
REMARK  status: ('A' for Active; 'I' for Inactive)
REMARK    1  A    between atoms: O1_2  and  C2_3 
REMARK    2  A    between atoms: C8_9  and  O2_10 
REMARK    3  A    between atoms: C13_16  and  O4_17 
REMARK    4  A    between atoms: O4_17  and  C14_18 
REMARK    5  A    between atoms: C14_18  and  C15_19 
REMARK    6  A    between atoms: C15_19  and  C16_20 
REMARK    7  A    between atoms: C16_20  and  N1_21 
REMARK    8  A    between atoms: C22_27  and  O5_28 
ROOT
HETATM    1  C2  UNL     1     -12.009 -27.553  31.387  1.00  0.00     0.102 A 
HETATM    2  C3  UNL     1     -13.253 -27.119  31.759  1.00  0.00     0.047 A 
HETATM    3  C4  UNL     1     -13.697 -25.830  31.471  1.00  0.00    -0.052 A 
HETATM    4  C5  UNL     1     -15.054 -25.396  31.891  1.00  0.00     0.049 C 
HETATM    5  C6  UNL     1     -12.858 -24.947  30.785  1.00  0.00    -0.036 A 
HETATM    6  C7  UNL     1     -11.596 -25.364  30.398  1.00  0.00     0.042 A 
HETATM    7  C8  UNL     1     -11.193 -26.653  30.704  1.00  0.00     0.115 A 
HETATM    8  C10 UNL     1     -10.757 -24.422  29.672  1.00  0.00     0.100 A 
HETATM    9  O3  UNL     1      -9.546 -24.782  29.283  1.00  0.00    -0.308 OA
HETATM   10  C11 UNL     1      -8.751 -23.970  28.625  1.00  0.00     0.093 A 
HETATM   11  C12 UNL     1      -7.497 -24.404  28.246  1.00  0.00     0.077 A 
HETATM   12  C13 UNL     1      -6.655 -23.571  27.559  1.00  0.00     0.104 A 
HETATM   13  C22 UNL     1      -7.056 -22.289  27.241  1.00  0.00     0.100 A 
HETATM   14  C23 UNL     1      -8.298 -21.815  27.600  1.00  0.00     0.057 A 
HETATM   15  C24 UNL     1      -9.143 -22.688  28.303  1.00  0.00     0.051 A 
HETATM   16  C25 UNL     1     -10.391 -22.249  28.679  1.00  0.00     0.194 A 
HETATM   17  O6  UNL     1     -10.779 -21.099  28.406  1.00  0.00    -0.287 OA
HETATM   18  C26 UNL     1     -11.202 -23.157  29.380  1.00  0.00     0.028 A 
HETATM   19  C27 UNL     1     -12.530 -22.680  29.774  1.00  0.00     0.050 A 
HETATM   20  C28 UNL     1     -13.394 -23.613  30.520  1.00  0.00     0.045 A 
ENDROOT
BRANCH  12  21
HETATM   21  O4  UNL     1      -5.383 -23.967  27.158  1.00  0.00    -0.348 OA
BRANCH  21  22
HETATM   22  C14 UNL     1      -4.441 -24.294  28.190  1.00  0.00     0.181 C 
BRANCH  22  23
HETATM   23  C15 UNL     1      -4.192 -23.095  29.080  1.00  0.00     0.071 C 
BRANCH  23  24
HETATM   24  C16 UNL     1      -4.861 -23.257  30.399  1.00  0.00     0.065 C 
BRANCH  24  25
HETATM   25  N1  UNL     1      -4.576 -22.259  31.353  1.00  0.00    -0.374 N 
HETATM   26  C17 UNL     1      -4.840 -22.554  32.710  1.00  0.00     0.127 C 
HETATM   27  C18 UNL     1      -3.800 -21.804  33.552  1.00  0.00     0.021 C 
HETATM   28  C19 UNL     1      -4.019 -20.351  33.323  1.00  0.00     0.007 C 
HETATM   29  C20 UNL     1      -4.005 -19.928  31.887  1.00  0.00     0.044 C 
HETATM   30  C21 UNL     1      -4.623 -20.915  30.946  1.00  0.00     0.063 C 
ENDBRANCH  24  25
ENDBRANCH  23  24
ENDBRANCH  22  23
ENDBRANCH  21  22
ENDBRANCH  12  21
BRANCH  13  31
HETATM   31  O5  UNL     1      -6.198 -21.438  26.540  1.00  0.00    -0.358 OA
ATOM     32  H5  UNL     1      -5.911 -20.621  26.931  1.00  0.00     0.217 HD
ENDBRANCH  13  31
BRANCH   7  33
HETATM   33  O2  UNL     1      -9.950 -27.087  30.334  1.00  0.00    -0.352 OA
HETATM   34  C9  UNL     1      -9.828 -27.961  29.197  1.00  0.00     0.210 C 
ENDBRANCH   7  33
BRANCH   1  35
HETATM   35  O1  UNL     1     -11.602 -28.837  31.688  1.00  0.00    -0.353 OA
HETATM   36  C1  UNL     1     -12.362 -29.924  31.206  1.00  0.00     0.210 C 
ENDBRANCH   1  35
TORSDOF 8
ENDMDL
MODEL 3
REMARK VINA RESULT: -7.636474989      2.082      2.978
REMARK  8 active torsions:
REMARK  status: ('A' for Active; 'I' for Inactive)
REMARK    1  A    between atoms: O1_2  and  C2_3 
REMARK    2  A    between atoms: C8_9  and  O2_10 
REMARK    3  A    between atoms: C13_16  and  O4_17 
REMARK    4  A    between atoms: O4_17  and  C14_18 
REMARK    5  A    between atoms: C14_18  and  C15_19 
REMARK    6  A    between atoms: C15_19  and  C16_20 
REMARK    7  A    between atoms: C16_20  and  N1_21 
REMARK    8  A    between atoms: C22_27  and  O5_28 
ROOT
HETATM    1  C2  UNL     1      -6.712 -29.955  25.423  1.00  0.00     0.102 A 
HETATM    2  C3  UNL     1      -6.183 -29.979  24.160  1.00  0.00     0.047 A 
HETATM    3  C4  UNL     1      -5.687 -28.829  23.551  1.00  0.00    -0.052 A 
HETATM    4  C5  UNL     1      -5.120 -28.895  22.179  1.00  0.00     0.049 C 
HETATM    5  C6  UNL     1      -5.723 -27.611  24.237  1.00  0.00    -0.036 A 
HETATM    6  C7  UNL     1      -6.252 -27.563  25.515  1.00  0.00     0.042 A 
HETATM    7  C8  UNL     1      -6.737 -28.728  26.084  1.00  0.00     0.115 A 
HETATM    8  C10 UNL     1      -6.260 -26.280  26.204  1.00  0.00     0.100 A 
HETATM    9  O3  UNL     1      -6.754 -26.192  27.426  1.00  0.00    -0.308 OA
HETATM   10  C11 UNL     1      -6.783 -25.059  28.091  1.00  0.00     0.093 A 
HETATM   11  C12 UNL     1      -7.313 -25.031  29.365  1.00  0.00     0.077 A 
HETATM   12  C13 UNL     1      -7.351 -23.858  30.072  1.00  0.00     0.104 A 
HETATM   13  C22 UNL     1      -6.859 -22.696  29.514  1.00  0.00     0.100 A 
HETATM   14  C23 UNL     1      -6.322 -22.679  28.245  1.00  0.00     0.057 A 
HETATM   15  C24 UNL     1      -6.294 -23.893  27.541  1.00  0.00     0.051 A 
HETATM   16  C25 UNL     1      -5.765 -23.915  26.272  1.00  0.00     0.194 A 
HETATM   17  O6  UNL     1      -5.314 -22.884  25.743  1.00  0.00    -0.287 OA
HETATM   18  C26 UNL     1      -5.758 -25.152  25.605  1.00  0.00     0.028 A 
HETATM   19  C27 UNL     1      -5.191 -25.165  24.254  1.00  0.00     0.050 A 
HETATM   20  C28 UNL     1      -5.183 -26.450  23.532  1.00  0.00     0.045 A 
ENDROOT
BRANCH  12  21
HETATM   21  O4  UNL     1      -7.876 -23.784  31.357  1.00  0.00    -0.348 OA
BRANCH  21  22
HETATM   22  C14 UNL     1      -8.969 -24.660  31.673  1.00  0.00     0.181 C 
BRANCH  22  23
HETATM   23  C15 UNL     1     -10.233 -23.863  31.918  1.00  0.00     0.071 C 
BRANCH  23  24
HETATM   24  C16 UNL     1     -11.216 -24.064  30.818  1.00  0.00     0.065 C 
BRANCH  24  25
HETATM   25  N1  UNL     1     -11.285 -23.027  29.867  1.00  0.00    -0.374 N 
HETATM   26  C17 UNL     1     -12.547 -22.435  29.633  1.00  0.00     0.127 C 
HETATM   27  C18 UNL     1     -12.304 -20.961  29.280  1.00  0.00     0.021 C 
HETATM   28  C19 UNL     1     -11.521 -20.940  28.016  1.00  0.00     0.007 C 
HETATM   29  C20 UNL     1     -10.254 -21.738  28.044  1.00  0.00     0.044 C 
HETATM   30  C21 UNL     1     -10.344 -23.013  28.823  1.00  0.00     0.063 C 
ENDBRANCH  24  25
ENDBRANCH  23  24
ENDBRANCH  22  23
ENDBRANCH  21  22
ENDBRANCH  12  21
BRANCH  13  31
HETATM   31  O5  UNL     1      -6.897 -21.499  30.233  1.00  0.00    -0.358 OA
ATOM     32  H5  UNL     1      -6.691 -21.492  31.160  1.00  0.00     0.217 HD
ENDBRANCH  13  31
BRANCH   7  33
HETATM   33  O2  UNL     1      -7.267 -28.705  27.345  1.00  0.00    -0.352 OA
HETATM   34  C9  UNL     1      -6.488 -29.227  28.437  1.00  0.00     0.210 C 
ENDBRANCH   7  33
BRANCH   1  35
HETATM   35  O1  UNL     1      -7.196 -31.113  25.997  1.00  0.00    -0.353 OA
HETATM   36  C1  UNL     1      -7.675 -32.141  25.157  1.00  0.00     0.210 C 
ENDBRANCH   1  35
TORSDOF 8
ENDMDL
MODEL 4
REMARK VINA RESULT: -7.608448843      2.533      7.032
REMARK  8 active torsions:
REMARK  status: ('A' for Active; 'I' for Inactive)
REMARK    1  A    between atoms: O1_2  and  C2_3 
REMARK    2  A    between atoms: C8_9  and  O2_10 
REMARK    3  A    between atoms: C13_16  and  O4_17 
REMARK    4  A    between atoms: O4_17  and  C14_18 
REMARK    5  A    between atoms: C14_18  and  C15_19 
REMARK    6  A    between atoms: C15_19  and  C16_20 
REMARK    7  A    between atoms: C16_20  and  N1_21 
REMARK    8  A    between atoms: C22_27  and  O5_28 
ROOT
HETATM    1  C2  UNL     1     -11.904 -25.060  30.667  1.00  0.00     0.102 A 
HETATM    2  C3  UNL     1     -12.745 -25.350  31.708  1.00  0.00     0.047 A 
HETATM    3  C4  UNL     1     -12.347 -25.200  33.035  1.00  0.00    -0.052 A 
HETATM    4  C5  UNL     1     -13.287 -25.525  34.138  1.00  0.00     0.049 C 
HETATM    5  C6  UNL     1     -11.058 -24.742  33.324  1.00  0.00    -0.036 A 
HETATM    6  C7  UNL     1     -10.191 -24.442  32.287  1.00  0.00     0.042 A 
HETATM    7  C8  UNL     1     -10.625 -24.606  30.983  1.00  0.00     0.115 A 
HETATM    8  C10 UNL     1      -8.863 -23.954  32.626  1.00  0.00     0.100 A 
HETATM    9  O3  UNL     1      -8.006 -23.654  31.665  1.00  0.00    -0.308 OA
HETATM   10  C11 UNL     1      -6.796 -23.209  31.918  1.00  0.00     0.093 A 
HETATM   11  C12 UNL     1      -5.947 -22.913  30.872  1.00  0.00     0.077 A 
HETATM   12  C13 UNL     1      -4.682 -22.449  31.117  1.00  0.00     0.104 A 
HETATM   13  C22 UNL     1      -4.249 -22.272  32.415  1.00  0.00     0.100 A 
HETATM   14  C23 UNL     1      -5.063 -22.555  33.490  1.00  0.00     0.057 A 
HETATM   15  C24 UNL     1      -6.354 -23.031  33.212  1.00  0.00     0.051 A 
HETATM   16  C25 UNL     1      -7.196 -23.324  34.259  1.00  0.00     0.194 A 
HETATM   17  O6  UNL     1      -6.833 -23.175  35.440  1.00  0.00    -0.287 OA
HETATM   18  C26 UNL     1      -8.479 -23.796  33.934  1.00  0.00     0.028 A 
HETATM   19  C27 UNL     1      -9.368 -24.104  35.057  1.00  0.00     0.050 A 
HETATM   20  C28 UNL     1     -10.715 -24.611  34.739  1.00  0.00     0.045 A 
ENDROOT
BRANCH  12  21
HETATM   21  O4  UNL     1      -3.794 -22.139  30.093  1.00  0.00    -0.348 OA
BRANCH  21  22
HETATM   22  C14 UNL     1      -4.302 -21.372  28.991  1.00  0.00     0.181 C 
BRANCH  22  23
HETATM   23  C15 UNL     1      -3.286 -21.318  27.870  1.00  0.00     0.071 C 
BRANCH  23  24
HETATM   24  C16 UNL     1      -2.776 -22.678  27.542  1.00  0.00     0.065 C 
BRANCH  24  25
HETATM   25  N1  UNL     1      -3.742 -23.595  27.081  1.00  0.00    -0.374 N 
HETATM   26  C17 UNL     1      -3.902 -24.798  27.805  1.00  0.00     0.127 C 
HETATM   27  C18 UNL     1      -5.378 -25.204  27.697  1.00  0.00     0.021 C 
HETATM   28  C19 UNL     1      -5.653 -25.467  26.259  1.00  0.00     0.007 C 
HETATM   29  C20 UNL     1      -5.300 -24.345  25.332  1.00  0.00     0.044 C 
HETATM   30  C21 UNL     1      -4.059 -23.598  25.711  1.00  0.00     0.063 C 
ENDBRANCH  24  25
ENDBRANCH  23  24
ENDBRANCH  22  23
ENDBRANCH  21  22
ENDBRANCH  12  21
BRANCH  13  31
HETATM   31  O5  UNL     1      -2.959 -21.798  32.668  1.00  0.00    -0.358 OA
ATOM     32  H5  UNL     1      -2.543 -21.969  33.504  1.00  0.00     0.217 HD
ENDBRANCH  13  31
BRANCH   7  33
HETATM   33  O2  UNL     1      -9.786 -24.318  29.941  1.00  0.00    -0.352 OA
HETATM   34  C9  UNL     1     -10.022 -23.129  29.166  1.00  0.00     0.210 C 
ENDBRANCH   7  33
BRANCH   1  35
HETATM   35  O1  UNL     1     -12.331 -25.220  29.364  1.00  0.00    -0.353 OA
HETATM   36  C1  UNL     1     -13.044 -26.388  29.019  1.00  0.00     0.210 C 
ENDBRANCH   1  35
TORSDOF 8
ENDMDL
MODEL 5
REMARK VINA RESULT: -7.541674134      3.960      6.922
REMARK  8 active torsions:
REMARK  status: ('A' for Active; 'I' for Inactive)
REMARK    1  A    between atoms: O1_2  and  C2_3 
REMARK    2  A    between atoms: C8_9  and  O2_10 
REMARK    3  A    between atoms: C13_16  and  O4_17 
REMARK    4  A    between atoms: O4_17  and  C14_18 
REMARK    5  A    between atoms: C14_18  and  C15_19 
REMARK    6  A    between atoms: C15_19  and  C16_20 
REMARK    7  A    between atoms: C16_20  and  N1_21 
REMARK    8  A    between atoms: C22_27  and  O5_28 
ROOT
HETATM    1  C2  UNL     1      -5.129 -23.229  32.447  1.00  0.00     0.102 A 
HETATM    2  C3  UNL     1      -4.310 -22.697  31.486  1.00  0.00     0.047 A 
HETATM    3  C4  UNL     1      -4.801 -22.290  30.247  1.00  0.00    -0.052 A 
HETATM    4  C5  UNL     1      -3.882 -21.716  29.231  1.00  0.00     0.049 C 
HETATM    5  C6  UNL     1      -6.164 -22.423  29.965  1.00  0.00    -0.036 A 
HETATM    6  C7  UNL     1      -7.010 -22.958  30.921  1.00  0.00     0.042 A 
HETATM    7  C8  UNL     1      -6.483 -23.352  32.138  1.00  0.00     0.115 A 
HETATM    8  C10 UNL     1      -8.425 -23.068  30.596  1.00  0.00     0.100 A 
HETATM    9  O3  UNL     1      -9.267 -23.571  31.482  1.00  0.00    -0.308 OA
HETATM   10  C11 UNL     1     -10.552 -23.690  31.239  1.00  0.00     0.093 A 
HETATM   11  C12 UNL     1     -11.381 -24.224  32.204  1.00  0.00     0.077 A 
HETATM   12  C13 UNL     1     -12.724 -24.356  31.967  1.00  0.00     0.104 A 
HETATM   13  C22 UNL     1     -13.257 -23.955  30.760  1.00  0.00     0.100 A 
HETATM   14  C23 UNL     1     -12.466 -23.417  29.768  1.00  0.00     0.057 A 
HETATM   15  C24 UNL     1     -11.094 -23.293  30.035  1.00  0.00     0.051 A 
HETATM   16  C25 UNL     1     -10.272 -22.761  29.068  1.00  0.00     0.194 A 
HETATM   17  O6  UNL     1     -10.725 -22.391  27.970  1.00  0.00    -0.287 OA
HETATM   18  C26 UNL     1      -8.907 -22.654  29.379  1.00  0.00     0.028 A 
HETATM   19  C27 UNL     1      -8.041 -22.085  28.343  1.00  0.00     0.050 A 
HETATM   20  C28 UNL     1      -6.603 -21.975  28.645  1.00  0.00     0.045 A 
ENDROOT
BRANCH  12  21
HETATM   21  O4  UNL     1     -13.595 -24.889  32.912  1.00  0.00    -0.348 OA
BRANCH  21  22
HETATM   22  C14 UNL     1     -13.064 -25.157  34.218  1.00  0.00     0.181 C 
BRANCH  22  23
HETATM   23  C15 UNL     1     -14.155 -25.060  35.264  1.00  0.00     0.071 C 
BRANCH  23  24
HETATM   24  C16 UNL     1     -15.160 -26.145  35.092  1.00  0.00     0.065 C 
BRANCH  24  25
HETATM   25  N1  UNL     1     -16.398 -25.747  34.547  1.00  0.00    -0.374 N 
HETATM   26  C17 UNL     1     -17.543 -25.862  35.367  1.00  0.00     0.127 C 
HETATM   27  C18 UNL     1     -18.501 -24.728  34.979  1.00  0.00     0.021 C 
HETATM   28  C19 UNL     1     -18.896 -24.957  33.564  1.00  0.00     0.007 C 
HETATM   29  C20 UNL     1     -17.755 -25.096  32.603  1.00  0.00     0.044 C 
HETATM   30  C21 UNL     1     -16.569 -25.824  33.154  1.00  0.00     0.063 C 
ENDBRANCH  24  25
ENDBRANCH  23  24
ENDBRANCH  22  23
ENDBRANCH  21  22
ENDBRANCH  12  21
BRANCH  13  31
HETATM   31  O5  UNL     1     -14.626 -24.088  30.516  1.00  0.00    -0.358 OA
ATOM     32  H5  UNL     1     -14.932 -24.581  29.764  1.00  0.00     0.217 HD
ENDBRANCH  13  31
BRANCH   7  33
HETATM   33  O2  UNL     1      -7.299 -23.885  33.098  1.00  0.00    -0.352 OA
HETATM   34  C9  UNL     1      -7.339 -25.314  33.263  1.00  0.00     0.210 C 
ENDBRANCH   7  33
BRANCH   1  35
HETATM   35  O1  UNL     1      -4.609 -23.622  33.663  1.00  0.00    -0.353 OA
HETATM   36  C1  UNL     1      -3.540 -22.886  34.217  1.00  0.00     0.210 C 
ENDBRANCH   1  35
TORSDOF 8
ENDMDL
