MODEL 1
REMARK VINA RESULT: -5.567389890      0.000      0.000
REMARK  0 active torsions:
REMARK  status: ('A' for Active; 'I' for Inactive)
ROOT
HETATM    1  C1  UNL     1      20.334  10.318 -33.214  1.00  0.00     0.001 C 
HETATM    2  C2  UNL     1      21.761  10.867 -33.126  1.00  0.00     0.001 C 
HETATM    3  C3  UNL     1      22.556   9.624 -32.696  1.00  0.00     0.013 C 
HETATM    4  C4  UNL     1      21.767   8.464 -33.156  1.00  0.00     0.002 C 
HETATM    5  C5  UNL     1      20.612   8.996 -33.942  1.00  0.00     0.013 C 
HETATM    6  C6  UNL     1      22.547   7.460 -33.975  1.00  0.00     0.132 C 
HETATM    7  N1  UNL     1      22.075   6.185 -33.453  1.00  0.00    -0.196 NA
HETATM    8  C7  UNL     1      22.903   5.870 -32.284  1.00  0.00     0.123 C 
HETATM    9  C8  UNL     1      22.447   6.955 -31.300  1.00  0.00     0.051 C 
HETATM   10  C9  UNL     1      21.292   7.556 -32.039  1.00  0.00     0.156 C 
HETATM   11  O1  UNL     1      20.884   6.457 -32.834  1.00  0.00    -0.297 OA
ENDROOT
TORSDOF 0
ENDMDL
MODEL 2
REMARK VINA RESULT: -5.340282049      1.312      1.379
REMARK  0 active torsions:
REMARK  status: ('A' for Active; 'I' for Inactive)
ROOT
HETATM    1  C1  UNL     1      20.854   9.912 -33.331  1.00  0.00     0.001 C 
HETATM    2  C2  UNL     1      22.000  10.911 -33.140  1.00  0.00     0.001 C 
HETATM    3  C3  UNL     1      23.032  10.072 -32.371  1.00  0.00     0.013 C 
HETATM    4  C4  UNL     1      22.741   8.665 -32.714  1.00  0.00     0.002 C 
HETATM    5  C5  UNL     1      21.660   8.675 -33.747  1.00  0.00     0.013 C 
HETATM    6  C6  UNL     1      23.936   7.879 -33.205  1.00  0.00     0.132 C 
HETATM    7  N1  UNL     1      23.779   6.600 -32.527  1.00  0.00    -0.196 NA
HETATM    8  C7  UNL     1      24.413   6.735 -31.210  1.00  0.00     0.123 C 
HETATM    9  C8  UNL     1      23.462   7.727 -30.527  1.00  0.00     0.051 C 
HETATM   10  C9  UNL     1      22.351   7.807 -31.527  1.00  0.00     0.156 C 
HETATM   11  O1  UNL     1      22.464   6.540 -32.152  1.00  0.00    -0.297 OA
ENDROOT
TORSDOF 0
ENDMDL
MODEL 3
REMARK VINA RESULT: -5.181326179      1.461      2.473
REMARK  0 active torsions:
REMARK  status: ('A' for Active; 'I' for Inactive)
ROOT
HETATM    1  C1  UNL     1      23.648  10.153 -32.275  1.00  0.00     0.001 C 
HETATM    2  C2  UNL     1      22.423  10.981 -32.678  1.00  0.00     0.001 C 
HETATM    3  C3  UNL     1      21.646   9.995 -33.564  1.00  0.00     0.013 C 
HETATM    4  C4  UNL     1      22.065   8.648 -33.128  1.00  0.00     0.002 C 
HETATM    5  C5  UNL     1      22.959   8.824 -31.942  1.00  0.00     0.013 C 
HETATM    6  C6  UNL     1      20.923   7.713 -32.796  1.00  0.00     0.132 C 
HETATM    7  N1  UNL     1      21.355   6.457 -33.393  1.00  0.00    -0.196 NA
HETATM    8  C7  UNL     1      20.923   6.482 -34.796  1.00  0.00     0.123 C 
HETATM    9  C8  UNL     1      21.829   7.583 -35.362  1.00  0.00     0.051 C 
HETATM   10  C9  UNL     1      22.748   7.832 -34.207  1.00  0.00     0.156 C 
HETATM   11  O1  UNL     1      22.709   6.572 -33.559  1.00  0.00    -0.297 OA
ENDROOT
TORSDOF 0
ENDMDL
MODEL 4
REMARK VINA RESULT: -5.135481055      1.789      2.960
REMARK  0 active torsions:
REMARK  status: ('A' for Active; 'I' for Inactive)
ROOT
HETATM    1  C1  UNL     1      22.214   7.248 -31.295  1.00  0.00     0.001 C 
HETATM    2  C2  UNL     1      22.931   8.488 -31.839  1.00  0.00     0.001 C 
HETATM    3  C3  UNL     1      22.808   8.288 -33.358  1.00  0.00     0.013 C 
HETATM    4  C4  UNL     1      21.621   7.434 -33.556  1.00  0.00     0.002 C 
HETATM    5  C5  UNL     1      20.987   7.238 -32.216  1.00  0.00     0.013 C 
HETATM    6  C6  UNL     1      20.613   7.979 -34.544  1.00  0.00     0.132 C 
HETATM    7  N1  UNL     1      20.235   6.794 -35.301  1.00  0.00    -0.196 NA
HETATM    8  C7  UNL     1      21.215   6.650 -36.384  1.00  0.00     0.123 C 
HETATM    9  C8  UNL     1      22.478   6.292 -35.591  1.00  0.00     0.051 C 
HETATM   10  C9  UNL     1      21.919   6.103 -34.215  1.00  0.00     0.156 C 
HETATM   11  O1  UNL     1      20.587   5.727 -34.519  1.00  0.00    -0.297 OA
ENDROOT
TORSDOF 0
ENDMDL
MODEL 5
REMARK VINA RESULT: -5.047663385      1.914      2.891
REMARK  0 active torsions:
REMARK  status: ('A' for Active; 'I' for Inactive)
ROOT
HETATM    1  C1  UNL     1      24.307   9.446 -31.172  1.00  0.00     0.001 C 
HETATM    2  C2  UNL     1      24.382   8.598 -29.898  1.00  0.00     0.001 C 
HETATM    3  C3  UNL     1      23.332   7.510 -30.176  1.00  0.00     0.013 C 
HETATM    4  C4  UNL     1      23.227   7.420 -31.646  1.00  0.00     0.002 C 
HETATM    5  C5  UNL     1      24.266   8.329 -32.222  1.00  0.00     0.013 C 
HETATM    6  C6  UNL     1      23.381   6.022 -32.202  1.00  0.00     0.132 C 
HETATM    7  N1  UNL     1      22.342   5.966 -33.221  1.00  0.00    -0.196 NA
HETATM    8  C7  UNL     1      21.104   5.559 -32.545  1.00  0.00     0.123 C 
HETATM    9  C8  UNL     1      20.822   6.795 -31.681  1.00  0.00     0.051 C 
HETATM   10  C9  UNL     1      21.853   7.753 -32.190  1.00  0.00     0.156 C 
HETATM   11  O1  UNL     1      22.037   7.269 -33.509  1.00  0.00    -0.297 OA
ENDROOT
TORSDOF 0
ENDMDL
