MODEL 1
REMARK VINA RESULT: -5.209348318      0.000      0.000
REMARK  0 active torsions:
REMARK  status: ('A' for Active; 'I' for Inactive)
ROOT
HETATM    1  C1  UNL     1      24.037   7.552 -29.524  1.00  0.00     0.002 C 
HETATM    2  C2  UNL     1      23.482   6.698 -30.606  1.00  0.00     0.002 C 
HETATM    3  C3  UNL     1      22.234   7.299 -31.251  1.00  0.00     0.038 C 
HETATM    4  C4  UNL     1      22.764   8.230 -32.348  1.00  0.00     0.246 C 
HETATM    5  C5  UNL     1      21.753   8.519 -33.396  1.00  0.00     0.203 C 
HETATM    6  O1  UNL     1      21.044   9.656 -33.070  1.00  0.00    -0.387 OA
HETATM    7  C6  UNL     1      21.898  10.743 -33.205  1.00  0.00     0.198 C 
HETATM    8  C7  UNL     1      23.176  10.599 -32.436  1.00  0.00     0.299 C 
HETATM    9  N1  UNL     1      23.275   9.399 -31.672  1.00  0.00     0.097 N 
HETATM   10  C8  UNL     1      24.689   9.099 -31.394  1.00  0.00     0.273 C 
HETATM   11  C9  UNL     1      24.833   8.719 -29.963  1.00  0.00     0.030 C 
ENDROOT
TORSDOF 0
ENDMDL
MODEL 2
REMARK VINA RESULT: -5.136642109      1.663      4.122
REMARK  0 active torsions:
REMARK  status: ('A' for Active; 'I' for Inactive)
ROOT
HETATM    1  C1  UNL     1      20.750  10.217 -33.107  1.00  0.00     0.002 C 
HETATM    2  C2  UNL     1      22.066  10.831 -33.424  1.00  0.00     0.002 C 
HETATM    3  C3  UNL     1      23.022  10.825 -32.232  1.00  0.00     0.038 C 
HETATM    4  C4  UNL     1      23.720   9.461 -32.290  1.00  0.00     0.246 C 
HETATM    5  C5  UNL     1      25.008   9.441 -31.551  1.00  0.00     0.203 C 
HETATM    6  O1  UNL     1      24.800   9.041 -30.248  1.00  0.00    -0.387 OA
HETATM    7  C6  UNL     1      24.472   7.692 -30.264  1.00  0.00     0.198 C 
HETATM    8  C7  UNL     1      23.327   7.365 -31.174  1.00  0.00     0.299 C 
HETATM    9  N1  UNL     1      22.752   8.494 -31.829  1.00  0.00     0.097 N 
HETATM   10  C8  UNL     1      22.034   8.058 -33.038  1.00  0.00     0.273 C 
HETATM   11  C9  UNL     1      20.713   8.738 -33.091  1.00  0.00     0.030 C 
ENDROOT
TORSDOF 0
ENDMDL
MODEL 3
REMARK VINA RESULT: -5.122090529      0.999      1.187
REMARK  0 active torsions:
REMARK  status: ('A' for Active; 'I' for Inactive)
ROOT
HETATM    1  C1  UNL     1      23.173   6.589 -30.553  1.00  0.00     0.002 C 
HETATM    2  C2  UNL     1      22.247   6.184 -31.643  1.00  0.00     0.002 C 
HETATM    3  C3  UNL     1      21.174   7.234 -31.927  1.00  0.00     0.038 C 
HETATM    4  C4  UNL     1      21.821   8.202 -32.926  1.00  0.00     0.246 C 
HETATM    5  C5  UNL     1      20.823   8.984 -33.698  1.00  0.00     0.203 C 
HETATM    6  O1  UNL     1      20.549  10.171 -33.052  1.00  0.00    -0.387 OA
HETATM    7  C6  UNL     1      21.673  10.981 -33.155  1.00  0.00     0.198 C 
HETATM    8  C7  UNL     1      22.931  10.322 -32.678  1.00  0.00     0.299 C 
HETATM    9  N1  UNL     1      22.750   9.004 -32.166  1.00  0.00     0.097 N 
HETATM   10  C8  UNL     1      24.026   8.270 -32.215  1.00  0.00     0.273 C 
HETATM   11  C9  UNL     1      24.227   7.558 -30.925  1.00  0.00     0.030 C 
ENDROOT
TORSDOF 0
ENDMDL
MODEL 4
REMARK VINA RESULT: -5.078116391      2.180      3.781
REMARK  0 active torsions:
REMARK  status: ('A' for Active; 'I' for Inactive)
ROOT
HETATM    1  C1  UNL     1      23.082   9.598 -32.681  1.00  0.00     0.002 C 
HETATM    2  C2  UNL     1      21.628   9.289 -32.692  1.00  0.00     0.002 C 
HETATM    3  C3  UNL     1      21.327   7.883 -33.207  1.00  0.00     0.038 C 
HETATM    4  C4  UNL     1      21.442   6.977 -31.975  1.00  0.00     0.246 C 
HETATM    5  C5  UNL     1      20.720   5.690 -32.137  1.00  0.00     0.203 C 
HETATM    6  O1  UNL     1      21.567   4.733 -32.654  1.00  0.00    -0.387 OA
HETATM    7  C6  UNL     1      22.493   4.407 -31.671  1.00  0.00     0.198 C 
HETATM    8  C7  UNL     1      23.212   5.596 -31.109  1.00  0.00     0.299 C 
HETATM    9  N1  UNL     1      22.853   6.840 -31.705  1.00  0.00     0.097 N 
HETATM   10  C8  UNL     1      23.182   7.946 -30.790  1.00  0.00     0.273 C 
HETATM   11  C9  UNL     1      23.856   9.028 -31.557  1.00  0.00     0.030 C 
ENDROOT
TORSDOF 0
ENDMDL
MODEL 5
REMARK VINA RESULT: -5.031302458      1.622      2.981
REMARK  0 active torsions:
REMARK  status: ('A' for Active; 'I' for Inactive)
ROOT
HETATM    1  C1  UNL     1      25.019   8.862 -31.041  1.00  0.00     0.002 C 
HETATM    2  C2  UNL     1      23.933   9.706 -31.603  1.00  0.00     0.002 C 
HETATM    3  C3  UNL     1      23.182   9.021 -32.743  1.00  0.00     0.038 C 
HETATM    4  C4  UNL     1      22.091   8.190 -32.056  1.00  0.00     0.246 C 
HETATM    5  C5  UNL     1      20.966   7.854 -32.965  1.00  0.00     0.203 C 
HETATM    6  O1  UNL     1      21.201   6.643 -33.582  1.00  0.00    -0.387 OA
HETATM    7  C6  UNL     1      21.086   5.646 -32.621  1.00  0.00     0.198 C 
HETATM    8  C7  UNL     1      21.946   5.875 -31.416  1.00  0.00     0.299 C 
HETATM    9  N1  UNL     1      22.758   7.045 -31.482  1.00  0.00     0.097 N 
HETATM   10  C8  UNL     1      23.144   7.463 -30.124  1.00  0.00     0.273 C 
HETATM   11  C9  UNL     1      24.594   7.793 -30.111  1.00  0.00     0.030 C 
ENDROOT
TORSDOF 0
ENDMDL
