MODEL 1
REMARK VINA RESULT: -5.673809224      0.000      0.000
REMARK  2 active torsions:
REMARK  status: ('A' for Active; 'I' for Inactive)
REMARK    1  A    between atoms: N1_1  and  N2_4 
REMARK    2  A    between atoms: N2_4  and  C1_5 
ROOT
HETATM    1  C1  UNL     1      21.283   6.947 -33.882  1.00  0.00     0.172 C 
HETATM    2  C2  UNL     1      22.655   6.995 -34.394  1.00  0.00     0.052 C 
HETATM    3  C3  UNL     1      23.672   7.735 -33.633  1.00  0.00     0.008 C 
HETATM    4  C4  UNL     1      23.183   8.700 -32.614  1.00  0.00    -0.011 C 
HETATM    5  C5  UNL     1      23.244   8.055 -31.246  1.00  0.00     0.035 C 
HETATM    6  C6  UNL     1      22.293   6.934 -31.094  1.00  0.00     0.273 C 
HETATM    7  N3  UNL     1      21.110   6.969 -31.828  1.00  0.00     0.100 N 
HETATM    8  C7  UNL     1      20.967   5.902 -32.826  1.00  0.00     0.323 C 
HETATM    9  C8  UNL     1      20.908   7.910 -32.832  1.00  0.00     0.268 C 
HETATM   10  C9  UNL     1      21.757   9.125 -32.844  1.00  0.00     0.044 C 
ENDROOT
BRANCH   1  11
HETATM   11  N2  UNL     1      20.320   6.848 -34.930  1.00  0.00    -0.362 NA
BRANCH  11  12
HETATM   12  N1  UNL     1      19.572   6.782 -35.754  1.00  0.00    -0.285 N 
ATOM     13  H12 UNL     1      20.442   6.438 -35.348  1.00  0.00     0.191 HD
ATOM     14  H11 UNL     1      18.881   6.731 -36.503  1.00  0.00     0.191 HD
ENDBRANCH  11  12
ENDBRANCH   1  11
TORSDOF 2
ENDMDL
MODEL 2
REMARK VINA RESULT: -5.527606609      2.530      4.055
REMARK  2 active torsions:
REMARK  status: ('A' for Active; 'I' for Inactive)
REMARK    1  A    between atoms: N1_1  and  N2_4 
REMARK    2  A    between atoms: N2_4  and  C1_5 
ROOT
HETATM    1  C1  UNL     1      23.550   6.531 -30.862  1.00  0.00     0.172 C 
HETATM    2  C2  UNL     1      23.746   7.210 -29.578  1.00  0.00     0.052 C 
HETATM    3  C3  UNL     1      24.405   8.524 -29.561  1.00  0.00     0.008 C 
HETATM    4  C4  UNL     1      25.172   8.909 -30.775  1.00  0.00    -0.011 C 
HETATM    5  C5  UNL     1      24.322   9.822 -31.633  1.00  0.00     0.035 C 
HETATM    6  C6  UNL     1      23.147   9.140 -32.212  1.00  0.00     0.273 C 
HETATM    7  N3  UNL     1      23.239   7.776 -32.476  1.00  0.00     0.100 N 
HETATM    8  C7  UNL     1      22.338   6.929 -31.685  1.00  0.00     0.323 C 
HETATM    9  C8  UNL     1      24.316   7.022 -32.021  1.00  0.00     0.268 C 
HETATM   10  C9  UNL     1      25.557   7.729 -31.626  1.00  0.00     0.044 C 
ENDROOT
BRANCH   1  11
HETATM   11  N2  UNL     1      23.571   5.111 -30.730  1.00  0.00    -0.362 NA
BRANCH  11  12
HETATM   12  N1  UNL     1      23.594   4.000 -30.638  1.00  0.00    -0.285 N 
ATOM     13  H12 UNL     1      23.931   4.834 -31.119  1.00  0.00     0.191 HD
ATOM     14  H11 UNL     1      23.607   2.984 -30.545  1.00  0.00     0.191 HD
ENDBRANCH  11  12
ENDBRANCH   1  11
TORSDOF 2
ENDMDL
MODEL 3
REMARK VINA RESULT: -5.475872682      2.362      3.993
REMARK  2 active torsions:
REMARK  status: ('A' for Active; 'I' for Inactive)
REMARK    1  A    between atoms: N1_1  and  N2_4 
REMARK    2  A    between atoms: N2_4  and  C1_5 
ROOT
HETATM    1  C1  UNL     1      23.085   7.592 -31.202  1.00  0.00     0.172 C 
HETATM    2  C2  UNL     1      21.742   7.029 -31.368  1.00  0.00     0.052 C 
HETATM    3  C3  UNL     1      20.992   7.332 -32.596  1.00  0.00     0.008 C 
HETATM    4  C4  UNL     1      21.465   8.482 -33.409  1.00  0.00    -0.011 C 
HETATM    5  C5  UNL     1      22.305   7.968 -34.559  1.00  0.00     0.035 C 
HETATM    6  C6  UNL     1      23.576   7.357 -34.117  1.00  0.00     0.273 C 
HETATM    7  N3  UNL     1      24.161   7.829 -32.945  1.00  0.00     0.100 N 
HETATM    8  C7  UNL     1      24.239   6.850 -31.853  1.00  0.00     0.323 C 
HETATM    9  C8  UNL     1      23.483   8.695 -32.094  1.00  0.00     0.268 C 
HETATM   10  C9  UNL     1      22.320   9.443 -32.628  1.00  0.00     0.044 C 
ENDROOT
BRANCH   1  11
HETATM   11  N2  UNL     1      23.405   7.829 -29.832  1.00  0.00    -0.362 NA
BRANCH  11  12
HETATM   12  N1  UNL     1      23.644   8.023 -28.760  1.00  0.00    -0.285 N 
ATOM     13  H12 UNL     1      23.870   7.519 -29.618  1.00  0.00     0.191 HD
ATOM     14  H11 UNL     1      23.854   8.210 -27.780  1.00  0.00     0.191 HD
ENDBRANCH  11  12
ENDBRANCH   1  11
TORSDOF 2
ENDMDL
MODEL 4
REMARK VINA RESULT: -5.443131259      1.417      2.386
REMARK  2 active torsions:
REMARK  status: ('A' for Active; 'I' for Inactive)
REMARK    1  A    between atoms: N1_1  and  N2_4 
REMARK    2  A    between atoms: N2_4  and  C1_5 
ROOT
HETATM    1  C1  UNL     1      20.926   8.110 -33.723  1.00  0.00     0.172 C 
HETATM    2  C2  UNL     1      20.938   7.371 -32.457  1.00  0.00     0.052 C 
HETATM    3  C3  UNL     1      22.144   7.421 -31.617  1.00  0.00     0.008 C 
HETATM    4  C4  UNL     1      23.398   7.889 -32.263  1.00  0.00    -0.011 C 
HETATM    5  C5  UNL     1      23.619   9.348 -31.924  1.00  0.00     0.035 C 
HETATM    6  C6  UNL     1      22.608  10.240 -32.527  1.00  0.00     0.273 C 
HETATM    7  N3  UNL     1      22.024   9.855 -33.732  1.00  0.00     0.100 N 
HETATM    8  C7  UNL     1      20.582   9.588 -33.664  1.00  0.00     0.323 C 
HETATM    9  C8  UNL     1      22.216   8.581 -34.256  1.00  0.00     0.268 C 
HETATM   10  C9  UNL     1      23.362   7.780 -33.763  1.00  0.00     0.044 C 
ENDROOT
BRANCH   1  11
HETATM   11  N2  UNL     1      20.102   7.484 -34.705  1.00  0.00    -0.362 NA
BRANCH  11  12
HETATM   12  N1  UNL     1      19.463   7.004 -35.482  1.00  0.00    -0.285 N 
ATOM     13  H12 UNL     1      20.403   7.230 -35.155  1.00  0.00     0.191 HD
ATOM     14  H11 UNL     1      18.867   6.568 -36.186  1.00  0.00     0.191 HD
ENDBRANCH  11  12
ENDBRANCH   1  11
TORSDOF 2
ENDMDL
MODEL 5
REMARK VINA RESULT: -5.421769893      1.231      1.992
REMARK  2 active torsions:
REMARK  status: ('A' for Active; 'I' for Inactive)
REMARK    1  A    between atoms: N1_1  and  N2_4 
REMARK    2  A    between atoms: N2_4  and  C1_5 
ROOT
HETATM    1  C1  UNL     1      21.347   6.813 -33.998  1.00  0.00     0.172 C 
HETATM    2  C2  UNL     1      21.730   8.150 -33.534  1.00  0.00     0.052 C 
HETATM    3  C3  UNL     1      22.232   8.309 -32.161  1.00  0.00     0.008 C 
HETATM    4  C4  UNL     1      21.963   7.198 -31.211  1.00  0.00    -0.011 C 
HETATM    5  C5  UNL     1      23.194   6.324 -31.104  1.00  0.00     0.035 C 
HETATM    6  C6  UNL     1      23.496   5.597 -32.355  1.00  0.00     0.273 C 
HETATM    7  N3  UNL     1      22.436   5.258 -33.192  1.00  0.00     0.100 N 
HETATM    8  C7  UNL     1      22.454   5.908 -34.509  1.00  0.00     0.323 C 
HETATM    9  C8  UNL     1      21.156   5.763 -32.982  1.00  0.00     0.268 C 
HETATM   10  C9  UNL     1      20.825   6.315 -31.647  1.00  0.00     0.044 C 
ENDROOT
BRANCH   1  11
HETATM   11  N2  UNL     1      20.303   6.858 -34.969  1.00  0.00    -0.362 NA
BRANCH  11  12
HETATM   12  N1  UNL     1      19.491   6.905 -35.732  1.00  0.00    -0.285 N 
ATOM     13  H12 UNL     1      19.753   6.929 -34.745  1.00  0.00     0.191 HD
ATOM     14  H11 UNL     1      18.757   6.948 -36.438  1.00  0.00     0.191 HD
ENDBRANCH  11  12
ENDBRANCH   1  11
TORSDOF 2
ENDMDL
