MODEL 1
REMARK VINA RESULT: -6.694570741      0.000      0.000
REMARK  11 active torsions:
REMARK  status: ('A' for Active; 'I' for Inactive)
REMARK    1  A    between atoms: N1_1  and  C1_5 
REMARK    2  A    between atoms: C1_5  and  C2_6 
REMARK    3  A    between atoms: C2_6  and  C3_7 
REMARK    4  A    between atoms: C3_7  and  N2_8 
REMARK    5  A    between atoms: N2_8  and  C4_11 
REMARK    6  A    between atoms: C4_11  and  C5_12 
REMARK    7  A    between atoms: C5_12  and  C6_13 
REMARK    8  A    between atoms: C6_13  and  N3_14 
REMARK    9  A    between atoms: N3_14  and  C7_16 
REMARK   10  A    between atoms: N5_20  and  C9_21 
REMARK   11  A    between atoms: C9_21  and  C10_22 
ROOT
HETATM    1  C7  UNL     1     -26.050  27.643 -17.779  1.00  0.00     0.133 A 
HETATM    2  N4  UNL     1     -26.615  27.551 -16.572  1.00  0.00    -0.337 N 
ATOM      3  H4  UNL     1     -26.837  26.643 -16.164  1.00  0.00     0.168 HD
HETATM    4  C8  UNL     1     -26.881  28.692 -15.911  1.00  0.00     0.186 A 
HETATM    5  N5  UNL     1     -26.613  29.900 -16.390  1.00  0.00    -0.319 N 
HETATM    6  C11 UNL     1     -26.045  30.004 -17.601  1.00  0.00     0.140 A 
HETATM    7  N7  UNL     1     -25.664  31.069 -18.331  1.00  0.00    -0.336 N 
ATOM      8  H7  UNL     1     -25.758  32.045 -18.048  1.00  0.00     0.168 HD
HETATM    9  C12 UNL     1     -25.133  30.636 -19.507  1.00  0.00     0.182 A 
HETATM   10  N8  UNL     1     -25.196  29.293 -19.481  1.00  0.00    -0.346 N 
ATOM     11  H8  UNL     1     -24.871  28.675 -20.225  1.00  0.00     0.167 HD
HETATM   12  C13 UNL     1     -25.745  28.891 -18.336  1.00  0.00     0.122 A 
ENDROOT
BRANCH   1  13
HETATM   13  N3  UNL     1     -25.759  26.629 -18.488  1.00  0.00    -0.374 N 
ATOM     14  H3  UNL     1     -25.915  26.681 -19.494  1.00  0.00     0.161 HD
BRANCH  13  15
HETATM   15  C6  UNL     1     -25.226  25.429 -17.950  1.00  0.00     0.123 C 
BRANCH  15  16
HETATM   16  C5  UNL     1     -26.056  24.186 -18.227  1.00  0.00     0.047 C 
BRANCH  16  17
HETATM   17  C4  UNL     1     -27.124  24.081 -17.184  1.00  0.00     0.234 C 
BRANCH  17  18
HETATM   18  N2  UNL     1     -26.595  24.085 -15.848  1.00  0.00    -0.075 N 
ATOM     19  H22 UNL     1     -25.970  24.873 -15.681  1.00  0.00     0.277 HD
ATOM     20  H21 UNL     1     -25.922  23.333 -15.696  1.00  0.00     0.277 HD
BRANCH  18  21
HETATM   21  C3  UNL     1     -27.684  24.042 -14.908  1.00  0.00     0.233 C 
BRANCH  21  22
HETATM   22  C2  UNL     1     -29.012  23.778 -15.630  1.00  0.00     0.055 C 
BRANCH  22  23
HETATM   23  C1  UNL     1     -29.721  22.605 -14.973  1.00  0.00     0.231 C 
BRANCH  23  24
HETATM   24  N1  UNL     1     -28.967  22.247 -13.790  1.00  0.00    -0.079 N 
ATOM     25  H13 UNL     1     -28.001  22.573 -13.820  1.00  0.00     0.274 HD
ATOM     26  H12 UNL     1     -29.257  22.767 -12.961  1.00  0.00     0.274 HD
ATOM     27  H11 UNL     1     -29.043  21.236 -13.670  1.00  0.00     0.274 HD
ENDBRANCH  23  24
ENDBRANCH  22  23
ENDBRANCH  21  22
ENDBRANCH  18  21
ENDBRANCH  17  18
ENDBRANCH  16  17
ENDBRANCH  15  16
ENDBRANCH  13  15
ENDBRANCH   1  13
BRANCH   5  28
HETATM   28  C9  UNL     1     -26.898  31.136 -15.688  1.00  0.00     0.230 C 
BRANCH  28  29
HETATM   29  C10 UNL     1     -28.155  31.733 -16.194  1.00  0.00     0.249 C 
HETATM   30  N6  UNL     1     -28.122  32.777 -17.157  1.00  0.00    -0.061 NA
HETATM   31  O1  UNL     1     -29.242  31.309 -15.765  1.00  0.00    -0.275 OA
ENDBRANCH  28  29
ENDBRANCH   5  28
TORSDOF 11
ENDMDL
MODEL 2
REMARK VINA RESULT: -6.686665232      4.006      6.222
REMARK  11 active torsions:
REMARK  status: ('A' for Active; 'I' for Inactive)
REMARK    1  A    between atoms: N1_1  and  C1_5 
REMARK    2  A    between atoms: C1_5  and  C2_6 
REMARK    3  A    between atoms: C2_6  and  C3_7 
REMARK    4  A    between atoms: C3_7  and  N2_8 
REMARK    5  A    between atoms: N2_8  and  C4_11 
REMARK    6  A    between atoms: C4_11  and  C5_12 
REMARK    7  A    between atoms: C5_12  and  C6_13 
REMARK    8  A    between atoms: C6_13  and  N3_14 
REMARK    9  A    between atoms: N3_14  and  C7_16 
REMARK   10  A    between atoms: N5_20  and  C9_21 
REMARK   11  A    between atoms: C9_21  and  C10_22 
ROOT
HETATM    1  C7  UNL     1     -26.232  25.286 -18.068  1.00  0.00     0.133 A 
HETATM    2  N4  UNL     1     -25.537  24.483 -17.259  1.00  0.00    -0.337 N 
ATOM      3  H4  UNL     1     -25.717  24.464 -16.255  1.00  0.00     0.168 HD
HETATM    4  C8  UNL     1     -24.591  23.698 -17.808  1.00  0.00     0.186 A 
HETATM    5  N5  UNL     1     -24.314  23.678 -19.105  1.00  0.00    -0.319 N 
HETATM    6  C11 UNL     1     -25.007  24.481 -19.927  1.00  0.00     0.140 A 
HETATM    7  N7  UNL     1     -24.952  24.675 -21.259  1.00  0.00    -0.336 N 
ATOM      8  H7  UNL     1     -24.319  24.197 -21.901  1.00  0.00     0.168 HD
HETATM    9  C12 UNL     1     -25.877  25.608 -21.611  1.00  0.00     0.182 A 
HETATM   10  N8  UNL     1     -26.496  25.979 -20.475  1.00  0.00    -0.346 N 
ATOM     11  H8  UNL     1     -27.244  26.669 -20.413  1.00  0.00     0.167 HD
HETATM   12  C13 UNL     1     -25.983  25.309 -19.445  1.00  0.00     0.122 A 
ENDROOT
BRANCH   1  13
HETATM   13  N3  UNL     1     -27.145  26.067 -17.653  1.00  0.00    -0.374 N 
ATOM     14  H3  UNL     1     -28.114  25.837 -17.869  1.00  0.00     0.161 HD
BRANCH  13  15
HETATM   15  C6  UNL     1     -26.883  27.244 -16.904  1.00  0.00     0.123 C 
BRANCH  15  16
HETATM   16  C5  UNL     1     -27.715  27.392 -15.641  1.00  0.00     0.047 C 
BRANCH  16  17
HETATM   17  C4  UNL     1     -28.353  26.075 -15.331  1.00  0.00     0.234 C 
BRANCH  17  18
HETATM   18  N2  UNL     1     -27.687  25.373 -14.269  1.00  0.00    -0.075 N 
ATOM     19  H22 UNL     1     -28.096  25.571 -13.356  1.00  0.00     0.277 HD
ATOM     20  H21 UNL     1     -26.752  25.739 -14.091  1.00  0.00     0.277 HD
BRANCH  18  21
HETATM   21  C3  UNL     1     -27.675  23.964 -14.568  1.00  0.00     0.233 C 
BRANCH  21  22
HETATM   22  C2  UNL     1     -28.773  23.617 -15.582  1.00  0.00     0.055 C 
BRANCH  22  23
HETATM   23  C1  UNL     1     -29.648  22.509 -15.019  1.00  0.00     0.231 C 
BRANCH  23  24
HETATM   24  N1  UNL     1     -29.111  22.144 -13.725  1.00  0.00    -0.079 N 
ATOM     25  H13 UNL     1     -29.112  21.136 -13.564  1.00  0.00     0.274 HD
ATOM     26  H12 UNL     1     -28.104  22.289 -13.656  1.00  0.00     0.274 HD
ATOM     27  H11 UNL     1     -29.636  22.659 -13.017  1.00  0.00     0.274 HD
ENDBRANCH  23  24
ENDBRANCH  22  23
ENDBRANCH  21  22
ENDBRANCH  18  21
ENDBRANCH  17  18
ENDBRANCH  16  17
ENDBRANCH  15  16
ENDBRANCH  13  15
ENDBRANCH   1  13
BRANCH   5  28
HETATM   28  C9  UNL     1     -23.296  22.840 -19.708  1.00  0.00     0.230 C 
BRANCH  28  29
HETATM   29  C10 UNL     1     -23.567  21.415 -19.411  1.00  0.00     0.249 C 
HETATM   30  N6  UNL     1     -24.645  20.738 -20.043  1.00  0.00    -0.061 NA
HETATM   31  O1  UNL     1     -22.838  20.816 -18.601  1.00  0.00    -0.275 OA
ENDBRANCH  28  29
ENDBRANCH   5  28
TORSDOF 11
ENDMDL
MODEL 3
REMARK VINA RESULT: -6.499709419      1.408      2.421
REMARK  11 active torsions:
REMARK  status: ('A' for Active; 'I' for Inactive)
REMARK    1  A    between atoms: N1_1  and  C1_5 
REMARK    2  A    between atoms: C1_5  and  C2_6 
REMARK    3  A    between atoms: C2_6  and  C3_7 
REMARK    4  A    between atoms: C3_7  and  N2_8 
REMARK    5  A    between atoms: N2_8  and  C4_11 
REMARK    6  A    between atoms: C4_11  and  C5_12 
REMARK    7  A    between atoms: C5_12  and  C6_13 
REMARK    8  A    between atoms: C6_13  and  N3_14 
REMARK    9  A    between atoms: N3_14  and  C7_16 
REMARK   10  A    between atoms: N5_20  and  C9_21 
REMARK   11  A    between atoms: C9_21  and  C10_22 
ROOT
HETATM    1  C7  UNL     1     -25.921  27.740 -17.806  1.00  0.00     0.133 A 
HETATM    2  N4  UNL     1     -25.520  28.639 -18.709  1.00  0.00    -0.337 N 
ATOM      3  H4  UNL     1     -24.842  28.392 -19.430  1.00  0.00     0.168 HD
HETATM    4  C8  UNL     1     -26.037  29.879 -18.639  1.00  0.00     0.186 A 
HETATM    5  N5  UNL     1     -26.922  30.257 -17.727  1.00  0.00    -0.319 N 
HETATM    6  C11 UNL     1     -27.333  29.362 -16.815  1.00  0.00     0.140 A 
HETATM    7  N7  UNL     1     -28.203  29.450 -15.791  1.00  0.00    -0.336 N 
ATOM      8  H7  UNL     1     -28.728  30.286 -15.530  1.00  0.00     0.168 HD
HETATM    9  C12 UNL     1     -28.271  28.247 -15.159  1.00  0.00     0.182 A 
HETATM   10  N8  UNL     1     -27.430  27.425 -15.814  1.00  0.00    -0.346 N 
ATOM     11  H8  UNL     1     -27.261  26.448 -15.577  1.00  0.00     0.167 HD
HETATM   12  C13 UNL     1     -26.853  28.082 -16.819  1.00  0.00     0.122 A 
ENDROOT
BRANCH   1  13
HETATM   13  N3  UNL     1     -25.495  26.543 -17.782  1.00  0.00    -0.374 N 
ATOM     14  H3  UNL     1     -24.802  26.291 -17.078  1.00  0.00     0.161 HD
BRANCH  13  15
HETATM   15  C6  UNL     1     -25.934  25.541 -18.684  1.00  0.00     0.123 C 
BRANCH  15  16
HETATM   16  C5  UNL     1     -26.004  24.141 -18.095  1.00  0.00     0.047 C 
BRANCH  16  17
HETATM   17  C4  UNL     1     -27.082  24.111 -17.059  1.00  0.00     0.234 C 
BRANCH  17  18
HETATM   18  N2  UNL     1     -26.563  23.988 -15.724  1.00  0.00    -0.075 N 
ATOM     19  H22 UNL     1     -25.884  24.717 -15.503  1.00  0.00     0.277 HD
ATOM     20  H21 UNL     1     -25.946  23.182 -15.621  1.00  0.00     0.277 HD
BRANCH  18  21
HETATM   21  C3  UNL     1     -27.658  23.961 -14.790  1.00  0.00     0.233 C 
BRANCH  21  22
HETATM   22  C2  UNL     1     -28.994  23.803 -15.528  1.00  0.00     0.055 C 
BRANCH  22  23
HETATM   23  C1  UNL     1     -29.722  22.579 -14.999  1.00  0.00     0.231 C 
BRANCH  23  24
HETATM   24  N1  UNL     1     -29.080  22.190 -13.761  1.00  0.00    -0.079 N 
ATOM     25  H13 UNL     1     -28.864  22.984 -13.158  1.00  0.00     0.274 HD
ATOM     26  H12 UNL     1     -29.709  21.705 -13.121  1.00  0.00     0.274 HD
ATOM     27  H11 UNL     1     -28.256  21.638 -14.001  1.00  0.00     0.274 HD
ENDBRANCH  23  24
ENDBRANCH  22  23
ENDBRANCH  21  22
ENDBRANCH  18  21
ENDBRANCH  17  18
ENDBRANCH  16  17
ENDBRANCH  15  16
ENDBRANCH  13  15
ENDBRANCH   1  13
BRANCH   5  28
HETATM   28  C9  UNL     1     -27.485  31.590 -17.639  1.00  0.00     0.230 C 
BRANCH  28  29
HETATM   29  C10 UNL     1     -26.652  32.439 -16.756  1.00  0.00     0.249 C 
HETATM   30  N6  UNL     1     -26.970  32.575 -15.378  1.00  0.00    -0.061 NA
HETATM   31  O1  UNL     1     -25.671  33.033 -17.236  1.00  0.00    -0.275 OA
ENDBRANCH  28  29
ENDBRANCH   5  28
TORSDOF 11
ENDMDL
MODEL 4
REMARK VINA RESULT: -6.481307757      3.768      6.055
REMARK  11 active torsions:
REMARK  status: ('A' for Active; 'I' for Inactive)
REMARK    1  A    between atoms: N1_1  and  C1_5 
REMARK    2  A    between atoms: C1_5  and  C2_6 
REMARK    3  A    between atoms: C2_6  and  C3_7 
REMARK    4  A    between atoms: C3_7  and  N2_8 
REMARK    5  A    between atoms: N2_8  and  C4_11 
REMARK    6  A    between atoms: C4_11  and  C5_12 
REMARK    7  A    between atoms: C5_12  and  C6_13 
REMARK    8  A    between atoms: C6_13  and  N3_14 
REMARK    9  A    between atoms: N3_14  and  C7_16 
REMARK   10  A    between atoms: N5_20  and  C9_21 
REMARK   11  A    between atoms: C9_21  and  C10_22 
ROOT
HETATM    1  C7  UNL     1     -25.563  25.840 -17.947  1.00  0.00     0.133 A 
HETATM    2  N4  UNL     1     -26.164  24.647 -17.939  1.00  0.00    -0.337 N 
ATOM      3  H4  UNL     1     -27.000  24.484 -17.378  1.00  0.00     0.168 HD
HETATM    4  C8  UNL     1     -25.632  23.666 -18.692  1.00  0.00     0.186 A 
HETATM    5  N5  UNL     1     -24.549  23.820 -19.442  1.00  0.00    -0.319 N 
HETATM    6  C11 UNL     1     -23.938  25.014 -19.459  1.00  0.00     0.140 A 
HETATM    7  N7  UNL     1     -22.847  25.462 -20.109  1.00  0.00    -0.336 N 
ATOM      8  H7  UNL     1     -22.268  24.910 -20.743  1.00  0.00     0.168 HD
HETATM    9  C12 UNL     1     -22.640  26.767 -19.785  1.00  0.00     0.182 A 
HETATM   10  N8  UNL     1     -23.621  27.108 -18.930  1.00  0.00    -0.346 N 
ATOM     11  H8  UNL     1     -23.737  28.028 -18.506  1.00  0.00     0.167 HD
HETATM   12  C13 UNL     1     -24.416  26.060 -18.719  1.00  0.00     0.122 A 
ENDROOT
BRANCH   1  13
HETATM   13  N3  UNL     1     -25.981  26.832 -17.272  1.00  0.00    -0.374 N 
ATOM     14  H3  UNL     1     -25.297  27.502 -16.923  1.00  0.00     0.161 HD
BRANCH  13  15
HETATM   15  C6  UNL     1     -27.352  27.054 -16.980  1.00  0.00     0.123 C 
BRANCH  15  16
HETATM   16  C5  UNL     1     -27.651  27.349 -15.519  1.00  0.00     0.047 C 
BRANCH  16  17
HETATM   17  C4  UNL     1     -28.419  26.201 -14.946  1.00  0.00     0.234 C 
BRANCH  17  18
HETATM   18  N2  UNL     1     -27.603  25.338 -14.137  1.00  0.00    -0.075 N 
ATOM     19  H22 UNL     1     -27.883  25.348 -13.156  1.00  0.00     0.277 HD
ATOM     20  H21 UNL     1     -26.657  25.699 -14.020  1.00  0.00     0.277 HD
BRANCH  18  21
HETATM   21  C3  UNL     1     -27.618  24.011 -14.696  1.00  0.00     0.233 C 
BRANCH  21  22
HETATM   22  C2  UNL     1     -28.880  23.794 -15.541  1.00  0.00     0.055 C 
BRANCH  22  23
HETATM   23  C1  UNL     1     -29.629  22.575 -15.028  1.00  0.00     0.231 C 
BRANCH  23  24
HETATM   24  N1  UNL     1     -29.005  22.171 -13.785  1.00  0.00    -0.079 N 
ATOM     25  H13 UNL     1     -28.243  22.788 -13.504  1.00  0.00     0.274 HD
ATOM     26  H12 UNL     1     -29.604  22.320 -12.973  1.00  0.00     0.274 HD
ATOM     27  H11 UNL     1     -28.712  21.199 -13.889  1.00  0.00     0.274 HD
ENDBRANCH  23  24
ENDBRANCH  22  23
ENDBRANCH  21  22
ENDBRANCH  18  21
ENDBRANCH  17  18
ENDBRANCH  16  17
ENDBRANCH  15  16
ENDBRANCH  13  15
ENDBRANCH   1  13
BRANCH   5  28
HETATM   28  C9  UNL     1     -23.966  22.771 -20.256  1.00  0.00     0.230 C 
BRANCH  28  29
HETATM   29  C10 UNL     1     -23.985  21.485 -19.522  1.00  0.00     0.249 C 
HETATM   30  N6  UNL     1     -24.773  20.399 -19.991  1.00  0.00    -0.061 NA
HETATM   31  O1  UNL     1     -23.303  21.365 -18.490  1.00  0.00    -0.275 OA
ENDBRANCH  28  29
ENDBRANCH   5  28
TORSDOF 11
ENDMDL
MODEL 5
REMARK VINA RESULT: -6.368274416      1.919      3.269
REMARK  11 active torsions:
REMARK  status: ('A' for Active; 'I' for Inactive)
REMARK    1  A    between atoms: N1_1  and  C1_5 
REMARK    2  A    between atoms: C1_5  and  C2_6 
REMARK    3  A    between atoms: C2_6  and  C3_7 
REMARK    4  A    between atoms: C3_7  and  N2_8 
REMARK    5  A    between atoms: N2_8  and  C4_11 
REMARK    6  A    between atoms: C4_11  and  C5_12 
REMARK    7  A    between atoms: C5_12  and  C6_13 
REMARK    8  A    between atoms: C6_13  and  N3_14 
REMARK    9  A    between atoms: N3_14  and  C7_16 
REMARK   10  A    between atoms: N5_20  and  C9_21 
REMARK   11  A    between atoms: C9_21  and  C10_22 
ROOT
HETATM    1  C7  UNL     1     -27.429  28.148 -15.727  1.00  0.00     0.133 A 
HETATM    2  N4  UNL     1     -28.400  29.005 -15.401  1.00  0.00    -0.337 N 
ATOM      3  H4  UNL     1     -29.124  28.749 -14.729  1.00  0.00     0.168 HD
HETATM    4  C8  UNL     1     -28.394  30.218 -15.985  1.00  0.00     0.186 A 
HETATM    5  N5  UNL     1     -27.479  30.608 -16.862  1.00  0.00    -0.319 N 
HETATM    6  C11 UNL     1     -26.499  29.755 -17.197  1.00  0.00     0.140 A 
HETATM    7  N7  UNL     1     -25.453  29.865 -18.038  1.00  0.00    -0.336 N 
ATOM      8  H7  UNL     1     -25.229  30.688 -18.598  1.00  0.00     0.168 HD
HETATM    9  C12 UNL     1     -24.744  28.704 -18.021  1.00  0.00     0.182 A 
HETATM   10  N8  UNL     1     -25.372  27.886 -17.157  1.00  0.00    -0.346 N 
ATOM     11  H8  UNL     1     -25.077  26.938 -16.927  1.00  0.00     0.167 HD
HETATM   12  C13 UNL     1     -26.436  28.504 -16.648  1.00  0.00     0.122 A 
ENDROOT
BRANCH   1  13
HETATM   13  N3  UNL     1     -27.342  26.979 -15.237  1.00  0.00    -0.374 N 
ATOM     14  H3  UNL     1     -26.520  26.748 -14.680  1.00  0.00     0.161 HD
BRANCH  13  15
HETATM   15  C6  UNL     1     -28.332  25.979 -15.425  1.00  0.00     0.123 C 
BRANCH  15  16
HETATM   16  C5  UNL     1     -28.198  25.187 -16.715  1.00  0.00     0.047 C 
BRANCH  16  17
HETATM   17  C4  UNL     1     -27.269  24.039 -16.478  1.00  0.00     0.234 C 
BRANCH  17  18
HETATM   18  N2  UNL     1     -25.925  24.318 -16.904  1.00  0.00    -0.075 N 
ATOM     19  H22 UNL     1     -25.247  23.679 -16.490  1.00  0.00     0.277 HD
ATOM     20  H21 UNL     1     -25.566  25.186 -16.508  1.00  0.00     0.277 HD
BRANCH  18  21
HETATM   21  C3  UNL     1     -25.874  24.311 -18.343  1.00  0.00     0.233 C 
BRANCH  21  22
HETATM   22  C2  UNL     1     -24.727  23.420 -18.839  1.00  0.00     0.055 C 
BRANCH  22  23
HETATM   23  C1  UNL     1     -23.597  23.438 -17.823  1.00  0.00     0.231 C 
BRANCH  23  24
HETATM   24  N1  UNL     1     -23.075  22.091 -17.726  1.00  0.00    -0.079 N 
ATOM     25  H13 UNL     1     -23.801  21.395 -17.553  1.00  0.00     0.274 HD
ATOM     26  H12 UNL     1     -22.751  21.724 -18.621  1.00  0.00     0.274 HD
ATOM     27  H11 UNL     1     -22.347  22.093 -17.011  1.00  0.00     0.274 HD
ENDBRANCH  23  24
ENDBRANCH  22  23
ENDBRANCH  21  22
ENDBRANCH  18  21
ENDBRANCH  17  18
ENDBRANCH  16  17
ENDBRANCH  15  16
ENDBRANCH  13  15
ENDBRANCH   1  13
BRANCH   5  28
HETATM   28  C9  UNL     1     -27.464  31.910 -17.500  1.00  0.00     0.230 C 
BRANCH  28  29
HETATM   29  C10 UNL     1     -27.361  32.978 -16.478  1.00  0.00     0.249 C 
HETATM   30  N6  UNL     1     -26.107  33.579 -16.187  1.00  0.00    -0.061 NA
HETATM   31  O1  UNL     1     -28.387  33.342 -15.878  1.00  0.00    -0.275 OA
ENDBRANCH  28  29
ENDBRANCH   5  28
TORSDOF 11
ENDMDL
