MODEL 1
REMARK VINA RESULT: -6.793340685      0.000      0.000
REMARK  10 active torsions:
REMARK  status: ('A' for Active; 'I' for Inactive)
REMARK    1  A    between atoms: N1_1  and  C1_5 
REMARK    2  A    between atoms: C1_5  and  C2_6 
REMARK    3  A    between atoms: C2_6  and  C3_7 
REMARK    4  A    between atoms: C3_7  and  C4_8 
REMARK    5  A    between atoms: C4_8  and  C5_9 
REMARK    6  A    between atoms: C7_14  and  C8_15 
REMARK    7  A    between atoms: C8_15  and  C9_16 
REMARK    8  A    between atoms: C9_16  and  N3_17 
REMARK    9  A    between atoms: C11_22  and  C12_23 
REMARK   10  A    between atoms: C12_23  and  N6_24 
ROOT
HETATM    1  C5  UNL     1     -27.218  26.004 -17.809  1.00  0.00     0.176 C 
HETATM    2  N2  UNL     1     -26.738  26.204 -19.140  1.00  0.00    -0.347 N 
ATOM      3  H2  UNL     1     -26.571  25.358 -19.685  1.00  0.00     0.163 HD
HETATM    4  C6  UNL     1     -26.466  27.428 -19.800  1.00  0.00     0.224 C 
HETATM    5  O1  UNL     1     -26.641  27.389 -21.052  1.00  0.00    -0.273 OA
HETATM    6  C7  UNL     1     -26.021  28.713 -19.274  1.00  0.00     0.104 C 
HETATM    7  C11 UNL     1     -25.154  28.597 -18.042  1.00  0.00     0.122 C 
HETATM    8  N7  UNL     1     -25.833  28.031 -16.923  1.00  0.00    -0.352 N 
ATOM      9  H7  UNL     1     -25.516  28.372 -16.015  1.00  0.00     0.163 HD
HETATM   10  C13 UNL     1     -26.876  27.072 -16.864  1.00  0.00     0.240 C 
HETATM   11  O2  UNL     1     -27.625  27.151 -15.840  1.00  0.00    -0.271 OA
ENDROOT
BRANCH   1  12
HETATM   12  C4  UNL     1     -26.759  24.693 -17.212  1.00  0.00     0.035 C 
BRANCH  12  13
HETATM   13  C3  UNL     1     -27.904  23.810 -16.815  1.00  0.00     0.004 C 
BRANCH  13  14
HETATM   14  C2  UNL     1     -28.052  23.697 -15.312  1.00  0.00     0.027 C 
BRANCH  14  15
HETATM   15  C1  UNL     1     -29.297  22.866 -15.051  1.00  0.00     0.229 C 
BRANCH  15  16
HETATM   16  N1  UNL     1     -29.162  22.105 -13.816  1.00  0.00    -0.079 N 
ATOM     17  H13 UNL     1     -28.987  21.117 -13.999  1.00  0.00     0.274 HD
ATOM     18  H12 UNL     1     -28.294  22.327 -13.329  1.00  0.00     0.274 HD
ATOM     19  H11 UNL     1     -29.976  22.239 -13.217  1.00  0.00     0.274 HD
ENDBRANCH  15  16
ENDBRANCH  14  15
ENDBRANCH  13  14
ENDBRANCH  12  13
ENDBRANCH   1  12
BRANCH   6  20
HETATM   20  C8  UNL     1     -27.149  29.667 -18.944  1.00  0.00     0.036 C 
BRANCH  20  21
HETATM   21  C9  UNL     1     -26.622  31.012 -18.483  1.00  0.00     0.123 C 
BRANCH  21  22
HETATM   22  N3  UNL     1     -27.559  31.602 -17.572  1.00  0.00    -0.367 N 
HETATM   23  C10 UNL     1     -27.230  32.589 -16.822  1.00  0.00     0.196 C 
HETATM   24  N4  UNL     1     -28.215  33.110 -15.953  1.00  0.00    -0.067 NA
HETATM   25  N5  UNL     1     -25.916  33.100 -16.897  1.00  0.00    -0.067 NA
ATOM     26  H3  UNL     1     -28.507  31.230 -17.520  1.00  0.00     0.161 HD
ENDBRANCH  21  22
ENDBRANCH  20  21
ENDBRANCH   6  20
BRANCH   7  27
HETATM   27  C12 UNL     1     -23.836  27.891 -18.350  1.00  0.00     0.255 C 
BRANCH  27  28
HETATM   28  N6  UNL     1     -22.809  28.925 -18.378  1.00  0.00    -0.077 N 
ATOM     29  H63 UNL     1     -21.860  28.553 -18.369  1.00  0.00     0.274 HD
ATOM     30  H62 UNL     1     -22.747  29.408 -19.275  1.00  0.00     0.274 HD
ATOM     31  H61 UNL     1     -23.005  29.550 -17.596  1.00  0.00     0.274 HD
ENDBRANCH  27  28
ENDBRANCH   7  27
TORSDOF 10
ENDMDL
MODEL 2
REMARK VINA RESULT: -6.701297139      3.587      6.744
REMARK  10 active torsions:
REMARK  status: ('A' for Active; 'I' for Inactive)
REMARK    1  A    between atoms: N1_1  and  C1_5 
REMARK    2  A    between atoms: C1_5  and  C2_6 
REMARK    3  A    between atoms: C2_6  and  C3_7 
REMARK    4  A    between atoms: C3_7  and  C4_8 
REMARK    5  A    between atoms: C4_8  and  C5_9 
REMARK    6  A    between atoms: C7_14  and  C8_15 
REMARK    7  A    between atoms: C8_15  and  C9_16 
REMARK    8  A    between atoms: C9_16  and  N3_17 
REMARK    9  A    between atoms: C11_22  and  C12_23 
REMARK   10  A    between atoms: C12_23  and  N6_24 
ROOT
HETATM    1  C5  UNL     1     -26.316  26.661 -17.307  1.00  0.00     0.176 C 
HETATM    2  N2  UNL     1     -25.173  27.167 -18.001  1.00  0.00    -0.347 N 
ATOM      3  H2  UNL     1     -24.949  28.147 -17.834  1.00  0.00     0.163 HD
HETATM    4  C6  UNL     1     -24.313  26.477 -18.892  1.00  0.00     0.224 C 
HETATM    5  O1  UNL     1     -23.122  26.903 -18.891  1.00  0.00    -0.273 OA
HETATM    6  C7  UNL     1     -24.576  25.368 -19.799  1.00  0.00     0.104 C 
HETATM    7  C11 UNL     1     -25.987  25.346 -20.340  1.00  0.00     0.122 C 
HETATM    8  N7  UNL     1     -26.976  25.153 -19.332  1.00  0.00    -0.352 N 
ATOM      9  H7  UNL     1     -27.809  24.652 -19.642  1.00  0.00     0.163 HD
HETATM   10  C13 UNL     1     -26.993  25.541 -17.967  1.00  0.00     0.240 C 
HETATM   11  O2  UNL     1     -27.701  24.810 -17.206  1.00  0.00    -0.271 OA
ENDROOT
BRANCH   1  12
HETATM   12  C4  UNL     1     -27.350  27.729 -17.027  1.00  0.00     0.035 C 
BRANCH  12  13
HETATM   13  C3  UNL     1     -27.520  27.993 -15.561  1.00  0.00     0.004 C 
BRANCH  13  14
HETATM   14  C2  UNL     1     -28.673  27.215 -14.963  1.00  0.00     0.027 C 
BRANCH  14  15
HETATM   15  C1  UNL     1     -28.106  26.396 -13.815  1.00  0.00     0.229 C 
BRANCH  15  16
HETATM   16  N1  UNL     1     -27.801  25.040 -14.248  1.00  0.00    -0.079 N 
ATOM     17  H13 UNL     1     -28.588  24.409 -14.101  1.00  0.00     0.274 HD
ATOM     18  H12 UNL     1     -27.738  24.973 -15.265  1.00  0.00     0.274 HD
ATOM     19  H11 UNL     1     -26.954  24.697 -13.795  1.00  0.00     0.274 HD
ENDBRANCH  15  16
ENDBRANCH  14  15
ENDBRANCH  13  14
ENDBRANCH  12  13
ENDBRANCH   1  12
BRANCH   6  20
HETATM   20  C8  UNL     1     -24.300  24.004 -19.202  1.00  0.00     0.036 C 
BRANCH  20  21
HETATM   21  C9  UNL     1     -24.184  22.940 -20.276  1.00  0.00     0.123 C 
BRANCH  21  22
HETATM   22  N3  UNL     1     -23.173  21.996 -19.900  1.00  0.00    -0.367 N 
HETATM   23  C10 UNL     1     -23.428  20.742 -19.817  1.00  0.00     0.196 C 
HETATM   24  N4  UNL     1     -22.373  19.881 -19.440  1.00  0.00    -0.067 NA
HETATM   25  N5  UNL     1     -24.735  20.287 -20.102  1.00  0.00    -0.067 NA
ATOM     26  H3  UNL     1     -22.231  22.328 -19.695  1.00  0.00     0.161 HD
ENDBRANCH  21  22
ENDBRANCH  20  21
ENDBRANCH   6  20
BRANCH   7  27
HETATM   27  C12 UNL     1     -26.269  26.565 -21.216  1.00  0.00     0.255 C 
BRANCH  27  28
HETATM   28  N6  UNL     1     -26.331  26.082 -22.590  1.00  0.00    -0.077 N 
ATOM     29  H63 UNL     1     -26.243  26.824 -23.283  1.00  0.00     0.274 HD
ATOM     30  H62 UNL     1     -25.506  25.550 -22.868  1.00  0.00     0.274 HD
ATOM     31  H61 UNL     1     -27.199  25.553 -22.672  1.00  0.00     0.274 HD
ENDBRANCH  27  28
ENDBRANCH   7  27
TORSDOF 10
ENDMDL
MODEL 3
REMARK VINA RESULT: -6.621849861      2.988      7.001
REMARK  10 active torsions:
REMARK  status: ('A' for Active; 'I' for Inactive)
REMARK    1  A    between atoms: N1_1  and  C1_5 
REMARK    2  A    between atoms: C1_5  and  C2_6 
REMARK    3  A    between atoms: C2_6  and  C3_7 
REMARK    4  A    between atoms: C3_7  and  C4_8 
REMARK    5  A    between atoms: C4_8  and  C5_9 
REMARK    6  A    between atoms: C7_14  and  C8_15 
REMARK    7  A    between atoms: C8_15  and  C9_16 
REMARK    8  A    between atoms: C9_16  and  N3_17 
REMARK    9  A    between atoms: C11_22  and  C12_23 
REMARK   10  A    between atoms: C12_23  and  N6_24 
ROOT
HETATM    1  C5  UNL     1     -26.544  27.442 -17.154  1.00  0.00     0.176 C 
HETATM    2  N2  UNL     1     -25.429  27.727 -18.002  1.00  0.00    -0.347 N 
ATOM      3  H2  UNL     1     -25.256  28.714 -18.193  1.00  0.00     0.163 HD
HETATM    4  C6  UNL     1     -24.534  26.812 -18.609  1.00  0.00     0.224 C 
HETATM    5  O1  UNL     1     -23.367  27.268 -18.779  1.00  0.00    -0.273 OA
HETATM    6  C7  UNL     1     -24.739  25.443 -19.065  1.00  0.00     0.104 C 
HETATM    7  C11 UNL     1     -26.146  25.164 -19.539  1.00  0.00     0.122 C 
HETATM    8  N7  UNL     1     -27.124  25.289 -18.509  1.00  0.00    -0.352 N 
ATOM      9  H7  UNL     1     -27.930  24.671 -18.610  1.00  0.00     0.163 HD
HETATM   10  C13 UNL     1     -27.162  26.131 -17.368  1.00  0.00     0.240 C 
HETATM   11  O2  UNL     1     -27.832  25.679 -16.386  1.00  0.00    -0.271 OA
ENDROOT
BRANCH   1  12
HETATM   12  C4  UNL     1     -27.632  28.489 -17.248  1.00  0.00     0.035 C 
BRANCH  12  13
HETATM   13  C3  UNL     1     -27.899  29.160 -15.934  1.00  0.00     0.004 C 
BRANCH  13  14
HETATM   14  C2  UNL     1     -28.394  30.581 -16.101  1.00  0.00     0.027 C 
BRANCH  14  15
HETATM   15  C1  UNL     1     -27.215  31.498 -15.821  1.00  0.00     0.229 C 
BRANCH  15  16
HETATM   16  N1  UNL     1     -27.671  32.836 -15.473  1.00  0.00    -0.079 N 
ATOM     17  H13 UNL     1     -28.540  33.075 -15.949  1.00  0.00     0.274 HD
ATOM     18  H12 UNL     1     -28.005  32.882 -14.510  1.00  0.00     0.274 HD
ATOM     19  H11 UNL     1     -26.941  33.525 -15.652  1.00  0.00     0.274 HD
ENDBRANCH  15  16
ENDBRANCH  14  15
ENDBRANCH  13  14
ENDBRANCH  12  13
ENDBRANCH   1  12
BRANCH   6  20
HETATM   20  C8  UNL     1     -24.393  24.391 -18.032  1.00  0.00     0.036 C 
BRANCH  20  21
HETATM   21  C9  UNL     1     -23.301  23.463 -18.528  1.00  0.00     0.123 C 
BRANCH  21  22
HETATM   22  N3  UNL     1     -23.851  22.157 -18.745  1.00  0.00    -0.367 N 
HETATM   23  C10 UNL     1     -24.175  21.756 -19.920  1.00  0.00     0.196 C 
HETATM   24  N4  UNL     1     -24.711  20.454 -20.044  1.00  0.00    -0.067 NA
HETATM   25  N5  UNL     1     -23.986  22.623 -21.018  1.00  0.00    -0.067 NA
ATOM     26  H3  UNL     1     -23.987  21.533 -17.950  1.00  0.00     0.161 HD
ENDBRANCH  21  22
ENDBRANCH  20  21
ENDBRANCH   6  20
BRANCH   7  27
HETATM   27  C12 UNL     1     -26.491  25.982 -20.781  1.00  0.00     0.255 C 
BRANCH  27  28
HETATM   28  N6  UNL     1     -25.669  25.456 -21.864  1.00  0.00    -0.077 N 
ATOM     29  H63 UNL     1     -25.118  26.172 -22.338  1.00  0.00     0.274 HD
ATOM     30  H62 UNL     1     -24.887  24.889 -21.538  1.00  0.00     0.274 HD
ATOM     31  H61 UNL     1     -26.300  24.954 -22.489  1.00  0.00     0.274 HD
ENDBRANCH  27  28
ENDBRANCH   7  27
TORSDOF 10
ENDMDL
MODEL 4
REMARK VINA RESULT: -6.588283400      3.573      4.924
REMARK  10 active torsions:
REMARK  status: ('A' for Active; 'I' for Inactive)
REMARK    1  A    between atoms: N1_1  and  C1_5 
REMARK    2  A    between atoms: C1_5  and  C2_6 
REMARK    3  A    between atoms: C2_6  and  C3_7 
REMARK    4  A    between atoms: C3_7  and  C4_8 
REMARK    5  A    between atoms: C4_8  and  C5_9 
REMARK    6  A    between atoms: C7_14  and  C8_15 
REMARK    7  A    between atoms: C8_15  and  C9_16 
REMARK    8  A    between atoms: C9_16  and  N3_17 
REMARK    9  A    between atoms: C11_22  and  C12_23 
REMARK   10  A    between atoms: C12_23  and  N6_24 
ROOT
HETATM    1  C5  UNL     1     -23.807  24.236 -18.211  1.00  0.00     0.176 C 
HETATM    2  N2  UNL     1     -25.173  24.163 -17.799  1.00  0.00    -0.347 N 
ATOM      3  H2  UNL     1     -25.530  23.228 -17.602  1.00  0.00     0.163 HD
HETATM    4  C6  UNL     1     -26.095  25.226 -17.627  1.00  0.00     0.224 C 
HETATM    5  O1  UNL     1     -26.968  25.013 -16.738  1.00  0.00    -0.273 OA
HETATM    6  C7  UNL     1     -26.199  26.512 -18.305  1.00  0.00     0.104 C 
HETATM    7  C11 UNL     1     -25.717  26.485 -19.736  1.00  0.00     0.122 C 
HETATM    8  N7  UNL     1     -24.328  26.190 -19.861  1.00  0.00    -0.352 N 
ATOM      9  H7  UNL     1     -23.869  26.627 -20.660  1.00  0.00     0.163 HD
HETATM   10  C13 UNL     1     -23.479  25.388 -19.056  1.00  0.00     0.240 C 
HETATM   11  O2  UNL     1     -22.251  25.718 -19.070  1.00  0.00    -0.271 OA
ENDROOT
BRANCH   1  12
HETATM   12  C4  UNL     1     -23.346  22.988 -18.930  1.00  0.00     0.035 C 
BRANCH  12  13
HETATM   13  C3  UNL     1     -24.405  22.415 -19.823  1.00  0.00     0.004 C 
BRANCH  13  14
HETATM   14  C2  UNL     1     -24.435  20.902 -19.789  1.00  0.00     0.027 C 
BRANCH  14  15
HETATM   15  C1  UNL     1     -23.046  20.422 -20.177  1.00  0.00     0.229 C 
BRANCH  15  16
HETATM   16  N1  UNL     1     -22.575  19.400 -19.253  1.00  0.00    -0.079 N 
ATOM     17  H13 UNL     1     -23.335  19.019 -18.691  1.00  0.00     0.274 HD
ATOM     18  H12 UNL     1     -22.302  18.547 -19.741  1.00  0.00     0.274 HD
ATOM     19  H11 UNL     1     -21.819  19.760 -18.670  1.00  0.00     0.274 HD
ENDBRANCH  15  16
ENDBRANCH  14  15
ENDBRANCH  13  14
ENDBRANCH  12  13
ENDBRANCH   1  12
BRANCH   6  20
HETATM   20  C8  UNL     1     -25.470  27.638 -17.604  1.00  0.00     0.036 C 
BRANCH  20  21
HETATM   21  C9  UNL     1     -26.438  28.621 -16.976  1.00  0.00     0.123 C 
BRANCH  21  22
HETATM   22  N3  UNL     1     -27.274  27.930 -16.038  1.00  0.00    -0.367 N 
HETATM   23  C10 UNL     1     -28.266  28.514 -15.471  1.00  0.00     0.196 C 
HETATM   24  N4  UNL     1     -29.037  27.759 -14.559  1.00  0.00    -0.067 NA
HETATM   25  N5  UNL     1     -28.536  29.865 -15.781  1.00  0.00    -0.067 NA
ATOM     26  H3  UNL     1     -27.076  26.955 -15.816  1.00  0.00     0.161 HD
ENDBRANCH  21  22
ENDBRANCH  20  21
ENDBRANCH   6  20
BRANCH   7  27
HETATM   27  C12 UNL     1     -26.591  25.582 -20.605  1.00  0.00     0.255 C 
BRANCH  27  28
HETATM   28  N6  UNL     1     -26.542  26.131 -21.954  1.00  0.00    -0.077 N 
ATOM     29  H63 UNL     1     -25.725  26.718 -22.122  1.00  0.00     0.274 HD
ATOM     30  H62 UNL     1     -26.342  25.430 -22.668  1.00  0.00     0.274 HD
ATOM     31  H61 UNL     1     -27.426  26.618 -22.101  1.00  0.00     0.274 HD
ENDBRANCH  27  28
ENDBRANCH   7  27
TORSDOF 10
ENDMDL
MODEL 5
REMARK VINA RESULT: -6.538506393      3.342      6.701
REMARK  10 active torsions:
REMARK  status: ('A' for Active; 'I' for Inactive)
REMARK    1  A    between atoms: N1_1  and  C1_5 
REMARK    2  A    between atoms: C1_5  and  C2_6 
REMARK    3  A    between atoms: C2_6  and  C3_7 
REMARK    4  A    between atoms: C3_7  and  C4_8 
REMARK    5  A    between atoms: C4_8  and  C5_9 
REMARK    6  A    between atoms: C7_14  and  C8_15 
REMARK    7  A    between atoms: C8_15  and  C9_16 
REMARK    8  A    between atoms: C9_16  and  N3_17 
REMARK    9  A    between atoms: C11_22  and  C12_23 
REMARK   10  A    between atoms: C12_23  and  N6_24 
ROOT
HETATM    1  C5  UNL     1     -26.243  27.519 -18.251  1.00  0.00     0.176 C 
HETATM    2  N2  UNL     1     -24.916  27.710 -18.747  1.00  0.00    -0.347 N 
ATOM      3  H2  UNL     1     -24.640  28.677 -18.920  1.00  0.00     0.163 HD
HETATM    4  C6  UNL     1     -23.936  26.726 -19.030  1.00  0.00     0.224 C 
HETATM    5  O1  UNL     1     -22.746  27.124 -18.871  1.00  0.00    -0.273 OA
HETATM    6  C7  UNL     1     -24.076  25.344 -19.471  1.00  0.00     0.104 C 
HETATM    7  C11 UNL     1     -25.299  25.099 -20.322  1.00  0.00     0.122 C 
HETATM    8  N7  UNL     1     -26.525  25.321 -19.629  1.00  0.00    -0.352 N 
ATOM      9  H7  UNL     1     -27.301  24.733 -19.935  1.00  0.00     0.163 HD
HETATM   10  C13 UNL     1     -26.844  26.224 -18.583  1.00  0.00     0.240 C 
HETATM   11  O2  UNL     1     -27.794  25.856 -17.822  1.00  0.00    -0.271 OA
ENDROOT
BRANCH   1  12
HETATM   12  C4  UNL     1     -27.197  28.603 -18.700  1.00  0.00     0.035 C 
BRANCH  12  13
HETATM   13  C3  UNL     1     -27.765  29.381 -17.551  1.00  0.00     0.004 C 
BRANCH  13  14
HETATM   14  C2  UNL     1     -27.091  29.047 -16.237  1.00  0.00     0.027 C 
BRANCH  14  15
HETATM   15  C1  UNL     1     -28.127  28.346 -15.374  1.00  0.00     0.229 C 
BRANCH  15  16
HETATM   16  N1  UNL     1     -27.664  27.021 -14.984  1.00  0.00    -0.079 N 
ATOM     17  H13 UNL     1     -27.470  26.967 -13.984  1.00  0.00     0.274 HD
ATOM     18  H12 UNL     1     -28.414  26.330 -15.032  1.00  0.00     0.274 HD
ATOM     19  H11 UNL     1     -26.857  26.741 -15.540  1.00  0.00     0.274 HD
ENDBRANCH  15  16
ENDBRANCH  14  15
ENDBRANCH  13  14
ENDBRANCH  12  13
ENDBRANCH   1  12
BRANCH   6  20
HETATM   20  C8  UNL     1     -24.103  24.337 -18.341  1.00  0.00     0.036 C 
BRANCH  20  21
HETATM   21  C9  UNL     1     -23.123  23.206 -18.581  1.00  0.00     0.123 C 
BRANCH  21  22
HETATM   22  N3  UNL     1     -23.847  21.985 -18.781  1.00  0.00    -0.367 N 
HETATM   23  C10 UNL     1     -23.985  21.473 -19.949  1.00  0.00     0.196 C 
HETATM   24  N4  UNL     1     -24.714  20.268 -20.056  1.00  0.00    -0.067 NA
HETATM   25  N5  UNL     1     -23.409  22.130 -21.058  1.00  0.00    -0.067 NA
ATOM     26  H3  UNL     1     -24.263  21.513 -17.978  1.00  0.00     0.161 HD
ENDBRANCH  21  22
ENDBRANCH  20  21
ENDBRANCH   6  20
BRANCH   7  27
HETATM   27  C12 UNL     1     -25.224  25.862 -21.643  1.00  0.00     0.255 C 
BRANCH  27  28
HETATM   28  N6  UNL     1     -26.584  25.923 -22.164  1.00  0.00    -0.077 N 
ATOM     29  H63 UNL     1     -27.186  26.565 -21.648  1.00  0.00     0.274 HD
ATOM     30  H62 UNL     1     -26.650  26.389 -23.069  1.00  0.00     0.274 HD
ATOM     31  H61 UNL     1     -26.934  24.965 -22.176  1.00  0.00     0.274 HD
ENDBRANCH  27  28
ENDBRANCH   7  27
TORSDOF 10
ENDMDL
