MODEL 1
REMARK VINA RESULT: -7.126168490      0.000      0.000
REMARK  11 active torsions:
REMARK  status: ('A' for Active; 'I' for Inactive)
REMARK    1  A    between atoms: N1_2  and  C2_5 
REMARK       I    between atoms: N2_7  and  C4_9 
REMARK    2  A    between atoms: N4_11  and  C5_13 
REMARK    3  A    between atoms: C5_13  and  C6_14 
REMARK    4  A    between atoms: C6_14  and  C7_15 
REMARK    5  A    between atoms: C7_15  and  C8_16 
REMARK    6  A    between atoms: C8_16  and  N5_17 
REMARK    7  A    between atoms: C8_16  and  C9_21 
REMARK    8  A    between atoms: C9_21  and  C10_22 
REMARK    9  A    between atoms: C10_22  and  C11_23 
REMARK   10  A    between atoms: C11_23  and  N6_24 
REMARK   11  A    between atoms: C13_29  and  N9_30 
ROOT
HETATM    1  C2  UNL     1     -28.568  24.894 -15.463  1.00  0.00     0.268 A 
HETATM    2  C3  UNL     1     -27.953  23.828 -16.282  1.00  0.00     0.055 A 
HETATM    3  N2  UNL     1     -27.091  23.315 -17.114  1.00  0.00    -0.334 N 
ATOM      4  H2  UNL     1     -27.136  22.335 -17.394  1.00  0.00     0.168 HD
HETATM    5  C4  UNL     1     -26.090  24.182 -17.611  1.00  0.00     0.188 C 
HETATM    6  N3  UNL     1     -24.736  23.955 -17.277  1.00  0.00    -0.064 NA
HETATM    7  N4  UNL     1     -26.433  25.156 -18.356  1.00  0.00    -0.364 N 
ATOM      8  H4  UNL     1     -27.426  25.267 -18.562  1.00  0.00     0.162 HD
HETATM    9  C13 UNL     1     -29.147  23.498 -15.463  1.00  0.00     0.267 A 
ENDROOT
BRANCH   7  10
HETATM   10  C5  UNL     1     -25.520  26.116 -18.931  1.00  0.00     0.122 C 
BRANCH  10  11
HETATM   11  C6  UNL     1     -25.405  27.284 -17.975  1.00  0.00     0.022 C 
BRANCH  11  12
HETATM   12  C7  UNL     1     -26.764  27.829 -17.594  1.00  0.00     0.034 C 
BRANCH  12  13
HETATM   13  C8  UNL     1     -26.544  29.298 -17.226  1.00  0.00     0.183 C 
BRANCH  13  14
HETATM   14  N5  UNL     1     -25.221  29.668 -17.623  1.00  0.00    -0.075 N 
ATOM     15  H53 UNL     1     -24.560  28.895 -17.551  1.00  0.00     0.274 HD
ATOM     16  H52 UNL     1     -25.142  29.825 -18.628  1.00  0.00     0.274 HD
ATOM     17  H51 UNL     1     -24.937  30.480 -17.075  1.00  0.00     0.274 HD
ENDBRANCH  13  14
BRANCH  13  18
HETATM   18  C9  UNL     1     -26.767  29.414 -15.738  1.00  0.00     0.034 C 
BRANCH  18  19
HETATM   19  C10 UNL     1     -28.084  30.050 -15.403  1.00  0.00     0.022 C 
BRANCH  19  20
HETATM   20  C11 UNL     1     -28.368  31.272 -16.248  1.00  0.00     0.122 C 
BRANCH  20  21
HETATM   21  N6  UNL     1     -27.844  32.475 -15.677  1.00  0.00    -0.367 N 
HETATM   22  C12 UNL     1     -26.816  33.105 -16.115  1.00  0.00     0.196 C 
HETATM   23  N7  UNL     1     -26.053  32.691 -17.237  1.00  0.00    -0.067 NA
HETATM   24  N8  UNL     1     -26.416  34.291 -15.439  1.00  0.00    -0.067 NA
ATOM     25  H6  UNL     1     -28.323  32.860 -14.862  1.00  0.00     0.161 HD
ENDBRANCH  20  21
ENDBRANCH  19  20
ENDBRANCH  18  19
ENDBRANCH  13  18
ENDBRANCH  12  13
ENDBRANCH  11  12
ENDBRANCH  10  11
ENDBRANCH   7  10
BRANCH   1  26
HETATM   26  N1  UNL     1     -27.930  25.274 -14.216  1.00  0.00    -0.067 N 
HETATM   27  C1  UNL     1     -28.420  26.581 -13.819  1.00  0.00     0.267 C 
ATOM     28  H12 UNL     1     -26.912  25.240 -14.272  1.00  0.00     0.277 HD
ATOM     29  H11 UNL     1     -28.054  24.573 -13.485  1.00  0.00     0.277 HD
ENDBRANCH   1  26
BRANCH   9  30
HETATM   30  N9  UNL     1     -28.874  22.646 -14.335  1.00  0.00    -0.068 N 
ATOM     31  H93 UNL     1     -27.977  22.910 -13.929  1.00  0.00     0.275 HD
ATOM     32  H92 UNL     1     -29.511  22.885 -13.575  1.00  0.00     0.275 HD
ATOM     33  H91 UNL     1     -28.891  21.636 -14.476  1.00  0.00     0.275 HD
ENDBRANCH   9  30
TORSDOF 11
ENDMDL
MODEL 2
REMARK VINA RESULT: -6.932539015      0.901      1.019
REMARK  11 active torsions:
REMARK  status: ('A' for Active; 'I' for Inactive)
REMARK    1  A    between atoms: N1_2  and  C2_5 
REMARK       I    between atoms: N2_7  and  C4_9 
REMARK    2  A    between atoms: N4_11  and  C5_13 
REMARK    3  A    between atoms: C5_13  and  C6_14 
REMARK    4  A    between atoms: C6_14  and  C7_15 
REMARK    5  A    between atoms: C7_15  and  C8_16 
REMARK    6  A    between atoms: C8_16  and  N5_17 
REMARK    7  A    between atoms: C8_16  and  C9_21 
REMARK    8  A    between atoms: C9_21  and  C10_22 
REMARK    9  A    between atoms: C10_22  and  C11_23 
REMARK   10  A    between atoms: C11_23  and  N6_24 
REMARK   11  A    between atoms: C13_29  and  N9_30 
ROOT
HETATM    1  C2  UNL     1     -28.670  25.094 -15.665  1.00  0.00     0.268 A 
HETATM    2  C3  UNL     1     -27.940  24.029 -16.386  1.00  0.00     0.055 A 
HETATM    3  N2  UNL     1     -27.055  23.542 -17.208  1.00  0.00    -0.334 N 
ATOM      4  H2  UNL     1     -26.960  22.537 -17.358  1.00  0.00     0.168 HD
HETATM    5  C4  UNL     1     -26.232  24.473 -17.884  1.00  0.00     0.188 C 
HETATM    6  N3  UNL     1     -24.842  24.498 -17.626  1.00  0.00    -0.064 NA
HETATM    7  N4  UNL     1     -26.763  25.274 -18.719  1.00  0.00    -0.364 N 
ATOM      8  H4  UNL     1     -27.770  25.206 -18.862  1.00  0.00     0.162 HD
HETATM    9  C13 UNL     1     -29.022  23.640 -15.445  1.00  0.00     0.267 A 
ENDROOT
BRANCH   7  10
HETATM   10  C5  UNL     1     -26.045  26.271 -19.476  1.00  0.00     0.122 C 
BRANCH  10  11
HETATM   11  C6  UNL     1     -26.069  27.564 -18.690  1.00  0.00     0.022 C 
BRANCH  11  12
HETATM   12  C7  UNL     1     -26.558  28.721 -19.534  1.00  0.00     0.034 C 
BRANCH  12  13
HETATM   13  C8  UNL     1     -26.937  29.832 -18.552  1.00  0.00     0.183 C 
BRANCH  13  14
HETATM   14  N5  UNL     1     -25.737  30.474 -18.114  1.00  0.00    -0.075 N 
ATOM     15  H53 UNL     1     -25.417  30.132 -17.209  1.00  0.00     0.274 HD
ATOM     16  H52 UNL     1     -24.922  30.199 -18.663  1.00  0.00     0.274 HD
ATOM     17  H51 UNL     1     -25.892  31.482 -18.121  1.00  0.00     0.274 HD
ENDBRANCH  13  14
BRANCH  13  18
HETATM   18  C9  UNL     1     -27.701  29.178 -17.427  1.00  0.00     0.034 C 
BRANCH  18  19
HETATM   19  C10 UNL     1     -27.230  29.629 -16.076  1.00  0.00     0.022 C 
BRANCH  19  20
HETATM   20  C11 UNL     1     -28.144  30.666 -15.460  1.00  0.00     0.122 C 
BRANCH  20  21
HETATM   21  N6  UNL     1     -27.472  31.896 -15.172  1.00  0.00    -0.367 N 
HETATM   22  C12 UNL     1     -27.395  32.892 -15.976  1.00  0.00     0.196 C 
HETATM   23  N7  UNL     1     -27.973  32.910 -17.273  1.00  0.00    -0.067 NA
HETATM   24  N8  UNL     1     -26.690  34.051 -15.546  1.00  0.00    -0.067 NA
ATOM     25  H6  UNL     1     -27.021  31.987 -14.262  1.00  0.00     0.161 HD
ENDBRANCH  20  21
ENDBRANCH  19  20
ENDBRANCH  18  19
ENDBRANCH  13  18
ENDBRANCH  12  13
ENDBRANCH  11  12
ENDBRANCH  10  11
ENDBRANCH   7  10
BRANCH   1  26
HETATM   26  N1  UNL     1     -28.034  25.731 -14.527  1.00  0.00    -0.067 N 
HETATM   27  C1  UNL     1     -28.724  26.974 -14.241  1.00  0.00     0.267 C 
ATOM     28  H12 UNL     1     -27.032  25.863 -14.664  1.00  0.00     0.277 HD
ATOM     29  H11 UNL     1     -27.985  25.117 -13.714  1.00  0.00     0.277 HD
ENDBRANCH   1  26
BRANCH   9  30
HETATM   30  N9  UNL     1     -28.557  23.000 -14.242  1.00  0.00    -0.068 N 
ATOM     31  H93 UNL     1     -27.538  23.035 -14.219  1.00  0.00     0.275 HD
ATOM     32  H92 UNL     1     -28.791  23.587 -13.441  1.00  0.00     0.275 HD
ATOM     33  H91 UNL     1     -28.861  22.045 -14.054  1.00  0.00     0.275 HD
ENDBRANCH   9  30
TORSDOF 11
ENDMDL
MODEL 3
REMARK VINA RESULT: -6.679523480      1.809      5.702
REMARK  11 active torsions:
REMARK  status: ('A' for Active; 'I' for Inactive)
REMARK    1  A    between atoms: N1_2  and  C2_5 
REMARK       I    between atoms: N2_7  and  C4_9 
REMARK    2  A    between atoms: N4_11  and  C5_13 
REMARK    3  A    between atoms: C5_13  and  C6_14 
REMARK    4  A    between atoms: C6_14  and  C7_15 
REMARK    5  A    between atoms: C7_15  and  C8_16 
REMARK    6  A    between atoms: C8_16  and  N5_17 
REMARK    7  A    between atoms: C8_16  and  C9_21 
REMARK    8  A    between atoms: C9_21  and  C10_22 
REMARK    9  A    between atoms: C10_22  and  C11_23 
REMARK   10  A    between atoms: C11_23  and  N6_24 
REMARK   11  A    between atoms: C13_29  and  N9_30 
ROOT
HETATM    1  C2  UNL     1     -23.468  24.436 -19.090  1.00  0.00     0.268 A 
HETATM    2  C3  UNL     1     -24.438  24.394 -17.975  1.00  0.00     0.055 A 
HETATM    3  N2  UNL     1     -25.489  24.761 -17.298  1.00  0.00    -0.334 N 
ATOM      4  H2  UNL     1     -25.749  24.304 -16.424  1.00  0.00     0.168 HD
HETATM    5  C4  UNL     1     -26.252  25.825 -17.834  1.00  0.00     0.188 C 
HETATM    6  N3  UNL     1     -27.575  25.588 -18.273  1.00  0.00    -0.064 NA
HETATM    7  N4  UNL     1     -25.728  26.983 -17.908  1.00  0.00    -0.364 N 
ATOM      8  H4  UNL     1     -24.771  27.090 -17.573  1.00  0.00     0.162 HD
HETATM    9  C13 UNL     1     -23.306  23.431 -17.972  1.00  0.00     0.267 A 
ENDROOT
BRANCH   7  10
HETATM   10  C5  UNL     1     -26.390  28.155 -18.430  1.00  0.00     0.122 C 
BRANCH  10  11
HETATM   11  C6  UNL     1     -26.421  29.202 -17.338  1.00  0.00     0.022 C 
BRANCH  11  12
HETATM   12  C7  UNL     1     -27.652  30.076 -17.436  1.00  0.00     0.034 C 
BRANCH  12  13
HETATM   13  C8  UNL     1     -28.387  29.927 -16.103  1.00  0.00     0.183 C 
BRANCH  13  14
HETATM   14  N5  UNL     1     -28.312  31.173 -15.406  1.00  0.00    -0.075 N 
ATOM     15  H53 UNL     1     -27.806  31.100 -14.524  1.00  0.00     0.274 HD
ATOM     16  H52 UNL     1     -27.695  31.843 -15.866  1.00  0.00     0.274 HD
ATOM     17  H51 UNL     1     -29.260  31.530 -15.286  1.00  0.00     0.274 HD
ENDBRANCH  13  14
BRANCH  13  18
HETATM   18  C9  UNL     1     -27.720  28.795 -15.361  1.00  0.00     0.034 C 
BRANCH  18  19
HETATM   19  C10 UNL     1     -28.689  27.725 -14.953  1.00  0.00     0.022 C 
BRANCH  19  20
HETATM   20  C11 UNL     1     -27.997  26.446 -14.534  1.00  0.00     0.122 C 
BRANCH  20  21
HETATM   21  N6  UNL     1     -28.628  25.276 -15.065  1.00  0.00    -0.367 N 
HETATM   22  C12 UNL     1     -28.113  24.101 -15.056  1.00  0.00     0.196 C 
HETATM   23  N7  UNL     1     -26.837  23.799 -14.513  1.00  0.00    -0.067 NA
HETATM   24  N8  UNL     1     -28.864  23.034 -15.623  1.00  0.00    -0.067 NA
ATOM     25  H6  UNL     1     -29.553  25.384 -15.480  1.00  0.00     0.161 HD
ENDBRANCH  20  21
ENDBRANCH  19  20
ENDBRANCH  18  19
ENDBRANCH  13  18
ENDBRANCH  12  13
ENDBRANCH  11  12
ENDBRANCH  10  11
ENDBRANCH   7  10
BRANCH   1  26
HETATM   26  N1  UNL     1     -23.843  23.852 -20.365  1.00  0.00    -0.067 N 
HETATM   27  C1  UNL     1     -24.708  24.781 -21.068  1.00  0.00     0.267 C 
ATOM     28  H12 UNL     1     -24.264  22.930 -20.262  1.00  0.00     0.277 HD
ATOM     29  H11 UNL     1     -23.034  23.577 -20.921  1.00  0.00     0.277 HD
ENDBRANCH   1  26
BRANCH   9  30
HETATM   30  N9  UNL     1     -23.690  22.066 -18.221  1.00  0.00    -0.068 N 
ATOM     31  H93 UNL     1     -24.706  22.015 -18.297  1.00  0.00     0.275 HD
ATOM     32  H92 UNL     1     -23.410  21.808 -19.168  1.00  0.00     0.275 HD
ATOM     33  H91 UNL     1     -23.369  21.348 -17.572  1.00  0.00     0.275 HD
ENDBRANCH   9  30
TORSDOF 11
ENDMDL
MODEL 4
REMARK VINA RESULT: -6.595244572      1.362      2.073
REMARK  11 active torsions:
REMARK  status: ('A' for Active; 'I' for Inactive)
REMARK    1  A    between atoms: N1_2  and  C2_5 
REMARK       I    between atoms: N2_7  and  C4_9 
REMARK    2  A    between atoms: N4_11  and  C5_13 
REMARK    3  A    between atoms: C5_13  and  C6_14 
REMARK    4  A    between atoms: C6_14  and  C7_15 
REMARK    5  A    between atoms: C7_15  and  C8_16 
REMARK    6  A    between atoms: C8_16  and  N5_17 
REMARK    7  A    between atoms: C8_16  and  C9_21 
REMARK    8  A    between atoms: C9_21  and  C10_22 
REMARK    9  A    between atoms: C10_22  and  C11_23 
REMARK   10  A    between atoms: C11_23  and  N6_24 
REMARK   11  A    between atoms: C13_29  and  N9_30 
ROOT
HETATM    1  C2  UNL     1     -28.972  24.754 -15.424  1.00  0.00     0.268 A 
HETATM    2  C3  UNL     1     -28.189  23.780 -16.214  1.00  0.00     0.055 A 
HETATM    3  N2  UNL     1     -27.262  23.393 -17.044  1.00  0.00    -0.334 N 
ATOM      4  H2  UNL     1     -27.137  22.410 -17.285  1.00  0.00     0.168 HD
HETATM    5  C4  UNL     1     -26.439  24.402 -17.596  1.00  0.00     0.188 C 
HETATM    6  N3  UNL     1     -25.061  24.431 -17.282  1.00  0.00    -0.064 NA
HETATM    7  N4  UNL     1     -26.959  25.268 -18.370  1.00  0.00    -0.364 N 
ATOM      8  H4  UNL     1     -27.958  25.193 -18.558  1.00  0.00     0.162 HD
HETATM    9  C13 UNL     1     -29.295  23.278 -15.357  1.00  0.00     0.267 A 
ENDROOT
BRANCH   7  10
HETATM   10  C5  UNL     1     -26.239  26.349 -19.001  1.00  0.00     0.122 C 
BRANCH  10  11
HETATM   11  C6  UNL     1     -26.396  27.583 -18.138  1.00  0.00     0.022 C 
BRANCH  11  12
HETATM   12  C7  UNL     1     -25.076  28.297 -17.941  1.00  0.00     0.034 C 
BRANCH  12  13
HETATM   13  C8  UNL     1     -24.873  29.165 -19.184  1.00  0.00     0.183 C 
BRANCH  13  14
HETATM   14  N5  UNL     1     -23.616  29.835 -19.064  1.00  0.00    -0.075 N 
ATOM     15  H53 UNL     1     -22.911  29.465 -19.700  1.00  0.00     0.274 HD
ATOM     16  H52 UNL     1     -23.643  30.789 -19.426  1.00  0.00     0.274 HD
ATOM     17  H51 UNL     1     -23.324  29.795 -18.087  1.00  0.00     0.274 HD
ENDBRANCH  13  14
BRANCH  13  18
HETATM   18  C9  UNL     1     -26.044  30.115 -19.250  1.00  0.00     0.034 C 
BRANCH  18  19
HETATM   19  C10 UNL     1     -25.630  31.548 -19.092  1.00  0.00     0.022 C 
BRANCH  19  20
HETATM   20  C11 UNL     1     -26.293  32.214 -17.906  1.00  0.00     0.122 C 
BRANCH  20  21
HETATM   21  N6  UNL     1     -27.133  31.322 -17.168  1.00  0.00    -0.367 N 
HETATM   22  C12 UNL     1     -28.076  31.690 -16.379  1.00  0.00     0.196 C 
HETATM   23  N7  UNL     1     -28.415  33.045 -16.129  1.00  0.00    -0.067 NA
HETATM   24  N8  UNL     1     -28.828  30.683 -15.713  1.00  0.00    -0.067 NA
ATOM     25  H6  UNL     1     -26.972  30.320 -17.277  1.00  0.00     0.161 HD
ENDBRANCH  20  21
ENDBRANCH  19  20
ENDBRANCH  18  19
ENDBRANCH  13  18
ENDBRANCH  12  13
ENDBRANCH  11  12
ENDBRANCH  10  11
ENDBRANCH   7  10
BRANCH   1  26
HETATM   26  N1  UNL     1     -28.394  25.292 -14.206  1.00  0.00    -0.067 N 
HETATM   27  C1  UNL     1     -28.485  26.739 -14.245  1.00  0.00     0.267 C 
ATOM     28  H12 UNL     1     -27.440  24.965 -14.050  1.00  0.00     0.277 HD
ATOM     29  H11 UNL     1     -28.817  24.897 -13.366  1.00  0.00     0.277 HD
ENDBRANCH   1  26
BRANCH   9  30
HETATM   30  N9  UNL     1     -28.859  22.535 -14.204  1.00  0.00    -0.068 N 
ATOM     31  H93 UNL     1     -29.668  22.322 -13.621  1.00  0.00     0.275 HD
ATOM     32  H92 UNL     1     -28.577  21.600 -14.498  1.00  0.00     0.275 HD
ATOM     33  H91 UNL     1     -28.125  22.936 -13.620  1.00  0.00     0.275 HD
ENDBRANCH   9  30
TORSDOF 11
ENDMDL
MODEL 5
REMARK VINA RESULT: -6.487725334      2.320      7.521
REMARK  11 active torsions:
REMARK  status: ('A' for Active; 'I' for Inactive)
REMARK    1  A    between atoms: N1_2  and  C2_5 
REMARK       I    between atoms: N2_7  and  C4_9 
REMARK    2  A    between atoms: N4_11  and  C5_13 
REMARK    3  A    between atoms: C5_13  and  C6_14 
REMARK    4  A    between atoms: C6_14  and  C7_15 
REMARK    5  A    between atoms: C7_15  and  C8_16 
REMARK    6  A    between atoms: C8_16  and  N5_17 
REMARK    7  A    between atoms: C8_16  and  C9_21 
REMARK    8  A    between atoms: C9_21  and  C10_22 
REMARK    9  A    between atoms: C10_22  and  C11_23 
REMARK   10  A    between atoms: C11_23  and  N6_24 
REMARK   11  A    between atoms: C13_29  and  N9_30 
ROOT
HETATM    1  C2  UNL     1     -27.413  28.966 -16.760  1.00  0.00     0.268 A 
HETATM    2  C3  UNL     1     -28.280  28.537 -15.642  1.00  0.00     0.055 A 
HETATM    3  N2  UNL     1     -28.753  27.709 -14.754  1.00  0.00    -0.334 N 
ATOM      4  H2  UNL     1     -29.490  27.985 -14.105  1.00  0.00     0.168 HD
HETATM    5  C4  UNL     1     -28.196  26.409 -14.733  1.00  0.00     0.188 C 
HETATM    6  N3  UNL     1     -27.457  25.980 -13.607  1.00  0.00    -0.064 NA
HETATM    7  N4  UNL     1     -28.375  25.646 -15.737  1.00  0.00    -0.364 N 
ATOM      8  H4  UNL     1     -28.918  26.013 -16.518  1.00  0.00     0.162 HD
HETATM    9  C13 UNL     1     -28.413  29.926 -16.154  1.00  0.00     0.267 A 
ENDROOT
BRANCH   7  10
HETATM   10  C5  UNL     1     -27.865  24.300 -15.850  1.00  0.00     0.122 C 
BRANCH  10  11
HETATM   11  C6  UNL     1     -27.365  24.105 -17.265  1.00  0.00     0.022 C 
BRANCH  11  12
HETATM   12  C7  UNL     1     -26.789  25.384 -17.834  1.00  0.00     0.034 C 
BRANCH  12  13
HETATM   13  C8  UNL     1     -25.413  25.017 -18.393  1.00  0.00     0.183 C 
BRANCH  13  14
HETATM   14  N5  UNL     1     -25.526  24.880 -19.812  1.00  0.00    -0.075 N 
ATOM     15  H53 UNL     1     -24.659  24.565 -20.246  1.00  0.00     0.274 HD
ATOM     16  H52 UNL     1     -26.113  24.090 -20.084  1.00  0.00     0.274 HD
ATOM     17  H51 UNL     1     -25.858  25.765 -20.194  1.00  0.00     0.274 HD
ENDBRANCH  13  14
BRANCH  13  18
HETATM   18  C9  UNL     1     -24.989  23.741 -17.709  1.00  0.00     0.034 C 
BRANCH  18  19
HETATM   19  C10 UNL     1     -23.515  23.698 -17.435  1.00  0.00     0.022 C 
BRANCH  19  20
HETATM   20  C11 UNL     1     -22.768  22.827 -18.423  1.00  0.00     0.122 C 
BRANCH  20  21
HETATM   21  N6  UNL     1     -23.487  21.639 -18.768  1.00  0.00    -0.367 N 
HETATM   22  C12 UNL     1     -24.021  21.415 -19.913  1.00  0.00     0.196 C 
HETATM   23  N7  UNL     1     -23.970  22.324 -21.002  1.00  0.00    -0.067 NA
HETATM   24  N8  UNL     1     -24.705  20.183 -20.105  1.00  0.00    -0.067 NA
ATOM     25  H6  UNL     1     -23.581  20.918 -18.052  1.00  0.00     0.161 HD
ENDBRANCH  20  21
ENDBRANCH  19  20
ENDBRANCH  18  19
ENDBRANCH  13  18
ENDBRANCH  12  13
ENDBRANCH  11  12
ENDBRANCH  10  11
ENDBRANCH   7  10
BRANCH   1  26
HETATM   26  N1  UNL     1     -26.027  29.297 -16.482  1.00  0.00    -0.067 N 
HETATM   27  C1  UNL     1     -25.199  28.776 -17.553  1.00  0.00     0.267 C 
ATOM     28  H12 UNL     1     -25.726  28.973 -15.564  1.00  0.00     0.277 HD
ATOM     29  H11 UNL     1     -25.888  30.296 -16.332  1.00  0.00     0.277 HD
ENDBRANCH   1  26
BRANCH   9  30
HETATM   30  N9  UNL     1     -27.927  30.937 -15.252  1.00  0.00    -0.068 N 
ATOM     31  H93 UNL     1     -26.929  31.075 -15.412  1.00  0.00     0.275 HD
ATOM     32  H92 UNL     1     -28.298  31.844 -15.538  1.00  0.00     0.275 HD
ATOM     33  H91 UNL     1     -28.089  30.812 -14.253  1.00  0.00     0.275 HD
ENDBRANCH   9  30
TORSDOF 11
ENDMDL
