MODEL 1
REMARK VINA RESULT: -6.873543992      0.000      0.000
REMARK  11 active torsions:
REMARK  status: ('A' for Active; 'I' for Inactive)
REMARK    1  A    between atoms: C2_2  and  C3_3 
REMARK    2  A    between atoms: C5_8  and  C6_9 
REMARK    3  A    between atoms: C6_9  and  C7_10 
REMARK    4  A    between atoms: C7_10  and  C8_11 
REMARK    5  A    between atoms: C8_11  and  N2_12 
REMARK    6  A    between atoms: C10_17  and  O2_18 
REMARK    7  A    between atoms: O2_18  and  C11_19 
REMARK    8  A    between atoms: C11_19  and  C12_20 
REMARK    9  A    between atoms: C12_20  and  N5_21 
REMARK   10  A    between atoms: C12_20  and  C13_25 
REMARK   11  A    between atoms: C13_25  and  O3_26 
ROOT
HETATM    1  C3  UNL     1     -27.637  27.510 -17.256  1.00  0.00     0.108 C 
HETATM    2  C4  UNL     1     -27.113  28.427 -18.284  1.00  0.00     0.224 C 
HETATM    3  O1  UNL     1     -27.601  29.566 -18.558  1.00  0.00    -0.273 OA
HETATM    4  N1  UNL     1     -25.991  27.786 -18.876  1.00  0.00    -0.354 N 
ATOM      5  H1  UNL     1     -25.249  28.275 -19.377  1.00  0.00     0.163 HD
HETATM    6  C5  UNL     1     -26.030  26.368 -18.683  1.00  0.00     0.114 C 
HETATM    7  C10 UNL     1     -27.142  26.169 -17.690  1.00  0.00     0.157 C 
ENDROOT
BRANCH   7   8
HETATM    8  O2  UNL     1     -26.803  25.337 -16.648  1.00  0.00    -0.381 OA
BRANCH   8   9
HETATM    9  C11 UNL     1     -27.633  24.214 -16.605  1.00  0.00     0.203 C 
BRANCH   9  10
HETATM   10  C12 UNL     1     -27.825  23.697 -15.219  1.00  0.00     0.230 C 
BRANCH  10  11
HETATM   11  N5  UNL     1     -27.549  24.715 -14.218  1.00  0.00    -0.071 N 
ATOM     12  H53 UNL     1     -26.772  24.441 -13.616  1.00  0.00     0.274 HD
ATOM     13  H52 UNL     1     -27.140  25.548 -14.640  1.00  0.00     0.274 HD
ATOM     14  H51 UNL     1     -28.379  24.945 -13.671  1.00  0.00     0.274 HD
ENDBRANCH  10  11
BRANCH  10  15
HETATM   15  C13 UNL     1     -29.221  23.145 -15.006  1.00  0.00     0.199 C 
BRANCH  15  16
HETATM   16  O3  UNL     1     -29.115  21.805 -14.623  1.00  0.00    -0.399 OA
ATOM     17  H3  UNL     1     -29.988  21.430 -14.590  1.00  0.00     0.209 HD
ENDBRANCH  15  16
ENDBRANCH  10  15
ENDBRANCH   9  10
ENDBRANCH   8   9
ENDBRANCH   7   8
BRANCH   1  18
HETATM   18  C2  UNL     1     -27.165  27.895 -15.872  1.00  0.00     0.012 C 
HETATM   19  C1  UNL     1     -28.393  28.164 -15.017  1.00  0.00     0.006 C 
ENDBRANCH   1  18
BRANCH   6  20
HETATM   20  C6  UNL     1     -24.730  25.788 -18.184  1.00  0.00     0.029 C 
BRANCH  20  21
HETATM   21  C7  UNL     1     -24.256  24.689 -19.104  1.00  0.00     0.022 C 
BRANCH  21  22
HETATM   22  C8  UNL     1     -24.263  23.346 -18.454  1.00  0.00     0.122 C 
BRANCH  22  23
HETATM   23  N2  UNL     1     -24.666  22.297 -19.343  1.00  0.00    -0.367 N 
HETATM   24  C9  UNL     1     -24.031  21.174 -19.348  1.00  0.00     0.196 C 
HETATM   25  N3  UNL     1     -22.938  20.968 -18.481  1.00  0.00    -0.067 NA
HETATM   26  N4  UNL     1     -24.402  20.122 -20.210  1.00  0.00    -0.067 NA
ATOM     27  H2  UNL     1     -25.456  22.437 -19.972  1.00  0.00     0.161 HD
ENDBRANCH  22  23
ENDBRANCH  21  22
ENDBRANCH  20  21
ENDBRANCH   6  20
TORSDOF 11
ENDMDL
MODEL 2
REMARK VINA RESULT: -6.814226230      3.380      6.147
REMARK  11 active torsions:
REMARK  status: ('A' for Active; 'I' for Inactive)
REMARK    1  A    between atoms: C2_2  and  C3_3 
REMARK    2  A    between atoms: C5_8  and  C6_9 
REMARK    3  A    between atoms: C6_9  and  C7_10 
REMARK    4  A    between atoms: C7_10  and  C8_11 
REMARK    5  A    between atoms: C8_11  and  N2_12 
REMARK    6  A    between atoms: C10_17  and  O2_18 
REMARK    7  A    between atoms: O2_18  and  C11_19 
REMARK    8  A    between atoms: C11_19  and  C12_20 
REMARK    9  A    between atoms: C12_20  and  N5_21 
REMARK   10  A    between atoms: C12_20  and  C13_25 
REMARK   11  A    between atoms: C13_25  and  O3_26 
ROOT
HETATM    1  C3  UNL     1     -25.510  28.148 -18.350  1.00  0.00     0.108 C 
HETATM    2  C4  UNL     1     -25.592  26.679 -18.263  1.00  0.00     0.224 C 
HETATM    3  O1  UNL     1     -25.002  25.871 -19.044  1.00  0.00    -0.273 OA
HETATM    4  N1  UNL     1     -26.439  26.378 -17.163  1.00  0.00    -0.354 N 
ATOM      5  H1  UNL     1     -26.439  25.487 -16.667  1.00  0.00     0.163 HD
HETATM    6  C5  UNL     1     -27.293  27.479 -16.837  1.00  0.00     0.114 C 
HETATM    7  C10 UNL     1     -26.746  28.615 -17.656  1.00  0.00     0.157 C 
ENDROOT
BRANCH   7   8
HETATM    8  O2  UNL     1     -26.576  29.776 -16.937  1.00  0.00    -0.381 OA
BRANCH   8   9
HETATM    9  C11 UNL     1     -27.194  30.859 -17.568  1.00  0.00     0.203 C 
BRANCH   9  10
HETATM   10  C12 UNL     1     -28.029  31.667 -16.632  1.00  0.00     0.230 C 
BRANCH  10  11
HETATM   11  N5  UNL     1     -28.490  30.880 -15.500  1.00  0.00    -0.071 N 
ATOM     12  H53 UNL     1     -28.756  29.938 -15.788  1.00  0.00     0.274 HD
ATOM     13  H52 UNL     1     -27.720  30.644 -14.874  1.00  0.00     0.274 HD
ATOM     14  H51 UNL     1     -29.247  31.343 -14.998  1.00  0.00     0.274 HD
ENDBRANCH  10  11
BRANCH  10  15
HETATM   15  C13 UNL     1     -27.293  32.893 -16.128  1.00  0.00     0.199 C 
BRANCH  15  16
HETATM   16  O3  UNL     1     -28.202  33.710 -15.449  1.00  0.00    -0.399 OA
ATOM     17  H3  UNL     1     -27.748  34.136 -14.731  1.00  0.00     0.209 HD
ENDBRANCH  15  16
ENDBRANCH  10  15
ENDBRANCH   9  10
ENDBRANCH   8   9
ENDBRANCH   7   8
BRANCH   1  18
HETATM   18  C2  UNL     1     -24.242  28.674 -17.717  1.00  0.00     0.012 C 
HETATM   19  C1  UNL     1     -23.197  28.820 -18.813  1.00  0.00     0.006 C 
ENDBRANCH   1  18
BRANCH   6  20
HETATM   20  C6  UNL     1     -27.315  27.815 -15.366  1.00  0.00     0.029 C 
BRANCH  20  21
HETATM   21  C7  UNL     1     -28.514  27.187 -14.700  1.00  0.00     0.022 C 
BRANCH  21  22
HETATM   22  C8  UNL     1     -28.182  25.922 -13.981  1.00  0.00     0.122 C 
BRANCH  22  23
HETATM   23  N2  UNL     1     -28.861  24.780 -14.517  1.00  0.00    -0.367 N 
HETATM   24  C9  UNL     1     -28.197  23.865 -15.139  1.00  0.00     0.196 C 
HETATM   25  N3  UNL     1     -26.800  23.980 -15.297  1.00  0.00    -0.067 NA
HETATM   26  N4  UNL     1     -28.834  22.730 -15.678  1.00  0.00    -0.067 NA
ATOM     27  H2  UNL     1     -29.871  24.689 -14.407  1.00  0.00     0.161 HD
ENDBRANCH  22  23
ENDBRANCH  21  22
ENDBRANCH  20  21
ENDBRANCH   6  20
TORSDOF 11
ENDMDL
MODEL 3
REMARK VINA RESULT: -6.757085148      1.250      1.362
REMARK  11 active torsions:
REMARK  status: ('A' for Active; 'I' for Inactive)
REMARK    1  A    between atoms: C2_2  and  C3_3 
REMARK    2  A    between atoms: C5_8  and  C6_9 
REMARK    3  A    between atoms: C6_9  and  C7_10 
REMARK    4  A    between atoms: C7_10  and  C8_11 
REMARK    5  A    between atoms: C8_11  and  N2_12 
REMARK    6  A    between atoms: C10_17  and  O2_18 
REMARK    7  A    between atoms: O2_18  and  C11_19 
REMARK    8  A    between atoms: C11_19  and  C12_20 
REMARK    9  A    between atoms: C12_20  and  N5_21 
REMARK   10  A    between atoms: C12_20  and  C13_25 
REMARK   11  A    between atoms: C13_25  and  O3_26 
ROOT
HETATM    1  C3  UNL     1     -27.354  27.663 -17.632  1.00  0.00     0.108 C 
HETATM    2  C4  UNL     1     -26.599  28.162 -18.795  1.00  0.00     0.224 C 
HETATM    3  O1  UNL     1     -26.748  29.307 -19.321  1.00  0.00    -0.273 OA
HETATM    4  N1  UNL     1     -25.708  27.125 -19.184  1.00  0.00    -0.354 N 
ATOM      5  H1  UNL     1     -24.861  27.274 -19.734  1.00  0.00     0.163 HD
HETATM    6  C5  UNL     1     -26.144  25.848 -18.709  1.00  0.00     0.114 C 
HETATM    7  C10 UNL     1     -27.260  26.178 -17.757  1.00  0.00     0.157 C 
ENDROOT
BRANCH   7   8
HETATM    8  O2  UNL     1     -27.163  25.522 -16.551  1.00  0.00    -0.381 OA
BRANCH   8   9
HETATM    9  C11 UNL     1     -28.205  24.606 -16.387  1.00  0.00     0.203 C 
BRANCH   9  10
HETATM   10  C12 UNL     1     -28.666  24.513 -14.971  1.00  0.00     0.230 C 
BRANCH  10  11
HETATM   11  N5  UNL     1     -28.176  23.310 -14.319  1.00  0.00    -0.071 N 
ATOM     12  H53 UNL     1     -28.375  23.323 -13.318  1.00  0.00     0.274 HD
ATOM     13  H52 UNL     1     -28.729  22.494 -14.582  1.00  0.00     0.274 HD
ATOM     14  H51 UNL     1     -27.183  23.158 -14.498  1.00  0.00     0.274 HD
ENDBRANCH  10  11
BRANCH  10  15
HETATM   15  C13 UNL     1     -28.262  25.728 -14.160  1.00  0.00     0.199 C 
BRANCH  15  16
HETATM   16  O3  UNL     1     -27.112  25.413 -13.429  1.00  0.00    -0.399 OA
ATOM     17  H3  UNL     1     -26.596  26.204 -13.323  1.00  0.00     0.209 HD
ENDBRANCH  15  16
ENDBRANCH  10  15
ENDBRANCH   9  10
ENDBRANCH   8   9
ENDBRANCH   7   8
BRANCH   1  18
HETATM   18  C2  UNL     1     -26.784  28.183 -16.332  1.00  0.00     0.012 C 
HETATM   19  C1  UNL     1     -27.825  29.089 -15.693  1.00  0.00     0.006 C 
ENDBRANCH   1  18
BRANCH   6  20
HETATM   20  C6  UNL     1     -25.057  25.048 -18.035  1.00  0.00     0.029 C 
BRANCH  20  21
HETATM   21  C7  UNL     1     -23.901  24.828 -18.979  1.00  0.00     0.022 C 
BRANCH  21  22
HETATM   22  C8  UNL     1     -23.358  23.439 -18.916  1.00  0.00     0.122 C 
BRANCH  22  23
HETATM   23  N2  UNL     1     -24.203  22.478 -19.561  1.00  0.00    -0.367 N 
HETATM   24  C9  UNL     1     -23.938  21.219 -19.470  1.00  0.00     0.196 C 
HETATM   25  N3  UNL     1     -22.818  20.777 -18.737  1.00  0.00    -0.067 NA
HETATM   26  N4  UNL     1     -24.749  20.249 -20.093  1.00  0.00    -0.067 NA
ATOM     27  H2  UNL     1     -25.016  22.790 -20.093  1.00  0.00     0.161 HD
ENDBRANCH  22  23
ENDBRANCH  21  22
ENDBRANCH  20  21
ENDBRANCH   6  20
TORSDOF 11
ENDMDL
MODEL 4
REMARK VINA RESULT: -6.719028489      2.904      5.249
REMARK  11 active torsions:
REMARK  status: ('A' for Active; 'I' for Inactive)
REMARK    1  A    between atoms: C2_2  and  C3_3 
REMARK    2  A    between atoms: C5_8  and  C6_9 
REMARK    3  A    between atoms: C6_9  and  C7_10 
REMARK    4  A    between atoms: C7_10  and  C8_11 
REMARK    5  A    between atoms: C8_11  and  N2_12 
REMARK    6  A    between atoms: C10_17  and  O2_18 
REMARK    7  A    between atoms: O2_18  and  C11_19 
REMARK    8  A    between atoms: C11_19  and  C12_20 
REMARK    9  A    between atoms: C12_20  and  N5_21 
REMARK   10  A    between atoms: C12_20  and  C13_25 
REMARK   11  A    between atoms: C13_25  and  O3_26 
ROOT
HETATM    1  C3  UNL     1     -26.312  29.202 -17.792  1.00  0.00     0.108 C 
HETATM    2  C4  UNL     1     -26.537  30.222 -16.752  1.00  0.00     0.224 C 
HETATM    3  O1  UNL     1     -26.183  31.438 -16.839  1.00  0.00    -0.273 OA
HETATM    4  N1  UNL     1     -27.206  29.575 -15.679  1.00  0.00    -0.354 N 
ATOM      5  H1  UNL     1     -27.763  30.061 -14.975  1.00  0.00     0.163 HD
HETATM    6  C5  UNL     1     -27.005  28.159 -15.707  1.00  0.00     0.114 C 
HETATM    7  C10 UNL     1     -26.359  27.912 -17.042  1.00  0.00     0.157 C 
ENDROOT
BRANCH   7   8
HETATM    8  O2  UNL     1     -26.934  26.879 -17.746  1.00  0.00    -0.381 OA
BRANCH   8   9
HETATM    9  C11 UNL     1     -26.007  25.865 -18.004  1.00  0.00     0.203 C 
BRANCH   9  10
HETATM   10  C12 UNL     1     -25.313  26.045 -19.313  1.00  0.00     0.230 C 
BRANCH  10  11
HETATM   11  N5  UNL     1     -23.916  25.648 -19.244  1.00  0.00    -0.071 N 
ATOM     12  H53 UNL     1     -23.382  26.034 -20.023  1.00  0.00     0.274 HD
ATOM     13  H52 UNL     1     -23.436  26.113 -18.474  1.00  0.00     0.274 HD
ATOM     14  H51 UNL     1     -23.811  24.635 -19.188  1.00  0.00     0.274 HD
ENDBRANCH  10  11
BRANCH  10  15
HETATM   15  C13 UNL     1     -26.000  25.286 -20.430  1.00  0.00     0.199 C 
BRANCH  15  16
HETATM   16  O3  UNL     1     -27.186  25.950 -20.755  1.00  0.00    -0.399 OA
ATOM     17  H3  UNL     1     -27.471  26.448 -19.998  1.00  0.00     0.209 HD
ENDBRANCH  15  16
ENDBRANCH  10  15
ENDBRANCH   9  10
ENDBRANCH   8   9
ENDBRANCH   7   8
BRANCH   1  18
HETATM   18  C2  UNL     1     -27.350  29.285 -18.889  1.00  0.00     0.012 C 
HETATM   19  C1  UNL     1     -26.619  29.403 -20.217  1.00  0.00     0.006 C 
ENDBRANCH   1  18
BRANCH   6  20
HETATM   20  C6  UNL     1     -28.276  27.362 -15.549  1.00  0.00     0.029 C 
BRANCH  20  21
HETATM   21  C7  UNL     1     -28.109  26.309 -14.482  1.00  0.00     0.022 C 
BRANCH  21  22
HETATM   22  C8  UNL     1     -28.070  24.924 -15.035  1.00  0.00     0.122 C 
BRANCH  22  23
HETATM   23  N2  UNL     1     -28.803  23.983 -14.240  1.00  0.00    -0.367 N 
HETATM   24  C9  UNL     1     -29.209  22.874 -14.760  1.00  0.00     0.196 C 
HETATM   25  N3  UNL     1     -28.936  22.577 -16.111  1.00  0.00    -0.067 NA
HETATM   26  N4  UNL     1     -29.932  21.929 -14.005  1.00  0.00    -0.067 NA
ATOM     27  H2  UNL     1     -29.004  24.190 -13.262  1.00  0.00     0.161 HD
ENDBRANCH  22  23
ENDBRANCH  21  22
ENDBRANCH  20  21
ENDBRANCH   6  20
TORSDOF 11
ENDMDL
MODEL 5
REMARK VINA RESULT: -6.657071481      1.571      1.821
REMARK  11 active torsions:
REMARK  status: ('A' for Active; 'I' for Inactive)
REMARK    1  A    between atoms: C2_2  and  C3_3 
REMARK    2  A    between atoms: C5_8  and  C6_9 
REMARK    3  A    between atoms: C6_9  and  C7_10 
REMARK    4  A    between atoms: C7_10  and  C8_11 
REMARK    5  A    between atoms: C8_11  and  N2_12 
REMARK    6  A    between atoms: C10_17  and  O2_18 
REMARK    7  A    between atoms: O2_18  and  C11_19 
REMARK    8  A    between atoms: C11_19  and  C12_20 
REMARK    9  A    between atoms: C12_20  and  N5_21 
REMARK   10  A    between atoms: C12_20  and  C13_25 
REMARK   11  A    between atoms: C13_25  and  O3_26 
ROOT
HETATM    1  C3  UNL     1     -27.084  26.750 -18.078  1.00  0.00     0.108 C 
HETATM    2  C4  UNL     1     -26.209  27.012 -19.235  1.00  0.00     0.224 C 
HETATM    3  O1  UNL     1     -26.256  28.053 -19.960  1.00  0.00    -0.273 OA
HETATM    4  N1  UNL     1     -25.340  25.894 -19.357  1.00  0.00    -0.354 N 
ATOM      5  H1  UNL     1     -24.444  25.916 -19.844  1.00  0.00     0.163 HD
HETATM    6  C5  UNL     1     -25.877  24.735 -18.714  1.00  0.00     0.114 C 
HETATM    7  C10 UNL     1     -27.052  25.263 -17.939  1.00  0.00     0.157 C 
ENDROOT
BRANCH   7   8
HETATM    8  O2  UNL     1     -27.090  24.826 -16.635  1.00  0.00    -0.381 OA
BRANCH   8   9
HETATM    9  C11 UNL     1     -28.182  23.981 -16.415  1.00  0.00     0.203 C 
BRANCH   9  10
HETATM   10  C12 UNL     1     -28.783  24.164 -15.062  1.00  0.00     0.230 C 
BRANCH  10  11
HETATM   11  N5  UNL     1     -28.512  23.032 -14.191  1.00  0.00    -0.071 N 
ATOM     12  H53 UNL     1     -27.540  22.732 -14.266  1.00  0.00     0.274 HD
ATOM     13  H52 UNL     1     -28.519  23.310 -13.209  1.00  0.00     0.274 HD
ATOM     14  H51 UNL     1     -29.154  22.259 -14.361  1.00  0.00     0.274 HD
ENDBRANCH  10  11
BRANCH  10  15
HETATM   15  C13 UNL     1     -28.307  25.440 -14.396  1.00  0.00     0.199 C 
BRANCH  15  16
HETATM   16  O3  UNL     1     -27.160  25.152 -13.651  1.00  0.00    -0.399 OA
ATOM     17  H3  UNL     1     -26.446  25.690 -13.976  1.00  0.00     0.209 HD
ENDBRANCH  15  16
ENDBRANCH  10  15
ENDBRANCH   9  10
ENDBRANCH   8   9
ENDBRANCH   7   8
BRANCH   1  18
HETATM   18  C2  UNL     1     -26.601  27.470 -16.840  1.00  0.00     0.012 C 
HETATM   19  C1  UNL     1     -27.584  28.589 -16.535  1.00  0.00     0.006 C 
ENDBRANCH   1  18
BRANCH   6  20
HETATM   20  C6  UNL     1     -24.893  24.028 -17.815  1.00  0.00     0.029 C 
BRANCH  20  21
HETATM   21  C7  UNL     1     -23.479  24.293 -18.271  1.00  0.00     0.022 C 
BRANCH  21  22
HETATM   22  C8  UNL     1     -22.731  23.042 -18.593  1.00  0.00     0.122 C 
BRANCH  22  23
HETATM   23  N2  UNL     1     -23.582  21.895 -18.709  1.00  0.00    -0.367 N 
HETATM   24  C9  UNL     1     -23.955  21.480 -19.872  1.00  0.00     0.196 C 
HETATM   25  N3  UNL     1     -23.528  22.149 -21.038  1.00  0.00    -0.067 NA
HETATM   26  N4  UNL     1     -24.791  20.356 -20.020  1.00  0.00    -0.067 NA
ATOM     27  H2  UNL     1     -23.894  21.405 -17.870  1.00  0.00     0.161 HD
ENDBRANCH  22  23
ENDBRANCH  21  22
ENDBRANCH  20  21
ENDBRANCH   6  20
TORSDOF 11
ENDMDL
