MODEL 1
REMARK VINA RESULT: -5.889144330      0.000      0.000
REMARK  13 active torsions:
REMARK  status: ('A' for Active; 'I' for Inactive)
REMARK    1  A    between atoms: N2_4  and  C1_6 
REMARK    2  A    between atoms: C1_6  and  C2_7 
REMARK    3  A    between atoms: C2_7  and  C3_8 
REMARK    4  A    between atoms: C3_8  and  N3_9 
REMARK    5  A    between atoms: N3_9  and  C4_11 
REMARK    6  A    between atoms: C4_11  and  C5_12 
REMARK    7  A    between atoms: C4_11  and  C8_19 
REMARK    8  A    between atoms: C5_12  and  C6_13 
REMARK    9  A    between atoms: C6_13  and  C7_14 
REMARK   10  A    between atoms: C7_14  and  N4_15 
REMARK   11  A    between atoms: C8_19  and  N5_20 
REMARK   12  A    between atoms: C10_22  and  N6_23 
REMARK   13  A    between atoms: C11_27  and  O1_28 
ROOT
HETATM    1  C4  UNL     1     -27.813  25.928 -16.575  1.00  0.00     0.104 C 
ENDROOT
BRANCH   1   2
HETATM    2  N3  UNL     1     -27.224  26.817 -15.599  1.00  0.00    -0.415 N 
ATOM      3  H3  UNL     1     -26.325  26.615 -15.163  1.00  0.00     0.153 HD
BRANCH   2   4
HETATM    4  C3  UNL     1     -27.962  27.983 -15.281  1.00  0.00     0.115 C 
BRANCH   4   5
HETATM    5  C2  UNL     1     -27.748  29.100 -16.309  1.00  0.00     0.040 C 
BRANCH   5   6
HETATM    6  C1  UNL     1     -26.427  29.751 -15.872  1.00  0.00     0.140 C 
BRANCH   6   7
HETATM    7  N2  UNL     1     -25.369  29.478 -16.780  1.00  0.00    -0.343 N 
HETATM    8  N1  UNL     1     -25.419  29.971 -17.924  1.00  0.00    -0.349 N 
ATOM      9  H12 UNL     1     -26.211  30.557 -18.188  1.00  0.00     0.176 HD
ATOM     10  H11 UNL     1     -24.659  29.774 -18.576  1.00  0.00     0.176 HD
ATOM     11  H2  UNL     1     -24.583  28.890 -16.501  1.00  0.00     0.179 HD
ENDBRANCH   6   7
ENDBRANCH   5   6
ENDBRANCH   4   5
ENDBRANCH   2   4
ENDBRANCH   1   2
BRANCH   1  12
HETATM   12  C5  UNL     1     -28.845  25.072 -15.845  1.00  0.00     0.028 C 
BRANCH  12  13
HETATM   13  C6  UNL     1     -28.805  23.659 -16.434  1.00  0.00     0.029 C 
BRANCH  13  14
HETATM   14  C7  UNL     1     -29.229  22.691 -15.358  1.00  0.00     0.230 C 
BRANCH  14  15
HETATM   15  N4  UNL     1     -28.552  22.894 -14.116  1.00  0.00    -0.079 N 
ATOM     16  H43 UNL     1     -27.542  22.819 -14.238  1.00  0.00     0.274 HD
ATOM     17  H42 UNL     1     -28.614  23.870 -13.825  1.00  0.00     0.274 HD
ATOM     18  H41 UNL     1     -28.875  22.273 -13.374  1.00  0.00     0.274 HD
ENDBRANCH  14  15
ENDBRANCH  13  14
ENDBRANCH  12  13
ENDBRANCH   1  12
BRANCH   1  19
HETATM   19  C8  UNL     1     -26.755  25.070 -17.207  1.00  0.00     0.285 C 
BRANCH  19  20
HETATM   20  N5  UNL     1     -26.043  25.608 -18.285  1.00  0.00     0.017 N 
HETATM   21  C9  UNL     1     -26.679  25.370 -19.592  1.00  0.00     0.295 C 
HETATM   22  C10 UNL     1     -26.128  26.317 -20.630  1.00  0.00     0.241 C 
HETATM   23  C11 UNL     1     -24.609  26.244 -20.477  1.00  0.00     0.173 C 
HETATM   24  C12 UNL     1     -24.347  26.380 -18.995  1.00  0.00     0.165 C 
HETATM   25  C13 UNL     1     -24.677  25.068 -18.351  1.00  0.00     0.286 C 
HETATM   26  N7  UNL     1     -25.532  26.859 -18.273  1.00  0.00    -0.037 NA
BRANCH  22  27
HETATM   27  N6  UNL     1     -26.482  25.848 -21.955  1.00  0.00    -0.071 N 
ATOM     28  H63 UNL     1     -27.467  26.007 -22.169  1.00  0.00     0.274 HD
ATOM     29  H62 UNL     1     -26.076  26.427 -22.689  1.00  0.00     0.274 HD
ATOM     30  H61 UNL     1     -26.221  24.866 -22.052  1.00  0.00     0.274 HD
ENDBRANCH  22  27
BRANCH  23  31
HETATM   31  O1  UNL     1     -24.269  24.941 -20.875  1.00  0.00    -0.392 OA
ATOM     32  H1  UNL     1     -23.352  24.991 -21.119  1.00  0.00     0.210 HD
ENDBRANCH  23  31
ENDBRANCH  19  20
ENDBRANCH   1  19
TORSDOF 13
ENDMDL
MODEL 2
REMARK VINA RESULT: -5.881720206      1.932      4.519
REMARK  13 active torsions:
REMARK  status: ('A' for Active; 'I' for Inactive)
REMARK    1  A    between atoms: N2_4  and  C1_6 
REMARK    2  A    between atoms: C1_6  and  C2_7 
REMARK    3  A    between atoms: C2_7  and  C3_8 
REMARK    4  A    between atoms: C3_8  and  N3_9 
REMARK    5  A    between atoms: N3_9  and  C4_11 
REMARK    6  A    between atoms: C4_11  and  C5_12 
REMARK    7  A    between atoms: C4_11  and  C8_19 
REMARK    8  A    between atoms: C5_12  and  C6_13 
REMARK    9  A    between atoms: C6_13  and  C7_14 
REMARK   10  A    between atoms: C7_14  and  N4_15 
REMARK   11  A    between atoms: C8_19  and  N5_20 
REMARK   12  A    between atoms: C10_22  and  N6_23 
REMARK   13  A    between atoms: C11_27  and  O1_28 
ROOT
HETATM    1  C4  UNL     1     -26.823  28.322 -16.834  1.00  0.00     0.104 C 
ENDROOT
BRANCH   1   2
HETATM    2  N3  UNL     1     -27.072  27.866 -15.484  1.00  0.00    -0.415 N 
ATOM      3  H3  UNL     1     -26.318  27.540 -14.880  1.00  0.00     0.153 HD
BRANCH   2   4
HETATM    4  C3  UNL     1     -28.417  27.899 -15.045  1.00  0.00     0.115 C 
BRANCH   4   5
HETATM    5  C2  UNL     1     -28.709  26.818 -13.997  1.00  0.00     0.040 C 
BRANCH   5   6
HETATM    6  C1  UNL     1     -28.510  25.502 -14.763  1.00  0.00     0.140 C 
BRANCH   6   7
HETATM    7  N2  UNL     1     -27.465  24.713 -14.210  1.00  0.00    -0.343 N 
HETATM    8  N1  UNL     1     -27.038  23.741 -14.864  1.00  0.00    -0.349 N 
ATOM      9  H12 UNL     1     -27.443  23.529 -15.776  1.00  0.00     0.176 HD
ATOM     10  H11 UNL     1     -26.288  23.175 -14.467  1.00  0.00     0.176 HD
ATOM     11  H2  UNL     1     -27.071  24.938 -13.296  1.00  0.00     0.179 HD
ENDBRANCH   6   7
ENDBRANCH   5   6
ENDBRANCH   4   5
ENDBRANCH   2   4
ENDBRANCH   1   2
BRANCH   1  12
HETATM   12  C5  UNL     1     -27.640  29.593 -17.041  1.00  0.00     0.028 C 
BRANCH  12  13
HETATM   13  C6  UNL     1     -26.691  30.793 -16.978  1.00  0.00     0.029 C 
BRANCH  13  14
HETATM   14  C7  UNL     1     -27.099  31.653 -15.807  1.00  0.00     0.230 C 
BRANCH  14  15
HETATM   15  N4  UNL     1     -28.473  31.500 -15.446  1.00  0.00    -0.079 N 
ATOM     16  H43 UNL     1     -28.811  32.325 -14.950  1.00  0.00     0.274 HD
ATOM     17  H42 UNL     1     -29.072  31.543 -16.271  1.00  0.00     0.274 HD
ATOM     18  H41 UNL     1     -28.657  30.653 -14.908  1.00  0.00     0.274 HD
ENDBRANCH  14  15
ENDBRANCH  13  14
ENDBRANCH  12  13
ENDBRANCH   1  12
BRANCH   1  19
HETATM   19  C8  UNL     1     -27.216  27.263 -17.824  1.00  0.00     0.285 C 
BRANCH  19  20
HETATM   20  N5  UNL     1     -26.283  26.258 -18.103  1.00  0.00     0.017 N 
HETATM   21  C9  UNL     1     -25.058  26.751 -18.753  1.00  0.00     0.295 C 
HETATM   22  C10 UNL     1     -23.946  25.738 -18.629  1.00  0.00     0.241 C 
HETATM   23  C11 UNL     1     -24.567  24.405 -19.045  1.00  0.00     0.173 C 
HETATM   24  C12 UNL     1     -25.872  24.315 -18.288  1.00  0.00     0.165 C 
HETATM   25  C13 UNL     1     -26.857  25.216 -18.968  1.00  0.00     0.286 C 
HETATM   26  N7  UNL     1     -25.944  25.305 -17.206  1.00  0.00    -0.037 NA
BRANCH  22  27
HETATM   27  N6  UNL     1     -22.884  26.063 -19.559  1.00  0.00    -0.071 N 
ATOM     28  H63 UNL     1     -23.231  26.191 -20.510  1.00  0.00     0.274 HD
ATOM     29  H62 UNL     1     -22.517  27.003 -19.410  1.00  0.00     0.274 HD
ATOM     30  H61 UNL     1     -22.154  25.353 -19.509  1.00  0.00     0.274 HD
ENDBRANCH  22  27
BRANCH  23  31
HETATM   31  O1  UNL     1     -24.851  24.551 -20.412  1.00  0.00    -0.392 OA
ATOM     32  H1  UNL     1     -24.812  23.669 -20.765  1.00  0.00     0.210 HD
ENDBRANCH  23  31
ENDBRANCH  19  20
ENDBRANCH   1  19
TORSDOF 13
ENDMDL
MODEL 3
REMARK VINA RESULT: -5.861264682      1.462      1.562
REMARK  13 active torsions:
REMARK  status: ('A' for Active; 'I' for Inactive)
REMARK    1  A    between atoms: N2_4  and  C1_6 
REMARK    2  A    between atoms: C1_6  and  C2_7 
REMARK    3  A    between atoms: C2_7  and  C3_8 
REMARK    4  A    between atoms: C3_8  and  N3_9 
REMARK    5  A    between atoms: N3_9  and  C4_11 
REMARK    6  A    between atoms: C4_11  and  C5_12 
REMARK    7  A    between atoms: C4_11  and  C8_19 
REMARK    8  A    between atoms: C5_12  and  C6_13 
REMARK    9  A    between atoms: C6_13  and  C7_14 
REMARK   10  A    between atoms: C7_14  and  N4_15 
REMARK   11  A    between atoms: C8_19  and  N5_20 
REMARK   12  A    between atoms: C10_22  and  N6_23 
REMARK   13  A    between atoms: C11_27  and  O1_28 
ROOT
HETATM    1  C4  UNL     1     -27.707  25.615 -16.970  1.00  0.00     0.104 C 
ENDROOT
BRANCH   1   2
HETATM    2  N3  UNL     1     -26.974  26.682 -16.325  1.00  0.00    -0.415 N 
ATOM      3  H3  UNL     1     -26.255  26.495 -15.628  1.00  0.00     0.153 HD
BRANCH   2   4
HETATM    4  C3  UNL     1     -27.309  28.002 -16.715  1.00  0.00     0.115 C 
BRANCH   4   5
HETATM    5  C2  UNL     1     -28.041  28.764 -15.603  1.00  0.00     0.040 C 
BRANCH   5   6
HETATM    6  C1  UNL     1     -28.347  30.129 -16.236  1.00  0.00     0.140 C 
BRANCH   6   7
HETATM    7  N2  UNL     1     -28.375  31.173 -15.271  1.00  0.00    -0.343 N 
HETATM    8  N1  UNL     1     -27.444  32.003 -15.260  1.00  0.00    -0.349 N 
ATOM      9  H12 UNL     1     -26.684  31.920 -15.935  1.00  0.00     0.176 HD
ATOM     10  H11 UNL     1     -27.465  32.752 -14.567  1.00  0.00     0.176 HD
ATOM     11  H2  UNL     1     -29.142  31.242 -14.603  1.00  0.00     0.179 HD
ENDBRANCH   6   7
ENDBRANCH   5   6
ENDBRANCH   4   5
ENDBRANCH   2   4
ENDBRANCH   1   2
BRANCH   1  12
HETATM   12  C5  UNL     1     -28.689  25.055 -15.945  1.00  0.00     0.028 C 
BRANCH  12  13
HETATM   13  C6  UNL     1     -28.093  23.775 -15.353  1.00  0.00     0.029 C 
BRANCH  13  14
HETATM   14  C7  UNL     1     -29.211  22.779 -15.168  1.00  0.00     0.230 C 
BRANCH  14  15
HETATM   15  N4  UNL     1     -29.199  22.147 -13.886  1.00  0.00    -0.079 N 
ATOM     16  H43 UNL     1     -28.934  21.166 -13.970  1.00  0.00     0.274 HD
ATOM     17  H42 UNL     1     -28.417  22.485 -13.324  1.00  0.00     0.274 HD
ATOM     18  H41 UNL     1     -30.079  22.244 -13.380  1.00  0.00     0.274 HD
ENDBRANCH  14  15
ENDBRANCH  13  14
ENDBRANCH  12  13
ENDBRANCH   1  12
BRANCH   1  19
HETATM   19  C8  UNL     1     -26.764  24.548 -17.448  1.00  0.00     0.285 C 
BRANCH  19  20
HETATM   20  N5  UNL     1     -25.929  24.858 -18.527  1.00  0.00     0.017 N 
HETATM   21  C9  UNL     1     -26.656  25.176 -19.767  1.00  0.00     0.295 C 
HETATM   22  C10 UNL     1     -25.760  25.908 -20.736  1.00  0.00     0.241 C 
HETATM   23  C11 UNL     1     -24.465  25.098 -20.778  1.00  0.00     0.173 C 
HETATM   24  C12 UNL     1     -24.105  24.840 -19.334  1.00  0.00     0.165 C 
HETATM   25  C13 UNL     1     -25.004  23.754 -18.826  1.00  0.00     0.286 C 
HETATM   26  N7  UNL     1     -24.872  25.694 -18.418  1.00  0.00    -0.037 NA
BRANCH  22  27
HETATM   27  N6  UNL     1     -26.357  25.895 -22.056  1.00  0.00    -0.071 N 
ATOM     28  H63 UNL     1     -27.325  25.573 -22.038  1.00  0.00     0.274 HD
ATOM     29  H62 UNL     1     -26.522  26.837 -22.413  1.00  0.00     0.274 HD
ATOM     30  H61 UNL     1     -25.779  25.342 -22.689  1.00  0.00     0.274 HD
ENDBRANCH  22  27
BRANCH  23  31
HETATM   31  O1  UNL     1     -24.822  23.879 -21.376  1.00  0.00    -0.392 OA
ATOM     32  H1  UNL     1     -25.039  24.101 -22.275  1.00  0.00     0.210 HD
ENDBRANCH  23  31
ENDBRANCH  19  20
ENDBRANCH   1  19
TORSDOF 13
ENDMDL
MODEL 4
REMARK VINA RESULT: -5.853150249      1.692      4.644
REMARK  13 active torsions:
REMARK  status: ('A' for Active; 'I' for Inactive)
REMARK    1  A    between atoms: N2_4  and  C1_6 
REMARK    2  A    between atoms: C1_6  and  C2_7 
REMARK    3  A    between atoms: C2_7  and  C3_8 
REMARK    4  A    between atoms: C3_8  and  N3_9 
REMARK    5  A    between atoms: N3_9  and  C4_11 
REMARK    6  A    between atoms: C4_11  and  C5_12 
REMARK    7  A    between atoms: C4_11  and  C8_19 
REMARK    8  A    between atoms: C5_12  and  C6_13 
REMARK    9  A    between atoms: C6_13  and  C7_14 
REMARK   10  A    between atoms: C7_14  and  N4_15 
REMARK   11  A    between atoms: C8_19  and  N5_20 
REMARK   12  A    between atoms: C10_22  and  N6_23 
REMARK   13  A    between atoms: C11_27  and  O1_28 
ROOT
HETATM    1  C4  UNL     1     -27.124  27.767 -16.163  1.00  0.00     0.104 C 
ENDROOT
BRANCH   1   2
HETATM    2  N3  UNL     1     -27.336  26.571 -15.378  1.00  0.00    -0.415 N 
ATOM      3  H3  UNL     1     -26.557  26.036 -14.995  1.00  0.00     0.153 HD
BRANCH   2   4
HETATM    4  C3  UNL     1     -28.681  26.184 -15.170  1.00  0.00     0.115 C 
BRANCH   4   5
HETATM    5  C2  UNL     1     -29.001  24.833 -15.822  1.00  0.00     0.040 C 
BRANCH   5   6
HETATM    6  C1  UNL     1     -27.848  23.926 -15.368  1.00  0.00     0.140 C 
BRANCH   6   7
HETATM    7  N2  UNL     1     -28.194  23.150 -14.229  1.00  0.00    -0.343 N 
HETATM    8  N1  UNL     1     -29.202  22.418 -14.286  1.00  0.00    -0.349 N 
ATOM      9  H12 UNL     1     -29.758  22.388 -15.141  1.00  0.00     0.176 HD
ATOM     10  H11 UNL     1     -29.450  21.861 -13.468  1.00  0.00     0.176 HD
ATOM     11  H2  UNL     1     -27.628  23.190 -13.381  1.00  0.00     0.179 HD
ENDBRANCH   6   7
ENDBRANCH   5   6
ENDBRANCH   4   5
ENDBRANCH   2   4
ENDBRANCH   1   2
BRANCH   1  12
HETATM   12  C5  UNL     1     -28.138  28.805 -15.691  1.00  0.00     0.028 C 
BRANCH  12  13
HETATM   13  C6  UNL     1     -28.229  29.908 -16.750  1.00  0.00     0.029 C 
BRANCH  13  14
HETATM   14  C7  UNL     1     -28.561  31.203 -16.051  1.00  0.00     0.230 C 
BRANCH  14  15
HETATM   15  N4  UNL     1     -27.516  31.665 -15.193  1.00  0.00    -0.079 N 
ATOM     16  H43 UNL     1     -26.768  32.099 -15.734  1.00  0.00     0.274 HD
ATOM     17  H42 UNL     1     -27.823  32.474 -14.652  1.00  0.00     0.274 HD
ATOM     18  H41 UNL     1     -27.146  30.938 -14.580  1.00  0.00     0.274 HD
ENDBRANCH  14  15
ENDBRANCH  13  14
ENDBRANCH  12  13
ENDBRANCH   1  12
BRANCH   1  19
HETATM   19  C8  UNL     1     -27.299  27.471 -17.625  1.00  0.00     0.285 C 
BRANCH  19  20
HETATM   20  N5  UNL     1     -26.354  26.638 -18.235  1.00  0.00     0.017 N 
HETATM   21  C9  UNL     1     -25.535  27.316 -19.253  1.00  0.00     0.295 C 
HETATM   22  C10 UNL     1     -24.286  26.521 -19.546  1.00  0.00     0.241 C 
HETATM   23  C11 UNL     1     -24.763  25.085 -19.760  1.00  0.00     0.173 C 
HETATM   24  C12 UNL     1     -25.691  24.793 -18.603  1.00  0.00     0.165 C 
HETATM   25  C13 UNL     1     -26.994  25.480 -18.879  1.00  0.00     0.286 C 
HETATM   26  N7  UNL     1     -25.564  25.793 -17.536  1.00  0.00    -0.037 NA
BRANCH  22  27
HETATM   27  N6  UNL     1     -23.684  26.996 -20.776  1.00  0.00    -0.071 N 
ATOM     28  H63 UNL     1     -23.450  26.232 -21.409  1.00  0.00     0.274 HD
ATOM     29  H62 UNL     1     -24.356  27.480 -21.371  1.00  0.00     0.274 HD
ATOM     30  H61 UNL     1     -22.874  27.577 -20.559  1.00  0.00     0.274 HD
ENDBRANCH  22  27
BRANCH  23  31
HETATM   31  O1  UNL     1     -25.520  25.129 -20.942  1.00  0.00    -0.392 OA
ATOM     32  H1  UNL     1     -25.205  24.398 -21.461  1.00  0.00     0.210 HD
ENDBRANCH  23  31
ENDBRANCH  19  20
ENDBRANCH   1  19
TORSDOF 13
ENDMDL
MODEL 5
REMARK VINA RESULT: -5.846039136      1.778      2.442
REMARK  13 active torsions:
REMARK  status: ('A' for Active; 'I' for Inactive)
REMARK    1  A    between atoms: N2_4  and  C1_6 
REMARK    2  A    between atoms: C1_6  and  C2_7 
REMARK    3  A    between atoms: C2_7  and  C3_8 
REMARK    4  A    between atoms: C3_8  and  N3_9 
REMARK    5  A    between atoms: N3_9  and  C4_11 
REMARK    6  A    between atoms: C4_11  and  C5_12 
REMARK    7  A    between atoms: C4_11  and  C8_19 
REMARK    8  A    between atoms: C5_12  and  C6_13 
REMARK    9  A    between atoms: C6_13  and  C7_14 
REMARK   10  A    between atoms: C7_14  and  N4_15 
REMARK   11  A    between atoms: C8_19  and  N5_20 
REMARK   12  A    between atoms: C10_22  and  N6_23 
REMARK   13  A    between atoms: C11_27  and  O1_28 
ROOT
HETATM    1  C4  UNL     1     -27.298  25.484 -17.901  1.00  0.00     0.104 C 
ENDROOT
BRANCH   1   2
HETATM    2  N3  UNL     1     -26.723  26.390 -16.933  1.00  0.00    -0.415 N 
ATOM      3  H3  UNL     1     -25.819  26.207 -16.498  1.00  0.00     0.153 HD
BRANCH   2   4
HETATM    4  C3  UNL     1     -27.481  27.544 -16.621  1.00  0.00     0.115 C 
BRANCH   4   5
HETATM    5  C2  UNL     1     -27.438  27.876 -15.123  1.00  0.00     0.040 C 
BRANCH   5   6
HETATM    6  C1  UNL     1     -28.750  27.291 -14.582  1.00  0.00     0.140 C 
BRANCH   6   7
HETATM    7  N2  UNL     1     -28.539  26.098 -13.838  1.00  0.00    -0.343 N 
HETATM    8  N1  UNL     1     -27.380  25.821 -13.468  1.00  0.00    -0.349 N 
ATOM      9  H12 UNL     1     -26.611  26.448 -13.703  1.00  0.00     0.176 HD
ATOM     10  H11 UNL     1     -27.229  24.965 -12.935  1.00  0.00     0.176 HD
ATOM     11  H2  UNL     1     -29.318  25.481 -13.611  1.00  0.00     0.179 HD
ENDBRANCH   6   7
ENDBRANCH   5   6
ENDBRANCH   4   5
ENDBRANCH   2   4
ENDBRANCH   1   2
BRANCH   1  12
HETATM   12  C5  UNL     1     -28.457  24.764 -17.217  1.00  0.00     0.028 C 
BRANCH  12  13
HETATM   13  C6  UNL     1     -27.882  23.655 -16.331  1.00  0.00     0.029 C 
BRANCH  13  14
HETATM   14  C7  UNL     1     -29.034  22.930 -15.681  1.00  0.00     0.230 C 
BRANCH  14  15
HETATM   15  N4  UNL     1     -28.802  22.620 -14.305  1.00  0.00    -0.079 N 
ATOM     16  H43 UNL     1     -28.368  21.702 -14.209  1.00  0.00     0.274 HD
ATOM     17  H42 UNL     1     -28.055  23.201 -13.924  1.00  0.00     0.274 HD
ATOM     18  H41 UNL     1     -29.642  22.686 -13.730  1.00  0.00     0.274 HD
ENDBRANCH  14  15
ENDBRANCH  13  14
ENDBRANCH  12  13
ENDBRANCH   1  12
BRANCH   1  19
HETATM   19  C8  UNL     1     -26.265  24.503 -18.379  1.00  0.00     0.285 C 
BRANCH  19  20
HETATM   20  N5  UNL     1     -25.510  24.855 -19.504  1.00  0.00     0.017 N 
HETATM   21  C9  UNL     1     -26.325  25.254 -20.663  1.00  0.00     0.295 C 
HETATM   22  C10 UNL     1     -25.491  26.020 -21.661  1.00  0.00     0.241 C 
HETATM   23  C11 UNL     1     -24.223  25.188 -21.849  1.00  0.00     0.173 C 
HETATM   24  C12 UNL     1     -23.756  24.844 -20.453  1.00  0.00     0.165 C 
HETATM   25  C13 UNL     1     -24.638  23.751 -19.934  1.00  0.00     0.286 C 
HETATM   26  N7  UNL     1     -24.429  25.662 -19.436  1.00  0.00    -0.037 NA
BRANCH  22  27
HETATM   27  N6  UNL     1     -26.190  26.091 -22.928  1.00  0.00    -0.071 N 
ATOM     28  H63 UNL     1     -26.786  25.278 -23.085  1.00  0.00     0.274 HD
ATOM     29  H62 UNL     1     -26.916  26.808 -22.928  1.00  0.00     0.274 HD
ATOM     30  H61 UNL     1     -25.518  26.225 -23.684  1.00  0.00     0.274 HD
ENDBRANCH  22  27
BRANCH  23  31
HETATM   31  O1  UNL     1     -24.656  24.010 -22.480  1.00  0.00    -0.392 OA
ATOM     32  H1  UNL     1     -25.020  24.297 -23.310  1.00  0.00     0.210 HD
ENDBRANCH  23  31
ENDBRANCH  19  20
ENDBRANCH   1  19
TORSDOF 13
ENDMDL
