MODEL 1
REMARK VINA RESULT: -7.041418614      0.000      0.000
REMARK  3 active torsions:
REMARK  status: ('A' for Active; 'I' for Inactive)
REMARK    1  A    between atoms: C9_14  and  C10_15 
REMARK    2  A    between atoms: C10_15  and  C11_16 
REMARK    3  A    between atoms: C11_16  and  N2_17 
ROOT
HETATM    1  C1  UNL     1      91.484  19.045  64.523  1.00  0.00     0.068 C 
HETATM    2  C2  UNL     1      92.268  20.273  64.875  1.00  0.00     0.013 A 
HETATM    3  N1  UNL     1      93.137  20.445  65.858  1.00  0.00    -0.359 N 
ATOM      4  H1  UNL     1      93.399  19.727  66.534  1.00  0.00     0.166 HD
HETATM    5  C3  UNL     1      93.631  21.710  65.842  1.00  0.00     0.046 A 
HETATM    6  C4  UNL     1      94.545  22.334  66.653  1.00  0.00     0.056 A 
HETATM    7  C5  UNL     1      94.913  23.641  66.454  1.00  0.00     0.059 A 
HETATM    8 CL1  UNL     1      96.088  24.444  67.502  1.00  0.00    -0.082 Cl
HETATM    9  C6  UNL     1      94.318  24.291  65.401  1.00  0.00     0.078 A 
HETATM   10 CL2  UNL     1      94.735  25.970  65.083  1.00  0.00    -0.081 Cl
HETATM   11  C7  UNL     1      93.395  23.714  64.554  1.00  0.00     0.070 A 
HETATM   12 CL3  UNL     1      92.687  24.575  63.229  1.00  0.00    -0.081 Cl
HETATM   13  C8  UNL     1      93.031  22.385  64.772  1.00  0.00     0.022 A 
HETATM   14  C9  UNL     1      92.185  21.490  64.173  1.00  0.00    -0.020 A 
ENDROOT
BRANCH  14  15
HETATM   15  C10 UNL     1      91.328  21.704  63.008  1.00  0.00     0.072 C 
BRANCH  15  16
HETATM   16  C11 UNL     1      92.052  21.369  61.701  1.00  0.00     0.277 C 
BRANCH  16  17
HETATM   17  N2  UNL     1      91.448  20.199  61.140  1.00  0.00     0.088 N 
HETATM   18  C12 UNL     1      90.818  20.381  59.871  1.00  0.00     0.272 C 
HETATM   19  C13 UNL     1      90.534  18.950  59.451  1.00  0.00     0.032 C 
HETATM   20  C14 UNL     1      91.811  18.258  59.885  1.00  0.00     0.032 C 
HETATM   21  C15 UNL     1      92.343  19.081  61.042  1.00  0.00     0.272 C 
ENDBRANCH  16  17
ENDBRANCH  15  16
ENDBRANCH  14  15
TORSDOF 3
ENDMDL
MODEL 2
REMARK VINA RESULT: -6.818118657      1.757      2.076
REMARK  3 active torsions:
REMARK  status: ('A' for Active; 'I' for Inactive)
REMARK    1  A    between atoms: C9_14  and  C10_15 
REMARK    2  A    between atoms: C10_15  and  C11_16 
REMARK    3  A    between atoms: C11_16  and  N2_17 
ROOT
HETATM    1  C1  UNL     1      91.160  18.915  64.424  1.00  0.00     0.068 C 
HETATM    2  C2  UNL     1      92.114  20.068  64.506  1.00  0.00     0.013 A 
HETATM    3  N1  UNL     1      92.048  21.143  65.275  1.00  0.00    -0.359 N 
ATOM      4  H1  UNL     1      91.303  21.333  65.945  1.00  0.00     0.166 HD
HETATM    5  C3  UNL     1      93.110  21.958  65.047  1.00  0.00     0.046 A 
HETATM    6  C4  UNL     1      93.460  23.163  65.602  1.00  0.00     0.056 A 
HETATM    7  C5  UNL     1      94.599  23.829  65.225  1.00  0.00     0.059 A 
HETATM    8 CL1  UNL     1      95.047  25.382  65.939  1.00  0.00    -0.082 Cl
HETATM    9  C6  UNL     1      95.369  23.226  64.261  1.00  0.00     0.078 A 
HETATM   10 CL2  UNL     1      96.843  24.019  63.720  1.00  0.00    -0.081 Cl
HETATM   11  C7  UNL     1      95.067  22.018  63.669  1.00  0.00     0.070 A 
HETATM   12 CL3  UNL     1      96.082  21.293  62.468  1.00  0.00    -0.081 Cl
HETATM   13  C8  UNL     1      93.904  21.355  64.064  1.00  0.00     0.022 A 
HETATM   14  C9  UNL     1      93.284  20.181  63.730  1.00  0.00    -0.020 A 
ENDROOT
BRANCH  14  15
HETATM   15  C10 UNL     1      93.714  19.182  62.753  1.00  0.00     0.072 C 
BRANCH  15  16
HETATM   16  C11 UNL     1      93.443  19.639  61.317  1.00  0.00     0.277 C 
BRANCH  16  17
HETATM   17  N2  UNL     1      92.059  19.419  61.029  1.00  0.00     0.088 N 
HETATM   18  C12 UNL     1      91.294  20.593  60.754  1.00  0.00     0.272 C 
HETATM   19  C13 UNL     1      89.991  20.008  60.241  1.00  0.00     0.032 C 
HETATM   20  C14 UNL     1      90.499  18.874  59.373  1.00  0.00     0.032 C 
HETATM   21  C15 UNL     1      91.835  18.476  59.969  1.00  0.00     0.272 C 
ENDBRANCH  16  17
ENDBRANCH  15  16
ENDBRANCH  14  15
TORSDOF 3
ENDMDL
MODEL 3
REMARK VINA RESULT: -6.543043809      1.745      1.967
REMARK  3 active torsions:
REMARK  status: ('A' for Active; 'I' for Inactive)
REMARK    1  A    between atoms: C9_14  and  C10_15 
REMARK    2  A    between atoms: C10_15  and  C11_16 
REMARK    3  A    between atoms: C11_16  and  N2_17 
ROOT
HETATM    1  C1  UNL     1      91.559  19.771  64.833  1.00  0.00     0.068 C 
HETATM    2  C2  UNL     1      92.817  20.559  65.047  1.00  0.00     0.013 A 
HETATM    3  N1  UNL     1      93.492  20.747  66.169  1.00  0.00    -0.359 N 
ATOM      4  H1  UNL     1      93.233  20.358  67.076  1.00  0.00     0.166 HD
HETATM    5  C3  UNL     1      94.580  21.529  65.945  1.00  0.00     0.046 A 
HETATM    6  C4  UNL     1      95.559  21.981  66.794  1.00  0.00     0.056 A 
HETATM    7  C5  UNL     1      96.590  22.771  66.351  1.00  0.00     0.059 A 
HETATM    8 CL1  UNL     1      97.848  23.355  67.446  1.00  0.00    -0.082 Cl
HETATM    9  C6  UNL     1      96.590  23.086  65.015  1.00  0.00     0.078 A 
HETATM   10 CL2  UNL     1      97.877  24.098  64.372  1.00  0.00    -0.081 Cl
HETATM   11  C7  UNL     1      95.634  22.660  64.117  1.00  0.00     0.070 A 
HETATM   12 CL3  UNL     1      95.690  23.072  62.436  1.00  0.00    -0.081 Cl
HETATM   13  C8  UNL     1      94.592  21.858  64.584  1.00  0.00     0.022 A 
HETATM   14  C9  UNL     1      93.495  21.254  64.028  1.00  0.00    -0.020 A 
ENDROOT
BRANCH  14  15
HETATM   15  C10 UNL     1      93.060  21.287  62.633  1.00  0.00     0.072 C 
BRANCH  15  16
HETATM   16  C11 UNL     1      93.399  19.986  61.902  1.00  0.00     0.277 C 
BRANCH  16  17
HETATM   17  N2  UNL     1      92.491  19.838  60.805  1.00  0.00     0.088 N 
HETATM   18  C12 UNL     1      92.193  18.493  60.431  1.00  0.00     0.272 C 
HETATM   19  C13 UNL     1      91.039  18.682  59.463  1.00  0.00     0.032 C 
HETATM   20  C14 UNL     1      90.243  19.765  60.163  1.00  0.00     0.032 C 
HETATM   21  C15 UNL     1      91.253  20.541  60.986  1.00  0.00     0.272 C 
ENDBRANCH  16  17
ENDBRANCH  15  16
ENDBRANCH  14  15
TORSDOF 3
ENDMDL
MODEL 4
REMARK VINA RESULT: -6.367906189      0.710      1.079
REMARK  3 active torsions:
REMARK  status: ('A' for Active; 'I' for Inactive)
REMARK    1  A    between atoms: C9_14  and  C10_15 
REMARK    2  A    between atoms: C10_15  and  C11_16 
REMARK    3  A    between atoms: C11_16  and  N2_17 
ROOT
HETATM    1  C1  UNL     1      91.727  19.059  64.693  1.00  0.00     0.068 C 
HETATM    2  C2  UNL     1      92.384  20.386  64.926  1.00  0.00     0.013 A 
HETATM    3  N1  UNL     1      92.972  20.835  66.022  1.00  0.00    -0.359 N 
ATOM      4  H1  UNL     1      93.060  20.310  66.892  1.00  0.00     0.166 HD
HETATM    5  C3  UNL     1      93.443  22.094  65.829  1.00  0.00     0.046 A 
HETATM    6  C4  UNL     1      94.114  22.948  66.668  1.00  0.00     0.056 A 
HETATM    7  C5  UNL     1      94.510  24.197  66.262  1.00  0.00     0.059 A 
HETATM    8 CL1  UNL     1      95.372  25.296  67.345  1.00  0.00    -0.082 Cl
HETATM    9  C6  UNL     1      94.198  24.549  64.972  1.00  0.00     0.078 A 
HETATM   10 CL2  UNL     1      94.668  26.136  64.378  1.00  0.00    -0.081 Cl
HETATM   11  C7  UNL     1      93.527  23.733  64.085  1.00  0.00     0.070 A 
HETATM   12 CL3  UNL     1      93.173  24.220  62.462  1.00  0.00    -0.081 Cl
HETATM   13  C8  UNL     1      93.131  22.466  64.515  1.00  0.00     0.022 A 
HETATM   14  C9  UNL     1      92.473  21.403  63.956  1.00  0.00    -0.020 A 
ENDROOT
BRANCH  14  15
HETATM   15  C10 UNL     1      91.941  21.287  62.600  1.00  0.00     0.072 C 
BRANCH  15  16
HETATM   16  C11 UNL     1      92.835  20.420  61.710  1.00  0.00     0.277 C 
BRANCH  16  17
HETATM   17  N2  UNL     1      92.084  20.037  60.554  1.00  0.00     0.088 N 
HETATM   18  C12 UNL     1      92.022  18.634  60.298  1.00  0.00     0.272 C 
HETATM   19  C13 UNL     1      90.967  18.557  59.210  1.00  0.00     0.032 C 
HETATM   20  C14 UNL     1      89.953  19.565  59.712  1.00  0.00     0.032 C 
HETATM   21  C15 UNL     1      90.746  20.557  60.541  1.00  0.00     0.272 C 
ENDBRANCH  16  17
ENDBRANCH  15  16
ENDBRANCH  14  15
TORSDOF 3
ENDMDL
MODEL 5
REMARK VINA RESULT: -6.347723982      1.895      2.061
REMARK  3 active torsions:
REMARK  status: ('A' for Active; 'I' for Inactive)
REMARK    1  A    between atoms: C9_14  and  C10_15 
REMARK    2  A    between atoms: C10_15  and  C11_16 
REMARK    3  A    between atoms: C11_16  and  N2_17 
ROOT
HETATM    1  C1  UNL     1      91.696  19.732  64.761  1.00  0.00     0.068 C 
HETATM    2  C2  UNL     1      92.905  20.569  65.055  1.00  0.00     0.013 A 
HETATM    3  N1  UNL     1      93.430  20.878  66.230  1.00  0.00    -0.359 N 
ATOM      4  H1  UNL     1      93.063  20.569  67.130  1.00  0.00     0.166 HD
HETATM    5  C3  UNL     1      94.526  21.663  66.070  1.00  0.00     0.046 A 
HETATM    6  C4  UNL     1      95.383  22.218  66.988  1.00  0.00     0.056 A 
HETATM    7  C5  UNL     1      96.451  22.989  66.604  1.00  0.00     0.059 A 
HETATM    8 CL1  UNL     1      97.551  23.705  67.788  1.00  0.00    -0.082 Cl
HETATM    9  C6  UNL     1      96.617  23.177  65.255  1.00  0.00     0.078 A 
HETATM   10 CL2  UNL     1      97.961  24.159  64.684  1.00  0.00    -0.081 Cl
HETATM   11  C7  UNL     1      95.789  22.645  64.289  1.00  0.00     0.070 A 
HETATM   12 CL3  UNL     1      96.054  22.900  62.597  1.00  0.00    -0.081 Cl
HETATM   13  C8  UNL     1      94.707  21.864  64.696  1.00  0.00     0.022 A 
HETATM   14  C9  UNL     1      93.699  21.183  64.068  1.00  0.00    -0.020 A 
ENDROOT
BRANCH  14  15
HETATM   15  C10 UNL     1      93.445  21.075  62.632  1.00  0.00     0.072 C 
BRANCH  15  16
HETATM   16  C11 UNL     1      94.196  19.896  62.010  1.00  0.00     0.277 C 
BRANCH  16  17
HETATM   17  N2  UNL     1      93.234  18.956  61.521  1.00  0.00     0.088 N 
HETATM   18  C12 UNL     1      92.355  19.447  60.507  1.00  0.00     0.272 C 
HETATM   19  C13 UNL     1      91.675  18.175  60.036  1.00  0.00     0.032 C 
HETATM   20  C14 UNL     1      92.841  17.207  60.018  1.00  0.00     0.032 C 
HETATM   21  C15 UNL     1      93.814  17.727  61.058  1.00  0.00     0.272 C 
ENDBRANCH  16  17
ENDBRANCH  15  16
ENDBRANCH  14  15
TORSDOF 3
ENDMDL
