MODEL 1
REMARK VINA RESULT: -6.897367956      0.000      0.000
REMARK  3 active torsions:
REMARK  status: ('A' for Active; 'I' for Inactive)
REMARK    1  A    between atoms: C3_4  and  C4_5 
REMARK    2  A    between atoms: C4_5  and  C5_6 
REMARK       I    between atoms: C5_6  and  N1_8 
REMARK    3  A    between atoms: N1_8  and  C6_10 
ROOT
HETATM    1  C4  UNL     1      93.224  23.608  63.055  1.00  0.00     0.112 C 
ENDROOT
BRANCH   1   2
HETATM    2  C3  UNL     1      93.577  23.530  64.517  1.00  0.00     0.058 C 
HETATM    3  C2  UNL     1      94.372  22.283  64.890  1.00  0.00     0.050 C 
HETATM    4  C1  UNL     1      93.570  21.145  65.413  1.00  0.00     0.034 C 
HETATM    5 CL1  UNL     1      95.431  21.740  63.562  1.00  0.00    -0.118 Cl
HETATM    6  C13 UNL     1      95.093  23.140  65.870  1.00  0.00     0.009 C 
HETATM    7  C12 UNL     1      94.821  24.306  64.920  1.00  0.00     0.128 C 
HETATM    8  C14 UNL     1      96.537  22.744  65.986  1.00  0.00     0.020 C 
HETATM    9  C15 UNL     1      94.450  23.382  67.189  1.00  0.00     0.020 C 
HETATM   10 CL2  UNL     1      96.021  24.479  63.632  1.00  0.00    -0.100 Cl
HETATM   11 CL3  UNL     1      94.527  25.841  65.716  1.00  0.00    -0.100 Cl
ENDBRANCH   1   2
BRANCH   1  12
HETATM   12  C5  UNL     1      92.190  22.620  62.734  1.00  0.00     0.218 C 
HETATM   13  O1  UNL     1      90.995  22.714  63.179  1.00  0.00    -0.274 OA
HETATM   14  N1  UNL     1      92.429  21.488  61.908  1.00  0.00    -0.356 N 
ATOM     15  H1  UNL     1      93.369  21.369  61.528  1.00  0.00     0.162 HD
BRANCH  14  16
HETATM   16  C6  UNL     1      91.442  20.495  61.569  1.00  0.00     0.084 C 
HETATM   17  C7  UNL     1      91.834  19.108  61.983  1.00  0.00     0.025 C 
HETATM   18  C8  UNL     1      92.483  18.314  60.883  1.00  0.00     0.002 C 
HETATM   19  C9  UNL     1      91.657  18.284  59.620  1.00  0.00     0.000 C 
HETATM   20  C10 UNL     1      90.541  19.298  59.647  1.00  0.00     0.002 C 
HETATM   21  C11 UNL     1      91.130  20.607  60.112  1.00  0.00     0.025 C 
ENDBRANCH  14  16
ENDBRANCH   1  12
TORSDOF 3
ENDMDL
MODEL 2
REMARK VINA RESULT: -6.760432509      1.779      2.960
REMARK  3 active torsions:
REMARK  status: ('A' for Active; 'I' for Inactive)
REMARK    1  A    between atoms: C3_4  and  C4_5 
REMARK    2  A    between atoms: C4_5  and  C5_6 
REMARK       I    between atoms: C5_6  and  N1_8 
REMARK    3  A    between atoms: N1_8  and  C6_10 
ROOT
HETATM    1  C4  UNL     1      92.681  23.776  62.964  1.00  0.00     0.112 C 
ENDROOT
BRANCH   1   2
HETATM    2  C3  UNL     1      94.052  23.637  62.358  1.00  0.00     0.058 C 
HETATM    3  C2  UNL     1      94.940  24.861  62.565  1.00  0.00     0.050 C 
HETATM    4  C1  UNL     1      94.957  25.836  61.442  1.00  0.00     0.034 C 
HETATM    5 CL1  UNL     1      94.592  25.690  64.104  1.00  0.00    -0.118 Cl
HETATM    6  C13 UNL     1      96.078  23.909  62.682  1.00  0.00     0.009 C 
HETATM    7  C12 UNL     1      95.064  22.898  63.219  1.00  0.00     0.128 C 
HETATM    8  C14 UNL     1      97.088  24.384  63.687  1.00  0.00     0.020 C 
HETATM    9  C15 UNL     1      96.700  23.407  61.428  1.00  0.00     0.020 C 
HETATM   10 CL2  UNL     1      94.773  23.027  64.959  1.00  0.00    -0.100 Cl
HETATM   11 CL3  UNL     1      95.378  21.236  62.755  1.00  0.00    -0.100 Cl
ENDBRANCH   1   2
BRANCH   1  12
HETATM   12  C5  UNL     1      91.944  22.516  62.834  1.00  0.00     0.218 C 
HETATM   13  O1  UNL     1      91.189  22.068  63.764  1.00  0.00    -0.274 OA
HETATM   14  N1  UNL     1      92.008  21.696  61.674  1.00  0.00    -0.356 N 
ATOM     15  H1  UNL     1      92.597  22.012  60.903  1.00  0.00     0.162 HD
BRANCH  14  16
HETATM   16  C6  UNL     1      91.299  20.453  61.506  1.00  0.00     0.084 C 
HETATM   17  C7  UNL     1      92.054  19.269  62.034  1.00  0.00     0.025 C 
HETATM   18  C8  UNL     1      92.845  18.543  60.981  1.00  0.00     0.002 C 
HETATM   19  C9  UNL     1      92.007  18.156  59.786  1.00  0.00     0.000 C 
HETATM   20  C10 UNL     1      90.668  18.849  59.784  1.00  0.00     0.002 C 
HETATM   21  C11 UNL     1      90.913  20.310  60.070  1.00  0.00     0.025 C 
ENDBRANCH  14  16
ENDBRANCH   1  12
TORSDOF 3
ENDMDL
MODEL 3
REMARK VINA RESULT: -6.712631395      1.294      1.642
REMARK  3 active torsions:
REMARK  status: ('A' for Active; 'I' for Inactive)
REMARK    1  A    between atoms: C3_4  and  C4_5 
REMARK    2  A    between atoms: C4_5  and  C5_6 
REMARK       I    between atoms: C5_6  and  N1_8 
REMARK    3  A    between atoms: N1_8  and  C6_10 
ROOT
HETATM    1  C4  UNL     1      93.044  23.511  63.284  1.00  0.00     0.112 C 
ENDROOT
BRANCH   1   2
HETATM    2  C3  UNL     1      94.241  23.021  64.054  1.00  0.00     0.058 C 
HETATM    3  C2  UNL     1      95.515  22.937  63.219  1.00  0.00     0.050 C 
HETATM    4  C1  UNL     1      95.815  21.600  62.642  1.00  0.00     0.034 C 
HETATM    5 CL1  UNL     1      95.570  24.190  61.952  1.00  0.00    -0.118 Cl
HETATM    6  C13 UNL     1      96.246  23.348  64.449  1.00  0.00     0.009 C 
HETATM    7  C12 UNL     1      94.970  24.087  64.856  1.00  0.00     0.128 C 
HETATM    8  C14 UNL     1      97.412  24.235  64.123  1.00  0.00     0.020 C 
HETATM    9  C15 UNL     1      96.578  22.295  65.446  1.00  0.00     0.020 C 
HETATM   10 CL2  UNL     1      94.840  25.718  64.185  1.00  0.00    -0.100 Cl
HETATM   11 CL3  UNL     1      94.647  24.088  66.580  1.00  0.00    -0.100 Cl
ENDBRANCH   1   2
BRANCH   1  12
HETATM   12  C5  UNL     1      92.131  22.398  63.012  1.00  0.00     0.218 C 
HETATM   13  O1  UNL     1      91.169  22.095  63.799  1.00  0.00    -0.274 OA
HETATM   14  N1  UNL     1      92.237  21.572  61.859  1.00  0.00    -0.356 N 
ATOM     15  H1  UNL     1      92.988  21.775  61.199  1.00  0.00     0.162 HD
BRANCH  14  16
HETATM   16  C6  UNL     1      91.360  20.470  61.554  1.00  0.00     0.084 C 
HETATM   17  C7  UNL     1      91.905  19.145  61.996  1.00  0.00     0.025 C 
HETATM   18  C8  UNL     1      92.627  18.399  60.908  1.00  0.00     0.002 C 
HETATM   19  C9  UNL     1      91.799  18.248  59.655  1.00  0.00     0.000 C 
HETATM   20  C10 UNL     1      90.579  19.134  59.672  1.00  0.00     0.002 C 
HETATM   21  C11 UNL     1      91.025  20.511  60.099  1.00  0.00     0.025 C 
ENDBRANCH  14  16
ENDBRANCH   1  12
TORSDOF 3
ENDMDL
MODEL 4
REMARK VINA RESULT: -6.416248668      1.700      2.786
REMARK  3 active torsions:
REMARK  status: ('A' for Active; 'I' for Inactive)
REMARK    1  A    between atoms: C3_4  and  C4_5 
REMARK    2  A    between atoms: C4_5  and  C5_6 
REMARK       I    between atoms: C5_6  and  N1_8 
REMARK    3  A    between atoms: N1_8  and  C6_10 
ROOT
HETATM    1  C4  UNL     1      93.815  21.479  64.768  1.00  0.00     0.112 C 
ENDROOT
BRANCH   1   2
HETATM    2  C3  UNL     1      94.470  22.369  63.745  1.00  0.00     0.058 C 
HETATM    3  C2  UNL     1      94.505  23.840  64.147  1.00  0.00     0.050 C 
HETATM    4  C1  UNL     1      93.399  24.677  63.610  1.00  0.00     0.034 C 
HETATM    5 CL1  UNL     1      94.646  24.051  65.911  1.00  0.00    -0.118 Cl
HETATM    6  C13 UNL     1      95.827  23.906  63.465  1.00  0.00     0.009 C 
HETATM    7  C12 UNL     1      95.987  22.428  63.821  1.00  0.00     0.128 C 
HETATM    8  C14 UNL     1      96.767  24.833  64.180  1.00  0.00     0.020 C 
HETATM    9  C15 UNL     1      95.841  24.090  61.989  1.00  0.00     0.020 C 
HETATM   10 CL2  UNL     1      96.647  22.146  65.438  1.00  0.00    -0.100 Cl
HETATM   11 CL3  UNL     1      96.841  21.477  62.620  1.00  0.00    -0.100 Cl
ENDBRANCH   1   2
BRANCH   1  12
HETATM   12  C5  UNL     1      92.698  20.752  64.160  1.00  0.00     0.218 C 
HETATM   13  O1  UNL     1      91.769  20.219  64.859  1.00  0.00    -0.274 OA
HETATM   14  N1  UNL     1      92.556  20.582  62.755  1.00  0.00    -0.356 N 
ATOM     15  H1  UNL     1      93.272  20.990  62.154  1.00  0.00     0.162 HD
BRANCH  14  16
HETATM   16  C6  UNL     1      91.473  19.875  62.119  1.00  0.00     0.084 C 
HETATM   17  C7  UNL     1      91.862  18.507  61.642  1.00  0.00     0.025 C 
HETATM   18  C8  UNL     1      92.261  18.467  60.192  1.00  0.00     0.002 C 
HETATM   19  C9  UNL     1      91.220  19.076  59.285  1.00  0.00     0.000 C 
HETATM   20  C10 UNL     1      90.180  19.852  60.053  1.00  0.00     0.002 C 
HETATM   21  C11 UNL     1      90.909  20.736  61.036  1.00  0.00     0.025 C 
ENDBRANCH  14  16
ENDBRANCH   1  12
TORSDOF 3
ENDMDL
MODEL 5
REMARK VINA RESULT: -6.393199025      3.722      5.557
REMARK  3 active torsions:
REMARK  status: ('A' for Active; 'I' for Inactive)
REMARK    1  A    between atoms: C3_4  and  C4_5 
REMARK    2  A    between atoms: C4_5  and  C5_6 
REMARK       I    between atoms: C5_6  and  N1_8 
REMARK    3  A    between atoms: N1_8  and  C6_10 
ROOT
HETATM    1  C4  UNL     1      94.825  20.941  62.654  1.00  0.00     0.112 C 
ENDROOT
BRANCH   1   2
HETATM    2  C3  UNL     1      93.612  21.809  62.863  1.00  0.00     0.058 C 
HETATM    3  C2  UNL     1      92.334  21.021  63.133  1.00  0.00     0.050 C 
HETATM    4  C1  UNL     1      91.476  20.765  61.945  1.00  0.00     0.034 C 
HETATM    5 CL1  UNL     1      92.655  19.501  64.008  1.00  0.00    -0.118 Cl
HETATM    6  C13 UNL     1      91.947  22.127  64.050  1.00  0.00     0.009 C 
HETATM    7  C12 UNL     1      93.444  22.348  64.274  1.00  0.00     0.128 C 
HETATM    8  C14 UNL     1      91.200  21.612  65.246  1.00  0.00     0.020 C 
HETATM    9  C15 UNL     1      91.326  23.340  63.455  1.00  0.00     0.020 C 
HETATM   10 CL2  UNL     1      94.141  21.321  65.535  1.00  0.00    -0.100 Cl
HETATM   11 CL3  UNL     1      93.906  24.025  64.502  1.00  0.00    -0.100 Cl
ENDBRANCH   1   2
BRANCH   1  12
HETATM   12  C5  UNL     1      95.984  21.770  62.313  1.00  0.00     0.218 C 
HETATM   13  O1  UNL     1      97.162  21.502  62.732  1.00  0.00    -0.274 OA
HETATM   14  N1  UNL     1      95.895  22.929  61.494  1.00  0.00    -0.356 N 
ATOM     15  H1  UNL     1      94.975  23.184  61.134  1.00  0.00     0.162 HD
BRANCH  14  16
HETATM   16  C6  UNL     1      97.008  23.770  61.136  1.00  0.00     0.084 C 
HETATM   17  C7  UNL     1      96.725  25.232  61.314  1.00  0.00     0.025 C 
HETATM   18  C8  UNL     1      96.271  25.914  60.053  1.00  0.00     0.002 C 
HETATM   19  C9  UNL     1      97.214  25.688  58.897  1.00  0.00     0.000 C 
HETATM   20  C10 UNL     1      98.210  24.593  59.183  1.00  0.00     0.002 C 
HETATM   21  C11 UNL     1      97.447  23.422  59.751  1.00  0.00     0.025 C 
ENDBRANCH  14  16
ENDBRANCH   1  12
TORSDOF 3
ENDMDL
