MODEL 1
REMARK VINA RESULT: -7.069514316      0.000      0.000
REMARK  3 active torsions:
REMARK  status: ('A' for Active; 'I' for Inactive)
REMARK    1  A    between atoms: C3_4  and  C4_5 
REMARK    2  A    between atoms: C4_5  and  N1_6 
REMARK    3  A    between atoms: C4_5  and  C8_13 
ROOT
HETATM    1  C4  UNL     1      92.907  18.639  60.925  1.00  0.00     0.120 C 
ENDROOT
BRANCH   1   2
HETATM    2  C3  UNL     1      93.074  19.375  62.167  1.00  0.00    -0.030 A 
HETATM    3  C2  UNL     1      92.201  19.310  63.221  1.00  0.00     0.053 A 
HETATM    4  C1  UNL     1      92.444  20.047  64.359  1.00  0.00     0.140 A 
HETATM    5  F1  UNL     1      91.573  19.990  65.426  1.00  0.00    -0.204 F 
HETATM    6  C16 UNL     1      93.539  20.859  64.486  1.00  0.00     0.094 A 
HETATM    7  C15 UNL     1      94.430  20.941  63.441  1.00  0.00     0.059 A 
HETATM    8 CL2  UNL     1      93.840  21.793  65.935  1.00  0.00    -0.079 Cl
HETATM    9  C14 UNL     1      94.169  20.196  62.315  1.00  0.00     0.035 A 
HETATM   10 CL1  UNL     1      95.867  21.973  63.544  1.00  0.00    -0.082 Cl
ENDBRANCH   1   2
BRANCH   1  11
HETATM   11  N1  UNL     1      92.864  17.212  61.184  1.00  0.00    -0.371 N 
HETATM   12  C5  UNL     1      93.683  16.386  60.631  1.00  0.00     0.074 C 
HETATM   13  C6  UNL     1      93.912  14.940  60.665  1.00  0.00     0.095 C 
HETATM   14  N2  UNL     1      94.742  16.545  59.725  1.00  0.00    -0.380 N 
HETATM   15  C7  UNL     1      95.308  15.302  60.202  1.00  0.00     0.128 C 
ATOM     16  H2  UNL     1      95.003  17.242  59.027  1.00  0.00     0.160 HD
ATOM     17  H1  UNL     1      92.160  16.850  61.828  1.00  0.00     0.161 HD
ENDBRANCH   1  11
BRANCH   1  18
HETATM   18  C8  UNL     1      91.786  19.053  60.044  1.00  0.00     0.013 C 
HETATM   19  C9  UNL     1      90.581  18.169  60.087  1.00  0.00     0.007 C 
HETATM   20  C10 UNL     1      89.494  18.826  59.227  1.00  0.00     0.000 C 
HETATM   21  C11 UNL     1      90.085  19.795  58.248  1.00  0.00     0.000 C 
HETATM   22  C12 UNL     1      90.784  20.954  58.892  1.00  0.00     0.000 C 
HETATM   23  C13 UNL     1      91.423  20.517  60.193  1.00  0.00     0.007 C 
ENDBRANCH   1  18
TORSDOF 3
ENDMDL
MODEL 2
REMARK VINA RESULT: -7.009719378      4.199      6.345
REMARK  3 active torsions:
REMARK  status: ('A' for Active; 'I' for Inactive)
REMARK    1  A    between atoms: C3_4  and  C4_5 
REMARK    2  A    between atoms: C4_5  and  N1_6 
REMARK    3  A    between atoms: C4_5  and  C8_13 
ROOT
HETATM    1  C4  UNL     1      93.876  22.274  63.401  1.00  0.00     0.120 C 
ENDROOT
BRANCH   1   2
HETATM    2  C3  UNL     1      93.448  21.139  62.602  1.00  0.00    -0.030 A 
HETATM    3  C2  UNL     1      94.209  20.018  62.391  1.00  0.00     0.053 A 
HETATM    4  C1  UNL     1      93.717  18.992  61.615  1.00  0.00     0.140 A 
HETATM    5  F1  UNL     1      94.473  17.860  61.397  1.00  0.00    -0.204 F 
HETATM    6  C16 UNL     1      92.479  19.041  61.033  1.00  0.00     0.094 A 
HETATM    7  C15 UNL     1      91.697  20.156  61.230  1.00  0.00     0.059 A 
HETATM    8 CL2  UNL     1      91.863  17.734  60.048  1.00  0.00    -0.079 Cl
HETATM    9  C14 UNL     1      92.207  21.169  62.009  1.00  0.00     0.035 A 
HETATM   10 CL1  UNL     1      90.085  20.281  60.504  1.00  0.00    -0.082 Cl
ENDBRANCH   1   2
BRANCH   1  11
HETATM   11  N1  UNL     1      95.218  22.061  63.908  1.00  0.00    -0.371 N 
HETATM   12  C5  UNL     1      95.506  22.154  65.160  1.00  0.00     0.074 C 
HETATM   13  C6  UNL     1      96.708  22.009  65.984  1.00  0.00     0.095 C 
HETATM   14  N2  UNL     1      94.745  22.447  66.300  1.00  0.00    -0.380 N 
HETATM   15  C7  UNL     1      95.725  21.754  67.107  1.00  0.00     0.128 C 
ATOM     16  H2  UNL     1      93.870  22.941  66.484  1.00  0.00     0.160 HD
ATOM     17  H1  UNL     1      95.961  21.828  63.248  1.00  0.00     0.161 HD
ENDBRANCH   1  11
BRANCH   1  18
HETATM   18  C8  UNL     1      93.748  23.618  62.783  1.00  0.00     0.013 C 
HETATM   19  C9  UNL     1      92.790  24.544  63.462  1.00  0.00     0.007 C 
HETATM   20  C10 UNL     1      92.896  25.909  62.769  1.00  0.00     0.000 C 
HETATM   21  C11 UNL     1      93.476  25.778  61.394  1.00  0.00     0.000 C 
HETATM   22  C12 UNL     1      94.881  25.257  61.378  1.00  0.00     0.000 C 
HETATM   23  C13 UNL     1      95.085  24.279  62.515  1.00  0.00     0.007 C 
ENDBRANCH   1  18
TORSDOF 3
ENDMDL
MODEL 3
REMARK VINA RESULT: -6.701025977      4.192      7.085
REMARK  3 active torsions:
REMARK  status: ('A' for Active; 'I' for Inactive)
REMARK    1  A    between atoms: C3_4  and  C4_5 
REMARK    2  A    between atoms: C4_5  and  N1_6 
REMARK    3  A    between atoms: C4_5  and  C8_13 
ROOT
HETATM    1  C4  UNL     1      93.819  22.611  62.972  1.00  0.00     0.120 C 
ENDROOT
BRANCH   1   2
HETATM    2  C3  UNL     1      93.402  21.372  62.337  1.00  0.00    -0.030 A 
HETATM    3  C2  UNL     1      94.183  20.248  62.260  1.00  0.00     0.053 A 
HETATM    4  C1  UNL     1      93.700  19.120  61.636  1.00  0.00     0.140 A 
HETATM    5  F1  UNL     1      94.476  17.984  61.552  1.00  0.00    -0.204 F 
HETATM    6  C16 UNL     1      92.450  19.068  61.079  1.00  0.00     0.094 A 
HETATM    7  C15 UNL     1      91.648  20.184  61.143  1.00  0.00     0.059 A 
HETATM    8 CL2  UNL     1      91.845  17.630  60.288  1.00  0.00    -0.079 Cl
HETATM    9  C14 UNL     1      92.150  21.300  61.772  1.00  0.00     0.035 A 
HETATM   10 CL1  UNL     1      90.020  20.180  60.441  1.00  0.00    -0.082 Cl
ENDBRANCH   1   2
BRANCH   1  11
HETATM   11  N1  UNL     1      92.911  23.688  62.626  1.00  0.00    -0.371 N 
HETATM   12  C5  UNL     1      93.321  24.801  62.122  1.00  0.00     0.074 C 
HETATM   13  C6  UNL     1      92.704  26.051  61.675  1.00  0.00     0.095 C 
HETATM   14  N2  UNL     1      94.590  25.290  61.780  1.00  0.00    -0.380 N 
HETATM   15  C7  UNL     1      93.963  26.202  60.848  1.00  0.00     0.128 C 
ATOM     16  H2  UNL     1      95.548  25.089  62.067  1.00  0.00     0.160 HD
ATOM     17  H1  UNL     1      91.912  23.560  62.788  1.00  0.00     0.161 HD
ENDBRANCH   1  11
BRANCH   1  18
HETATM   18  C8  UNL     1      94.061  22.567  64.436  1.00  0.00     0.013 C 
HETATM   19  C9  UNL     1      94.107  23.900  65.114  1.00  0.00     0.007 C 
HETATM   20  C10 UNL     1      94.227  23.647  66.623  1.00  0.00     0.000 C 
HETATM   21  C11 UNL     1      94.760  22.275  66.905  1.00  0.00     0.000 C 
HETATM   22  C12 UNL     1      93.869  21.170  66.424  1.00  0.00     0.000 C 
HETATM   23  C13 UNL     1      93.154  21.593  65.159  1.00  0.00     0.007 C 
ENDBRANCH   1  18
TORSDOF 3
ENDMDL
MODEL 4
REMARK VINA RESULT: -6.529860359      4.060      6.239
REMARK  3 active torsions:
REMARK  status: ('A' for Active; 'I' for Inactive)
REMARK    1  A    between atoms: C3_4  and  C4_5 
REMARK    2  A    between atoms: C4_5  and  N1_6 
REMARK    3  A    between atoms: C4_5  and  C8_13 
ROOT
HETATM    1  C4  UNL     1      93.496  22.817  63.763  1.00  0.00     0.120 C 
ENDROOT
BRANCH   1   2
HETATM    2  C3  UNL     1      94.409  22.791  64.893  1.00  0.00    -0.030 A 
HETATM    3  C2  UNL     1      95.615  22.139  64.890  1.00  0.00     0.053 A 
HETATM    4  C1  UNL     1      96.413  22.170  66.012  1.00  0.00     0.140 A 
HETATM    5  F1  UNL     1      97.628  21.518  66.021  1.00  0.00    -0.204 F 
HETATM    6  C16 UNL     1      96.050  22.835  67.153  1.00  0.00     0.094 A 
HETATM    7  C15 UNL     1      94.844  23.496  67.180  1.00  0.00     0.059 A 
HETATM    8 CL2  UNL     1      97.070  22.868  68.573  1.00  0.00    -0.079 Cl
HETATM    9  C14 UNL     1      94.063  23.454  66.048  1.00  0.00     0.035 A 
HETATM   10 CL1  UNL     1      94.316  24.376  68.625  1.00  0.00    -0.082 Cl
ENDBRANCH   1   2
BRANCH   1  11
HETATM   11  N1  UNL     1      94.148  23.385  62.598  1.00  0.00    -0.371 N 
HETATM   12  C5  UNL     1      94.149  24.650  62.357  1.00  0.00     0.074 C 
HETATM   13  C6  UNL     1      94.686  25.530  61.316  1.00  0.00     0.095 C 
HETATM   14  N2  UNL     1      93.607  25.756  63.029  1.00  0.00    -0.380 N 
HETATM   15  C7  UNL     1      94.585  26.602  62.380  1.00  0.00     0.128 C 
ATOM     16  H2  UNL     1      92.846  25.902  63.692  1.00  0.00     0.160 HD
ATOM     17  H1  UNL     1      94.623  22.760  61.946  1.00  0.00     0.161 HD
ENDBRANCH   1  11
BRANCH   1  18
HETATM   18  C8  UNL     1      92.812  21.544  63.422  1.00  0.00     0.013 C 
HETATM   19  C9  UNL     1      92.356  20.733  64.593  1.00  0.00     0.007 C 
HETATM   20  C10 UNL     1      91.562  19.539  64.048  1.00  0.00     0.000 C 
HETATM   21  C11 UNL     1      91.906  19.264  62.615  1.00  0.00     0.000 C 
HETATM   22  C12 UNL     1      91.555  20.386  61.684  1.00  0.00     0.000 C 
HETATM   23  C13 UNL     1      91.717  21.715  62.389  1.00  0.00     0.007 C 
ENDBRANCH   1  18
TORSDOF 3
ENDMDL
MODEL 5
REMARK VINA RESULT: -6.522830549      4.121      6.309
REMARK  3 active torsions:
REMARK  status: ('A' for Active; 'I' for Inactive)
REMARK    1  A    between atoms: C3_4  and  C4_5 
REMARK    2  A    between atoms: C4_5  and  N1_6 
REMARK    3  A    between atoms: C4_5  and  C8_13 
ROOT
HETATM    1  C4  UNL     1      93.646  22.469  63.282  1.00  0.00     0.120 C 
ENDROOT
BRANCH   1   2
HETATM    2  C3  UNL     1      93.026  21.433  62.474  1.00  0.00    -0.030 A 
HETATM    3  C2  UNL     1      91.762  21.520  61.951  1.00  0.00     0.053 A 
HETATM    4  C1  UNL     1      91.260  20.483  61.196  1.00  0.00     0.140 A 
HETATM    5  F1  UNL     1      89.990  20.560  60.665  1.00  0.00    -0.204 F 
HETATM    6  C16 UNL     1      91.979  19.347  60.940  1.00  0.00     0.094 A 
HETATM    7  C15 UNL     1      93.250  19.236  61.455  1.00  0.00     0.059 A 
HETATM    8 CL2  UNL     1      91.332  18.035  59.981  1.00  0.00    -0.079 Cl
HETATM    9  C14 UNL     1      93.733  20.283  62.205  1.00  0.00     0.035 A 
HETATM   10 CL1  UNL     1      94.233  17.791  61.158  1.00  0.00    -0.082 Cl
ENDBRANCH   1   2
BRANCH   1  11
HETATM   11  N1  UNL     1      94.922  22.013  63.800  1.00  0.00    -0.371 N 
HETATM   12  C5  UNL     1      95.285  22.217  65.019  1.00  0.00     0.074 C 
HETATM   13  C6  UNL     1      96.456  21.908  65.841  1.00  0.00     0.095 C 
HETATM   14  N2  UNL     1      94.671  22.852  66.109  1.00  0.00    -0.380 N 
HETATM   15  C7  UNL     1      95.497  22.068  67.002  1.00  0.00     0.128 C 
ATOM     16  H2  UNL     1      93.949  23.564  66.224  1.00  0.00     0.160 HD
ATOM     17  H1  UNL     1      95.555  21.513  63.176  1.00  0.00     0.161 HD
ENDBRANCH   1  11
BRANCH   1  18
HETATM   18  C8  UNL     1      93.771  23.815  62.668  1.00  0.00     0.013 C 
HETATM   19  C9  UNL     1      93.022  24.906  63.365  1.00  0.00     0.007 C 
HETATM   20  C10 UNL     1      93.379  26.228  62.673  1.00  0.00     0.000 C 
HETATM   21  C11 UNL     1      93.901  25.994  61.287  1.00  0.00     0.000 C 
HETATM   22  C12 UNL     1      95.177  25.210  61.246  1.00  0.00     0.000 C 
HETATM   23  C13 UNL     1      95.206  24.206  62.379  1.00  0.00     0.007 C 
ENDBRANCH   1  18
TORSDOF 3
ENDMDL
