MODEL 1
REMARK VINA RESULT: -7.011774596      0.000      0.000
REMARK  6 active torsions:
REMARK  status: ('A' for Active; 'I' for Inactive)
REMARK    1  A    between atoms: S1_2  and  C2_3 
REMARK    2  A    between atoms: C2_3  and  C3_4 
REMARK    3  A    between atoms: C3_4  and  C4_5 
REMARK    4  A    between atoms: C8_11  and  N2_12 
REMARK    5  A    between atoms: C9_15  and  N3_16 
REMARK    6  A    between atoms: C10_19  and  O5_20 
ROOT
HETATM    1  C4  UNL     1      14.836  15.033   4.664  1.00  0.00     0.097 C 
HETATM    2  C5  UNL     1      16.121  15.343   3.906  1.00  0.00     0.062 C 
HETATM    3  N1  UNL     1      14.705  13.610   4.692  1.00  0.00    -0.363 N 
ATOM      4  H1  UNL     1      15.220  13.067   5.385  1.00  0.00     0.162 HD
HETATM    5  C6  UNL     1      13.864  12.951   3.763  1.00  0.00     0.043 A 
HETATM    6  C7  UNL     1      13.866  11.549   3.721  1.00  0.00     0.068 A 
HETATM    7  C8  UNL     1      13.065  10.866   2.833  1.00  0.00     0.140 A 
HETATM    8  C9  UNL     1      12.275  11.627   2.001  1.00  0.00     0.169 A 
HETATM    9  C10 UNL     1      12.268  13.004   2.036  1.00  0.00     0.112 A 
HETATM   10  C11 UNL     1      13.075  13.704   2.930  1.00  0.00     0.026 A 
HETATM   11  C12 UNL     1      13.097  15.166   2.994  1.00  0.00     0.113 C 
HETATM   12  C13 UNL     1      11.740  15.798   2.795  1.00  0.00     0.037 C 
HETATM   13  N4  UNL     1      13.701  15.715   4.137  1.00  0.00    -0.389 N 
ATOM     14  H4  UNL     1      13.343  16.566   4.571  1.00  0.00     0.156 HD
ENDROOT
BRANCH   1  15
HETATM   15  C3  UNL     1      15.035  15.519   6.087  1.00  0.00     0.063 C 
BRANCH  15  16
HETATM   16  C2  UNL     1      15.938  16.727   6.020  1.00  0.00     0.077 C 
BRANCH  16  17
HETATM   17  S1  UNL     1      15.125  18.241   6.513  1.00  0.00    -0.173 SA
HETATM   18  C1  UNL     1      13.484  17.839   7.163  1.00  0.00     0.089 C 
ENDBRANCH  16  17
ENDBRANCH  15  16
ENDBRANCH   1  15
BRANCH   7  19
HETATM   19  N2  UNL     1      13.049   9.445   2.765  1.00  0.00    -0.113 N 
HETATM   20  O1  UNL     1      14.084   8.874   2.376  1.00  0.00    -0.532 OA
HETATM   21  O2  UNL     1      11.979   8.656   3.094  1.00  0.00    -0.532 OA
ENDBRANCH   7  19
BRANCH   9  22
HETATM   22  O5  UNL     1      11.469  13.723   1.193  1.00  0.00    -0.357 OA
ATOM     23  H5  UNL     1      11.803  14.050   0.365  1.00  0.00     0.217 HD
ENDBRANCH   9  22
BRANCH   8  24
HETATM   24  N3  UNL     1      11.431  10.931   1.070  1.00  0.00    -0.110 N 
HETATM   25  O3  UNL     1      10.193  11.185   1.165  1.00  0.00    -0.532 OA
HETATM   26  O4  UNL     1      11.914  10.059   0.142  1.00  0.00    -0.532 OA
ENDBRANCH   8  24
TORSDOF 6
ENDMDL
MODEL 2
REMARK VINA RESULT: -6.861964288      5.239      7.144
REMARK  6 active torsions:
REMARK  status: ('A' for Active; 'I' for Inactive)
REMARK    1  A    between atoms: S1_2  and  C2_3 
REMARK    2  A    between atoms: C2_3  and  C3_4 
REMARK    3  A    between atoms: C3_4  and  C4_5 
REMARK    4  A    between atoms: C8_11  and  N2_12 
REMARK    5  A    between atoms: C9_15  and  N3_16 
REMARK    6  A    between atoms: C10_19  and  O5_20 
ROOT
HETATM    1  C4  UNL     1      16.246  11.387   4.857  1.00  0.00     0.097 C 
HETATM    2  C5  UNL     1      17.346  11.935   3.955  1.00  0.00     0.062 C 
HETATM    3  N1  UNL     1      16.894  10.721   5.942  1.00  0.00    -0.363 N 
ATOM      4  H1  UNL     1      17.244  11.262   6.733  1.00  0.00     0.162 HD
HETATM    5  C6  UNL     1      17.053   9.314   5.925  1.00  0.00     0.043 A 
HETATM    6  C7  UNL     1      17.816   8.705   6.932  1.00  0.00     0.068 A 
HETATM    7  C8  UNL     1      17.998   7.340   6.955  1.00  0.00     0.140 A 
HETATM    8  C9  UNL     1      17.396   6.619   5.948  1.00  0.00     0.169 A 
HETATM    9  C10 UNL     1      16.645   7.210   4.955  1.00  0.00     0.112 A 
HETATM   10  C11 UNL     1      16.456   8.590   4.924  1.00  0.00     0.026 A 
HETATM   11  C12 UNL     1      15.668   9.254   3.884  1.00  0.00     0.113 C 
HETATM   12  C13 UNL     1      14.445   8.475   3.466  1.00  0.00     0.037 C 
HETATM   13  N4  UNL     1      15.302  10.582   4.155  1.00  0.00    -0.389 N 
ATOM     14  H4  UNL     1      14.399  10.955   3.862  1.00  0.00     0.156 HD
ENDROOT
BRANCH   1  15
HETATM   15  C3  UNL     1      15.496  12.582   5.413  1.00  0.00     0.063 C 
BRANCH  15  16
HETATM   16  C2  UNL     1      14.417  12.931   4.415  1.00  0.00     0.077 C 
BRANCH  16  17
HETATM   17  S1  UNL     1      14.384  14.669   3.996  1.00  0.00    -0.173 SA
HETATM   18  C1  UNL     1      14.056  14.837   2.224  1.00  0.00     0.089 C 
ENDBRANCH  16  17
ENDBRANCH  15  16
ENDBRANCH   1  15
BRANCH   7  19
HETATM   19  N2  UNL     1      18.770   6.695   7.960  1.00  0.00    -0.113 N 
HETATM   20  O1  UNL     1      18.225   6.480   9.059  1.00  0.00    -0.532 OA
HETATM   21  O2  UNL     1      20.071   6.294   7.814  1.00  0.00    -0.532 OA
ENDBRANCH   7  19
BRANCH   9  22
HETATM   22  O5  UNL     1      16.066   6.459   3.973  1.00  0.00    -0.357 OA
ATOM     23  H5  UNL     1      15.505   6.860   3.319  1.00  0.00     0.217 HD
ENDBRANCH   9  22
BRANCH   8  24
HETATM   24  N3  UNL     1      17.574   5.194   5.957  1.00  0.00    -0.110 N 
HETATM   25  O3  UNL     1      18.412   4.746   5.118  1.00  0.00    -0.532 OA
HETATM   26  O4  UNL     1      16.900   4.369   6.806  1.00  0.00    -0.532 OA
ENDBRANCH   8  24
TORSDOF 6
ENDMDL
MODEL 3
REMARK VINA RESULT: -6.617978727      5.100      7.425
REMARK  6 active torsions:
REMARK  status: ('A' for Active; 'I' for Inactive)
REMARK    1  A    between atoms: S1_2  and  C2_3 
REMARK    2  A    between atoms: C2_3  and  C3_4 
REMARK    3  A    between atoms: C3_4  and  C4_5 
REMARK    4  A    between atoms: C8_11  and  N2_12 
REMARK    5  A    between atoms: C9_15  and  N3_16 
REMARK    6  A    between atoms: C10_19  and  O5_20 
ROOT
HETATM    1  C4  UNL     1      13.653   9.451   2.873  1.00  0.00     0.097 C 
HETATM    2  C5  UNL     1      12.361   9.282   3.663  1.00  0.00     0.062 C 
HETATM    3  N1  UNL     1      14.385   8.232   3.011  1.00  0.00    -0.363 N 
ATOM      4  H1  UNL     1      14.154   7.432   2.422  1.00  0.00     0.162 HD
HETATM    5  C6  UNL     1      15.430   8.129   3.961  1.00  0.00     0.043 A 
HETATM    6  C7  UNL     1      16.034   6.881   4.173  1.00  0.00     0.068 A 
HETATM    7  C8  UNL     1      17.053   6.734   5.088  1.00  0.00     0.140 A 
HETATM    8  C9  UNL     1      17.439   7.866   5.772  1.00  0.00     0.169 A 
HETATM    9  C10 UNL     1      16.850   9.095   5.569  1.00  0.00     0.112 A 
HETATM   10  C11 UNL     1      15.818   9.253   4.646  1.00  0.00     0.026 A 
HETATM   11  C12 UNL     1      15.167  10.541   4.406  1.00  0.00     0.113 C 
HETATM   12  C13 UNL     1      16.117  11.714   4.445  1.00  0.00     0.037 C 
HETATM   13  N4  UNL     1      14.382  10.618   3.243  1.00  0.00    -0.389 N 
ATOM     14  H4  UNL     1      14.337  11.473   2.688  1.00  0.00     0.156 HD
ENDROOT
BRANCH   1  15
HETATM   15  C3  UNL     1      13.262   9.608   1.416  1.00  0.00     0.063 C 
BRANCH  15  16
HETATM   16  C2  UNL     1      11.756   9.713   1.371  1.00  0.00     0.077 C 
BRANCH  16  17
HETATM   17  S1  UNL     1      11.179  11.330   0.870  1.00  0.00    -0.173 SA
HETATM   18  C1  UNL     1      11.429  12.490   2.236  1.00  0.00     0.089 C 
ENDBRANCH  16  17
ENDBRANCH  15  16
ENDBRANCH   1  15
BRANCH   7  19
HETATM   19  N2  UNL     1      17.681   5.481   5.328  1.00  0.00    -0.113 N 
HETATM   20  O1  UNL     1      18.613   5.148   4.572  1.00  0.00    -0.532 OA
HETATM   21  O2  UNL     1      17.338   4.609   6.326  1.00  0.00    -0.532 OA
ENDBRANCH   7  19
BRANCH   9  22
HETATM   22  O5  UNL     1      17.260  10.193   6.269  1.00  0.00    -0.357 OA
ATOM     23  H5  UNL     1      16.641  10.716   6.765  1.00  0.00     0.217 HD
ENDBRANCH   9  22
BRANCH   8  24
HETATM   24  N3  UNL     1      18.501   7.731   6.728  1.00  0.00    -0.110 N 
HETATM   25  O3  UNL     1      18.133   7.619   7.936  1.00  0.00    -0.532 OA
HETATM   26  O4  UNL     1      19.817   7.718   6.377  1.00  0.00    -0.532 OA
ENDBRANCH   8  24
TORSDOF 6
ENDMDL
MODEL 4
REMARK VINA RESULT: -6.454489752      2.051      3.889
REMARK  6 active torsions:
REMARK  status: ('A' for Active; 'I' for Inactive)
REMARK    1  A    between atoms: S1_2  and  C2_3 
REMARK    2  A    between atoms: C2_3  and  C3_4 
REMARK    3  A    between atoms: C3_4  and  C4_5 
REMARK    4  A    between atoms: C8_11  and  N2_12 
REMARK    5  A    between atoms: C9_15  and  N3_16 
REMARK    6  A    between atoms: C10_19  and  O5_20 
ROOT
HETATM    1  C4  UNL     1      16.806  13.754   4.838  1.00  0.00     0.097 C 
HETATM    2  C5  UNL     1      16.475  14.218   6.251  1.00  0.00     0.062 C 
HETATM    3  N1  UNL     1      15.904  14.428   3.959  1.00  0.00    -0.363 N 
ATOM      4  H1  UNL     1      16.098  15.386   3.669  1.00  0.00     0.162 HD
HETATM    5  C6  UNL     1      14.739  13.772   3.490  1.00  0.00     0.043 A 
HETATM    6  C7  UNL     1      13.801  14.503   2.746  1.00  0.00     0.068 A 
HETATM    7  C8  UNL     1      12.655  13.907   2.271  1.00  0.00     0.140 A 
HETATM    8  C9  UNL     1      12.485  12.572   2.563  1.00  0.00     0.169 A 
HETATM    9  C10 UNL     1      13.402  11.847   3.293  1.00  0.00     0.112 A 
HETATM   10  C11 UNL     1      14.565  12.442   3.779  1.00  0.00     0.026 A 
HETATM   11  C12 UNL     1      15.559  11.706   4.560  1.00  0.00     0.113 C 
HETATM   12  C13 UNL     1      15.768  10.288   4.086  1.00  0.00     0.037 C 
HETATM   13  N4  UNL     1      16.806  12.336   4.704  1.00  0.00    -0.389 N 
ATOM     14  H4  UNL     1      17.675  11.800   4.711  1.00  0.00     0.156 HD
ENDROOT
BRANCH   1  15
HETATM   15  C3  UNL     1      18.212  14.236   4.534  1.00  0.00     0.063 C 
BRANCH  15  16
HETATM   16  C2  UNL     1      18.550  15.292   5.561  1.00  0.00     0.077 C 
BRANCH  16  17
HETATM   17  S1  UNL     1      18.715  16.927   4.859  1.00  0.00    -0.173 SA
HETATM   18  C1  UNL     1      17.157  17.821   5.085  1.00  0.00     0.089 C 
ENDBRANCH  16  17
ENDBRANCH  15  16
ENDBRANCH   1  15
BRANCH   7  19
HETATM   19  N2  UNL     1      11.684  14.624   1.518  1.00  0.00    -0.113 N 
HETATM   20  O1  UNL     1      10.905  15.369   2.141  1.00  0.00    -0.532 OA
HETATM   21  O2  UNL     1      11.538  14.555   0.158  1.00  0.00    -0.532 OA
ENDBRANCH   7  19
BRANCH   9  22
HETATM   22  O5  UNL     1      13.196  10.524   3.563  1.00  0.00    -0.357 OA
ATOM     23  H5  UNL     1      12.331  10.201   3.787  1.00  0.00     0.217 HD
ENDBRANCH   9  22
BRANCH   8  24
HETATM   24  N3  UNL     1      11.296  11.933   2.073  1.00  0.00    -0.110 N 
HETATM   25  O3  UNL     1      10.325  11.897   2.888  1.00  0.00    -0.532 OA
HETATM   26  O4  UNL     1      11.201  11.403   0.822  1.00  0.00    -0.532 OA
ENDBRANCH   8  24
TORSDOF 6
ENDMDL
MODEL 5
REMARK VINA RESULT: -6.451068905      2.331      4.127
REMARK  6 active torsions:
REMARK  status: ('A' for Active; 'I' for Inactive)
REMARK    1  A    between atoms: S1_2  and  C2_3 
REMARK    2  A    between atoms: C2_3  and  C3_4 
REMARK    3  A    between atoms: C3_4  and  C4_5 
REMARK    4  A    between atoms: C8_11  and  N2_12 
REMARK    5  A    between atoms: C9_15  and  N3_16 
REMARK    6  A    between atoms: C10_19  and  O5_20 
ROOT
HETATM    1  C4  UNL     1      16.582  15.530   4.964  1.00  0.00     0.097 C 
HETATM    2  C5  UNL     1      16.053  16.085   6.281  1.00  0.00     0.062 C 
HETATM    3  N1  UNL     1      15.603  15.827   3.967  1.00  0.00    -0.363 N 
ATOM      4  H1  UNL     1      15.577  16.754   3.541  1.00  0.00     0.162 HD
HETATM    5  C6  UNL     1      14.670  14.841   3.565  1.00  0.00     0.043 A 
HETATM    6  C7  UNL     1      13.634  15.203   2.691  1.00  0.00     0.068 A 
HETATM    7  C8  UNL     1      12.702  14.277   2.276  1.00  0.00     0.140 A 
HETATM    8  C9  UNL     1      12.845  12.996   2.759  1.00  0.00     0.169 A 
HETATM    9  C10 UNL     1      13.860  12.633   3.618  1.00  0.00     0.112 A 
HETATM   10  C11 UNL     1      14.806  13.563   4.045  1.00  0.00     0.026 A 
HETATM   11  C12 UNL     1      15.895  13.216   4.958  1.00  0.00     0.113 C 
HETATM   12  C13 UNL     1      16.476  11.844   4.710  1.00  0.00     0.037 C 
HETATM   13  N4  UNL     1      16.938  14.152   5.044  1.00  0.00    -0.389 N 
ATOM     14  H4  UNL     1      17.908  13.860   5.159  1.00  0.00     0.156 HD
ENDROOT
BRANCH   1  15
HETATM   15  C3  UNL     1      17.845  16.304   4.635  1.00  0.00     0.063 C 
BRANCH  15  16
HETATM   16  C2  UNL     1      18.437  16.763   5.946  1.00  0.00     0.077 C 
BRANCH  16  17
HETATM   17  S1  UNL     1      20.138  16.259   6.164  1.00  0.00    -0.173 SA
HETATM   18  C1  UNL     1      20.479  14.862   5.065  1.00  0.00     0.089 C 
ENDBRANCH  16  17
ENDBRANCH  15  16
ENDBRANCH   1  15
BRANCH   7  19
HETATM   19  N2  UNL     1      11.639  14.616   1.394  1.00  0.00    -0.113 N 
HETATM   20  O1  UNL     1      10.740  15.358   1.831  1.00  0.00    -0.532 OA
HETATM   21  O2  UNL     1      11.527  14.186   0.098  1.00  0.00    -0.532 OA
ENDBRANCH   7  19
BRANCH   9  22
HETATM   22  O5  UNL     1      13.966  11.351   4.077  1.00  0.00    -0.357 OA
ATOM     23  H5  UNL     1      13.742  10.614   3.521  1.00  0.00     0.217 HD
ENDBRANCH   9  22
BRANCH   8  24
HETATM   24  N3  UNL     1      11.884  12.017   2.334  1.00  0.00    -0.110 N 
HETATM   25  O3  UNL     1      10.698  12.210   2.740  1.00  0.00    -0.532 OA
HETATM   26  O4  UNL     1      12.207  10.954   1.547  1.00  0.00    -0.532 OA
ENDBRANCH   8  24
TORSDOF 6
ENDMDL
