MODEL 1
REMARK VINA RESULT: -6.749926362      0.000      0.000
REMARK  8 active torsions:
REMARK  status: ('A' for Active; 'I' for Inactive)
REMARK    1  A    between atoms: C2_2  and  N1_5 
REMARK       I    between atoms: N1_5  and  C5_7 
REMARK    2  A    between atoms: C5_7  and  C6_9 
REMARK    3  A    between atoms: C6_9  and  S1_10 
REMARK    4  A    between atoms: S1_10  and  S2_11 
REMARK    5  A    between atoms: S2_11  and  C7_12 
REMARK    6  A    between atoms: C9_15  and  O3_16 
REMARK    7  A    between atoms: C10_19  and  C11_20 
REMARK    8  A    between atoms: C13_23  and  O6_24 
ROOT
HETATM    1  C7  UNL     1      13.337  12.491   3.113  1.00  0.00     0.157 A 
HETATM    2  O2  UNL     1      12.554  11.872   2.264  1.00  0.00    -0.294 OA
HETATM    3  C8  UNL     1      12.799  10.582   2.274  1.00  0.00     0.151 A 
HETATM    4  C9  UNL     1      12.463   9.362   1.746  1.00  0.00     0.220 A 
HETATM    5  O4  UNL     1      13.227   8.486   2.319  1.00  0.00    -0.282 OA
HETATM    6  C10 UNL     1      14.042   8.997   3.179  1.00  0.00     0.132 A 
HETATM    7  C12 UNL     1      13.803  10.359   3.188  1.00  0.00     0.076 A 
HETATM    8  C13 UNL     1      14.154  11.572   3.730  1.00  0.00     0.123 A 
ENDROOT
BRANCH   1   9
HETATM    9  S2  UNL     1      13.281  14.254   3.365  1.00  0.00    -0.029 SA
BRANCH   9  10
HETATM   10  S1  UNL     1      14.882  15.074   2.228  1.00  0.00    -0.081 SA
BRANCH  10  11
HETATM   11  C6  UNL     1      16.393  14.717   3.142  1.00  0.00     0.189 C 
BRANCH  11  12
HETATM   12  C5  UNL     1      16.237  15.242   4.524  1.00  0.00     0.228 C 
HETATM   13  N1  UNL     1      16.240  16.644   4.813  1.00  0.00    -0.352 N 
ATOM     14  H1  UNL     1      16.355  17.296   4.036  1.00  0.00     0.163 HD
HETATM   15  O1  UNL     1      16.092  14.477   5.521  1.00  0.00    -0.273 OA
BRANCH  13  16
HETATM   16  C2  UNL     1      16.093  17.180   6.125  1.00  0.00     0.022 C 
HETATM   17  C1  UNL     1      16.323  18.686   6.060  1.00  0.00     0.037 C 
HETATM   18  C3  UNL     1      14.717  16.934   6.731  1.00  0.00     0.037 C 
HETATM   19  C4  UNL     1      17.100  16.555   7.092  1.00  0.00     0.037 C 
ENDBRANCH  13  16
ENDBRANCH  11  12
ENDBRANCH  10  11
ENDBRANCH   9  10
ENDBRANCH   1   9
BRANCH   8  20
HETATM   20  O6  UNL     1      15.121  11.800   4.686  1.00  0.00    -0.357 OA
ATOM     21  H6  UNL     1      15.037  12.278   5.503  1.00  0.00     0.218 HD
ENDBRANCH   8  20
BRANCH   4  22
HETATM   22  O3  UNL     1      11.491   9.150   0.787  1.00  0.00    -0.339 OA
ATOM     23  H3  UNL     1      11.622   9.222  -0.151  1.00  0.00     0.220 HD
ENDBRANCH   4  22
BRANCH   6  24
HETATM   24  C11 UNL     1      15.047   8.371   4.025  1.00  0.00     0.296 C 
HETATM   25  O5  UNL     1      16.096   9.017   4.267  1.00  0.00    -0.299 OA
ENDBRANCH   6  24
TORSDOF 8
ENDMDL
MODEL 2
REMARK VINA RESULT: -6.736010502      1.019      1.119
REMARK  8 active torsions:
REMARK  status: ('A' for Active; 'I' for Inactive)
REMARK    1  A    between atoms: C2_2  and  N1_5 
REMARK       I    between atoms: N1_5  and  C5_7 
REMARK    2  A    between atoms: C5_7  and  C6_9 
REMARK    3  A    between atoms: C6_9  and  S1_10 
REMARK    4  A    between atoms: S1_10  and  S2_11 
REMARK    5  A    between atoms: S2_11  and  C7_12 
REMARK    6  A    between atoms: C9_15  and  O3_16 
REMARK    7  A    between atoms: C10_19  and  C11_20 
REMARK    8  A    between atoms: C13_23  and  O6_24 
ROOT
HETATM    1  C7  UNL     1      13.567  12.400   3.331  1.00  0.00     0.157 A 
HETATM    2  O2  UNL     1      12.709  11.817   2.531  1.00  0.00    -0.294 OA
HETATM    3  C8  UNL     1      12.946  10.527   2.471  1.00  0.00     0.151 A 
HETATM    4  C9  UNL     1      12.558   9.329   1.928  1.00  0.00     0.220 A 
HETATM    5  O4  UNL     1      13.363   8.430   2.397  1.00  0.00    -0.282 OA
HETATM    6  C10 UNL     1      14.254   8.905   3.201  1.00  0.00     0.132 A 
HETATM    7  C12 UNL     1      14.025  10.266   3.283  1.00  0.00     0.076 A 
HETATM    8  C13 UNL     1      14.430  11.456   3.838  1.00  0.00     0.123 A 
ENDROOT
BRANCH   1   9
HETATM    9  S2  UNL     1      13.545  14.152   3.654  1.00  0.00    -0.029 SA
BRANCH   9  10
HETATM   10  S1  UNL     1      13.936  15.111   1.795  1.00  0.00    -0.081 SA
BRANCH  10  11
HETATM   11  C6  UNL     1      15.729  15.173   1.620  1.00  0.00     0.189 C 
BRANCH  11  12
HETATM   12  C5  UNL     1      16.325  15.307   2.975  1.00  0.00     0.228 C 
HETATM   13  N1  UNL     1      16.454  16.572   3.631  1.00  0.00    -0.352 N 
ATOM     14  H1  UNL     1      16.122  17.404   3.143  1.00  0.00     0.163 HD
HETATM   15  O1  UNL     1      16.751  14.307   3.623  1.00  0.00    -0.273 OA
BRANCH  13  16
HETATM   16  C2  UNL     1      17.020  16.736   4.929  1.00  0.00     0.022 C 
HETATM   17  C1  UNL     1      17.022  18.221   5.272  1.00  0.00     0.037 C 
HETATM   18  C3  UNL     1      16.257  15.995   6.022  1.00  0.00     0.037 C 
HETATM   19  C4  UNL     1      18.452  16.201   4.976  1.00  0.00     0.037 C 
ENDBRANCH  13  16
ENDBRANCH  11  12
ENDBRANCH  10  11
ENDBRANCH   9  10
ENDBRANCH   1   9
BRANCH   8  20
HETATM   20  O6  UNL     1      15.478  11.644   4.713  1.00  0.00    -0.357 OA
ATOM     21  H6  UNL     1      15.447  11.708   5.661  1.00  0.00     0.218 HD
ENDBRANCH   8  20
BRANCH   4  22
HETATM   22  O3  UNL     1      11.504   9.157   1.050  1.00  0.00    -0.339 OA
ATOM     23  H3  UNL     1      11.122   8.321   0.811  1.00  0.00     0.220 HD
ENDBRANCH   4  22
BRANCH   6  24
HETATM   24  C11 UNL     1      15.326   8.243   3.931  1.00  0.00     0.296 C 
HETATM   25  O5  UNL     1      15.813   8.837   4.924  1.00  0.00    -0.299 OA
ENDBRANCH   6  24
TORSDOF 8
ENDMDL
MODEL 3
REMARK VINA RESULT: -6.666991043      1.697      2.161
REMARK  8 active torsions:
REMARK  status: ('A' for Active; 'I' for Inactive)
REMARK    1  A    between atoms: C2_2  and  N1_5 
REMARK       I    between atoms: N1_5  and  C5_7 
REMARK    2  A    between atoms: C5_7  and  C6_9 
REMARK    3  A    between atoms: C6_9  and  S1_10 
REMARK    4  A    between atoms: S1_10  and  S2_11 
REMARK    5  A    between atoms: S2_11  and  C7_12 
REMARK    6  A    between atoms: C9_15  and  O3_16 
REMARK    7  A    between atoms: C10_19  and  C11_20 
REMARK    8  A    between atoms: C13_23  and  O6_24 
ROOT
HETATM    1  C7  UNL     1      13.641  12.352   3.389  1.00  0.00     0.157 A 
HETATM    2  O2  UNL     1      12.770  11.811   2.574  1.00  0.00    -0.294 OA
HETATM    3  C8  UNL     1      12.971  10.516   2.484  1.00  0.00     0.151 A 
HETATM    4  C9  UNL     1      12.552   9.343   1.912  1.00  0.00     0.220 A 
HETATM    5  O4  UNL     1      13.332   8.411   2.361  1.00  0.00    -0.282 OA
HETATM    6  C10 UNL     1      14.234   8.843   3.178  1.00  0.00     0.132 A 
HETATM    7  C12 UNL     1      14.041  10.208   3.292  1.00  0.00     0.076 A 
HETATM    8  C13 UNL     1      14.477  11.373   3.875  1.00  0.00     0.123 A 
ENDROOT
BRANCH   1   9
HETATM    9  S2  UNL     1      13.665  14.096   3.752  1.00  0.00    -0.029 SA
BRANCH   9  10
HETATM   10  S1  UNL     1      14.075  15.087   1.914  1.00  0.00    -0.081 SA
BRANCH  10  11
HETATM   11  C6  UNL     1      15.865  15.052   1.704  1.00  0.00     0.189 C 
BRANCH  11  12
HETATM   12  C5  UNL     1      16.494  15.194   3.043  1.00  0.00     0.228 C 
HETATM   13  N1  UNL     1      17.254  14.141   3.645  1.00  0.00    -0.352 N 
ATOM     14  H1  UNL     1      17.361  13.268   3.128  1.00  0.00     0.163 HD
HETATM   15  O1  UNL     1      16.392  16.255   3.725  1.00  0.00    -0.273 OA
BRANCH  13  16
HETATM   16  C2  UNL     1      17.870  14.243   4.926  1.00  0.00     0.022 C 
HETATM   17  C1  UNL     1      18.642  12.957   5.196  1.00  0.00     0.037 C 
HETATM   18  C3  UNL     1      18.838  15.415   5.043  1.00  0.00     0.037 C 
HETATM   19  C4  UNL     1      16.825  14.447   6.024  1.00  0.00     0.037 C 
ENDBRANCH  13  16
ENDBRANCH  11  12
ENDBRANCH  10  11
ENDBRANCH   9  10
ENDBRANCH   1   9
BRANCH   8  20
HETATM   20  O6  UNL     1      15.528  11.513   4.755  1.00  0.00    -0.357 OA
ATOM     21  H6  UNL     1      16.449  11.634   4.555  1.00  0.00     0.218 HD
ENDBRANCH   8  20
BRANCH   4  22
HETATM   22  O3  UNL     1      11.496   9.219   1.030  1.00  0.00    -0.339 OA
ATOM     23  H3  UNL     1      10.628   9.584   1.160  1.00  0.00     0.220 HD
ENDBRANCH   4  22
BRANCH   6  24
HETATM   24  C11 UNL     1      15.286   8.136   3.894  1.00  0.00     0.296 C 
HETATM   25  O5  UNL     1      15.800   8.702   4.889  1.00  0.00    -0.299 OA
ENDBRANCH   6  24
TORSDOF 8
ENDMDL
MODEL 4
REMARK VINA RESULT: -6.583121965      3.092      4.991
REMARK  8 active torsions:
REMARK  status: ('A' for Active; 'I' for Inactive)
REMARK    1  A    between atoms: C2_2  and  N1_5 
REMARK       I    between atoms: N1_5  and  C5_7 
REMARK    2  A    between atoms: C5_7  and  C6_9 
REMARK    3  A    between atoms: C6_9  and  S1_10 
REMARK    4  A    between atoms: S1_10  and  S2_11 
REMARK    5  A    between atoms: S2_11  and  C7_12 
REMARK    6  A    between atoms: C9_15  and  O3_16 
REMARK    7  A    between atoms: C10_19  and  C11_20 
REMARK    8  A    between atoms: C13_23  and  O6_24 
ROOT
HETATM    1  C7  UNL     1      14.292  12.140   4.052  1.00  0.00     0.157 A 
HETATM    2  O2  UNL     1      14.702  10.901   4.164  1.00  0.00    -0.294 OA
HETATM    3  C8  UNL     1      14.034  10.123   3.343  1.00  0.00     0.151 A 
HETATM    4  C9  UNL     1      13.862   8.842   2.886  1.00  0.00     0.220 A 
HETATM    5  O4  UNL     1      12.923   8.888   1.994  1.00  0.00    -0.282 OA
HETATM    6  C10 UNL     1      12.448  10.074   1.808  1.00  0.00     0.132 A 
HETATM    7  C12 UNL     1      13.137  10.914   2.662  1.00  0.00     0.076 A 
HETATM    8  C13 UNL     1      13.294  12.205   3.107  1.00  0.00     0.123 A 
ENDROOT
BRANCH   1   9
HETATM    9  S2  UNL     1      14.979  13.471   5.016  1.00  0.00    -0.029 SA
BRANCH   9  10
HETATM   10  S1  UNL     1      16.950  13.792   4.279  1.00  0.00    -0.081 SA
BRANCH  10  11
HETATM   11  C6  UNL     1      18.072  13.091   5.503  1.00  0.00     0.189 C 
BRANCH  11  12
HETATM   12  C5  UNL     1      18.102  11.617   5.317  1.00  0.00     0.228 C 
HETATM   13  N1  UNL     1      18.253  10.711   6.415  1.00  0.00    -0.352 N 
ATOM     14  H1  UNL     1      18.343  11.102   7.353  1.00  0.00     0.163 HD
HETATM   15  O1  UNL     1      17.995  11.081   4.176  1.00  0.00    -0.273 OA
BRANCH  13  16
HETATM   16  C2  UNL     1      18.286   9.294   6.271  1.00  0.00     0.022 C 
HETATM   17  C1  UNL     1      18.293   8.668   7.661  1.00  0.00     0.037 C 
HETATM   18  C3  UNL     1      17.095   8.733   5.502  1.00  0.00     0.037 C 
HETATM   19  C4  UNL     1      19.532   8.846   5.506  1.00  0.00     0.037 C 
ENDBRANCH  13  16
ENDBRANCH  11  12
ENDBRANCH  10  11
ENDBRANCH   9  10
ENDBRANCH   1   9
BRANCH   8  20
HETATM   20  O6  UNL     1      12.593  13.314   2.685  1.00  0.00    -0.357 OA
ATOM     21  H6  UNL     1      12.576  13.703   1.818  1.00  0.00     0.218 HD
ENDBRANCH   8  20
BRANCH   4  22
HETATM   22  O3  UNL     1      14.573   7.740   3.319  1.00  0.00    -0.339 OA
ATOM     23  H3  UNL     1      15.006   7.111   2.754  1.00  0.00     0.220 HD
ENDBRANCH   4  22
BRANCH   6  24
HETATM   24  C11 UNL     1      11.404  10.549   0.912  1.00  0.00     0.296 C 
HETATM   25  O5  UNL     1      10.674  11.491   1.309  1.00  0.00    -0.299 OA
ENDBRANCH   6  24
TORSDOF 8
ENDMDL
MODEL 5
REMARK VINA RESULT: -6.542057580      1.765      2.325
REMARK  8 active torsions:
REMARK  status: ('A' for Active; 'I' for Inactive)
REMARK    1  A    between atoms: C2_2  and  N1_5 
REMARK       I    between atoms: N1_5  and  C5_7 
REMARK    2  A    between atoms: C5_7  and  C6_9 
REMARK    3  A    between atoms: C6_9  and  S1_10 
REMARK    4  A    between atoms: S1_10  and  S2_11 
REMARK    5  A    between atoms: S2_11  and  C7_12 
REMARK    6  A    between atoms: C9_15  and  O3_16 
REMARK    7  A    between atoms: C10_19  and  C11_20 
REMARK    8  A    between atoms: C13_23  and  O6_24 
ROOT
HETATM    1  C7  UNL     1      13.619  12.431   3.288  1.00  0.00     0.157 A 
HETATM    2  O2  UNL     1      12.781  11.880   2.445  1.00  0.00    -0.294 OA
HETATM    3  C8  UNL     1      12.950  10.578   2.418  1.00  0.00     0.151 A 
HETATM    4  C9  UNL     1      12.532   9.394   1.870  1.00  0.00     0.220 A 
HETATM    5  O4  UNL     1      13.258   8.461   2.400  1.00  0.00    -0.282 OA
HETATM    6  C10 UNL     1      14.122   8.903   3.251  1.00  0.00     0.132 A 
HETATM    7  C12 UNL     1      13.963  10.275   3.299  1.00  0.00     0.076 A 
HETATM    8  C13 UNL     1      14.397  11.452   3.861  1.00  0.00     0.123 A 
ENDROOT
BRANCH   1   9
HETATM    9  S2  UNL     1      13.671  14.188   3.583  1.00  0.00    -0.029 SA
BRANCH   9  10
HETATM   10  S1  UNL     1      15.471  14.893   2.694  1.00  0.00    -0.081 SA
BRANCH  10  11
HETATM   11  C6  UNL     1      16.288  15.914   3.935  1.00  0.00     0.189 C 
BRANCH  11  12
HETATM   12  C5  UNL     1      17.106  15.027   4.802  1.00  0.00     0.228 C 
HETATM   13  N1  UNL     1      18.536  15.021   4.757  1.00  0.00    -0.352 N 
ATOM     14  H1  UNL     1      19.000  15.652   4.103  1.00  0.00     0.163 HD
HETATM   15  O1  UNL     1      16.581  14.227   5.630  1.00  0.00    -0.273 OA
BRANCH  13  16
HETATM   16  C2  UNL     1      19.350  14.184   5.574  1.00  0.00     0.022 C 
HETATM   17  C1  UNL     1      20.813  14.486   5.270  1.00  0.00     0.037 C 
HETATM   18  C3  UNL     1      19.121  14.386   7.068  1.00  0.00     0.037 C 
HETATM   19  C4  UNL     1      19.069  12.706   5.299  1.00  0.00     0.037 C 
ENDBRANCH  13  16
ENDBRANCH  11  12
ENDBRANCH  10  11
ENDBRANCH   9  10
ENDBRANCH   1   9
BRANCH   8  20
HETATM   20  O6  UNL     1      15.399  11.600   4.795  1.00  0.00    -0.357 OA
ATOM     21  H6  UNL     1      16.118  12.221   4.791  1.00  0.00     0.218 HD
ENDBRANCH   8  20
BRANCH   4  22
HETATM   22  O3  UNL     1      11.525   9.262   0.932  1.00  0.00    -0.339 OA
ATOM     23  H3  UNL     1      10.865   8.579   0.930  1.00  0.00     0.220 HD
ENDBRANCH   4  22
BRANCH   6  24
HETATM   24  C11 UNL     1      15.110   8.198   4.054  1.00  0.00     0.296 C 
HETATM   25  O5  UNL     1      16.167   8.808   4.352  1.00  0.00    -0.299 OA
ENDBRANCH   6  24
TORSDOF 8
ENDMDL
