MODEL 1
REMARK VINA RESULT: -6.371855217      0.000      0.000
REMARK  7 active torsions:
REMARK  status: ('A' for Active; 'I' for Inactive)
REMARK    1  A    between atoms: C2_2  and  C3_3 
REMARK    2  A    between atoms: C4_7  and  N2_8 
REMARK    3  A    between atoms: N2_8  and  N3_9 
REMARK    4  A    between atoms: C5_11  and  C6_12 
REMARK    5  A    between atoms: C7_14  and  O1_15 
REMARK    6  A    between atoms: C8_17  and  N4_18 
REMARK    7  A    between atoms: C11_25  and  N6_26 
ROOT
HETATM    1  N3  UNL     1      15.166  10.385   4.291  1.00  0.00    -0.245 N 
ATOM      2  H3  UNL     1      14.890   9.472   3.928  1.00  0.00     0.201 HD
HETATM    3  C5  UNL     1      16.143  10.112   4.982  1.00  0.00     0.140 C 
ENDROOT
BRANCH   1   4
HETATM    4  N2  UNL     1      14.315  11.150   3.779  1.00  0.00    -0.315 NA
BRANCH   4   5
HETATM    5  C4  UNL     1      13.499  11.979   3.369  1.00  0.00     0.216 A 
HETATM    6  S1  UNL     1      12.045  11.651   2.435  1.00  0.00     0.023 SA
HETATM    7  N1  UNL     1      11.555  13.231   2.134  1.00  0.00    -0.325 N 
HETATM    8  C3  UNL     1      12.512  13.959   2.745  1.00  0.00     0.046 A 
ATOM      9  H1  UNL     1      10.738  13.557   1.618  1.00  0.00     0.174 HD
HETATM   10  C11 UNL     1      13.491  13.364   3.374  1.00  0.00     0.104 A 
BRANCH   8  11
HETATM   11  C2  UNL     1      12.323  15.482   2.599  1.00  0.00     0.055 C 
HETATM   12  C1  UNL     1      10.905  15.884   2.618  1.00  0.00     0.011 C 
ENDBRANCH   8  11
BRANCH  10  13
HETATM   13  N6  UNL     1      14.635  13.910   4.094  1.00  0.00    -0.385 N 
HETATM   14  C12 UNL     1      14.718  14.014   5.500  1.00  0.00     0.149 C 
HETATM   15  C13 UNL     1      15.775  14.371   3.300  1.00  0.00     0.149 C 
ENDBRANCH  10  13
ENDBRANCH   4   5
ENDBRANCH   1   4
BRANCH   3  16
HETATM   16  C6  UNL     1      16.567   8.671   5.057  1.00  0.00     0.033 A 
HETATM   17  S2  UNL     1      16.015   7.246   4.359  1.00  0.00    -0.061 SA
HETATM   18  C7  UNL     1      17.159   6.150   5.081  1.00  0.00     0.137 A 
HETATM   19  C8  UNL     1      17.933   6.951   5.860  1.00  0.00     0.095 A 
HETATM   20  C9  UNL     1      17.660   8.254   5.867  1.00  0.00    -0.012 A 
HETATM   21  C10 UNL     1      18.403   9.256   6.712  1.00  0.00     0.052 C 
BRANCH  18  22
HETATM   22  O1  UNL     1      17.184   4.747   4.862  1.00  0.00    -0.352 OA
ATOM     23  H1  UNL     1      16.431   4.174   4.935  1.00  0.00     0.218 HD
ENDBRANCH  18  22
BRANCH  19  24
HETATM   24  N4  UNL     1      18.834   6.168   6.752  1.00  0.00    -0.303 N 
HETATM   25  N5  UNL     1      18.534   5.312   7.519  1.00  0.00    -0.345 N 
ATOM     26  H52 UNL     1      17.537   5.099   7.559  1.00  0.00     0.176 HD
ATOM     27  H51 UNL     1      19.151   4.776   8.130  1.00  0.00     0.176 HD
ATOM     28  H4  UNL     1      19.828   6.395   6.698  1.00  0.00     0.186 HD
ENDBRANCH  19  24
ENDBRANCH   3  16
TORSDOF 7
ENDMDL
MODEL 2
REMARK VINA RESULT: -6.370862747      4.192      6.915
REMARK  7 active torsions:
REMARK  status: ('A' for Active; 'I' for Inactive)
REMARK    1  A    between atoms: C2_2  and  C3_3 
REMARK    2  A    between atoms: C4_7  and  N2_8 
REMARK    3  A    between atoms: N2_8  and  N3_9 
REMARK    4  A    between atoms: C5_11  and  C6_12 
REMARK    5  A    between atoms: C7_14  and  O1_15 
REMARK    6  A    between atoms: C8_17  and  N4_18 
REMARK    7  A    between atoms: C11_25  and  N6_26 
ROOT
HETATM    1  N3  UNL     1      15.968  12.951   4.677  1.00  0.00    -0.245 N 
ATOM      2  H3  UNL     1      16.262  12.063   4.272  1.00  0.00     0.201 HD
HETATM    3  C5  UNL     1      14.754  12.938   4.497  1.00  0.00     0.140 C 
ENDROOT
BRANCH   1   4
HETATM    4  N2  UNL     1      17.052  13.439   5.078  1.00  0.00    -0.315 NA
BRANCH   4   5
HETATM    5  C4  UNL     1      18.109  13.997   5.378  1.00  0.00     0.216 A 
HETATM    6  S1  UNL     1      19.660  13.222   5.676  1.00  0.00     0.023 SA
HETATM    7  N1  UNL     1      20.546  14.567   6.160  1.00  0.00    -0.325 N 
HETATM    8  C3  UNL     1      19.637  15.561   6.088  1.00  0.00     0.046 A 
ATOM      9  H1  UNL     1      21.526  14.618   6.439  1.00  0.00     0.174 HD
HETATM   10  C11 UNL     1      18.417  15.310   5.696  1.00  0.00     0.104 A 
BRANCH   8  11
HETATM   11  C2  UNL     1      20.186  16.936   6.515  1.00  0.00     0.055 C 
HETATM   12  C1  UNL     1      21.652  17.028   6.396  1.00  0.00     0.011 C 
ENDBRANCH   8  11
BRANCH  10  13
HETATM   13  N6  UNL     1      17.263  16.188   5.543  1.00  0.00    -0.385 N 
HETATM   14  C12 UNL     1      16.362  16.510   6.582  1.00  0.00     0.149 C 
HETATM   15  C13 UNL     1      17.035  16.781   4.225  1.00  0.00     0.149 C 
ENDBRANCH  10  13
ENDBRANCH   4   5
ENDBRANCH   1   4
BRANCH   3  16
HETATM   16  C6  UNL     1      14.163  11.739   3.808  1.00  0.00     0.033 A 
HETATM   17  S2  UNL     1      14.553  10.106   3.749  1.00  0.00    -0.061 SA
HETATM   18  C7  UNL     1      13.278   9.578   2.687  1.00  0.00     0.137 A 
HETATM   19  C8  UNL     1      12.593  10.718   2.406  1.00  0.00     0.095 A 
HETATM   20  C9  UNL     1      13.017  11.846   2.971  1.00  0.00    -0.012 A 
HETATM   21  C10 UNL     1      12.386  13.192   2.720  1.00  0.00     0.052 C 
BRANCH  18  22
HETATM   22  O1  UNL     1      13.091   8.240   2.250  1.00  0.00    -0.352 OA
ATOM     23  H1  UNL     1      12.443   7.964   1.613  1.00  0.00     0.218 HD
ENDBRANCH  18  22
BRANCH  19  24
HETATM   24  N4  UNL     1      11.594  10.522   1.319  1.00  0.00    -0.303 N 
HETATM   25  N5  UNL     1      11.674   9.798   0.379  1.00  0.00    -0.345 N 
ATOM     26  H52 UNL     1      12.535   9.253   0.327  1.00  0.00     0.176 HD
ATOM     27  H51 UNL     1      10.989   9.664  -0.365  1.00  0.00     0.176 HD
ATOM     28  H4  UNL     1      10.739  11.074   1.389  1.00  0.00     0.186 HD
ENDBRANCH  19  24
ENDBRANCH   3  16
TORSDOF 7
ENDMDL
MODEL 3
REMARK VINA RESULT: -6.312681877      4.015      6.956
REMARK  7 active torsions:
REMARK  status: ('A' for Active; 'I' for Inactive)
REMARK    1  A    between atoms: C2_2  and  C3_3 
REMARK    2  A    between atoms: C4_7  and  N2_8 
REMARK    3  A    between atoms: N2_8  and  N3_9 
REMARK    4  A    between atoms: C5_11  and  C6_12 
REMARK    5  A    between atoms: C7_14  and  O1_15 
REMARK    6  A    between atoms: C8_17  and  N4_18 
REMARK    7  A    between atoms: C11_25  and  N6_26 
ROOT
HETATM    1  N3  UNL     1      15.335  13.582   4.282  1.00  0.00    -0.245 N 
ATOM      2  H3  UNL     1      15.773  12.735   3.919  1.00  0.00     0.201 HD
HETATM    3  C5  UNL     1      14.138  13.329   4.174  1.00  0.00     0.140 C 
ENDROOT
BRANCH   1   4
HETATM    4  N2  UNL     1      16.323  14.292   4.585  1.00  0.00    -0.315 NA
BRANCH   4   5
HETATM    5  C4  UNL     1      17.287  15.037   4.771  1.00  0.00     0.216 A 
HETATM    6  S1  UNL     1      17.457  16.697   4.215  1.00  0.00     0.023 SA
HETATM    7  N1  UNL     1      19.040  16.986   4.705  1.00  0.00    -0.325 N 
HETATM    8  C3  UNL     1      19.393  15.812   5.269  1.00  0.00     0.046 A 
ATOM      9  H1  UNL     1      19.594  17.835   4.601  1.00  0.00     0.174 HD
HETATM   10  C11 UNL     1      18.540  14.824   5.323  1.00  0.00     0.104 A 
BRANCH   8  11
HETATM   11  C2  UNL     1      20.843  15.786   5.791  1.00  0.00     0.055 C 
HETATM   12  C1  UNL     1      21.698  14.839   5.054  1.00  0.00     0.011 C 
ENDBRANCH   8  11
BRANCH  10  13
HETATM   13  N6  UNL     1      18.674  13.476   5.861  1.00  0.00    -0.385 N 
HETATM   14  C12 UNL     1      18.721  12.304   5.074  1.00  0.00     0.149 C 
HETATM   15  C13 UNL     1      18.775  13.335   7.314  1.00  0.00     0.149 C 
ENDBRANCH  10  13
ENDBRANCH   4   5
ENDBRANCH   1   4
BRANCH   3  16
HETATM   16  C6  UNL     1      13.755  11.992   3.602  1.00  0.00     0.033 A 
HETATM   17  S2  UNL     1      14.408  10.447   3.684  1.00  0.00    -0.061 SA
HETATM   18  C7  UNL     1      13.242   9.624   2.688  1.00  0.00     0.137 A 
HETATM   19  C8  UNL     1      12.380  10.606   2.314  1.00  0.00     0.095 A 
HETATM   20  C9  UNL     1      12.610  11.835   2.771  1.00  0.00    -0.012 A 
HETATM   21  C10 UNL     1      11.767  13.031   2.408  1.00  0.00     0.052 C 
BRANCH  18  22
HETATM   22  O1  UNL     1      13.278   8.239   2.374  1.00  0.00    -0.352 OA
ATOM     23  H1  UNL     1      12.535   7.734   2.067  1.00  0.00     0.218 HD
ENDBRANCH  18  22
BRANCH  19  24
HETATM   24  N4  UNL     1      11.430  10.152   1.259  1.00  0.00    -0.303 N 
HETATM   25  N5  UNL     1      11.687   9.785   0.158  1.00  0.00    -0.345 N 
ATOM     26  H52 UNL     1      12.680   9.788  -0.076  1.00  0.00     0.176 HD
ATOM     27  H51 UNL     1      11.037   9.474  -0.563  1.00  0.00     0.176 HD
ATOM     28  H4  UNL     1      10.441  10.155   1.513  1.00  0.00     0.186 HD
ENDBRANCH  19  24
ENDBRANCH   3  16
TORSDOF 7
ENDMDL
MODEL 4
REMARK VINA RESULT: -6.298826858      5.541      8.568
REMARK  7 active torsions:
REMARK  status: ('A' for Active; 'I' for Inactive)
REMARK    1  A    between atoms: C2_2  and  C3_3 
REMARK    2  A    between atoms: C4_7  and  N2_8 
REMARK    3  A    between atoms: N2_8  and  N3_9 
REMARK    4  A    between atoms: C5_11  and  C6_12 
REMARK    5  A    between atoms: C7_14  and  O1_15 
REMARK    6  A    between atoms: C8_17  and  N4_18 
REMARK    7  A    between atoms: C11_25  and  N6_26 
ROOT
HETATM    1  N3  UNL     1      15.156  15.028   5.136  1.00  0.00    -0.245 N 
ATOM      2  H3  UNL     1      14.747  15.812   4.627  1.00  0.00     0.201 HD
HETATM    3  C5  UNL     1      15.860  15.590   5.969  1.00  0.00     0.140 C 
ENDROOT
BRANCH   1   4
HETATM    4  N2  UNL     1      14.656  14.036   4.555  1.00  0.00    -0.315 NA
BRANCH   4   5
HETATM    5  C4  UNL     1      14.123  13.024   4.094  1.00  0.00     0.216 A 
HETATM    6  S1  UNL     1      14.507  11.356   4.496  1.00  0.00     0.023 SA
HETATM    7  N1  UNL     1      13.506  10.574   3.394  1.00  0.00    -0.325 N 
HETATM    8  C3  UNL     1      12.916  11.602   2.750  1.00  0.00     0.046 A 
ATOM      9  H1  UNL     1      13.377   9.573   3.249  1.00  0.00     0.174 HD
HETATM   10  C11 UNL     1      13.198  12.834   3.080  1.00  0.00     0.104 A 
BRANCH   8  11
HETATM   11  C2  UNL     1      11.944  11.162   1.638  1.00  0.00     0.055 C 
HETATM   12  C1  UNL     1      12.136   9.758   1.234  1.00  0.00     0.011 C 
ENDBRANCH   8  11
BRANCH  10  13
HETATM   13  N6  UNL     1      12.714  14.101   2.544  1.00  0.00    -0.385 N 
HETATM   14  C12 UNL     1      11.439  14.646   2.810  1.00  0.00     0.149 C 
HETATM   15  C13 UNL     1      13.620  14.857   1.678  1.00  0.00     0.149 C 
ENDBRANCH  10  13
ENDBRANCH   4   5
ENDBRANCH   1   4
BRANCH   3  16
HETATM   16  C6  UNL     1      15.884  17.094   5.965  1.00  0.00     0.033 A 
HETATM   17  S2  UNL     1      14.881  18.287   6.590  1.00  0.00    -0.061 SA
HETATM   18  C7  UNL     1      15.769  19.680   6.042  1.00  0.00     0.137 A 
HETATM   19  C8  UNL     1      16.826  19.151   5.372  1.00  0.00     0.095 A 
HETATM   20  C9  UNL     1      16.920  17.824   5.317  1.00  0.00    -0.012 A 
HETATM   21  C10 UNL     1      18.011  17.095   4.575  1.00  0.00     0.052 C 
BRANCH  18  22
HETATM   22  O1  UNL     1      15.385  21.028   6.273  1.00  0.00    -0.352 OA
ATOM     23  H1  UNL     1      15.957  21.779   6.170  1.00  0.00     0.218 HD
ENDBRANCH  18  22
BRANCH  19  24
HETATM   24  N4  UNL     1      17.591  20.185   4.619  1.00  0.00    -0.303 N 
HETATM   25  N5  UNL     1      17.169  20.983   3.847  1.00  0.00    -0.345 N 
ATOM     26  H52 UNL     1      16.161  20.943   3.693  1.00  0.00     0.176 HD
ATOM     27  H51 UNL     1      17.693  21.691   3.332  1.00  0.00     0.176 HD
ATOM     28  H4  UNL     1      18.597  20.210   4.786  1.00  0.00     0.186 HD
ENDBRANCH  19  24
ENDBRANCH   3  16
TORSDOF 7
ENDMDL
MODEL 5
REMARK VINA RESULT: -6.286309138      3.258      4.339
REMARK  7 active torsions:
REMARK  status: ('A' for Active; 'I' for Inactive)
REMARK    1  A    between atoms: C2_2  and  C3_3 
REMARK    2  A    between atoms: C4_7  and  N2_8 
REMARK    3  A    between atoms: N2_8  and  N3_9 
REMARK    4  A    between atoms: C5_11  and  C6_12 
REMARK    5  A    between atoms: C7_14  and  O1_15 
REMARK    6  A    between atoms: C8_17  and  N4_18 
REMARK    7  A    between atoms: C11_25  and  N6_26 
ROOT
HETATM    1  N3  UNL     1      16.453  11.874   4.512  1.00  0.00    -0.245 N 
ATOM      2  H3  UNL     1      17.357  11.537   4.842  1.00  0.00     0.201 HD
HETATM    3  C5  UNL     1      15.761  10.862   4.549  1.00  0.00     0.140 C 
ENDROOT
BRANCH   1   4
HETATM    4  N2  UNL     1      16.678  13.089   4.299  1.00  0.00    -0.315 NA
BRANCH   4   5
HETATM    5  C4  UNL     1      16.835  14.307   4.190  1.00  0.00     0.216 A 
HETATM    6  S1  UNL     1      15.986  15.384   3.089  1.00  0.00     0.023 SA
HETATM    7  N1  UNL     1      16.819  16.810   3.407  1.00  0.00    -0.325 N 
HETATM    8  C3  UNL     1      17.720  16.424   4.334  1.00  0.00     0.046 A 
ATOM      9  H1  UNL     1      16.679  17.734   3.001  1.00  0.00     0.174 HD
HETATM   10  C11 UNL     1      17.749  15.186   4.749  1.00  0.00     0.104 A 
BRANCH   8  11
HETATM   11  C2  UNL     1      18.659  17.556   4.796  1.00  0.00     0.055 C 
HETATM   12  C1  UNL     1      17.929  18.758   5.236  1.00  0.00     0.011 C 
ENDBRANCH   8  11
BRANCH  10  13
HETATM   13  N6  UNL     1      18.614  14.523   5.718  1.00  0.00    -0.385 N 
HETATM   14  C12 UNL     1      19.823  13.870   5.393  1.00  0.00     0.149 C 
HETATM   15  C13 UNL     1      18.201  14.550   7.122  1.00  0.00     0.149 C 
ENDBRANCH  10  13
ENDBRANCH   4   5
ENDBRANCH   1   4
BRANCH   3  16
HETATM   16  C6  UNL     1      16.409   9.589   5.019  1.00  0.00     0.033 A 
HETATM   17  S2  UNL     1      17.698   9.231   6.036  1.00  0.00    -0.061 SA
HETATM   18  C7  UNL     1      17.643   7.496   5.916  1.00  0.00     0.137 A 
HETATM   19  C8  UNL     1      16.611   7.259   5.064  1.00  0.00     0.095 A 
HETATM   20  C9  UNL     1      15.950   8.312   4.589  1.00  0.00    -0.012 A 
HETATM   21  C10 UNL     1      14.813   8.208   3.605  1.00  0.00     0.052 C 
BRANCH  18  22
HETATM   22  O1  UNL     1      18.534   6.610   6.579  1.00  0.00    -0.352 OA
ATOM     23  H1  UNL     1      18.358   6.189   7.412  1.00  0.00     0.218 HD
ENDBRANCH  18  22
BRANCH  19  24
HETATM   24  N4  UNL     1      16.544   5.831   4.642  1.00  0.00    -0.303 N 
HETATM   25  N5  UNL     1      17.447   5.071   4.501  1.00  0.00    -0.345 N 
ATOM     26  H52 UNL     1      18.370   5.459   4.696  1.00  0.00     0.176 HD
ATOM     27  H51 UNL     1      17.400   4.094   4.213  1.00  0.00     0.176 HD
ATOM     28  H4  UNL     1      15.612   5.461   4.452  1.00  0.00     0.186 HD
ENDBRANCH  19  24
ENDBRANCH   3  16
TORSDOF 7
ENDMDL
