MODEL 1
REMARK VINA RESULT: -7.920146587      0.000      0.000
REMARK  5 active torsions:
REMARK  status: ('A' for Active; 'I' for Inactive)
REMARK    1  A    between atoms: C4_8  and  C5_9 
REMARK    2  A    between atoms: C4_8  and  C18_32 
REMARK    3  A    between atoms: C9_13  and  C10_14 
REMARK    4  A    between atoms: N2_16  and  C12_17 
REMARK    5  A    between atoms: C12_17  and  C13_18 
ROOT
HETATM    1  C5  UNL     1      14.809  13.216   3.157  1.00  0.00     0.006 A 
HETATM    2  C6  UNL     1      15.788  12.681   3.854  1.00  0.00     0.034 A 
HETATM    3  C7  UNL     1      17.152  13.074   4.267  1.00  0.00     0.017 C 
HETATM    4  C8  UNL     1      18.007  12.116   4.672  1.00  0.00     0.032 C 
HETATM    5  C9  UNL     1      17.573  10.750   4.750  1.00  0.00     0.062 C 
HETATM    6  N4  UNL     1      16.331  10.393   4.502  1.00  0.00    -0.331 N 
ATOM      7  H4  UNL     1      16.084   9.404   4.538  1.00  0.00     0.165 HD
HETATM    8  C16 UNL     1      15.340  11.325   4.191  1.00  0.00     0.284 A 
HETATM    9  F3  UNL     1      14.813  11.557   5.622  1.00  0.00    -0.189 F 
HETATM   10  N5  UNL     1      14.124  11.113   3.578  1.00  0.00    -0.343 N 
ATOM     11  H5  UNL     1      13.600  10.238   3.599  1.00  0.00     0.164 HD
HETATM   12  C17 UNL     1      13.751  12.189   2.975  1.00  0.00     0.099 A 
ENDROOT
BRANCH   1  13
HETATM   13  C4  UNL     1      14.752  14.522   2.507  1.00  0.00     0.141 C 
HETATM   14  C3  UNL     1      13.299  15.021   2.725  1.00  0.00     0.210 C 
HETATM   15  O1  UNL     1      13.105  15.151   4.106  1.00  0.00    -0.381 OA
HETATM   16  C2  UNL     1      13.606  16.404   4.455  1.00  0.00     0.243 C 
HETATM   17  C1  UNL     1      15.032  16.439   4.044  1.00  0.00     0.096 C 
HETATM   18  N1  UNL     1      15.799  17.313   4.591  1.00  0.00    -0.387 N 
HETATM   19  N6  UNL     1      15.578  15.539   3.069  1.00  0.00    -0.358 N 
ATOM     20  H12 UNL     1      15.410  17.952   5.284  1.00  0.00     0.157 HD
ATOM     21  H11 UNL     1      16.778  17.336   4.308  1.00  0.00     0.157 HD
ATOM     22  H6  UNL     1      16.553  15.627   2.780  1.00  0.00     0.162 HD
BRANCH  13  23
HETATM   23  C18 UNL     1      14.962  14.366   1.016  1.00  0.00     0.388 C 
HETATM   24  F4  UNL     1      13.738  14.216   0.398  1.00  0.00    -0.211 F 
HETATM   25  F5  UNL     1      15.616  15.439   0.477  1.00  0.00    -0.211 F 
ENDBRANCH  13  23
ENDBRANCH   1  13
BRANCH   5  26
HETATM   26  C10 UNL     1      18.505   9.679   5.112  1.00  0.00     0.091 A 
HETATM   27  C11 UNL     1      18.442   8.443   5.715  1.00  0.00     0.143 A 
HETATM   28  N2  UNL     1      19.770   8.279   5.577  1.00  0.00    -0.300 N 
HETATM   29  N3  UNL     1      19.823   9.464   5.001  1.00  0.00    -0.295 N 
ATOM     30  H3  UNL     1      20.589  10.015   4.612  1.00  0.00     0.187 HD
BRANCH  28  31
HETATM   31  C12 UNL     1      20.685   7.218   5.936  1.00  0.00     0.159 C 
BRANCH  31  32
HETATM   32  C13 UNL     1      20.950   6.422   4.695  1.00  0.00     0.083 A 
HETATM   33  C14 UNL     1      22.366   5.828   4.572  1.00  0.00     0.091 A 
HETATM   34  C15 UNL     1      21.188   4.947   4.922  1.00  0.00     0.249 A 
HETATM   35  F1  UNL     1      21.097   4.469   6.231  1.00  0.00    -0.206 F 
HETATM   36  F2  UNL     1      20.792   4.045   3.976  1.00  0.00    -0.206 F 
ENDBRANCH  31  32
ENDBRANCH  28  31
ENDBRANCH   5  26
TORSDOF 5
ENDMDL
MODEL 2
REMARK VINA RESULT: -7.909153183      5.211      7.502
REMARK  5 active torsions:
REMARK  status: ('A' for Active; 'I' for Inactive)
REMARK    1  A    between atoms: C4_8  and  C5_9 
REMARK    2  A    between atoms: C4_8  and  C18_32 
REMARK    3  A    between atoms: C9_13  and  C10_14 
REMARK    4  A    between atoms: N2_16  and  C12_17 
REMARK    5  A    between atoms: C12_17  and  C13_18 
ROOT
HETATM    1  C5  UNL     1      15.902  18.991   6.710  1.00  0.00     0.006 A 
HETATM    2  C6  UNL     1      15.698  17.694   6.642  1.00  0.00     0.034 A 
HETATM    3  C7  UNL     1      16.531  16.473   6.639  1.00  0.00     0.017 C 
HETATM    4  C8  UNL     1      15.997  15.324   6.185  1.00  0.00     0.032 C 
HETATM    5  C9  UNL     1      14.624  15.285   5.765  1.00  0.00     0.062 C 
HETATM    6  N4  UNL     1      13.829  16.328   5.869  1.00  0.00    -0.331 N 
ATOM      7  H4  UNL     1      12.872  16.257   5.523  1.00  0.00     0.165 HD
HETATM    8  C16 UNL     1      14.254  17.530   6.437  1.00  0.00     0.284 A 
HETATM    9  F3  UNL     1      13.801  17.249   7.886  1.00  0.00    -0.189 F 
HETATM   10  N5  UNL     1      13.697  18.784   6.310  1.00  0.00    -0.343 N 
ATOM     11  H5  UNL     1      12.714  18.974   6.111  1.00  0.00     0.164 HD
HETATM   12  C17 UNL     1      14.607  19.680   6.480  1.00  0.00     0.099 A 
ENDROOT
BRANCH   1  13
HETATM   13  C4  UNL     1      17.164  19.715   6.833  1.00  0.00     0.141 C 
HETATM   14  C3  UNL     1      18.058  19.169   5.688  1.00  0.00     0.210 C 
HETATM   15  O1  UNL     1      17.427  19.485   4.478  1.00  0.00    -0.381 OA
HETATM   16  C2  UNL     1      17.801  20.792   4.171  1.00  0.00     0.243 C 
HETATM   17  C1  UNL     1      17.381  21.650   5.307  1.00  0.00     0.096 C 
HETATM   18  N1  UNL     1      17.265  22.912   5.102  1.00  0.00    -0.387 N 
HETATM   19  N6  UNL     1      17.103  21.123   6.612  1.00  0.00    -0.358 N 
ATOM     20  H12 UNL     1      17.463  23.287   4.174  1.00  0.00     0.157 HD
ATOM     21  H11 UNL     1      16.977  23.501   5.883  1.00  0.00     0.157 HD
ATOM     22  H6  UNL     1      16.863  21.752   7.379  1.00  0.00     0.162 HD
BRANCH  13  23
HETATM   23  C18 UNL     1      17.836  19.364   8.142  1.00  0.00     0.388 C 
HETATM   24  F4  UNL     1      18.951  18.594   7.890  1.00  0.00    -0.211 F 
HETATM   25  F5  UNL     1      18.201  20.479   8.844  1.00  0.00    -0.211 F 
ENDBRANCH  13  23
ENDBRANCH   1  13
BRANCH   5  26
HETATM   26  C10 UNL     1      14.042  14.068   5.193  1.00  0.00     0.091 A 
HETATM   27  C11 UNL     1      13.140  13.746   4.205  1.00  0.00     0.143 A 
HETATM   28  N2  UNL     1      13.291  12.434   4.459  1.00  0.00    -0.300 N 
HETATM   29  N3  UNL     1      14.154  12.749   5.405  1.00  0.00    -0.295 N 
ATOM     30  H3  UNL     1      14.706  12.193   6.058  1.00  0.00     0.187 HD
BRANCH  28  31
HETATM   31  C12 UNL     1      12.713  11.235   3.890  1.00  0.00     0.159 C 
BRANCH  31  32
HETATM   32  C13 UNL     1      13.816  10.498   3.195  1.00  0.00     0.083 A 
HETATM   33  C14 UNL     1      14.236   9.162   3.837  1.00  0.00     0.091 A 
HETATM   34  C15 UNL     1      13.410   9.183   2.570  1.00  0.00     0.249 A 
HETATM   35  F1  UNL     1      12.067   8.810   2.660  1.00  0.00    -0.206 F 
HETATM   36  F2  UNL     1      14.026   8.759   1.427  1.00  0.00    -0.206 F 
ENDBRANCH  31  32
ENDBRANCH  28  31
ENDBRANCH   5  26
TORSDOF 5
ENDMDL
MODEL 3
REMARK VINA RESULT: -7.873694220      3.309      9.518
REMARK  5 active torsions:
REMARK  status: ('A' for Active; 'I' for Inactive)
REMARK    1  A    between atoms: C4_8  and  C5_9 
REMARK    2  A    between atoms: C4_8  and  C18_32 
REMARK    3  A    between atoms: C9_13  and  C10_14 
REMARK    4  A    between atoms: N2_16  and  C12_17 
REMARK    5  A    between atoms: C12_17  and  C13_18 
ROOT
HETATM    1  C5  UNL     1      18.937   8.010   6.194  1.00  0.00     0.006 A 
HETATM    2  C6  UNL     1      17.694   8.291   5.873  1.00  0.00     0.034 A 
HETATM    3  C7  UNL     1      16.600   7.631   5.129  1.00  0.00     0.017 C 
HETATM    4  C8  UNL     1      15.573   8.379   4.687  1.00  0.00     0.032 C 
HETATM    5  C9  UNL     1      15.525   9.783   4.984  1.00  0.00     0.062 C 
HETATM    6  N4  UNL     1      16.425  10.371   5.743  1.00  0.00    -0.331 N 
ATOM      7  H4  UNL     1      16.362  11.378   5.894  1.00  0.00     0.165 HD
HETATM    8  C16 UNL     1      17.461   9.660   6.349  1.00  0.00     0.284 A 
HETATM    9  F3  UNL     1      16.760   9.368   7.692  1.00  0.00    -0.189 F 
HETATM   10  N5  UNL     1      18.647  10.140   6.860  1.00  0.00    -0.343 N 
ATOM     11  H5  UNL     1      18.794  11.084   7.219  1.00  0.00     0.164 HD
HETATM   12  C17 UNL     1      19.543   9.215   6.817  1.00  0.00     0.099 A 
ENDROOT
BRANCH   1  13
HETATM   13  C4  UNL     1      19.713   6.810   5.894  1.00  0.00     0.141 C 
HETATM   14  C3  UNL     1      20.223   6.302   7.269  1.00  0.00     0.210 C 
HETATM   15  O1  UNL     1      19.099   5.979   8.039  1.00  0.00    -0.381 OA
HETATM   16  C2  UNL     1      18.735   4.683   7.676  1.00  0.00     0.243 C 
HETATM   17  C1  UNL     1      18.479   4.691   6.213  1.00  0.00     0.096 C 
HETATM   18  N1  UNL     1      17.773   3.739   5.718  1.00  0.00    -0.387 N 
HETATM   19  N6  UNL     1      18.986   5.713   5.345  1.00  0.00    -0.358 N 
ATOM     20  H12 UNL     1      17.413   3.012   6.336  1.00  0.00     0.157 HD
ATOM     21  H11 UNL     1      17.598   3.744   4.713  1.00  0.00     0.157 HD
ATOM     22  H6  UNL     1      18.827   5.656   4.338  1.00  0.00     0.162 HD
BRANCH  13  23
HETATM   23  C18 UNL     1      20.926   7.173   5.065  1.00  0.00     0.388 C 
HETATM   24  F4  UNL     1      22.032   7.253   5.885  1.00  0.00    -0.211 F 
HETATM   25  F5  UNL     1      21.159   6.261   4.074  1.00  0.00    -0.211 F 
ENDBRANCH  13  23
ENDBRANCH   1  13
BRANCH   5  26
HETATM   26  C10 UNL     1      14.459  10.635   4.447  1.00  0.00     0.091 A 
HETATM   27  C11 UNL     1      13.944  11.887   4.693  1.00  0.00     0.143 A 
HETATM   28  N2  UNL     1      13.040  11.737   3.710  1.00  0.00    -0.300 N 
HETATM   29  N3  UNL     1      13.538  10.538   3.479  1.00  0.00    -0.295 N 
ATOM     30  H3  UNL     1      13.306   9.805   2.808  1.00  0.00     0.187 HD
BRANCH  28  31
HETATM   31  C12 UNL     1      11.990  12.582   3.183  1.00  0.00     0.159 C 
BRANCH  31  32
HETATM   32  C13 UNL     1      12.366  12.932   1.777  1.00  0.00     0.083 A 
HETATM   33  C14 UNL     1      11.762  14.238   1.228  1.00  0.00     0.091 A 
HETATM   34  C15 UNL     1      13.217  14.173   1.634  1.00  0.00     0.249 A 
HETATM   35  F1  UNL     1      13.599  14.836   2.803  1.00  0.00    -0.206 F 
HETATM   36  F2  UNL     1      14.140  14.249   0.629  1.00  0.00    -0.206 F 
ENDBRANCH  31  32
ENDBRANCH  28  31
ENDBRANCH   5  26
TORSDOF 5
ENDMDL
MODEL 4
REMARK VINA RESULT: -7.837369148      1.170      1.388
REMARK  5 active torsions:
REMARK  status: ('A' for Active; 'I' for Inactive)
REMARK    1  A    between atoms: C4_8  and  C5_9 
REMARK    2  A    between atoms: C4_8  and  C18_32 
REMARK    3  A    between atoms: C9_13  and  C10_14 
REMARK    4  A    between atoms: N2_16  and  C12_17 
REMARK    5  A    between atoms: C12_17  and  C13_18 
ROOT
HETATM    1  C5  UNL     1      15.767  13.436   3.271  1.00  0.00     0.006 A 
HETATM    2  C6  UNL     1      16.647  12.743   3.961  1.00  0.00     0.034 A 
HETATM    3  C7  UNL     1      18.063  12.895   4.356  1.00  0.00     0.017 C 
HETATM    4  C8  UNL     1      18.744  11.805   4.758  1.00  0.00     0.032 C 
HETATM    5  C9  UNL     1      18.080  10.535   4.850  1.00  0.00     0.062 C 
HETATM    6  N4  UNL     1      16.792  10.398   4.617  1.00  0.00    -0.331 N 
ATOM      7  H4  UNL     1      16.378   9.467   4.663  1.00  0.00     0.165 HD
HETATM    8  C16 UNL     1      15.974  11.487   4.311  1.00  0.00     0.284 A 
HETATM    9  F3  UNL     1      15.512  11.813   5.747  1.00  0.00    -0.189 F 
HETATM   10  N5  UNL     1      14.733  11.487   3.713  1.00  0.00    -0.343 N 
ATOM     11  H5  UNL     1      14.065  10.716   3.745  1.00  0.00     0.164 HD
HETATM   12  C17 UNL     1      14.545  12.608   3.107  1.00  0.00     0.099 A 
ENDROOT
BRANCH   1  13
HETATM   13  C4  UNL     1      15.930  14.730   2.613  1.00  0.00     0.141 C 
HETATM   14  C3  UNL     1      14.670  15.545   3.004  1.00  0.00     0.210 C 
HETATM   15  O1  UNL     1      14.685  15.698   4.397  1.00  0.00    -0.381 OA
HETATM   16  C2  UNL     1      15.501  16.797   4.660  1.00  0.00     0.243 C 
HETATM   17  C1  UNL     1      16.833  16.509   4.073  1.00  0.00     0.096 C 
HETATM   18  N1  UNL     1      17.842  17.176   4.506  1.00  0.00    -0.387 N 
HETATM   19  N6  UNL     1      17.032  15.522   3.052  1.00  0.00    -0.358 N 
ATOM     20  H12 UNL     1      17.701  17.878   5.232  1.00  0.00     0.157 HD
ATOM     21  H11 UNL     1      18.758  16.979   4.102  1.00  0.00     0.157 HD
ATOM     22  H6  UNL     1      17.956  15.388   2.641  1.00  0.00     0.162 HD
BRANCH  13  23
HETATM   23  C18 UNL     1      15.909  14.551   1.111  1.00  0.00     0.388 C 
HETATM   24  F4  UNL     1      15.680  15.772   0.510  1.00  0.00    -0.211 F 
HETATM   25  F5  UNL     1      17.080  14.026   0.642  1.00  0.00    -0.211 F 
ENDBRANCH  13  23
ENDBRANCH   1  13
BRANCH   5  26
HETATM   26  C10 UNL     1      18.817   9.320   5.209  1.00  0.00     0.091 A 
HETATM   27  C11 UNL     1      18.525   8.066   5.693  1.00  0.00     0.143 A 
HETATM   28  N2  UNL     1      19.826   7.726   5.673  1.00  0.00    -0.300 N 
HETATM   29  N3  UNL     1      20.099   8.930   5.209  1.00  0.00    -0.295 N 
ATOM     30  H3  UNL     1      20.969   9.394   4.947  1.00  0.00     0.187 HD
BRANCH  28  31
HETATM   31  C12 UNL     1      20.548   6.524   6.028  1.00  0.00     0.159 C 
BRANCH  31  32
HETATM   32  C13 UNL     1      21.917   6.638   5.433  1.00  0.00     0.083 A 
HETATM   33  C14 UNL     1      22.896   5.503   5.787  1.00  0.00     0.091 A 
HETATM   34  C15 UNL     1      22.262   5.574   4.417  1.00  0.00     0.249 A 
HETATM   35  F1  UNL     1      21.278   4.633   4.103  1.00  0.00    -0.206 F 
HETATM   36  F2  UNL     1      23.087   5.879   3.371  1.00  0.00    -0.206 F 
ENDBRANCH  31  32
ENDBRANCH  28  31
ENDBRANCH   5  26
TORSDOF 5
ENDMDL
MODEL 5
REMARK VINA RESULT: -7.821572370      1.305      1.411
REMARK  5 active torsions:
REMARK  status: ('A' for Active; 'I' for Inactive)
REMARK    1  A    between atoms: C4_8  and  C5_9 
REMARK    2  A    between atoms: C4_8  and  C18_32 
REMARK    3  A    between atoms: C9_13  and  C10_14 
REMARK    4  A    between atoms: N2_16  and  C12_17 
REMARK    5  A    between atoms: C12_17  and  C13_18 
ROOT
HETATM    1  C5  UNL     1      13.992  13.191   3.139  1.00  0.00     0.006 A 
HETATM    2  C6  UNL     1      14.785  12.431   3.861  1.00  0.00     0.034 A 
HETATM    3  C7  UNL     1      16.170  12.503   4.374  1.00  0.00     0.017 C 
HETATM    4  C8  UNL     1      16.773  11.369   4.775  1.00  0.00     0.032 C 
HETATM    5  C9  UNL     1      16.055  10.125   4.752  1.00  0.00     0.062 C 
HETATM    6  N4  UNL     1      14.786  10.054   4.413  1.00  0.00    -0.331 N 
ATOM      7  H4  UNL     1      14.333   9.141   4.381  1.00  0.00     0.165 HD
HETATM    8  C16 UNL     1      14.039  11.189   4.096  1.00  0.00     0.284 A 
HETATM    9  F3  UNL     1      13.475  11.470   5.505  1.00  0.00    -0.189 F 
HETATM   10  N5  UNL     1      12.851  11.270   3.403  1.00  0.00    -0.343 N 
ATOM     11  H5  UNL     1      12.152  10.528   3.346  1.00  0.00     0.164 HD
HETATM   12  C17 UNL     1      12.756  12.424   2.839  1.00  0.00     0.099 A 
ENDROOT
BRANCH   1  13
HETATM   13  C4  UNL     1      14.259  14.505   2.559  1.00  0.00     0.141 C 
HETATM   14  C3  UNL     1      12.874  15.200   2.477  1.00  0.00     0.210 C 
HETATM   15  O1  UNL     1      12.393  15.330   3.787  1.00  0.00    -0.381 OA
HETATM   16  C2  UNL     1      12.966  16.492   4.300  1.00  0.00     0.243 C 
HETATM   17  C1  UNL     1      14.440  16.332   4.215  1.00  0.00     0.096 C 
HETATM   18  N1  UNL     1      15.173  17.078   4.961  1.00  0.00    -0.387 N 
HETATM   19  N6  UNL     1      15.065  15.384   3.340  1.00  0.00    -0.358 N 
ATOM     20  H12 UNL     1      14.728  17.752   5.583  1.00  0.00     0.157 HD
ATOM     21  H11 UNL     1      16.185  16.968   4.902  1.00  0.00     0.157 HD
ATOM     22  H6  UNL     1      16.083  15.338   3.278  1.00  0.00     0.162 HD
BRANCH  13  23
HETATM   23  C18 UNL     1      14.775  14.350   1.145  1.00  0.00     0.388 C 
HETATM   24  F4  UNL     1      13.720  14.066   0.303  1.00  0.00    -0.211 F 
HETATM   25  F5  UNL     1      15.415  15.476   0.709  1.00  0.00    -0.211 F 
ENDBRANCH  13  23
ENDBRANCH   1  13
BRANCH   5  26
HETATM   26  C10 UNL     1      16.712   8.865   5.109  1.00  0.00     0.091 A 
HETATM   27  C11 UNL     1      16.448   7.519   4.996  1.00  0.00     0.143 A 
HETATM   28  N2  UNL     1      17.613   7.214   5.594  1.00  0.00    -0.300 N 
HETATM   29  N3  UNL     1      17.860   8.505   5.699  1.00  0.00    -0.295 N 
ATOM     30  H3  UNL     1      18.640   9.035   6.087  1.00  0.00     0.187 HD
BRANCH  28  31
HETATM   31  C12 UNL     1      18.258   5.966   5.943  1.00  0.00     0.159 C 
BRANCH  31  32
HETATM   32  C13 UNL     1      19.555   5.914   5.196  1.00  0.00     0.083 A 
HETATM   33  C14 UNL     1      20.797   5.565   6.037  1.00  0.00     0.091 A 
HETATM   34  C15 UNL     1      20.185   4.542   5.107  1.00  0.00     0.249 A 
HETATM   35  F1  UNL     1      19.492   3.472   5.678  1.00  0.00    -0.206 F 
HETATM   36  F2  UNL     1      20.912   4.203   4.001  1.00  0.00    -0.206 F 
ENDBRANCH  31  32
ENDBRANCH  28  31
ENDBRANCH   5  26
TORSDOF 5
ENDMDL
