MODEL 1
REMARK VINA RESULT: -8.576578778      0.000      0.000
REMARK  7 active torsions:
REMARK  status: ('A' for Active; 'I' for Inactive)
REMARK    1  A    between atoms: C5_6  and  O1_7 
REMARK    2  A    between atoms: O1_7  and  C6_8 
REMARK    3  A    between atoms: C7_11  and  C8_12 
REMARK    4  A    between atoms: C8_12  and  C9_13 
REMARK    5  A    between atoms: C14_19  and  C15_20 
REMARK    6  A    between atoms: C14_19  and  C16_23 
REMARK    7  A    between atoms: C18_25  and  O2_27 
ROOT
HETATM    1  C8  UNL     1      14.560  13.193   3.556  1.00  0.00     0.117 A 
HETATM    2  C10 UNL     1      15.708  13.513   4.478  1.00  0.00     0.054 A 
HETATM    3  C11 UNL     1      15.142  14.361   5.553  1.00  0.00     0.034 A 
HETATM    4  C12 UNL     1      13.698  14.472   5.222  1.00  0.00     0.129 A 
HETATM    5  C13 UNL     1      13.892  15.951   4.942  1.00  0.00     0.050 C 
HETATM    6  C14 UNL     1      15.278  15.839   5.510  1.00  0.00     0.056 C 
HETATM    7  O3  UNL     1      13.451  13.776   4.094  1.00  0.00    -0.367 OA
ENDROOT
BRANCH   1   8
HETATM    8  C7  UNL     1      14.307  11.720   3.497  1.00  0.00     0.015 A 
HETATM    9  C5  UNL     1      13.341  11.113   2.736  1.00  0.00     0.108 A 
HETATM   10  C4  UNL     1      13.189   9.704   2.692  1.00  0.00     0.081 A 
HETATM   11  C3  UNL     1      14.048   8.946   3.444  1.00  0.00     0.036 A 
HETATM   12  N1  UNL     1      12.169   9.124   1.888  1.00  0.00    -0.099 NA
HETATM   13  C2  UNL     1      15.032   9.519   4.222  1.00  0.00    -0.059 A 
HETATM   14  C1  UNL     1      15.953   8.677   5.031  1.00  0.00     0.048 C 
HETATM   15  C20 UNL     1      15.155  10.897   4.244  1.00  0.00     0.020 A 
BRANCH   9  16
HETATM   16  O1  UNL     1      12.445  11.786   1.975  1.00  0.00    -0.287 OA
BRANCH  16  17
HETATM   17  C6  UNL     1      11.197  12.312   2.161  1.00  0.00     0.505 C 
HETATM   18  F1  UNL     1      10.236  11.645   1.375  1.00  0.00    -0.184 F 
HETATM   19  F2  UNL     1      10.744  12.368   3.470  1.00  0.00    -0.184 F 
ENDBRANCH  16  17
ENDBRANCH   9  16
ENDBRANCH   1   8
BRANCH   1  20
HETATM   20  C9  UNL     1      14.791  13.757   2.181  1.00  0.00     0.265 C 
HETATM   21  F3  UNL     1      13.755  14.637   1.883  1.00  0.00    -0.252 F 
ENDBRANCH   1  20
BRANCH   6  22
HETATM   22  C15 UNL     1      15.321  16.364   6.951  1.00  0.00     0.364 C 
HETATM   23  F4  UNL     1      16.242  15.671   7.712  1.00  0.00    -0.214 F 
HETATM   24  F5  UNL     1      14.077  16.119   7.549  1.00  0.00    -0.214 F 
ENDBRANCH   6  22
BRANCH   6  25
HETATM   25  C16 UNL     1      16.315  16.447   4.624  1.00  0.00     0.208 C 
HETATM   26  C17 UNL     1      16.868  17.739   5.138  1.00  0.00     0.102 C 
HETATM   27  C18 UNL     1      18.285  17.161   5.089  1.00  0.00     0.223 C 
HETATM   28  C19 UNL     1      19.064  17.282   6.363  1.00  0.00     0.078 C 
HETATM   29  N2  UNL     1      17.653  15.874   4.894  1.00  0.00    -0.038 N 
ATOM     30  H22 UNL     1      17.739  15.178   5.635  1.00  0.00     0.281 HD
ATOM     31  H21 UNL     1      18.054  15.240   4.203  1.00  0.00     0.281 HD
BRANCH  27  32
HETATM   32  O2  UNL     1      18.966  17.638   3.958  1.00  0.00    -0.365 OA
ATOM     33  H2  UNL     1      19.588  16.989   3.651  1.00  0.00     0.212 HD
ENDBRANCH  27  32
ENDBRANCH   6  25
TORSDOF 7
ENDMDL
MODEL 2
REMARK VINA RESULT: -8.162765061      1.942      2.596
REMARK  7 active torsions:
REMARK  status: ('A' for Active; 'I' for Inactive)
REMARK    1  A    between atoms: C5_6  and  O1_7 
REMARK    2  A    between atoms: O1_7  and  C6_8 
REMARK    3  A    between atoms: C7_11  and  C8_12 
REMARK    4  A    between atoms: C8_12  and  C9_13 
REMARK    5  A    between atoms: C14_19  and  C15_20 
REMARK    6  A    between atoms: C14_19  and  C16_23 
REMARK    7  A    between atoms: C18_25  and  O2_27 
ROOT
HETATM    1  C8  UNL     1      14.770  12.811   4.194  1.00  0.00     0.117 A 
HETATM    2  C10 UNL     1      13.636  13.386   5.003  1.00  0.00     0.054 A 
HETATM    3  C11 UNL     1      13.070  14.485   4.186  1.00  0.00     0.034 A 
HETATM    4  C12 UNL     1      13.877  14.480   2.940  1.00  0.00     0.129 A 
HETATM    5  C13 UNL     1      14.451  15.831   3.325  1.00  0.00     0.050 C 
HETATM    6  C14 UNL     1      13.448  15.898   4.440  1.00  0.00     0.056 C 
HETATM    7  O3  UNL     1      14.801  13.501   3.017  1.00  0.00    -0.367 OA
ENDROOT
BRANCH   1   8
HETATM    8  C7  UNL     1      14.524  11.374   3.862  1.00  0.00     0.015 A 
HETATM    9  C5  UNL     1      13.582  10.916   2.977  1.00  0.00     0.108 A 
HETATM   10  C4  UNL     1      13.437   9.538   2.675  1.00  0.00     0.081 A 
HETATM   11  C3  UNL     1      14.279   8.656   3.301  1.00  0.00     0.036 A 
HETATM   12  N1  UNL     1      12.443   9.114   1.750  1.00  0.00    -0.099 NA
HETATM   13  C2  UNL     1      15.238   9.077   4.197  1.00  0.00    -0.059 A 
HETATM   14  C1  UNL     1      16.139   8.102   4.866  1.00  0.00     0.048 C 
HETATM   15  C20 UNL     1      15.355  10.428   4.472  1.00  0.00     0.020 A 
BRANCH   9  16
HETATM   16  O1  UNL     1      12.705  11.716   2.326  1.00  0.00    -0.287 OA
BRANCH  16  17
HETATM   17  C6  UNL     1      11.345  11.818   2.242  1.00  0.00     0.505 C 
HETATM   18  F1  UNL     1      10.805  12.440   3.387  1.00  0.00    -0.184 F 
HETATM   19  F2  UNL     1      10.845  12.448   1.114  1.00  0.00    -0.184 F 
ENDBRANCH  16  17
ENDBRANCH   9  16
ENDBRANCH   1   8
BRANCH   1  20
HETATM   20  C9  UNL     1      16.086  12.986   4.898  1.00  0.00     0.265 C 
HETATM   21  F3  UNL     1      16.977  13.607   4.028  1.00  0.00    -0.252 F 
ENDBRANCH   1  20
BRANCH   6  22
HETATM   22  C15 UNL     1      12.263  16.794   4.055  1.00  0.00     0.364 C 
HETATM   23  F4  UNL     1      11.835  17.550   5.128  1.00  0.00    -0.214 F 
HETATM   24  F5  UNL     1      11.179  15.972   3.716  1.00  0.00    -0.214 F 
ENDBRANCH   6  22
BRANCH   6  25
HETATM   25  C16 UNL     1      14.066  16.260   5.751  1.00  0.00     0.208 C 
HETATM   26  C17 UNL     1      15.557  16.149   5.768  1.00  0.00     0.102 C 
HETATM   27  C18 UNL     1      15.669  17.613   6.197  1.00  0.00     0.223 C 
HETATM   28  C19 UNL     1      16.574  18.456   5.351  1.00  0.00     0.078 C 
HETATM   29  N2  UNL     1      14.265  17.722   5.864  1.00  0.00    -0.038 N 
ATOM     30  H22 UNL     1      14.003  18.307   5.071  1.00  0.00     0.281 HD
ATOM     31  H21 UNL     1      13.659  18.244   6.497  1.00  0.00     0.281 HD
BRANCH  27  32
HETATM   32  O2  UNL     1      15.936  17.698   7.573  1.00  0.00    -0.365 OA
ATOM     33  H2  UNL     1      15.245  18.181   8.013  1.00  0.00     0.212 HD
ENDBRANCH  27  32
ENDBRANCH   6  25
TORSDOF 7
ENDMDL
MODEL 3
REMARK VINA RESULT: -7.953063391      2.032      2.842
REMARK  7 active torsions:
REMARK  status: ('A' for Active; 'I' for Inactive)
REMARK    1  A    between atoms: C5_6  and  O1_7 
REMARK    2  A    between atoms: O1_7  and  C6_8 
REMARK    3  A    between atoms: C7_11  and  C8_12 
REMARK    4  A    between atoms: C8_12  and  C9_13 
REMARK    5  A    between atoms: C14_19  and  C15_20 
REMARK    6  A    between atoms: C14_19  and  C16_23 
REMARK    7  A    between atoms: C18_25  and  O2_27 
ROOT
HETATM    1  C8  UNL     1      15.215  12.736   5.364  1.00  0.00     0.117 A 
HETATM    2  C10 UNL     1      15.871  13.671   4.380  1.00  0.00     0.054 A 
HETATM    3  C11 UNL     1      17.269  13.835   4.846  1.00  0.00     0.034 A 
HETATM    4  C12 UNL     1      17.366  12.974   6.052  1.00  0.00     0.129 A 
HETATM    5  C13 UNL     1      17.542  14.217   6.905  1.00  0.00     0.050 C 
HETATM    6  C14 UNL     1      17.674  15.020   5.643  1.00  0.00     0.056 C 
HETATM    7  O3  UNL     1      16.175  12.381   6.266  1.00  0.00    -0.367 OA
ENDROOT
BRANCH   1   8
HETATM    8  C7  UNL     1      14.749  11.484   4.692  1.00  0.00     0.015 A 
HETATM    9  C5  UNL     1      13.684  11.397   3.832  1.00  0.00     0.108 A 
HETATM   10  C4  UNL     1      13.327  10.182   3.193  1.00  0.00     0.081 A 
HETATM   11  C3  UNL     1      14.088   9.074   3.459  1.00  0.00     0.036 A 
HETATM   12  N1  UNL     1      12.211  10.145   2.311  1.00  0.00    -0.099 NA
HETATM   13  C2  UNL     1      15.166   9.121   4.318  1.00  0.00    -0.059 A 
HETATM   14  C1  UNL     1      15.976   7.906   4.594  1.00  0.00     0.048 C 
HETATM   15  C20 UNL     1      15.489  10.321   4.927  1.00  0.00     0.020 A 
BRANCH   9  16
HETATM   16  O1  UNL     1      12.875  12.438   3.524  1.00  0.00    -0.287 OA
BRANCH  16  17
HETATM   17  C6  UNL     1      12.805  13.363   2.520  1.00  0.00     0.505 C 
HETATM   18  F1  UNL     1      12.562  14.655   3.028  1.00  0.00    -0.184 F 
HETATM   19  F2  UNL     1      13.890  13.418   1.659  1.00  0.00    -0.184 F 
ENDBRANCH  16  17
ENDBRANCH   9  16
ENDBRANCH   1   8
BRANCH   1  20
HETATM   20  C9  UNL     1      14.087  13.413   6.090  1.00  0.00     0.265 C 
HETATM   21  F3  UNL     1      13.907  14.682   5.549  1.00  0.00    -0.252 F 
ENDBRANCH   1  20
BRANCH   6  22
HETATM   22  C15 UNL     1      19.147  15.325   5.343  1.00  0.00     0.364 C 
HETATM   23  F4  UNL     1      19.727  14.321   4.594  1.00  0.00    -0.214 F 
HETATM   24  F5  UNL     1      19.851  15.347   6.555  1.00  0.00    -0.214 F 
ENDBRANCH   6  22
BRANCH   6  25
HETATM   25  C16 UNL     1      16.802  16.232   5.636  1.00  0.00     0.208 C 
HETATM   26  C17 UNL     1      17.307  17.346   6.498  1.00  0.00     0.102 C 
HETATM   27  C18 UNL     1      17.299  18.292   5.295  1.00  0.00     0.223 C 
HETATM   28  C19 UNL     1      18.588  19.014   5.047  1.00  0.00     0.078 C 
HETATM   29  N2  UNL     1      17.111  17.108   4.483  1.00  0.00    -0.038 N 
ATOM     30  H22 UNL     1      17.865  16.830   3.855  1.00  0.00     0.281 HD
ATOM     31  H21 UNL     1      16.439  17.151   3.717  1.00  0.00     0.281 HD
BRANCH  27  32
HETATM   32  O2  UNL     1      16.176  19.132   5.344  1.00  0.00    -0.365 OA
ATOM     33  H2  UNL     1      16.435  20.036   5.208  1.00  0.00     0.212 HD
ENDBRANCH  27  32
ENDBRANCH   6  25
TORSDOF 7
ENDMDL
MODEL 4
REMARK VINA RESULT: -7.924373049      2.130      2.859
REMARK  7 active torsions:
REMARK  status: ('A' for Active; 'I' for Inactive)
REMARK    1  A    between atoms: C5_6  and  O1_7 
REMARK    2  A    between atoms: O1_7  and  C6_8 
REMARK    3  A    between atoms: C7_11  and  C8_12 
REMARK    4  A    between atoms: C8_12  and  C9_13 
REMARK    5  A    between atoms: C14_19  and  C15_20 
REMARK    6  A    between atoms: C14_19  and  C16_23 
REMARK    7  A    between atoms: C18_25  and  O2_27 
ROOT
HETATM    1  C8  UNL     1      15.326  12.286   5.389  1.00  0.00     0.117 A 
HETATM    2  C10 UNL     1      15.635  13.297   4.314  1.00  0.00     0.054 A 
HETATM    3  C11 UNL     1      16.908  13.940   4.716  1.00  0.00     0.034 A 
HETATM    4  C12 UNL     1      17.290  13.261   5.980  1.00  0.00     0.129 A 
HETATM    5  C13 UNL     1      17.061  14.561   6.729  1.00  0.00     0.050 C 
HETATM    6  C14 UNL     1      16.916  15.255   5.406  1.00  0.00     0.056 C 
HETATM    7  O3  UNL     1      16.357  12.335   6.281  1.00  0.00    -0.367 OA
ENDROOT
BRANCH   1   8
HETATM    8  C7  UNL     1      15.284  10.899   4.831  1.00  0.00     0.015 A 
HETATM    9  C5  UNL     1      14.554  10.507   3.738  1.00  0.00     0.108 A 
HETATM   10  C4  UNL     1      14.601   9.182   3.236  1.00  0.00     0.081 A 
HETATM   11  C3  UNL     1      15.409   8.283   3.881  1.00  0.00     0.036 A 
HETATM   12  N1  UNL     1      13.822   8.826   2.099  1.00  0.00    -0.099 NA
HETATM   13  C2  UNL     1      16.157   8.638   4.984  1.00  0.00    -0.059 A 
HETATM   14  C1  UNL     1      17.026   7.645   5.669  1.00  0.00     0.048 C 
HETATM   15  C20 UNL     1      16.091   9.939   5.451  1.00  0.00     0.020 A 
BRANCH   9  16
HETATM   16  O1  UNL     1      13.724  11.326   3.051  1.00  0.00    -0.287 OA
BRANCH  16  17
HETATM   17  C6  UNL     1      12.389  11.617   3.077  1.00  0.00     0.505 C 
HETATM   18  F1  UNL     1      11.763  11.057   4.209  1.00  0.00    -0.184 F 
HETATM   19  F2  UNL     1      12.050  12.958   2.997  1.00  0.00    -0.184 F 
ENDBRANCH  16  17
ENDBRANCH   9  16
ENDBRANCH   1   8
BRANCH   1  20
HETATM   20  C9  UNL     1      14.045  12.622   6.101  1.00  0.00     0.265 C 
HETATM   21  F3  UNL     1      13.475  13.735   5.490  1.00  0.00    -0.252 F 
ENDBRANCH   1  20
BRANCH   6  22
HETATM   22  C15 UNL     1      18.208  15.992   5.032  1.00  0.00     0.364 C 
HETATM   23  F4  UNL     1      19.216  15.107   4.705  1.00  0.00    -0.214 F 
HETATM   24  F5  UNL     1      18.665  16.685   6.162  1.00  0.00    -0.214 F 
ENDBRANCH   6  22
BRANCH   6  25
HETATM   25  C16 UNL     1      15.698  16.117   5.338  1.00  0.00     0.208 C 
HETATM   26  C17 UNL     1      15.303  16.712   6.652  1.00  0.00     0.102 C 
HETATM   27  C18 UNL     1      15.377  18.116   6.047  1.00  0.00     0.223 C 
HETATM   28  C19 UNL     1      16.225  19.090   6.806  1.00  0.00     0.078 C 
HETATM   29  N2  UNL     1      16.040  17.496   4.921  1.00  0.00    -0.038 N 
ATOM     30  H22 UNL     1      17.021  17.720   4.756  1.00  0.00     0.281 HD
ATOM     31  H21 UNL     1      15.776  17.795   3.982  1.00  0.00     0.281 HD
BRANCH  27  32
HETATM   32  O2  UNL     1      14.087  18.590   5.759  1.00  0.00    -0.365 OA
ATOM     33  H2  UNL     1      13.937  19.421   6.194  1.00  0.00     0.212 HD
ENDBRANCH  27  32
ENDBRANCH   6  25
TORSDOF 7
ENDMDL
MODEL 5
REMARK VINA RESULT: -7.903036801      1.364      1.562
REMARK  7 active torsions:
REMARK  status: ('A' for Active; 'I' for Inactive)
REMARK    1  A    between atoms: C5_6  and  O1_7 
REMARK    2  A    between atoms: O1_7  and  C6_8 
REMARK    3  A    between atoms: C7_11  and  C8_12 
REMARK    4  A    between atoms: C8_12  and  C9_13 
REMARK    5  A    between atoms: C14_19  and  C15_20 
REMARK    6  A    between atoms: C14_19  and  C16_23 
REMARK    7  A    between atoms: C18_25  and  O2_27 
ROOT
HETATM    1  C8  UNL     1      14.070  14.198   3.426  1.00  0.00     0.117 A 
HETATM    2  C10 UNL     1      15.238  14.249   4.377  1.00  0.00     0.054 A 
HETATM    3  C11 UNL     1      14.779  15.041   5.543  1.00  0.00     0.034 A 
HETATM    4  C12 UNL     1      13.369  15.387   5.229  1.00  0.00     0.129 A 
HETATM    5  C13 UNL     1      13.769  16.847   5.121  1.00  0.00     0.050 C 
HETATM    6  C14 UNL     1      15.118  16.480   5.670  1.00  0.00     0.056 C 
HETATM    7  O3  UNL     1      13.044  14.864   4.030  1.00  0.00    -0.367 OA
ENDROOT
BRANCH   1   8
HETATM    8  C7  UNL     1      13.617  12.791   3.199  1.00  0.00     0.015 A 
HETATM    9  C5  UNL     1      12.494  12.424   2.503  1.00  0.00     0.108 A 
HETATM   10  C4  UNL     1      12.151  11.065   2.286  1.00  0.00     0.081 A 
HETATM   11  C3  UNL     1      12.986  10.107   2.799  1.00  0.00     0.036 A 
HETATM   12  N1  UNL     1      10.973  10.738   1.558  1.00  0.00    -0.099 NA
HETATM   13  C2  UNL     1      14.123  10.436   3.505  1.00  0.00    -0.059 A 
HETATM   14  C1  UNL     1      15.014   9.379   4.055  1.00  0.00     0.048 C 
HETATM   15  C20 UNL     1      14.431  11.771   3.701  1.00  0.00     0.020 A 
BRANCH   9  16
HETATM   16  O1  UNL     1      11.612  13.304   1.974  1.00  0.00    -0.287 OA
BRANCH  16  17
HETATM   17  C6  UNL     1      11.378  13.837   0.737  1.00  0.00     0.505 C 
HETATM   18  F1  UNL     1      11.042  15.204   0.821  1.00  0.00    -0.184 F 
HETATM   19  F2  UNL     1      12.389  13.682  -0.199  1.00  0.00    -0.184 F 
ENDBRANCH  16  17
ENDBRANCH   9  16
ENDBRANCH   1   8
BRANCH   1  20
HETATM   20  C9  UNL     1      14.397  14.877   2.125  1.00  0.00     0.265 C 
HETATM   21  F3  UNL     1      15.085  13.979   1.315  1.00  0.00    -0.252 F 
ENDBRANCH   1  20
BRANCH   6  22
HETATM   22  C15 UNL     1      15.213  16.827   7.161  1.00  0.00     0.364 C 
HETATM   23  F4  UNL     1      16.067  15.968   7.824  1.00  0.00    -0.214 F 
HETATM   24  F5  UNL     1      13.952  16.629   7.743  1.00  0.00    -0.214 F 
ENDBRANCH   6  22
BRANCH   6  25
HETATM   25  C16 UNL     1      16.242  17.035   4.858  1.00  0.00     0.208 C 
HETATM   26  C17 UNL     1      16.765  18.343   5.362  1.00  0.00     0.102 C 
HETATM   27  C18 UNL     1      18.170  17.749   5.471  1.00  0.00     0.223 C 
HETATM   28  C19 UNL     1      18.830  17.920   6.805  1.00  0.00     0.078 C 
HETATM   29  N2  UNL     1      17.540  16.460   5.277  1.00  0.00    -0.038 N 
ATOM     30  H22 UNL     1      17.547  15.799   6.053  1.00  0.00     0.281 HD
ATOM     31  H21 UNL     1      17.994  15.791   4.655  1.00  0.00     0.281 HD
BRANCH  27  32
HETATM   32  O2  UNL     1      18.960  18.165   4.388  1.00  0.00    -0.365 OA
ATOM     33  H2  UNL     1      19.876  17.979   4.557  1.00  0.00     0.212 HD
ENDBRANCH  27  32
ENDBRANCH   6  25
TORSDOF 7
ENDMDL
