MODEL 1
REMARK VINA RESULT: -8.635853869      0.000      0.000
REMARK  9 active torsions:
REMARK  status: ('A' for Active; 'I' for Inactive)
REMARK    1  A    between atoms: N1_2  and  C2_3 
REMARK    2  A    between atoms: N1_2  and  C15_28 
REMARK    3  A    between atoms: C2_3  and  C3_4 
REMARK    4  A    between atoms: C3_4  and  O1_5 
REMARK    5  A    between atoms: C3_4  and  C4_7 
REMARK    6  A    between atoms: C6_9  and  O2_10 
REMARK    7  A    between atoms: N2_12  and  C7_13 
REMARK    8  A    between atoms: C8_14  and  O3_15 
REMARK    9  A    between atoms: C12_22  and  C13_23 
ROOT
HETATM    1  C4  UNL     1      11.918  15.400   3.122  1.00  0.00    -0.008 A 
HETATM    2  C5  UNL     1      11.353  16.550   3.483  1.00  0.00     0.067 A 
HETATM    3  C6  UNL     1      12.242  17.175   4.375  1.00  0.00     0.146 A 
HETATM    4  N2  UNL     1      13.301  16.399   4.524  1.00  0.00    -0.307 N 
HETATM    5  C14 UNL     1      13.131  15.299   3.766  1.00  0.00     0.108 A 
ENDROOT
BRANCH   4   6
HETATM    6  C7  UNL     1      14.448  16.640   5.353  1.00  0.00     0.038 C 
HETATM    7  C8  UNL     1      15.668  16.943   4.583  1.00  0.00     0.170 C 
HETATM    8  C9  UNL     1      16.886  17.183   5.448  1.00  0.00     0.116 C 
HETATM    9  C10 UNL     1      16.670  17.172   6.903  1.00  0.00     0.247 C 
HETATM   10  F1  UNL     1      17.881  16.740   7.483  1.00  0.00    -0.206 F 
HETATM   11  F2  UNL     1      16.571  18.505   7.348  1.00  0.00    -0.206 F 
HETATM   12  C11 UNL     1      15.565  16.398   7.482  1.00  0.00     0.098 C 
HETATM   13  C12 UNL     1      14.616  15.730   6.515  1.00  0.00     0.148 C 
BRANCH   7  14
HETATM   14  O3  UNL     1      16.028  15.998   3.624  1.00  0.00    -0.390 OA
ATOM     15  H3  UNL     1      16.928  15.698   3.658  1.00  0.00     0.210 HD
ENDBRANCH   7  14
BRANCH  13  16
HETATM   16  C13 UNL     1      15.038  14.337   6.316  1.00  0.00     0.396 C 
HETATM   17  F3  UNL     1      15.960  14.002   7.342  1.00  0.00    -0.170 F 
HETATM   18  F4  UNL     1      14.055  13.380   6.428  1.00  0.00    -0.170 F 
HETATM   19  F5  UNL     1      15.703  14.049   5.143  1.00  0.00    -0.170 F 
ENDBRANCH  13  16
ENDBRANCH   4   6
BRANCH   3  20
HETATM   20  O2  UNL     1      11.895  18.426   4.926  1.00  0.00    -0.346 OA
ATOM     21  H2  UNL     1      12.194  18.644   5.800  1.00  0.00     0.219 HD
ENDBRANCH   3  20
BRANCH   1  22
HETATM   22  C3  UNL     1      11.385  14.361   2.183  1.00  0.00     0.181 C 
BRANCH  22  23
HETATM   23  C2  UNL     1      12.209  13.121   2.262  1.00  0.00     0.309 C 
BRANCH  23  24
HETATM   24  N1  UNL     1      11.453  11.959   2.621  1.00  0.00     0.091 N 
HETATM   25  C1  UNL     1      10.861  11.416   1.390  1.00  0.00     0.310 C 
BRANCH  24  26
HETATM   26  C15 UNL     1      12.349  10.986   3.212  1.00  0.00     0.222 C 
HETATM   27  C16 UNL     1      13.629  11.669   3.565  1.00  0.00     0.036 C 
HETATM   28  C17 UNL     1      14.752  10.706   3.872  1.00  0.00     0.002 C 
HETATM   29  C18 UNL     1      14.260   9.273   3.896  1.00  0.00     0.000 C 
HETATM   30  C19 UNL     1      13.695   8.975   2.540  1.00  0.00     0.002 C 
HETATM   31  C20 UNL     1      12.473   9.823   2.308  1.00  0.00     0.036 C 
ENDBRANCH  24  26
ENDBRANCH  23  24
ENDBRANCH  22  23
BRANCH  22  32
HETATM   32  O1  UNL     1      11.469  14.910   0.876  1.00  0.00    -0.389 OA
ATOM     33  H1  UNL     1      12.376  15.095   0.663  1.00  0.00     0.210 HD
ENDBRANCH  22  32
ENDBRANCH   1  22
TORSDOF 9
ENDMDL
MODEL 2
REMARK VINA RESULT: -8.507483064      0.953      1.119
REMARK  9 active torsions:
REMARK  status: ('A' for Active; 'I' for Inactive)
REMARK    1  A    between atoms: N1_2  and  C2_3 
REMARK    2  A    between atoms: N1_2  and  C15_28 
REMARK    3  A    between atoms: C2_3  and  C3_4 
REMARK    4  A    between atoms: C3_4  and  O1_5 
REMARK    5  A    between atoms: C3_4  and  C4_7 
REMARK    6  A    between atoms: C6_9  and  O2_10 
REMARK    7  A    between atoms: N2_12  and  C7_13 
REMARK    8  A    between atoms: C8_14  and  O3_15 
REMARK    9  A    between atoms: C12_22  and  C13_23 
ROOT
HETATM    1  C4  UNL     1      11.909  15.119   2.687  1.00  0.00    -0.008 A 
HETATM    2  C5  UNL     1      11.159  16.077   3.226  1.00  0.00     0.067 A 
HETATM    3  C6  UNL     1      12.013  16.859   4.021  1.00  0.00     0.146 A 
HETATM    4  N2  UNL     1      13.234  16.362   3.941  1.00  0.00    -0.307 N 
HETATM    5  C14 UNL     1      13.203  15.289   3.126  1.00  0.00     0.108 A 
ENDROOT
BRANCH   4   6
HETATM    6  C7  UNL     1      14.415  16.839   4.602  1.00  0.00     0.038 C 
HETATM    7  C8  UNL     1      15.664  16.341   3.995  1.00  0.00     0.170 C 
HETATM    8  C9  UNL     1      16.913  16.827   4.695  1.00  0.00     0.116 C 
HETATM    9  C10 UNL     1      16.719  17.779   5.800  1.00  0.00     0.247 C 
HETATM   10  F1  UNL     1      17.796  17.582   6.691  1.00  0.00    -0.206 F 
HETATM   11  F2  UNL     1      16.954  19.080   5.313  1.00  0.00    -0.206 F 
HETATM   12  C11 UNL     1      15.466  17.780   6.564  1.00  0.00     0.098 C 
HETATM   13  C12 UNL     1      14.371  16.855   6.087  1.00  0.00     0.148 C 
BRANCH   7  14
HETATM   14  O3  UNL     1      15.770  14.956   3.882  1.00  0.00    -0.390 OA
ATOM     15  H3  UNL     1      16.652  14.606   3.919  1.00  0.00     0.210 HD
ENDBRANCH   7  14
BRANCH  13  16
HETATM   16  C13 UNL     1      14.437  15.601   6.848  1.00  0.00     0.396 C 
HETATM   17  F3  UNL     1      13.606  15.732   7.992  1.00  0.00    -0.170 F 
HETATM   18  F4  UNL     1      13.956  14.477   6.216  1.00  0.00    -0.170 F 
HETATM   19  F5  UNL     1      15.670  15.243   7.353  1.00  0.00    -0.170 F 
ENDBRANCH  13  16
ENDBRANCH   4   6
BRANCH   3  20
HETATM   20  O2  UNL     1      11.480  17.960   4.723  1.00  0.00    -0.346 OA
ATOM     21  H2  UNL     1      12.050  18.688   4.944  1.00  0.00     0.219 HD
ENDBRANCH   3  20
BRANCH   1  22
HETATM   22  C3  UNL     1      11.485  14.024   1.755  1.00  0.00     0.181 C 
BRANCH  22  23
HETATM   23  C2  UNL     1      12.332  12.815   1.958  1.00  0.00     0.309 C 
BRANCH  23  24
HETATM   24  N1  UNL     1      11.606  11.691   2.466  1.00  0.00     0.091 N 
HETATM   25  C1  UNL     1      11.023  10.981   1.319  1.00  0.00     0.310 C 
BRANCH  24  26
HETATM   26  C15 UNL     1      12.527  10.822   3.171  1.00  0.00     0.222 C 
HETATM   27  C16 UNL     1      13.755  11.602   3.508  1.00  0.00     0.036 C 
HETATM   28  C17 UNL     1      14.913  10.732   3.937  1.00  0.00     0.002 C 
HETATM   29  C18 UNL     1      14.495   9.281   4.069  1.00  0.00     0.000 C 
HETATM   30  C19 UNL     1      14.000   8.838   2.725  1.00  0.00     0.002 C 
HETATM   31  C20 UNL     1      12.747   9.595   2.377  1.00  0.00     0.036 C 
ENDBRANCH  24  26
ENDBRANCH  23  24
ENDBRANCH  22  23
BRANCH  22  32
HETATM   32  O1  UNL     1      11.663  14.518   0.436  1.00  0.00    -0.389 OA
ATOM     33  H1  UNL     1      12.569  14.409   0.172  1.00  0.00     0.210 HD
ENDBRANCH  22  32
ENDBRANCH   1  22
TORSDOF 9
ENDMDL
MODEL 3
REMARK VINA RESULT: -8.486966782      2.992      5.755
REMARK  9 active torsions:
REMARK  status: ('A' for Active; 'I' for Inactive)
REMARK    1  A    between atoms: N1_2  and  C2_3 
REMARK    2  A    between atoms: N1_2  and  C15_28 
REMARK    3  A    between atoms: C2_3  and  C3_4 
REMARK    4  A    between atoms: C3_4  and  O1_5 
REMARK    5  A    between atoms: C3_4  and  C4_7 
REMARK    6  A    between atoms: C6_9  and  O2_10 
REMARK    7  A    between atoms: N2_12  and  C7_13 
REMARK    8  A    between atoms: C8_14  and  O3_15 
REMARK    9  A    between atoms: C12_22  and  C13_23 
ROOT
HETATM    1  C4  UNL     1      13.400   9.986   3.157  1.00  0.00    -0.008 A 
HETATM    2  C5  UNL     1      12.424   9.796   2.272  1.00  0.00     0.067 A 
HETATM    3  C6  UNL     1      11.780  11.034   2.108  1.00  0.00     0.146 A 
HETATM    4  N2  UNL     1      12.375  11.922   2.884  1.00  0.00    -0.307 N 
HETATM    5  C14 UNL     1      13.376  11.307   3.543  1.00  0.00     0.108 A 
ENDROOT
BRANCH   4   6
HETATM    6  C7  UNL     1      12.035  13.308   3.042  1.00  0.00     0.038 C 
HETATM    7  C8  UNL     1      11.382  13.885   1.852  1.00  0.00     0.170 C 
HETATM    8  C9  UNL     1      11.035  15.349   2.003  1.00  0.00     0.116 C 
HETATM    9  C10 UNL     1      11.304  15.956   3.316  1.00  0.00     0.247 C 
HETATM   10  F1  UNL     1      11.566  17.322   3.077  1.00  0.00    -0.206 F 
HETATM   11  F2  UNL     1      10.099  15.993   4.044  1.00  0.00    -0.206 F 
HETATM   12  C11 UNL     1      12.360  15.415   4.178  1.00  0.00     0.098 C 
HETATM   13  C12 UNL     1      13.054  14.159   3.707  1.00  0.00     0.148 C 
BRANCH   7  14
HETATM   14  O3  UNL     1      12.084  13.752   0.654  1.00  0.00    -0.390 OA
ATOM     15  H3  UNL     1      12.112  14.527   0.106  1.00  0.00     0.210 HD
ENDBRANCH   7  14
BRANCH  13  16
HETATM   16  C13 UNL     1      14.290  14.529   3.003  1.00  0.00     0.396 C 
HETATM   17  F3  UNL     1      15.161  15.151   3.936  1.00  0.00    -0.170 F 
HETATM   18  F4  UNL     1      15.036  13.491   2.493  1.00  0.00    -0.170 F 
HETATM   19  F5  UNL     1      14.171  15.441   1.976  1.00  0.00    -0.170 F 
ENDBRANCH  13  16
ENDBRANCH   4   6
BRANCH   3  20
HETATM   20  O2  UNL     1      10.692  11.128   1.217  1.00  0.00    -0.346 OA
ATOM     21  H2  UNL     1      10.329  11.983   1.018  1.00  0.00     0.219 HD
ENDBRANCH   3  20
BRANCH   1  22
HETATM   22  C3  UNL     1      14.386   8.985   3.678  1.00  0.00     0.181 C 
BRANCH  22  23
HETATM   23  C2  UNL     1      15.719   9.624   3.872  1.00  0.00     0.309 C 
BRANCH  23  24
HETATM   24  N1  UNL     1      16.126   9.685   5.243  1.00  0.00     0.091 N 
HETATM   25  C1  UNL     1      17.016   8.543   5.495  1.00  0.00     0.310 C 
BRANCH  24  26
HETATM   26  C15 UNL     1      16.839  10.928   5.462  1.00  0.00     0.222 C 
HETATM   27  C16 UNL     1      15.911  11.901   6.111  1.00  0.00     0.036 C 
HETATM   28  C17 UNL     1      16.426  13.322   6.083  1.00  0.00     0.002 C 
HETATM   29  C18 UNL     1      17.837  13.388   5.533  1.00  0.00     0.000 C 
HETATM   30  C19 UNL     1      17.797  12.836   4.141  1.00  0.00     0.002 C 
HETATM   31  C20 UNL     1      17.445  11.373   4.190  1.00  0.00     0.036 C 
ENDBRANCH  24  26
ENDBRANCH  23  24
ENDBRANCH  22  23
BRANCH  22  32
HETATM   32  O1  UNL     1      14.484   7.960   2.700  1.00  0.00    -0.389 OA
ATOM     33  H1  UNL     1      13.722   7.395   2.751  1.00  0.00     0.210 HD
ENDBRANCH  22  32
ENDBRANCH   1  22
TORSDOF 9
ENDMDL
MODEL 4
REMARK VINA RESULT: -8.429911002      3.354      5.941
REMARK  9 active torsions:
REMARK  status: ('A' for Active; 'I' for Inactive)
REMARK    1  A    between atoms: N1_2  and  C2_3 
REMARK    2  A    between atoms: N1_2  and  C15_28 
REMARK    3  A    between atoms: C2_3  and  C3_4 
REMARK    4  A    between atoms: C3_4  and  O1_5 
REMARK    5  A    between atoms: C3_4  and  C4_7 
REMARK    6  A    between atoms: C6_9  and  O2_10 
REMARK    7  A    between atoms: N2_12  and  C7_13 
REMARK    8  A    between atoms: C8_14  and  O3_15 
REMARK    9  A    between atoms: C12_22  and  C13_23 
ROOT
HETATM    1  C4  UNL     1      13.404   9.781   3.073  1.00  0.00    -0.008 A 
HETATM    2  C5  UNL     1      12.419   9.615   2.194  1.00  0.00     0.067 A 
HETATM    3  C6  UNL     1      11.791  10.864   2.050  1.00  0.00     0.146 A 
HETATM    4  N2  UNL     1      12.404  11.734   2.832  1.00  0.00    -0.307 N 
HETATM    5  C14 UNL     1      13.402  11.098   3.475  1.00  0.00     0.108 A 
ENDROOT
BRANCH   4   6
HETATM    6  C7  UNL     1      12.085  13.123   3.008  1.00  0.00     0.038 C 
HETATM    7  C8  UNL     1      11.492  13.740   1.807  1.00  0.00     0.170 C 
HETATM    8  C9  UNL     1      11.167  15.207   1.978  1.00  0.00     0.116 C 
HETATM    9  C10 UNL     1      11.395  15.779   3.315  1.00  0.00     0.247 C 
HETATM   10  F1  UNL     1      11.693  17.144   3.120  1.00  0.00    -0.206 F 
HETATM   11  F2  UNL     1      10.162  15.824   3.995  1.00  0.00    -0.206 F 
HETATM   12  C11 UNL     1      12.405  15.196   4.206  1.00  0.00     0.098 C 
HETATM   13  C12 UNL     1      13.093  13.938   3.733  1.00  0.00     0.148 C 
BRANCH   7  14
HETATM   14  O3  UNL     1      12.239  13.620   0.636  1.00  0.00    -0.390 OA
ATOM     15  H3  UNL     1      12.056  14.266  -0.037  1.00  0.00     0.210 HD
ENDBRANCH   7  14
BRANCH  13  16
HETATM   16  C13 UNL     1      14.363  14.299   3.089  1.00  0.00     0.396 C 
HETATM   17  F3  UNL     1      15.390  14.238   4.067  1.00  0.00    -0.170 F 
HETATM   18  F4  UNL     1      14.803  13.457   2.093  1.00  0.00    -0.170 F 
HETATM   19  F5  UNL     1      14.456  15.572   2.566  1.00  0.00    -0.170 F 
ENDBRANCH  13  16
ENDBRANCH   4   6
BRANCH   3  20
HETATM   20  O2  UNL     1      10.696  10.983   1.169  1.00  0.00    -0.346 OA
ATOM     21  H2  UNL     1      10.512  11.827   0.772  1.00  0.00     0.219 HD
ENDBRANCH   3  20
BRANCH   1  22
HETATM   22  C3  UNL     1      14.381   8.761   3.575  1.00  0.00     0.181 C 
BRANCH  22  23
HETATM   23  C2  UNL     1      15.235   9.345   4.647  1.00  0.00     0.309 C 
BRANCH  23  24
HETATM   24  N1  UNL     1      16.629   9.358   4.319  1.00  0.00     0.091 N 
HETATM   25  C1  UNL     1      17.044  10.761   4.191  1.00  0.00     0.310 C 
BRANCH  24  26
HETATM   26  C15 UNL     1      17.364   8.718   5.391  1.00  0.00     0.222 C 
HETATM   27  C16 UNL     1      16.943   7.288   5.471  1.00  0.00     0.036 C 
HETATM   28  C17 UNL     1      17.381   6.609   6.748  1.00  0.00     0.002 C 
HETATM   29  C18 UNL     1      18.278   7.511   7.573  1.00  0.00     0.000 C 
HETATM   30  C19 UNL     1      17.490   8.743   7.899  1.00  0.00     0.002 C 
HETATM   31  C20 UNL     1      17.200   9.503   6.633  1.00  0.00     0.036 C 
ENDBRANCH  24  26
ENDBRANCH  23  24
ENDBRANCH  22  23
BRANCH  22  32
HETATM   32  O1  UNL     1      15.188   8.389   2.467  1.00  0.00    -0.389 OA
ATOM     33  H1  UNL     1      15.283   9.128   1.877  1.00  0.00     0.210 HD
ENDBRANCH  22  32
ENDBRANCH   1  22
TORSDOF 9
ENDMDL
MODEL 5
REMARK VINA RESULT: -8.418884546      1.034      1.516
REMARK  9 active torsions:
REMARK  status: ('A' for Active; 'I' for Inactive)
REMARK    1  A    between atoms: N1_2  and  C2_3 
REMARK    2  A    between atoms: N1_2  and  C15_28 
REMARK    3  A    between atoms: C2_3  and  C3_4 
REMARK    4  A    between atoms: C3_4  and  O1_5 
REMARK    5  A    between atoms: C3_4  and  C4_7 
REMARK    6  A    between atoms: C6_9  and  O2_10 
REMARK    7  A    between atoms: N2_12  and  C7_13 
REMARK    8  A    between atoms: C8_14  and  O3_15 
REMARK    9  A    between atoms: C12_22  and  C13_23 
ROOT
HETATM    1  C4  UNL     1      11.872  15.248   2.670  1.00  0.00    -0.008 A 
HETATM    2  C5  UNL     1      11.163  16.181   3.301  1.00  0.00     0.067 A 
HETATM    3  C6  UNL     1      12.064  16.897   4.107  1.00  0.00     0.146 A 
HETATM    4  N2  UNL     1      13.271  16.386   3.942  1.00  0.00    -0.307 N 
HETATM    5  C14 UNL     1      13.186  15.369   3.063  1.00  0.00     0.108 A 
ENDROOT
BRANCH   4   6
HETATM    6  C7  UNL     1      14.488  16.801   4.582  1.00  0.00     0.038 C 
HETATM    7  C8  UNL     1      15.693  16.195   3.986  1.00  0.00     0.170 C 
HETATM    8  C9  UNL     1      16.979  16.615   4.664  1.00  0.00     0.116 C 
HETATM    9  C10 UNL     1      16.860  17.616   5.736  1.00  0.00     0.247 C 
HETATM   10  F1  UNL     1      17.926  17.373   6.628  1.00  0.00    -0.206 F 
HETATM   11  F2  UNL     1      17.183  18.879   5.203  1.00  0.00    -0.206 F 
HETATM   12  C11 UNL     1      15.616  17.732   6.505  1.00  0.00     0.098 C 
HETATM   13  C12 UNL     1      14.455  16.871   6.065  1.00  0.00     0.148 C 
BRANCH   7  14
HETATM   14  O3  UNL     1      15.701  14.803   3.921  1.00  0.00    -0.390 OA
ATOM     15  H3  UNL     1      16.084  14.429   3.137  1.00  0.00     0.210 HD
ENDBRANCH   7  14
BRANCH  13  16
HETATM   16  C13 UNL     1      14.438  15.642   6.869  1.00  0.00     0.396 C 
HETATM   17  F3  UNL     1      13.603  15.861   7.997  1.00  0.00    -0.170 F 
HETATM   18  F4  UNL     1      13.897  14.527   6.269  1.00  0.00    -0.170 F 
HETATM   19  F5  UNL     1      15.641  15.229   7.402  1.00  0.00    -0.170 F 
ENDBRANCH  13  16
ENDBRANCH   4   6
BRANCH   3  20
HETATM   20  O2  UNL     1      11.581  17.958   4.900  1.00  0.00    -0.346 OA
ATOM     21  H2  UNL     1      11.559  17.857   5.844  1.00  0.00     0.219 HD
ENDBRANCH   3  20
BRANCH   1  22
HETATM   22  C3  UNL     1      11.389  14.222   1.689  1.00  0.00     0.181 C 
BRANCH  22  23
HETATM   23  C2  UNL     1      12.370  13.105   1.583  1.00  0.00     0.309 C 
BRANCH  23  24
HETATM   24  N1  UNL     1      12.029  11.971   2.388  1.00  0.00     0.091 N 
HETATM   25  C1  UNL     1      11.249  11.049   1.551  1.00  0.00     0.310 C 
BRANCH  24  26
HETATM   26  C15 UNL     1      13.251  11.329   2.828  1.00  0.00     0.222 C 
HETATM   27  C16 UNL     1      13.052   9.849   2.791  1.00  0.00     0.036 C 
HETATM   28  C17 UNL     1      14.121   9.087   3.538  1.00  0.00     0.002 C 
HETATM   29  C18 UNL     1      15.225  10.009   4.017  1.00  0.00     0.000 C 
HETATM   30  C19 UNL     1      14.596  11.020   4.926  1.00  0.00     0.002 C 
HETATM   31  C20 UNL     1      13.653  11.887   4.136  1.00  0.00     0.036 C 
ENDBRANCH  24  26
ENDBRANCH  23  24
ENDBRANCH  22  23
BRANCH  22  32
HETATM   32  O1  UNL     1      11.272  14.879   0.436  1.00  0.00    -0.389 OA
ATOM     33  H1  UNL     1      12.134  14.993   0.052  1.00  0.00     0.210 HD
ENDBRANCH  22  32
ENDBRANCH   1  22
TORSDOF 9
ENDMDL
