MODEL 1
REMARK VINA RESULT: -6.658129022      0.000      0.000
REMARK  9 active torsions:
REMARK  status: ('A' for Active; 'I' for Inactive)
REMARK    1  A    between atoms: S1_2  and  C1_4 
REMARK    2  A    between atoms: S1_2  and  N1_8 
REMARK    3  A    between atoms: C1_4  and  C2_5 
REMARK    4  A    between atoms: C2_5  and  C3_6 
REMARK    5  A    between atoms: N1_8  and  C4_10 
REMARK    6  A    between atoms: C4_10  and  O3_11 
REMARK    7  A    between atoms: N2_13  and  O4_15 
REMARK    8  A    between atoms: O4_15  and  C5_16 
REMARK    9  A    between atoms: C6_17  and  O5_18 
ROOT
HETATM    1  C4  UNL     1      15.338  16.566   4.383  1.00  0.00     0.251 C 
HETATM    2  N2  UNL     1      14.200  16.181   3.951  1.00  0.00    -0.223 N 
ATOM      3  H2  UNL     1      13.875  16.664   3.114  1.00  0.00     0.198 HD
ENDROOT
BRANCH   2   4
HETATM    4  O4  UNL     1      13.389  15.271   4.405  1.00  0.00    -0.230 OA
BRANCH   4   5
HETATM    5  C5  UNL     1      13.252  13.939   4.090  1.00  0.00     0.157 A 
HETATM    6  C6  UNL     1      14.016  12.925   4.613  1.00  0.00     0.127 A 
HETATM    7  C7  UNL     1      13.791  11.592   4.220  1.00  0.00     0.093 A 
HETATM    8 CL1  UNL     1      14.809  10.326   4.927  1.00  0.00    -0.079 Cl
HETATM    9  C8  UNL     1      12.817  11.298   3.321  1.00  0.00     0.082 A 
HETATM   10 CL2  UNL     1      12.548   9.610   2.838  1.00  0.00    -0.081 Cl
HETATM   11  C9  UNL     1      12.040  12.303   2.786  1.00  0.00     0.082 A 
HETATM   12 CL3  UNL     1      10.801  11.846   1.633  1.00  0.00    -0.081 Cl
HETATM   13  C10 UNL     1      12.240  13.602   3.153  1.00  0.00     0.096 A 
HETATM   14 CL4  UNL     1      11.256  14.902   2.480  1.00  0.00    -0.079 Cl
BRANCH   6  15
HETATM   15  O5  UNL     1      15.031  13.133   5.532  1.00  0.00    -0.356 OA
ATOM     16  H5  UNL     1      15.938  13.267   5.286  1.00  0.00     0.218 HD
ENDBRANCH   6  15
ENDBRANCH   4   5
ENDBRANCH   2   4
BRANCH   1  17
HETATM   17  N1  UNL     1      15.857  15.938   5.549  1.00  0.00    -0.248 N 
ATOM     18  H1  UNL     1      16.571  15.214   5.482  1.00  0.00     0.182 HD
BRANCH  17  19
HETATM   19  S1  UNL     1      15.242  16.438   7.077  1.00  0.00     0.233 S 
HETATM   20  O1  UNL     1      14.140  15.489   7.447  1.00  0.00    -0.206 OA
HETATM   21  O2  UNL     1      16.301  16.403   8.135  1.00  0.00    -0.206 OA
BRANCH  19  22
HETATM   22  C1  UNL     1      14.577  18.094   6.908  1.00  0.00     0.166 C 
BRANCH  22  23
HETATM   23  C2  UNL     1      13.091  18.100   7.184  1.00  0.00     0.048 C 
BRANCH  23  24
HETATM   24  C3  UNL     1      12.435  18.873   6.048  1.00  0.00     0.223 C 
HETATM   25  F1  UNL     1      11.819  17.988   5.196  1.00  0.00    -0.255 F 
ENDBRANCH  23  24
ENDBRANCH  22  23
ENDBRANCH  19  22
ENDBRANCH  17  19
ENDBRANCH   1  17
BRANCH   1  26
HETATM   26  O3  UNL     1      16.095  17.555   3.791  1.00  0.00    -0.331 OA
ATOM     27  H3  UNL     1      16.064  17.632   2.845  1.00  0.00     0.221 HD
ENDBRANCH   1  26
TORSDOF 9
ENDMDL
MODEL 2
REMARK VINA RESULT: -6.452247632      1.910      3.186
REMARK  9 active torsions:
REMARK  status: ('A' for Active; 'I' for Inactive)
REMARK    1  A    between atoms: S1_2  and  C1_4 
REMARK    2  A    between atoms: S1_2  and  N1_8 
REMARK    3  A    between atoms: C1_4  and  C2_5 
REMARK    4  A    between atoms: C2_5  and  C3_6 
REMARK    5  A    between atoms: N1_8  and  C4_10 
REMARK    6  A    between atoms: C4_10  and  O3_11 
REMARK    7  A    between atoms: N2_13  and  O4_15 
REMARK    8  A    between atoms: O4_15  and  C5_16 
REMARK    9  A    between atoms: C6_17  and  O5_18 
ROOT
HETATM    1  C4  UNL     1      16.349  16.694   4.158  1.00  0.00     0.251 C 
HETATM    2  N2  UNL     1      16.551  16.036   3.083  1.00  0.00    -0.223 N 
ATOM      3  H2  UNL     1      16.731  16.609   2.259  1.00  0.00     0.198 HD
ENDROOT
BRANCH   2   4
HETATM    4  O4  UNL     1      16.566  14.753   2.869  1.00  0.00    -0.230 OA
BRANCH   4   5
HETATM    5  C5  UNL     1      15.560  13.815   2.912  1.00  0.00     0.157 A 
HETATM    6  C6  UNL     1      14.372  13.904   2.230  1.00  0.00     0.127 A 
HETATM    7  C7  UNL     1      13.409  12.884   2.346  1.00  0.00     0.093 A 
HETATM    8 CL1  UNL     1      11.894  13.054   1.443  1.00  0.00    -0.079 Cl
HETATM    9  C8  UNL     1      13.647  11.804   3.133  1.00  0.00     0.082 A 
HETATM   10 CL2  UNL     1      12.420  10.527   3.266  1.00  0.00    -0.081 Cl
HETATM   11  C9  UNL     1      14.834  11.697   3.825  1.00  0.00     0.082 A 
HETATM   12 CL3  UNL     1      15.070  10.273   4.820  1.00  0.00    -0.081 Cl
HETATM   13  C10 UNL     1      15.782  12.673   3.727  1.00  0.00     0.096 A 
HETATM   14 CL4  UNL     1      17.307  12.555   4.605  1.00  0.00    -0.079 Cl
BRANCH   6  15
HETATM   15  O5  UNL     1      14.045  14.970   1.408  1.00  0.00    -0.356 OA
ATOM     16  H5  UNL     1      13.249  15.005   0.892  1.00  0.00     0.218 HD
ENDBRANCH   6  15
ENDBRANCH   4   5
ENDBRANCH   2   4
BRANCH   1  17
HETATM   17  N1  UNL     1      16.091  15.963   5.350  1.00  0.00    -0.248 N 
ATOM     18  H1  UNL     1      16.849  15.526   5.874  1.00  0.00     0.182 HD
BRANCH  17  19
HETATM   19  S1  UNL     1      14.459  15.839   5.883  1.00  0.00     0.233 S 
HETATM   20  O1  UNL     1      13.591  16.416   4.804  1.00  0.00    -0.206 OA
HETATM   21  O2  UNL     1      14.066  14.414   6.125  1.00  0.00    -0.206 OA
BRANCH  19  22
HETATM   22  C1  UNL     1      14.274  16.805   7.381  1.00  0.00     0.166 C 
BRANCH  22  23
HETATM   23  C2  UNL     1      13.708  18.170   7.068  1.00  0.00     0.048 C 
BRANCH  23  24
HETATM   24  C3  UNL     1      12.310  18.217   7.672  1.00  0.00     0.223 C 
HETATM   25  F1  UNL     1      12.231  17.304   8.697  1.00  0.00    -0.255 F 
ENDBRANCH  23  24
ENDBRANCH  22  23
ENDBRANCH  19  22
ENDBRANCH  17  19
ENDBRANCH   1  17
BRANCH   1  26
HETATM   26  O3  UNL     1      16.365  18.071   4.235  1.00  0.00    -0.331 OA
ATOM     27  H3  UNL     1      17.063  18.481   4.733  1.00  0.00     0.221 HD
ENDBRANCH   1  26
TORSDOF 9
ENDMDL
MODEL 3
REMARK VINA RESULT: -6.400734903      1.622      3.037
REMARK  9 active torsions:
REMARK  status: ('A' for Active; 'I' for Inactive)
REMARK    1  A    between atoms: S1_2  and  C1_4 
REMARK    2  A    between atoms: S1_2  and  N1_8 
REMARK    3  A    between atoms: C1_4  and  C2_5 
REMARK    4  A    between atoms: C2_5  and  C3_6 
REMARK    5  A    between atoms: N1_8  and  C4_10 
REMARK    6  A    between atoms: C4_10  and  O3_11 
REMARK    7  A    between atoms: N2_13  and  O4_15 
REMARK    8  A    between atoms: O4_15  and  C5_16 
REMARK    9  A    between atoms: C6_17  and  O5_18 
ROOT
HETATM    1  C4  UNL     1      16.874  15.390   3.898  1.00  0.00     0.251 C 
HETATM    2  N2  UNL     1      16.498  14.442   3.132  1.00  0.00    -0.223 N 
ATOM      3  H2  UNL     1      16.832  14.510   2.171  1.00  0.00     0.198 HD
ENDROOT
BRANCH   2   4
HETATM    4  O4  UNL     1      15.757  13.401   3.379  1.00  0.00    -0.230 OA
BRANCH   4   5
HETATM    5  C5  UNL     1      14.527  13.027   2.890  1.00  0.00     0.157 A 
HETATM    6  C6  UNL     1      13.708  13.823   2.127  1.00  0.00     0.127 A 
HETATM    7  C7  UNL     1      12.465  13.338   1.678  1.00  0.00     0.093 A 
HETATM    8 CL1  UNL     1      11.451  14.411   0.698  1.00  0.00    -0.079 Cl
HETATM    9  C8  UNL     1      12.065  12.080   1.995  1.00  0.00     0.082 A 
HETATM   10 CL2  UNL     1      10.494  11.487   1.418  1.00  0.00    -0.081 Cl
HETATM   11  C9  UNL     1      12.873  11.266   2.760  1.00  0.00     0.082 A 
HETATM   12 CL3  UNL     1      12.290   9.654   3.128  1.00  0.00    -0.081 Cl
HETATM   13  C10 UNL     1      14.083  11.715   3.205  1.00  0.00     0.096 A 
HETATM   14 CL4  UNL     1      15.131  10.690   4.185  1.00  0.00    -0.079 Cl
BRANCH   6  15
HETATM   15  O5  UNL     1      14.035  15.117   1.758  1.00  0.00    -0.356 OA
ATOM     16  H5  UNL     1      13.393  15.811   1.665  1.00  0.00     0.218 HD
ENDBRANCH   6  15
ENDBRANCH   4   5
ENDBRANCH   2   4
BRANCH   1  17
HETATM   17  N1  UNL     1      16.447  15.363   5.254  1.00  0.00    -0.248 N 
ATOM     18  H1  UNL     1      17.073  15.056   5.997  1.00  0.00     0.182 HD
BRANCH  17  19
HETATM   19  S1  UNL     1      14.838  15.866   5.603  1.00  0.00     0.233 S 
HETATM   20  O1  UNL     1      14.299  16.529   4.369  1.00  0.00    -0.206 OA
HETATM   21  O2  UNL     1      13.963  14.705   5.963  1.00  0.00    -0.206 OA
BRANCH  19  22
HETATM   22  C1  UNL     1      14.891  17.053   6.945  1.00  0.00     0.166 C 
BRANCH  22  23
HETATM   23  C2  UNL     1      13.539  17.165   7.610  1.00  0.00     0.048 C 
BRANCH  23  24
HETATM   24  C3  UNL     1      12.865  18.404   7.034  1.00  0.00     0.223 C 
HETATM   25  F1  UNL     1      11.973  18.021   6.061  1.00  0.00    -0.255 F 
ENDBRANCH  23  24
ENDBRANCH  22  23
ENDBRANCH  19  22
ENDBRANCH  17  19
ENDBRANCH   1  17
BRANCH   1  26
HETATM   26  O3  UNL     1      17.670  16.441   3.493  1.00  0.00    -0.331 OA
ATOM     27  H3  UNL     1      17.357  16.989   2.783  1.00  0.00     0.221 HD
ENDBRANCH   1  26
TORSDOF 9
ENDMDL
MODEL 4
REMARK VINA RESULT: -6.398460654      2.156      3.318
REMARK  9 active torsions:
REMARK  status: ('A' for Active; 'I' for Inactive)
REMARK    1  A    between atoms: S1_2  and  C1_4 
REMARK    2  A    between atoms: S1_2  and  N1_8 
REMARK    3  A    between atoms: C1_4  and  C2_5 
REMARK    4  A    between atoms: C2_5  and  C3_6 
REMARK    5  A    between atoms: N1_8  and  C4_10 
REMARK    6  A    between atoms: C4_10  and  O3_11 
REMARK    7  A    between atoms: N2_13  and  O4_15 
REMARK    8  A    between atoms: O4_15  and  C5_16 
REMARK    9  A    between atoms: C6_17  and  O5_18 
ROOT
HETATM    1  C4  UNL     1      15.011  15.773   6.438  1.00  0.00     0.251 C 
HETATM    2  N2  UNL     1      14.104  14.906   6.204  1.00  0.00    -0.223 N 
ATOM      3  H2  UNL     1      13.761  14.413   7.028  1.00  0.00     0.198 HD
ENDROOT
BRANCH   2   4
HETATM    4  O4  UNL     1      13.546  14.550   5.084  1.00  0.00    -0.230 OA
BRANCH   4   5
HETATM    5  C5  UNL     1      13.399  13.315   4.497  1.00  0.00     0.157 A 
HETATM    6  C6  UNL     1      14.158  12.209   4.790  1.00  0.00     0.127 A 
HETATM    7  C7  UNL     1      13.922  10.990   4.127  1.00  0.00     0.093 A 
HETATM    8 CL1  UNL     1      14.934   9.597   4.547  1.00  0.00    -0.079 Cl
HETATM    9  C8  UNL     1      12.943  10.898   3.191  1.00  0.00     0.082 A 
HETATM   10 CL2  UNL     1      12.661   9.351   2.365  1.00  0.00    -0.081 Cl
HETATM   11  C9  UNL     1      12.171  11.997   2.883  1.00  0.00     0.082 A 
HETATM   12 CL3  UNL     1      10.925  11.801   1.665  1.00  0.00    -0.081 Cl
HETATM   13  C10 UNL     1      12.381  13.189   3.514  1.00  0.00     0.096 A 
HETATM   14 CL4  UNL     1      11.405  14.607   3.134  1.00  0.00    -0.079 Cl
BRANCH   6  15
HETATM   15  O5  UNL     1      15.177  12.213   5.728  1.00  0.00    -0.356 OA
ATOM     16  H5  UNL     1      15.143  11.718   6.538  1.00  0.00     0.218 HD
ENDBRANCH   6  15
ENDBRANCH   4   5
ENDBRANCH   2   4
BRANCH   1  17
HETATM   17  N1  UNL     1      15.539  16.502   5.336  1.00  0.00    -0.248 N 
ATOM     18  H1  UNL     1      15.219  17.447   5.128  1.00  0.00     0.182 HD
BRANCH  17  19
HETATM   19  S1  UNL     1      16.736  15.738   4.363  1.00  0.00     0.233 S 
HETATM   20  O1  UNL     1      18.004  16.527   4.513  1.00  0.00    -0.206 OA
HETATM   21  O2  UNL     1      16.979  14.325   4.797  1.00  0.00    -0.206 OA
BRANCH  19  22
HETATM   22  C1  UNL     1      16.198  15.788   2.655  1.00  0.00     0.166 C 
BRANCH  22  23
HETATM   23  C2  UNL     1      15.892  14.396   2.152  1.00  0.00     0.048 C 
BRANCH  23  24
HETATM   24  C3  UNL     1      15.278  14.553   0.767  1.00  0.00     0.223 C 
HETATM   25  F1  UNL     1      13.990  14.074   0.786  1.00  0.00    -0.255 F 
ENDBRANCH  23  24
ENDBRANCH  22  23
ENDBRANCH  19  22
ENDBRANCH  17  19
ENDBRANCH   1  17
BRANCH   1  26
HETATM   26  O3  UNL     1      15.512  16.048   7.693  1.00  0.00    -0.331 OA
ATOM     27  H3  UNL     1      14.921  16.423   8.336  1.00  0.00     0.221 HD
ENDBRANCH   1  26
TORSDOF 9
ENDMDL
MODEL 5
REMARK VINA RESULT: -6.396142067      3.014      4.277
REMARK  9 active torsions:
REMARK  status: ('A' for Active; 'I' for Inactive)
REMARK    1  A    between atoms: S1_2  and  C1_4 
REMARK    2  A    between atoms: S1_2  and  N1_8 
REMARK    3  A    between atoms: C1_4  and  C2_5 
REMARK    4  A    between atoms: C2_5  and  C3_6 
REMARK    5  A    between atoms: N1_8  and  C4_10 
REMARK    6  A    between atoms: C4_10  and  O3_11 
REMARK    7  A    between atoms: N2_13  and  O4_15 
REMARK    8  A    between atoms: O4_15  and  C5_16 
REMARK    9  A    between atoms: C6_17  and  O5_18 
ROOT
HETATM    1  C4  UNL     1      16.548  13.404   6.549  1.00  0.00     0.251 C 
HETATM    2  N2  UNL     1      15.608  12.545   6.469  1.00  0.00    -0.223 N 
ATOM      3  H2  UNL     1      15.051  12.441   7.317  1.00  0.00     0.198 HD
ENDROOT
BRANCH   2   4
HETATM    4  O4  UNL     1      15.245  11.781   5.481  1.00  0.00    -0.230 OA
BRANCH   4   5
HETATM    5  C5  UNL     1      14.187  11.870   4.606  1.00  0.00     0.157 A 
HETATM    6  C6  UNL     1      13.418  12.992   4.414  1.00  0.00     0.127 A 
HETATM    7  C7  UNL     1      12.356  12.974   3.490  1.00  0.00     0.093 A 
HETATM    8 CL1  UNL     1      11.398  14.451   3.286  1.00  0.00    -0.079 Cl
HETATM    9  C8  UNL     1      12.083  11.850   2.781  1.00  0.00     0.082 A 
HETATM   10 CL2  UNL     1      10.739  11.847   1.620  1.00  0.00    -0.081 Cl
HETATM   11  C9  UNL     1      12.844  10.714   2.960  1.00  0.00     0.082 A 
HETATM   12 CL3  UNL     1      12.433   9.300   2.008  1.00  0.00    -0.081 Cl
HETATM   13  C10 UNL     1      13.879  10.708   3.849  1.00  0.00     0.096 A 
HETATM   14 CL4  UNL     1      14.865   9.266   4.093  1.00  0.00    -0.079 Cl
BRANCH   6  15
HETATM   15  O5  UNL     1      13.624  14.180   5.094  1.00  0.00    -0.356 OA
ATOM     16  H5  UNL     1      12.987  14.884   5.119  1.00  0.00     0.218 HD
ENDBRANCH   6  15
ENDBRANCH   4   5
ENDBRANCH   2   4
BRANCH   1  17
HETATM   17  N1  UNL     1      17.370  13.604   5.405  1.00  0.00    -0.248 N 
ATOM     18  H1  UNL     1      18.118  12.951   5.174  1.00  0.00     0.182 HD
BRANCH  17  19
HETATM   19  S1  UNL     1      17.061  14.982   4.421  1.00  0.00     0.233 S 
HETATM   20  O1  UNL     1      15.872  15.690   5.003  1.00  0.00    -0.206 OA
HETATM   21  O2  UNL     1      18.231  15.917   4.399  1.00  0.00    -0.206 OA
BRANCH  19  22
HETATM   22  C1  UNL     1      16.672  14.422   2.763  1.00  0.00     0.166 C 
BRANCH  22  23
HETATM   23  C2  UNL     1      15.517  15.212   2.192  1.00  0.00     0.048 C 
BRANCH  23  24
HETATM   24  C3  UNL     1      15.181  14.588   0.844  1.00  0.00     0.223 C 
HETATM   25  F1  UNL     1      13.861  14.203   0.841  1.00  0.00    -0.255 F 
ENDBRANCH  23  24
ENDBRANCH  22  23
ENDBRANCH  19  22
ENDBRANCH  17  19
ENDBRANCH   1  17
BRANCH   1  26
HETATM   26  O3  UNL     1      16.819  14.151   7.676  1.00  0.00    -0.331 OA
ATOM     27  H3  UNL     1      16.117  14.280   8.303  1.00  0.00     0.221 HD
ENDBRANCH   1  26
TORSDOF 9
ENDMDL
