MODEL 1
REMARK VINA RESULT: -9.090129042      0.000      0.000
REMARK  11 active torsions:
REMARK  status: ('A' for Active; 'I' for Inactive)
REMARK    1  A    between atoms: O1_2  and  C2_3 
REMARK    2  A    between atoms: C2_3  and  C3_5 
REMARK    3  A    between atoms: C3_5  and  N1_6 
REMARK    4  A    between atoms: N1_6  and  C4_8 
REMARK    5  A    between atoms: C5_11  and  C6_12 
REMARK    6  A    between atoms: C6_12  and  N3_13 
REMARK    7  A    between atoms: N3_13  and  C7_15 
REMARK    8  A    between atoms: C11_19  and  C12_20 
REMARK    9  A    between atoms: C15_24  and  O4_25 
REMARK   10  A    between atoms: O4_25  and  N4_26 
REMARK   11  A    between atoms: C16_31  and  N6_32 
ROOT
HETATM    1  C4  UNL     1      17.316  27.148   9.899  1.00  0.00     0.146 A 
HETATM    2  N2  UNL     1      16.574  26.506  10.801  1.00  0.00    -0.338 N 
ATOM      3  H2  UNL     1      16.253  27.028  11.616  1.00  0.00     0.167 HD
HETATM    4  C5  UNL     1      16.224  25.217  10.701  1.00  0.00     0.082 A 
HETATM    5  C15 UNL     1      16.718  24.529   9.541  1.00  0.00     0.195 A 
HETATM    6  N5  UNL     1      17.449  25.150   8.627  1.00  0.00    -0.317 N 
ATOM      7  H5  UNL     1      17.775  24.629   7.812  1.00  0.00     0.169 HD
HETATM    8  C16 UNL     1      17.770  26.442   8.747  1.00  0.00     0.145 A 
ENDROOT
BRANCH   4   9
HETATM    9  C6  UNL     1      15.522  24.358  11.661  1.00  0.00     0.181 C 
BRANCH   9  10
HETATM   10  N3  UNL     1      16.285  23.381  12.376  1.00  0.00    -0.384 N 
ATOM     11  H3  UNL     1      17.220  23.086  12.092  1.00  0.00     0.160 HD
BRANCH  10  12
HETATM   12  C7  UNL     1      15.587  22.831  13.581  1.00  0.00     0.029 A 
HETATM   13  C8  UNL     1      14.288  23.226  13.757  1.00  0.00     0.029 A 
HETATM   14  C9  UNL     1      13.565  22.792  14.860  1.00  0.00     0.003 A 
HETATM   15  C10 UNL     1      14.189  21.964  15.763  1.00  0.00     0.015 A 
HETATM   16  C11 UNL     1      15.493  21.556  15.592  1.00  0.00     0.011 A 
HETATM   17  C14 UNL     1      16.178  22.021  14.472  1.00  0.00     0.044 A 
BRANCH  16  18
HETATM   18  C12 UNL     1      16.037  20.597  16.556  1.00  0.00     0.155 C 
HETATM   19  C13 UNL     1      15.368  20.448  17.870  1.00  0.00     0.096 C 
HETATM   20  O3  UNL     1      17.030  19.904  16.254  1.00  0.00    -0.293 OA
ENDBRANCH  16  18
ENDBRANCH  10  12
ENDBRANCH   9  10
ENDBRANCH   4   9
BRANCH   5  21
HETATM   21  O4  UNL     1      16.368  23.190   9.470  1.00  0.00    -0.225 OA
BRANCH  21  22
HETATM   22  N4  UNL     1      15.407  22.588   8.807  1.00  0.00    -0.303 N 
ATOM     23  H42 UNL     1      15.153  23.063   7.942  1.00  0.00     0.184 HD
ATOM     24  H41 UNL     1      14.885  21.737   9.017  1.00  0.00     0.184 HD
ENDBRANCH  21  22
ENDBRANCH   5  21
BRANCH   1  25
HETATM   25  N1  UNL     1      18.026  28.202  10.086  1.00  0.00    -0.364 N 
ATOM     26  H1  UNL     1      18.945  28.063  10.507  1.00  0.00     0.161 HD
BRANCH  25  27
HETATM   27  C3  UNL     1      17.668  29.549   9.767  1.00  0.00     0.232 C 
BRANCH  27  28
HETATM   28  C2  UNL     1      16.935  30.065  11.053  1.00  0.00     0.276 C 
HETATM   29  O2  UNL     1      15.911  29.686  11.504  1.00  0.00    -0.263 OA
BRANCH  28  30
HETATM   30  O1  UNL     1      17.706  31.125  11.665  1.00  0.00    -0.325 OA
HETATM   31  C1  UNL     1      18.426  31.977  10.754  1.00  0.00     0.213 C 
ENDBRANCH  28  30
ENDBRANCH  27  28
ENDBRANCH  25  27
ENDBRANCH   1  25
BRANCH   8  32
HETATM   32  N6  UNL     1      18.436  27.054   7.858  1.00  0.00    -0.382 N 
ATOM     33  H62 UNL     1      19.292  27.563   8.080  1.00  0.00     0.157 HD
ATOM     34  H61 UNL     1      18.128  27.024   6.886  1.00  0.00     0.157 HD
ENDBRANCH   8  32
TORSDOF 11
ENDMDL
MODEL 2
REMARK VINA RESULT: -8.916876531      0.804      1.000
REMARK  11 active torsions:
REMARK  status: ('A' for Active; 'I' for Inactive)
REMARK    1  A    between atoms: O1_2  and  C2_3 
REMARK    2  A    between atoms: C2_3  and  C3_5 
REMARK    3  A    between atoms: C3_5  and  N1_6 
REMARK    4  A    between atoms: N1_6  and  C4_8 
REMARK    5  A    between atoms: C5_11  and  C6_12 
REMARK    6  A    between atoms: C6_12  and  N3_13 
REMARK    7  A    between atoms: N3_13  and  C7_15 
REMARK    8  A    between atoms: C11_19  and  C12_20 
REMARK    9  A    between atoms: C15_24  and  O4_25 
REMARK   10  A    between atoms: O4_25  and  N4_26 
REMARK   11  A    between atoms: C16_31  and  N6_32 
ROOT
HETATM    1  C4  UNL     1      17.178  27.111   9.997  1.00  0.00     0.146 A 
HETATM    2  N2  UNL     1      16.449  26.414  10.868  1.00  0.00    -0.338 N 
ATOM      3  H2  UNL     1      16.085  26.901  11.686  1.00  0.00     0.167 HD
HETATM    4  C5  UNL     1      16.164  25.112  10.732  1.00  0.00     0.082 A 
HETATM    5  C15 UNL     1      16.716  24.475   9.568  1.00  0.00     0.195 A 
HETATM    6  N5  UNL     1      17.436  25.151   8.685  1.00  0.00    -0.317 N 
ATOM      7  H5  UNL     1      17.805  24.665   7.867  1.00  0.00     0.169 HD
HETATM    8  C16 UNL     1      17.690  26.454   8.841  1.00  0.00     0.145 A 
ENDROOT
BRANCH   4   9
HETATM    9  C6  UNL     1      15.484  24.199  11.656  1.00  0.00     0.181 C 
BRANCH   9  10
HETATM   10  N3  UNL     1      16.283  23.277  12.405  1.00  0.00    -0.384 N 
ATOM     11  H3  UNL     1      17.235  23.023  12.141  1.00  0.00     0.160 HD
BRANCH  10  12
HETATM   12  C7  UNL     1      15.595  22.720  13.612  1.00  0.00     0.029 A 
HETATM   13  C8  UNL     1      14.380  23.272  13.921  1.00  0.00     0.029 A 
HETATM   14  C9  UNL     1      13.677  22.842  15.038  1.00  0.00     0.003 A 
HETATM   15  C10 UNL     1      14.234  21.857  15.820  1.00  0.00     0.015 A 
HETATM   16  C11 UNL     1      15.452  21.292  15.515  1.00  0.00     0.011 A 
HETATM   17  C14 UNL     1      16.121  21.760  14.385  1.00  0.00     0.044 A 
BRANCH  16  18
HETATM   18  C12 UNL     1      15.916  20.183  16.352  1.00  0.00     0.155 C 
HETATM   19  C13 UNL     1      15.577  20.189  17.795  1.00  0.00     0.096 C 
HETATM   20  O3  UNL     1      16.561  19.244  15.843  1.00  0.00    -0.293 OA
ENDBRANCH  16  18
ENDBRANCH  10  12
ENDBRANCH   9  10
ENDBRANCH   4   9
BRANCH   5  21
HETATM   21  O4  UNL     1      16.433  23.123   9.461  1.00  0.00    -0.225 OA
BRANCH  21  22
HETATM   22  N4  UNL     1      15.433  22.498   8.882  1.00  0.00    -0.303 N 
ATOM     23  H42 UNL     1      15.620  21.512   8.705  1.00  0.00     0.184 HD
ATOM     24  H41 UNL     1      14.517  22.836   8.587  1.00  0.00     0.184 HD
ENDBRANCH  21  22
ENDBRANCH   5  21
BRANCH   1  25
HETATM   25  N1  UNL     1      17.832  28.193  10.223  1.00  0.00    -0.364 N 
ATOM     26  H1  UNL     1      18.846  28.142  10.119  1.00  0.00     0.161 HD
BRANCH  25  27
HETATM   27  C3  UNL     1      17.292  29.461  10.603  1.00  0.00     0.232 C 
BRANCH  27  28
HETATM   28  C2  UNL     1      18.428  30.483  10.250  1.00  0.00     0.276 C 
HETATM   29  O2  UNL     1      19.421  30.280   9.643  1.00  0.00    -0.263 OA
BRANCH  28  30
HETATM   30  O1  UNL     1      18.100  31.786  10.784  1.00  0.00    -0.325 OA
HETATM   31  C1  UNL     1      17.101  31.801  11.822  1.00  0.00     0.213 C 
ENDBRANCH  28  30
ENDBRANCH  27  28
ENDBRANCH  25  27
ENDBRANCH   1  25
BRANCH   8  32
HETATM   32  N6  UNL     1      18.346  27.117   7.981  1.00  0.00    -0.382 N 
ATOM     33  H62 UNL     1      19.218  26.770   7.582  1.00  0.00     0.157 HD
ATOM     34  H61 UNL     1      17.987  28.015   7.654  1.00  0.00     0.157 HD
ENDBRANCH   8  32
TORSDOF 11
ENDMDL
MODEL 3
REMARK VINA RESULT: -8.660285621      0.987      1.028
REMARK  11 active torsions:
REMARK  status: ('A' for Active; 'I' for Inactive)
REMARK    1  A    between atoms: O1_2  and  C2_3 
REMARK    2  A    between atoms: C2_3  and  C3_5 
REMARK    3  A    between atoms: C3_5  and  N1_6 
REMARK    4  A    between atoms: N1_6  and  C4_8 
REMARK    5  A    between atoms: C5_11  and  C6_12 
REMARK    6  A    between atoms: C6_12  and  N3_13 
REMARK    7  A    between atoms: N3_13  and  C7_15 
REMARK    8  A    between atoms: C11_19  and  C12_20 
REMARK    9  A    between atoms: C15_24  and  O4_25 
REMARK   10  A    between atoms: O4_25  and  N4_26 
REMARK   11  A    between atoms: C16_31  and  N6_32 
ROOT
HETATM    1  C4  UNL     1      17.682  27.628   9.176  1.00  0.00     0.146 A 
HETATM    2  N2  UNL     1      16.954  27.100  10.160  1.00  0.00    -0.338 N 
ATOM      3  H2  UNL     1      16.676  27.709  10.930  1.00  0.00     0.167 HD
HETATM    4  C5  UNL     1      16.566  25.818  10.199  1.00  0.00     0.082 A 
HETATM    5  C15 UNL     1      17.000  25.006   9.097  1.00  0.00     0.195 A 
HETATM    6  N5  UNL     1      17.716  25.511   8.104  1.00  0.00    -0.317 N 
ATOM      7  H5  UNL     1      17.999  24.904   7.335  1.00  0.00     0.169 HD
HETATM    8  C16 UNL     1      18.075  26.799   8.086  1.00  0.00     0.145 A 
ENDROOT
BRANCH   4   9
HETATM    9  C6  UNL     1      15.874  25.080  11.260  1.00  0.00     0.181 C 
BRANCH   9  10
HETATM   10  N3  UNL     1      16.535  23.949  11.838  1.00  0.00    -0.384 N 
ATOM     11  H3  UNL     1      17.491  23.681  11.599  1.00  0.00     0.160 HD
BRANCH  10  12
HETATM   12  C7  UNL     1      15.699  23.197  12.825  1.00  0.00     0.029 A 
HETATM   13  C8  UNL     1      14.367  23.086  12.525  1.00  0.00     0.029 A 
HETATM   14  C9  UNL     1      13.504  22.431  13.393  1.00  0.00     0.003 A 
HETATM   15  C10 UNL     1      14.022  21.904  14.553  1.00  0.00     0.015 A 
HETATM   16  C11 UNL     1      15.360  22.005  14.861  1.00  0.00     0.011 A 
HETATM   17  C14 UNL     1      16.185  22.675  13.961  1.00  0.00     0.044 A 
BRANCH  16  18
HETATM   18  C12 UNL     1      15.831  21.328  16.071  1.00  0.00     0.155 C 
HETATM   19  C13 UNL     1      15.066  21.500  17.328  1.00  0.00     0.096 C 
HETATM   20  O3  UNL     1      16.846  20.602  16.025  1.00  0.00    -0.293 OA
ENDBRANCH  16  18
ENDBRANCH  10  12
ENDBRANCH   9  10
ENDBRANCH   4   9
BRANCH   5  21
HETATM   21  O4  UNL     1      16.611  23.677   9.170  1.00  0.00    -0.225 OA
BRANCH  21  22
HETATM   22  N4  UNL     1      15.544  23.068   8.704  1.00  0.00    -0.303 N 
ATOM     23  H42 UNL     1      15.174  23.494   7.855  1.00  0.00     0.184 HD
ATOM     24  H41 UNL     1      15.038  22.253   9.050  1.00  0.00     0.184 HD
ENDBRANCH  21  22
ENDBRANCH   5  21
BRANCH   1  25
HETATM   25  N1  UNL     1      18.427  28.672   9.235  1.00  0.00    -0.364 N 
ATOM     26  H1  UNL     1      18.908  28.937   8.375  1.00  0.00     0.161 HD
BRANCH  25  27
HETATM   27  C3  UNL     1      18.654  29.504  10.376  1.00  0.00     0.232 C 
BRANCH  27  28
HETATM   28  C2  UNL     1      17.522  30.586  10.293  1.00  0.00     0.276 C 
HETATM   29  O2  UNL     1      16.362  30.411  10.158  1.00  0.00    -0.263 OA
BRANCH  28  30
HETATM   30  O1  UNL     1      18.097  31.908  10.409  1.00  0.00    -0.325 OA
HETATM   31  C1  UNL     1      17.730  32.645  11.590  1.00  0.00     0.213 C 
ENDBRANCH  28  30
ENDBRANCH  27  28
ENDBRANCH  25  27
ENDBRANCH   1  25
BRANCH   8  32
HETATM   32  N6  UNL     1      18.727  27.300   7.120  1.00  0.00    -0.382 N 
ATOM     33  H62 UNL     1      18.752  26.860   6.200  1.00  0.00     0.157 HD
ATOM     34  H61 UNL     1      19.227  28.180   7.250  1.00  0.00     0.157 HD
ENDBRANCH   8  32
TORSDOF 11
ENDMDL
MODEL 4
REMARK VINA RESULT: -8.197841599      1.848      2.851
REMARK  11 active torsions:
REMARK  status: ('A' for Active; 'I' for Inactive)
REMARK    1  A    between atoms: O1_2  and  C2_3 
REMARK    2  A    between atoms: C2_3  and  C3_5 
REMARK    3  A    between atoms: C3_5  and  N1_6 
REMARK    4  A    between atoms: N1_6  and  C4_8 
REMARK    5  A    between atoms: C5_11  and  C6_12 
REMARK    6  A    between atoms: C6_12  and  N3_13 
REMARK    7  A    between atoms: N3_13  and  C7_15 
REMARK    8  A    between atoms: C11_19  and  C12_20 
REMARK    9  A    between atoms: C15_24  and  O4_25 
REMARK   10  A    between atoms: O4_25  and  N4_26 
REMARK   11  A    between atoms: C16_31  and  N6_32 
ROOT
HETATM    1  C4  UNL     1      17.295  29.084  10.729  1.00  0.00     0.146 A 
HETATM    2  N2  UNL     1      16.644  27.923  10.799  1.00  0.00    -0.338 N 
ATOM      3  H2  UNL     1      15.963  27.801  11.548  1.00  0.00     0.167 HD
HETATM    4  C5  UNL     1      16.832  26.907   9.946  1.00  0.00     0.082 A 
HETATM    5  C15 UNL     1      17.814  27.130   8.923  1.00  0.00     0.195 A 
HETATM    6  N5  UNL     1      18.466  28.280   8.828  1.00  0.00    -0.317 N 
ATOM      7  H5  UNL     1      19.152  28.403   8.083  1.00  0.00     0.169 HD
HETATM    8  C16 UNL     1      18.246  29.281   9.686  1.00  0.00     0.145 A 
ENDROOT
BRANCH   4   9
HETATM    9  C6  UNL     1      16.283  25.547   9.972  1.00  0.00     0.181 C 
BRANCH   9  10
HETATM   10  N3  UNL     1      16.856  24.604  10.884  1.00  0.00    -0.384 N 
ATOM     11  H3  UNL     1      17.862  24.488  11.005  1.00  0.00     0.160 HD
BRANCH  10  12
HETATM   12  C7  UNL     1      15.844  23.806  11.645  1.00  0.00     0.029 A 
HETATM   13  C8  UNL     1      14.612  23.680  11.059  1.00  0.00     0.029 A 
HETATM   14  C9  UNL     1      13.598  22.982  11.701  1.00  0.00     0.003 A 
HETATM   15  C10 UNL     1      13.864  22.429  12.931  1.00  0.00     0.015 A 
HETATM   16  C11 UNL     1      15.100  22.545  13.526  1.00  0.00     0.011 A 
HETATM   17  C14 UNL     1      16.085  23.259  12.845  1.00  0.00     0.044 A 
BRANCH  16  18
HETATM   18  C12 UNL     1      15.315  21.840  14.791  1.00  0.00     0.155 C 
HETATM   19  C13 UNL     1      15.603  22.633  16.010  1.00  0.00     0.096 C 
HETATM   20  O3  UNL     1      15.228  20.595  14.835  1.00  0.00    -0.293 OA
ENDBRANCH  16  18
ENDBRANCH  10  12
ENDBRANCH   9  10
ENDBRANCH   4   9
BRANCH   5  21
HETATM   21  O4  UNL     1      18.013  26.058   8.068  1.00  0.00    -0.225 OA
BRANCH  21  22
HETATM   22  N4  UNL     1      18.792  25.930   7.017  1.00  0.00    -0.303 N 
ATOM     23  H42 UNL     1      19.333  26.769   6.811  1.00  0.00     0.184 HD
ATOM     24  H41 UNL     1      18.937  25.141   6.388  1.00  0.00     0.184 HD
ENDBRANCH  21  22
ENDBRANCH   5  21
BRANCH   1  25
HETATM   25  N1  UNL     1      17.496  29.920  11.682  1.00  0.00    -0.364 N 
ATOM     26  H1  UNL     1      18.432  29.931  12.088  1.00  0.00     0.161 HD
BRANCH  25  27
HETATM   27  C3  UNL     1      16.550  30.839  12.234  1.00  0.00     0.232 C 
BRANCH  27  28
HETATM   28  C2  UNL     1      17.165  32.250  11.934  1.00  0.00     0.276 C 
HETATM   29  O2  UNL     1      17.899  32.878  12.613  1.00  0.00    -0.263 OA
BRANCH  28  30
HETATM   30  O1  UNL     1      16.703  32.722  10.647  1.00  0.00    -0.325 OA
HETATM   31  C1  UNL     1      15.300  33.036  10.566  1.00  0.00     0.213 C 
ENDBRANCH  28  30
ENDBRANCH  27  28
ENDBRANCH  25  27
ENDBRANCH   1  25
BRANCH   8  32
HETATM   32  N6  UNL     1      18.837  30.398   9.579  1.00  0.00    -0.382 N 
ATOM     33  H62 UNL     1      19.000  30.838   8.673  1.00  0.00     0.157 HD
ATOM     34  H61 UNL     1      19.144  30.890  10.419  1.00  0.00     0.157 HD
ENDBRANCH   8  32
TORSDOF 11
ENDMDL
MODEL 5
REMARK VINA RESULT: -8.089103657      1.982      8.030
REMARK  11 active torsions:
REMARK  status: ('A' for Active; 'I' for Inactive)
REMARK    1  A    between atoms: O1_2  and  C2_3 
REMARK    2  A    between atoms: C2_3  and  C3_5 
REMARK    3  A    between atoms: C3_5  and  N1_6 
REMARK    4  A    between atoms: N1_6  and  C4_8 
REMARK    5  A    between atoms: C5_11  and  C6_12 
REMARK    6  A    between atoms: C6_12  and  N3_13 
REMARK    7  A    between atoms: N3_13  and  C7_15 
REMARK    8  A    between atoms: C11_19  and  C12_20 
REMARK    9  A    between atoms: C15_24  and  O4_25 
REMARK   10  A    between atoms: O4_25  and  N4_26 
REMARK   11  A    between atoms: C16_31  and  N6_32 
ROOT
HETATM    1  C4  UNL     1      16.315  23.958  10.624  1.00  0.00     0.146 A 
HETATM    2  N2  UNL     1      17.106  25.015  10.446  1.00  0.00    -0.338 N 
ATOM      3  H2  UNL     1      17.824  25.199  11.147  1.00  0.00     0.167 HD
HETATM    4  C5  UNL     1      17.014  25.851   9.403  1.00  0.00     0.082 A 
HETATM    5  C15 UNL     1      15.975  25.551   8.458  1.00  0.00     0.195 A 
HETATM    6  N5  UNL     1      15.183  24.500   8.610  1.00  0.00    -0.317 N 
ATOM      7  H5  UNL     1      14.461  24.315   7.913  1.00  0.00     0.169 HD
HETATM    8  C16 UNL     1      15.309  23.675   9.654  1.00  0.00     0.145 A 
ENDROOT
BRANCH   4   9
HETATM    9  C6  UNL     1      17.727  27.106   9.141  1.00  0.00     0.181 C 
BRANCH   9  10
HETATM   10  N3  UNL     1      18.446  27.712  10.221  1.00  0.00    -0.384 N 
ATOM     11  H3  UNL     1      19.089  27.194  10.822  1.00  0.00     0.160 HD
BRANCH  10  12
HETATM   12  C7  UNL     1      18.169  29.173  10.389  1.00  0.00     0.029 A 
HETATM   13  C8  UNL     1      19.230  30.015  10.185  1.00  0.00     0.029 A 
HETATM   14  C9  UNL     1      19.079  31.385  10.345  1.00  0.00     0.003 A 
HETATM   15  C10 UNL     1      17.846  31.867  10.714  1.00  0.00     0.015 A 
HETATM   16  C11 UNL     1      16.771  31.030  10.916  1.00  0.00     0.011 A 
HETATM   17  C14 UNL     1      16.973  29.662  10.747  1.00  0.00     0.044 A 
BRANCH  16  18
HETATM   18  C12 UNL     1      15.476  31.646  11.212  1.00  0.00     0.155 C 
HETATM   19  C13 UNL     1      15.227  33.036  10.761  1.00  0.00     0.096 C 
HETATM   20  O3  UNL     1      14.596  30.993  11.809  1.00  0.00    -0.293 OA
ENDBRANCH  16  18
ENDBRANCH  10  12
ENDBRANCH   9  10
ENDBRANCH   4   9
BRANCH   5  21
HETATM   21  O4  UNL     1      15.879  26.443   7.402  1.00  0.00    -0.225 OA
BRANCH  21  22
HETATM   22  N4  UNL     1      16.667  26.638   6.368  1.00  0.00    -0.303 N 
ATOM     23  H42 UNL     1      16.544  25.946   5.630  1.00  0.00     0.184 HD
ATOM     24  H41 UNL     1      17.368  27.357   6.191  1.00  0.00     0.184 HD
ENDBRANCH  21  22
ENDBRANCH   5  21
BRANCH   1  25
HETATM   25  N1  UNL     1      16.047  23.365  11.731  1.00  0.00    -0.364 N 
ATOM     26  H1  UNL     1      16.345  22.393  11.811  1.00  0.00     0.161 HD
BRANCH  25  27
HETATM   27  C3  UNL     1      15.375  23.922  12.864  1.00  0.00     0.232 C 
BRANCH  27  28
HETATM   28  C2  UNL     1      14.250  22.881  13.193  1.00  0.00     0.276 C 
HETATM   29  O2  UNL     1      13.194  22.769  12.677  1.00  0.00    -0.263 OA
BRANCH  28  30
HETATM   30  O1  UNL     1      14.682  22.015  14.269  1.00  0.00    -0.325 OA
HETATM   31  C1  UNL     1      15.037  22.678  15.497  1.00  0.00     0.213 C 
ENDBRANCH  28  30
ENDBRANCH  27  28
ENDBRANCH  25  27
ENDBRANCH   1  25
BRANCH   8  32
HETATM   32  N6  UNL     1      14.582  22.644   9.786  1.00  0.00    -0.382 N 
ATOM     33  H62 UNL     1      14.650  21.850   9.150  1.00  0.00     0.157 HD
ATOM     34  H61 UNL     1      13.921  22.588  10.562  1.00  0.00     0.157 HD
ENDBRANCH   8  32
TORSDOF 11
ENDMDL
