MODEL 1
REMARK VINA RESULT: -8.880391975      0.000      0.000
REMARK  10 active torsions:
REMARK  status: ('A' for Active; 'I' for Inactive)
REMARK    1  A    between atoms: N1_1  and  C1_4 
REMARK    2  A    between atoms: C2_7  and  C3_8 
REMARK    3  A    between atoms: C3_8  and  C4_9 
REMARK    4  A    between atoms: C3_8  and  C12_19 
REMARK    5  A    between atoms: C4_9  and  O1_10 
REMARK    6  A    between atoms: O1_10  and  C5_11 
REMARK    7  A    between atoms: C5_11  and  C6_13 
REMARK    8  A    between atoms: C12_19  and  O3_25 
REMARK    9  A    between atoms: N3_20  and  N4_22 
REMARK   10  A    between atoms: O3_25  and  C13_26 
ROOT
HETATM    1  C3  UNL     1      17.554  27.063   9.741  1.00  0.00     0.137 C 
ENDROOT
BRANCH   1   2
HETATM    2  C2  UNL     1      17.512  28.460  10.245  1.00  0.00     0.046 A 
HETATM    3  N2  UNL     1      16.495  28.975  10.952  1.00  0.00    -0.195 N 
HETATM    4  C1  UNL     1      16.493  30.258  11.397  1.00  0.00     0.678 A 
ATOM      5  H2  UNL     1      15.694  28.381  11.165  1.00  0.00     0.184 HD
HETATM    6  N5  UNL     1      17.529  31.066  11.137  1.00  0.00    -0.156 N 
HETATM    7  C15 UNL     1      18.590  30.627  10.433  1.00  0.00     0.261 A 
ATOM      8  H5  UNL     1      17.515  32.027  11.477  1.00  0.00     0.187 HD
HETATM    9  C14 UNL     1      18.572  29.329   9.993  1.00  0.00     0.101 A 
HETATM   10  O6  UNL     1      19.535  31.430  10.219  1.00  0.00    -0.268 OA
BRANCH   4  11
HETATM   11  N1  UNL     1      15.471  30.677  12.073  1.00  0.00    -0.234 N 
ATOM     12  H12 UNL     1      14.887  30.029  12.601  1.00  0.00     0.174 HD
ATOM     13  H11 UNL     1      15.259  31.675  12.069  1.00  0.00     0.174 HD
ENDBRANCH   4  11
ENDBRANCH   1   2
BRANCH   1  14
HETATM   14  C4  UNL     1      16.774  26.121  10.627  1.00  0.00     0.198 C 
BRANCH  14  15
HETATM   15  O1  UNL     1      17.206  24.801  10.556  1.00  0.00    -0.316 OA
BRANCH  15  16
HETATM   16  C5  UNL     1      16.275  23.772  10.524  1.00  0.00     0.293 C 
HETATM   17  O2  UNL     1      16.161  23.136   9.441  1.00  0.00    -0.259 OA
BRANCH  16  18
HETATM   18  C6  UNL     1      15.452  23.408  11.660  1.00  0.00     0.039 A 
HETATM   19  C7  UNL     1      14.118  23.151  11.465  1.00  0.00     0.017 A 
HETATM   20  C8  UNL     1      13.303  22.801  12.532  1.00  0.00     0.001 A 
HETATM   21  C9  UNL     1      13.831  22.713  13.785  1.00  0.00     0.000 A 
HETATM   22  C10 UNL     1      15.162  22.971  13.981  1.00  0.00     0.001 A 
HETATM   23  C11 UNL     1      15.979  23.322  12.906  1.00  0.00     0.017 A 
ENDBRANCH  16  18
ENDBRANCH  15  16
ENDBRANCH  14  15
ENDBRANCH   1  14
BRANCH   1  24
HETATM   24  C12 UNL     1      17.021  26.959   8.361  1.00  0.00     0.156 C 
HETATM   25  N3  UNL     1      16.073  26.129   8.113  1.00  0.00    -0.289 N 
ATOM     26  H3  UNL     1      15.756  25.587   8.916  1.00  0.00     0.188 HD
BRANCH  25  27
HETATM   27  N4  UNL     1      15.423  25.858   6.941  1.00  0.00    -0.343 N 
ATOM     28  H42 UNL     1      14.760  26.582   6.663  1.00  0.00     0.176 HD
ATOM     29  H41 UNL     1      15.502  25.056   6.316  1.00  0.00     0.176 HD
ENDBRANCH  25  27
BRANCH  24  30
HETATM   30  O3  UNL     1      17.442  27.679   7.246  1.00  0.00    -0.238 OA
BRANCH  30  31
HETATM   31  C13 UNL     1      18.565  27.226   6.522  1.00  0.00     0.339 C 
HETATM   32  O4  UNL     1      19.074  26.093   6.705  1.00  0.00    -0.623 OA
HETATM   33  O5  UNL     1      19.110  28.066   5.586  1.00  0.00    -0.623 OA
ENDBRANCH  30  31
ENDBRANCH  24  30
ENDBRANCH   1  24
TORSDOF 10
ENDMDL
MODEL 2
REMARK VINA RESULT: -7.927714021      1.127      1.916
REMARK  10 active torsions:
REMARK  status: ('A' for Active; 'I' for Inactive)
REMARK    1  A    between atoms: N1_1  and  C1_4 
REMARK    2  A    between atoms: C2_7  and  C3_8 
REMARK    3  A    between atoms: C3_8  and  C4_9 
REMARK    4  A    between atoms: C3_8  and  C12_19 
REMARK    5  A    between atoms: C4_9  and  O1_10 
REMARK    6  A    between atoms: O1_10  and  C5_11 
REMARK    7  A    between atoms: C5_11  and  C6_13 
REMARK    8  A    between atoms: C12_19  and  O3_25 
REMARK    9  A    between atoms: N3_20  and  N4_22 
REMARK   10  A    between atoms: O3_25  and  C13_26 
ROOT
HETATM    1  C3  UNL     1      17.572  27.061   9.691  1.00  0.00     0.137 C 
ENDROOT
BRANCH   1   2
HETATM    2  C2  UNL     1      17.547  28.454  10.204  1.00  0.00     0.046 A 
HETATM    3  N2  UNL     1      18.527  29.348  10.004  1.00  0.00    -0.195 N 
HETATM    4  C1  UNL     1      18.468  30.616  10.488  1.00  0.00     0.678 A 
ATOM      5  H2  UNL     1      19.347  29.066   9.467  1.00  0.00     0.184 HD
HETATM    6  N5  UNL     1      17.405  31.020  11.196  1.00  0.00    -0.156 N 
HETATM    7  C15 UNL     1      16.378  30.185  11.442  1.00  0.00     0.261 A 
ATOM      8  H5  UNL     1      17.373  31.975  11.553  1.00  0.00     0.187 HD
HETATM    9  C14 UNL     1      16.458  28.910  10.945  1.00  0.00     0.101 A 
HETATM   10  O6  UNL     1      15.406  30.620  12.113  1.00  0.00    -0.268 OA
BRANCH   4  11
HETATM   11  N1  UNL     1      19.457  31.416  10.250  1.00  0.00    -0.234 N 
ATOM     12  H12 UNL     1      19.957  31.386   9.361  1.00  0.00     0.174 HD
ATOM     13  H11 UNL     1      19.730  32.083  10.972  1.00  0.00     0.174 HD
ENDBRANCH   4  11
ENDBRANCH   1   2
BRANCH   1  14
HETATM   14  C4  UNL     1      16.784  26.121  10.572  1.00  0.00     0.198 C 
BRANCH  14  15
HETATM   15  O1  UNL     1      17.216  24.800  10.508  1.00  0.00    -0.316 OA
BRANCH  15  16
HETATM   16  C5  UNL     1      16.284  23.772  10.471  1.00  0.00     0.293 C 
HETATM   17  O2  UNL     1      16.184  23.130   9.390  1.00  0.00    -0.259 OA
BRANCH  16  18
HETATM   18  C6  UNL     1      15.447  23.415  11.599  1.00  0.00     0.039 A 
HETATM   19  C7  UNL     1      16.012  23.315  12.845  1.00  0.00     0.017 A 
HETATM   20  C8  UNL     1      15.238  22.975  13.946  1.00  0.00     0.001 A 
HETATM   21  C9  UNL     1      13.905  22.737  13.787  1.00  0.00     0.000 A 
HETATM   22  C10 UNL     1      13.341  22.837  12.543  1.00  0.00     0.001 A 
HETATM   23  C11 UNL     1      14.122  23.179  11.438  1.00  0.00     0.017 A 
ENDBRANCH  16  18
ENDBRANCH  15  16
ENDBRANCH  14  15
ENDBRANCH   1  14
BRANCH   1  24
HETATM   24  C12 UNL     1      17.035  26.972   8.312  1.00  0.00     0.156 C 
HETATM   25  N3  UNL     1      16.101  26.129   8.053  1.00  0.00    -0.289 N 
ATOM     26  H3  UNL     1      15.797  25.567   8.847  1.00  0.00     0.188 HD
BRANCH  25  27
HETATM   27  N4  UNL     1      15.451  25.867   6.879  1.00  0.00    -0.343 N 
ATOM     28  H42 UNL     1      14.621  25.285   6.991  1.00  0.00     0.176 HD
ATOM     29  H41 UNL     1      15.669  26.162   5.927  1.00  0.00     0.176 HD
ENDBRANCH  25  27
BRANCH  24  30
HETATM   30  O3  UNL     1      17.438  27.719   7.208  1.00  0.00    -0.238 OA
BRANCH  30  31
HETATM   31  C13 UNL     1      18.574  27.306   6.479  1.00  0.00     0.339 C 
HETATM   32  O4  UNL     1      19.123  28.034   5.616  1.00  0.00    -0.623 OA
HETATM   33  O5  UNL     1      19.086  26.061   6.736  1.00  0.00    -0.623 OA
ENDBRANCH  30  31
ENDBRANCH  24  30
ENDBRANCH   1  24
TORSDOF 10
ENDMDL
MODEL 3
REMARK VINA RESULT: -6.730551850      1.329      1.931
REMARK  10 active torsions:
REMARK  status: ('A' for Active; 'I' for Inactive)
REMARK    1  A    between atoms: N1_1  and  C1_4 
REMARK    2  A    between atoms: C2_7  and  C3_8 
REMARK    3  A    between atoms: C3_8  and  C4_9 
REMARK    4  A    between atoms: C3_8  and  C12_19 
REMARK    5  A    between atoms: C4_9  and  O1_10 
REMARK    6  A    between atoms: O1_10  and  C5_11 
REMARK    7  A    between atoms: C5_11  and  C6_13 
REMARK    8  A    between atoms: C12_19  and  O3_25 
REMARK    9  A    between atoms: N3_20  and  N4_22 
REMARK   10  A    between atoms: O3_25  and  C13_26 
ROOT
HETATM    1  C3  UNL     1      17.642  26.949   9.925  1.00  0.00     0.137 C 
ENDROOT
BRANCH   1   2
HETATM    2  C2  UNL     1      17.583  28.380  10.318  1.00  0.00     0.046 A 
HETATM    3  N2  UNL     1      16.553  28.940  10.972  1.00  0.00    -0.195 N 
HETATM    4  C1  UNL     1      16.535  30.253  11.315  1.00  0.00     0.678 A 
ATOM      5  H2  UNL     1      15.754  28.357  11.222  1.00  0.00     0.184 HD
HETATM    6  N5  UNL     1      17.568  31.048  11.004  1.00  0.00    -0.156 N 
HETATM    7  C15 UNL     1      18.641  30.565  10.348  1.00  0.00     0.261 A 
ATOM      8  H5  UNL     1      17.541  32.032  11.268  1.00  0.00     0.187 HD
HETATM    9  C14 UNL     1      18.638  29.237  10.011  1.00  0.00     0.101 A 
HETATM   10  O6  UNL     1      19.581  31.358  10.083  1.00  0.00    -0.268 OA
BRANCH   4  11
HETATM   11  N1  UNL     1      15.502  30.715  11.946  1.00  0.00    -0.234 N 
ATOM     12  H12 UNL     1      14.626  30.193  11.974  1.00  0.00     0.174 HD
ATOM     13  H11 UNL     1      15.581  31.616  12.418  1.00  0.00     0.174 HD
ENDBRANCH   4  11
ENDBRANCH   1   2
BRANCH   1  14
HETATM   14  C4  UNL     1      16.548  26.139  10.580  1.00  0.00     0.198 C 
BRANCH  14  15
HETATM   15  O1  UNL     1      16.989  24.930  11.108  1.00  0.00    -0.316 OA
BRANCH  15  16
HETATM   16  C5  UNL     1      16.205  23.792  10.972  1.00  0.00     0.293 C 
HETATM   17  O2  UNL     1      16.303  23.157   9.887  1.00  0.00    -0.259 OA
BRANCH  16  18
HETATM   18  C6  UNL     1      15.303  23.319  12.003  1.00  0.00     0.039 A 
HETATM   19  C7  UNL     1      15.768  23.185  13.287  1.00  0.00     0.017 A 
HETATM   20  C8  UNL     1      14.930  22.733  14.297  1.00  0.00     0.001 A 
HETATM   21  C9  UNL     1      13.635  22.419  14.012  1.00  0.00     0.000 A 
HETATM   22  C10 UNL     1      13.171  22.553  12.730  1.00  0.00     0.001 A 
HETATM   23  C11 UNL     1      14.015  23.007  11.716  1.00  0.00     0.017 A 
ENDBRANCH  16  18
ENDBRANCH  15  16
ENDBRANCH  14  15
ENDBRANCH   1  14
BRANCH   1  24
HETATM   24  C12 UNL     1      17.537  26.776   8.456  1.00  0.00     0.156 C 
HETATM   25  N3  UNL     1      18.506  26.228   7.815  1.00  0.00    -0.289 N 
ATOM     26  H3  UNL     1      19.299  25.949   8.392  1.00  0.00     0.188 HD
BRANCH  25  27
HETATM   27  N4  UNL     1      18.641  25.960   6.482  1.00  0.00    -0.343 N 
ATOM     28  H42 UNL     1      19.545  25.560   6.233  1.00  0.00     0.176 HD
ATOM     29  H41 UNL     1      17.983  26.098   5.714  1.00  0.00     0.176 HD
ENDBRANCH  25  27
BRANCH  24  30
HETATM   30  O3  UNL     1      16.472  27.156   7.644  1.00  0.00    -0.238 OA
BRANCH  30  31
HETATM   31  C13 UNL     1      15.624  26.159   7.115  1.00  0.00     0.339 C 
HETATM   32  O4  UNL     1      15.424  26.028   5.882  1.00  0.00    -0.623 OA
HETATM   33  O5  UNL     1      15.004  25.309   7.993  1.00  0.00    -0.623 OA
ENDBRANCH  30  31
ENDBRANCH  24  30
ENDBRANCH   1  24
TORSDOF 10
ENDMDL
MODEL 4
REMARK VINA RESULT: -6.095927918      2.419      6.366
REMARK  10 active torsions:
REMARK  status: ('A' for Active; 'I' for Inactive)
REMARK    1  A    between atoms: N1_1  and  C1_4 
REMARK    2  A    between atoms: C2_7  and  C3_8 
REMARK    3  A    between atoms: C3_8  and  C4_9 
REMARK    4  A    between atoms: C3_8  and  C12_19 
REMARK    5  A    between atoms: C4_9  and  O1_10 
REMARK    6  A    between atoms: O1_10  and  C5_11 
REMARK    7  A    between atoms: C5_11  and  C6_13 
REMARK    8  A    between atoms: C12_19  and  O3_25 
REMARK    9  A    between atoms: N3_20  and  N4_22 
REMARK   10  A    between atoms: O3_25  and  C13_26 
ROOT
HETATM    1  C3  UNL     1      16.822  26.787   9.636  1.00  0.00     0.137 C 
ENDROOT
BRANCH   1   2
HETATM    2  C2  UNL     1      16.437  25.415  10.056  1.00  0.00     0.046 A 
HETATM    3  N2  UNL     1      16.498  24.970  11.320  1.00  0.00    -0.195 N 
HETATM    4  C1  UNL     1      16.136  23.708  11.667  1.00  0.00     0.678 A 
ATOM      5  H2  UNL     1      16.828  25.603  12.049  1.00  0.00     0.184 HD
HETATM    6  N5  UNL     1      15.698  22.851  10.736  1.00  0.00    -0.156 N 
HETATM    7  C15 UNL     1      15.606  23.218   9.443  1.00  0.00     0.261 A 
ATOM      8  H5  UNL     1      15.429  21.905  11.010  1.00  0.00     0.187 HD
HETATM    9  C14 UNL     1      15.977  24.496   9.115  1.00  0.00     0.101 A 
HETATM   10  O6  UNL     1      15.188  22.370   8.613  1.00  0.00    -0.268 OA
BRANCH   4  11
HETATM   11  N1  UNL     1      16.225  23.357  12.910  1.00  0.00    -0.234 N 
ATOM     12  H12 UNL     1      16.974  23.712  13.505  1.00  0.00     0.174 HD
ATOM     13  H11 UNL     1      15.528  22.715  13.287  1.00  0.00     0.174 HD
ENDBRANCH   4  11
ENDBRANCH   1   2
BRANCH   1  14
HETATM   14  C4  UNL     1      18.209  27.153  10.108  1.00  0.00     0.198 C 
BRANCH  14  15
HETATM   15  O1  UNL     1      18.266  28.364  10.790  1.00  0.00    -0.316 OA
BRANCH  15  16
HETATM   16  C5  UNL     1      18.359  29.552  10.076  1.00  0.00     0.293 C 
HETATM   17  O2  UNL     1      19.152  29.568   9.095  1.00  0.00    -0.259 OA
BRANCH  16  18
HETATM   18  C6  UNL     1      17.599  30.740  10.406  1.00  0.00     0.039 A 
HETATM   19  C7  UNL     1      18.265  31.868  10.815  1.00  0.00     0.017 A 
HETATM   20  C8  UNL     1      17.566  33.022  11.139  1.00  0.00     0.001 A 
HETATM   21  C9  UNL     1      16.206  33.036  11.050  1.00  0.00     0.000 A 
HETATM   22  C10 UNL     1      15.540  31.910  10.642  1.00  0.00     0.001 A 
HETATM   23  C11 UNL     1      16.246  30.751  10.318  1.00  0.00     0.017 A 
ENDBRANCH  16  18
ENDBRANCH  15  16
ENDBRANCH  14  15
ENDBRANCH   1  14
BRANCH   1  24
HETATM   24  C12 UNL     1      16.772  26.946   8.162  1.00  0.00     0.156 C 
HETATM   25  N3  UNL     1      15.928  26.255   7.482  1.00  0.00    -0.289 N 
ATOM     26  H3  UNL     1      15.343  25.628   8.034  1.00  0.00     0.188 HD
BRANCH  25  27
HETATM   27  N4  UNL     1      15.693  26.229   6.137  1.00  0.00    -0.343 N 
ATOM     28  H42 UNL     1      14.736  25.974   5.892  1.00  0.00     0.176 HD
ATOM     29  H41 UNL     1      16.320  26.423   5.356  1.00  0.00     0.176 HD
ENDBRANCH  25  27
BRANCH  24  30
HETATM   30  O3  UNL     1      17.564  27.786   7.385  1.00  0.00    -0.238 OA
BRANCH  30  31
HETATM   31  C13 UNL     1      18.587  27.223   6.592  1.00  0.00     0.339 C 
HETATM   32  O4  UNL     1      18.943  26.024   6.701  1.00  0.00    -0.623 OA
HETATM   33  O5  UNL     1      19.205  28.029   5.671  1.00  0.00    -0.623 OA
ENDBRANCH  30  31
ENDBRANCH  24  30
ENDBRANCH   1  24
TORSDOF 10
ENDMDL
MODEL 5
REMARK VINA RESULT: -6.067889528      1.783      2.737
REMARK  10 active torsions:
REMARK  status: ('A' for Active; 'I' for Inactive)
REMARK    1  A    between atoms: N1_1  and  C1_4 
REMARK    2  A    between atoms: C2_7  and  C3_8 
REMARK    3  A    between atoms: C3_8  and  C4_9 
REMARK    4  A    between atoms: C3_8  and  C12_19 
REMARK    5  A    between atoms: C4_9  and  O1_10 
REMARK    6  A    between atoms: O1_10  and  C5_11 
REMARK    7  A    between atoms: C5_11  and  C6_13 
REMARK    8  A    between atoms: C12_19  and  O3_25 
REMARK    9  A    between atoms: N3_20  and  N4_22 
REMARK   10  A    between atoms: O3_25  and  C13_26 
ROOT
HETATM    1  C3  UNL     1      17.097  26.171  10.426  1.00  0.00     0.137 C 
ENDROOT
BRANCH   1   2
HETATM    2  C2  UNL     1      17.240  27.646  10.514  1.00  0.00     0.046 A 
HETATM    3  N2  UNL     1      16.368  28.451  11.141  1.00  0.00    -0.195 N 
HETATM    4  C1  UNL     1      16.532  29.798  11.202  1.00  0.00     0.678 A 
ATOM      5  H2  UNL     1      15.551  28.036  11.590  1.00  0.00     0.184 HD
HETATM    6  N5  UNL     1      17.594  30.376  10.625  1.00  0.00    -0.156 N 
HETATM    7  C15 UNL     1      18.516  29.640   9.976  1.00  0.00     0.261 A 
ATOM      8  H5  UNL     1      17.705  31.388  10.679  1.00  0.00     0.187 HD
HETATM    9  C14 UNL     1      18.331  28.283   9.925  1.00  0.00     0.101 A 
HETATM   10  O6  UNL     1      19.492  30.238   9.452  1.00  0.00    -0.268 OA
BRANCH   4  11
HETATM   11  N1  UNL     1      15.644  30.502  11.828  1.00  0.00    -0.234 N 
ATOM     12  H12 UNL     1      15.650  30.575  12.845  1.00  0.00     0.174 HD
ATOM     13  H11 UNL     1      14.932  30.987  11.280  1.00  0.00     0.174 HD
ENDBRANCH   4  11
ENDBRANCH   1   2
BRANCH   1  14
HETATM   14  C4  UNL     1      15.963  25.662  11.282  1.00  0.00     0.198 C 
BRANCH  14  15
HETATM   15  O1  UNL     1      16.195  24.402  11.826  1.00  0.00    -0.316 OA
BRANCH  15  16
HETATM   16  C5  UNL     1      15.134  23.664  12.331  1.00  0.00     0.293 C 
HETATM   17  O2  UNL     1      14.216  23.356  11.523  1.00  0.00    -0.259 OA
BRANCH  16  18
HETATM   18  C6  UNL     1      15.045  23.242  13.715  1.00  0.00     0.039 A 
HETATM   19  C7  UNL     1      16.200  22.998  14.414  1.00  0.00     0.017 A 
HETATM   20  C8  UNL     1      16.149  22.591  15.740  1.00  0.00     0.001 A 
HETATM   21  C9  UNL     1      14.942  22.433  16.353  1.00  0.00     0.000 A 
HETATM   22  C10 UNL     1      13.789  22.676  15.655  1.00  0.00     0.001 A 
HETATM   23  C11 UNL     1      13.843  23.084  14.322  1.00  0.00     0.017 A 
ENDBRANCH  16  18
ENDBRANCH  15  16
ENDBRANCH  14  15
ENDBRANCH   1  14
BRANCH   1  24
HETATM   24  C12 UNL     1      16.869  25.723   9.030  1.00  0.00     0.156 C 
HETATM   25  N3  UNL     1      16.678  26.599   8.110  1.00  0.00    -0.289 N 
ATOM     26  H3  UNL     1      16.697  27.567   8.429  1.00  0.00     0.188 HD
BRANCH  25  27
HETATM   27  N4  UNL     1      16.453  26.436   6.772  1.00  0.00    -0.343 N 
ATOM     28  H42 UNL     1      15.614  25.896   6.559  1.00  0.00     0.176 HD
ATOM     29  H41 UNL     1      16.989  26.768   5.970  1.00  0.00     0.176 HD
ENDBRANCH  25  27
BRANCH  24  30
HETATM   30  O3  UNL     1      16.828  24.409   8.571  1.00  0.00    -0.238 OA
BRANCH  30  31
HETATM   31  C13 UNL     1      15.595  23.722   8.566  1.00  0.00     0.339 C 
HETATM   32  O4  UNL     1      15.517  22.473   8.668  1.00  0.00    -0.623 OA
HETATM   33  O5  UNL     1      14.447  24.462   8.447  1.00  0.00    -0.623 OA
ENDBRANCH  30  31
ENDBRANCH  24  30
ENDBRANCH   1  24
TORSDOF 10
ENDMDL
