MODEL 1
REMARK VINA RESULT: -8.668464776      0.000      0.000
REMARK  8 active torsions:
REMARK  status: ('A' for Active; 'I' for Inactive)
REMARK    1  A    between atoms: C2_2  and  O1_3 
REMARK    2  A    between atoms: O1_3  and  C3_4 
REMARK       I    between atoms: C3_4  and  N1_6 
REMARK    3  A    between atoms: N1_6  and  N2_8 
REMARK       I    between atoms: N2_8  and  C4_10 
REMARK    4  A    between atoms: C4_10  and  C5_12 
REMARK    5  A    between atoms: C5_12  and  S1_13 
REMARK    6  A    between atoms: S1_13  and  C6_14 
REMARK    7  A    between atoms: C8_19  and  O5_20 
REMARK    8  A    between atoms: C9_22  and  C10_23 
REMARK       I    between atoms: C10_23  and  N4_25 
ROOT
HETATM    1  C6  UNL     1      17.071  25.383   9.802  1.00  0.00     0.148 A 
HETATM    2  N3  UNL     1      17.507  25.287   8.510  1.00  0.00    -0.301 N 
ATOM      3  H3  UNL     1      17.505  24.384   8.036  1.00  0.00     0.171 HD
HETATM    4  C7  UNL     1      17.933  26.372   7.872  1.00  0.00     0.283 A 
HETATM    5  O4  UNL     1      18.350  26.316   6.661  1.00  0.00    -0.265 OA
HETATM    6  C8  UNL     1      17.951  27.626   8.473  1.00  0.00     0.167 A 
HETATM    7  C9  UNL     1      17.515  27.735   9.773  1.00  0.00     0.141 A 
HETATM    8  N5  UNL     1      17.091  26.586  10.381  1.00  0.00    -0.330 N 
ATOM      9  H5  UNL     1      16.768  26.652  11.346  1.00  0.00     0.168 HD
ENDROOT
BRANCH   1  10
HETATM   10  S1  UNL     1      16.421  23.923  10.600  1.00  0.00    -0.084 SA
BRANCH  10  11
HETATM   11  C5  UNL     1      14.658  23.968  10.767  1.00  0.00     0.186 C 
BRANCH  11  12
HETATM   12  C4  UNL     1      14.255  23.199  12.005  1.00  0.00     0.245 C 
HETATM   13  N2  UNL     1      15.332  22.564  12.658  1.00  0.00    -0.265 N 
ATOM     14  H2  UNL     1      16.265  22.663  12.256  1.00  0.00     0.190 HD
HETATM   15  O3  UNL     1      13.070  23.177  12.340  1.00  0.00    -0.271 OA
BRANCH  13  16
HETATM   16  N1  UNL     1      15.195  21.818  13.809  1.00  0.00    -0.243 N 
HETATM   17  C3  UNL     1      15.331  22.435  15.099  1.00  0.00     0.379 C 
HETATM   18  O2  UNL     1      15.583  23.689  15.165  1.00  0.00    -0.237 OA
ATOM     19  H1  UNL     1      14.996  20.820  13.744  1.00  0.00     0.192 HD
BRANCH  17  20
HETATM   20  O1  UNL     1      15.221  21.795  16.311  1.00  0.00    -0.303 OA
BRANCH  20  21
HETATM   21  C2  UNL     1      15.835  20.539  16.566  1.00  0.00     0.176 C 
HETATM   22  C1  UNL     1      15.592  20.015  17.953  1.00  0.00     0.034 C 
ENDBRANCH  20  21
ENDBRANCH  17  20
ENDBRANCH  13  16
ENDBRANCH  11  12
ENDBRANCH  10  11
ENDBRANCH   1  10
BRANCH   7  23
HETATM   23  C10 UNL     1      17.414  29.004  10.474  1.00  0.00     0.270 C 
HETATM   24  O6  UNL     1      18.399  29.806  10.287  1.00  0.00    -0.266 OA
HETATM   25  N4  UNL     1      16.378  29.413  11.311  1.00  0.00    -0.360 N 
HETATM   26  C11 UNL     1      16.515  30.761  11.933  1.00  0.00     0.149 C 
ATOM     27  H4  UNL     1      15.567  28.820  11.489  1.00  0.00     0.162 HD
ENDBRANCH   7  23
BRANCH   6  28
HETATM   28  O5  UNL     1      18.408  28.707   7.745  1.00  0.00    -0.354 OA
ATOM     29  H5  UNL     1      18.822  29.426   8.205  1.00  0.00     0.218 HD
ENDBRANCH   6  28
TORSDOF 8
ENDMDL
MODEL 2
REMARK VINA RESULT: -8.033638091      1.570      8.265
REMARK  8 active torsions:
REMARK  status: ('A' for Active; 'I' for Inactive)
REMARK    1  A    between atoms: C2_2  and  O1_3 
REMARK    2  A    between atoms: O1_3  and  C3_4 
REMARK       I    between atoms: C3_4  and  N1_6 
REMARK    3  A    between atoms: N1_6  and  N2_8 
REMARK       I    between atoms: N2_8  and  C4_10 
REMARK    4  A    between atoms: C4_10  and  C5_12 
REMARK    5  A    between atoms: C5_12  and  S1_13 
REMARK    6  A    between atoms: S1_13  and  C6_14 
REMARK    7  A    between atoms: C8_19  and  O5_20 
REMARK    8  A    between atoms: C9_22  and  C10_23 
REMARK       I    between atoms: C10_23  and  N4_25 
ROOT
HETATM    1  C6  UNL     1      15.687  23.710  11.436  1.00  0.00     0.148 A 
HETATM    2  N3  UNL     1      14.561  23.199  10.854  1.00  0.00    -0.301 N 
ATOM      3  H3  UNL     1      14.430  23.269   9.845  1.00  0.00     0.171 HD
HETATM    4  C7  UNL     1      13.635  22.610  11.605  1.00  0.00     0.283 A 
HETATM    5  O4  UNL     1      12.567  22.122  11.090  1.00  0.00    -0.265 OA
HETATM    6  C8  UNL     1      13.769  22.487  12.983  1.00  0.00     0.167 A 
HETATM    7  C9  UNL     1      14.898  22.997  13.580  1.00  0.00     0.141 A 
HETATM    8  N5  UNL     1      15.814  23.595  12.759  1.00  0.00    -0.330 N 
ATOM      9  H5  UNL     1      16.654  23.981  13.189  1.00  0.00     0.168 HD
ENDROOT
BRANCH   1  10
HETATM   10  S1  UNL     1      16.951  24.415  10.388  1.00  0.00    -0.084 SA
BRANCH  10  11
HETATM   11  C5  UNL     1      16.282  25.462   9.126  1.00  0.00     0.186 C 
BRANCH  11  12
HETATM   12  C4  UNL     1      17.194  26.652   8.931  1.00  0.00     0.245 C 
HETATM   13  N2  UNL     1      17.519  27.324  10.128  1.00  0.00    -0.265 N 
ATOM     14  H2  UNL     1      17.124  26.972  11.001  1.00  0.00     0.190 HD
HETATM   15  O3  UNL     1      17.568  26.943   7.794  1.00  0.00    -0.271 OA
BRANCH  13  16
HETATM   16  N1  UNL     1      18.342  28.428  10.185  1.00  0.00    -0.243 N 
HETATM   17  C3  UNL     1      17.792  29.752  10.085  1.00  0.00     0.379 C 
HETATM   18  O2  UNL     1      16.527  29.891   9.941  1.00  0.00    -0.237 OA
ATOM     19  H1  UNL     1      19.347  28.305  10.298  1.00  0.00     0.192 HD
BRANCH  17  20
HETATM   20  O1  UNL     1      18.510  30.924  10.122  1.00  0.00    -0.303 OA
BRANCH  20  21
HETATM   21  C2  UNL     1      18.355  31.878  11.164  1.00  0.00     0.176 C 
HETATM   22  C1  UNL     1      17.470  33.036  10.799  1.00  0.00     0.034 C 
ENDBRANCH  20  21
ENDBRANCH  17  20
ENDBRANCH  13  16
ENDBRANCH  11  12
ENDBRANCH  10  11
ENDBRANCH   1  10
BRANCH   7  23
HETATM   23  C10 UNL     1      15.181  22.854  14.998  1.00  0.00     0.270 C 
HETATM   24  O6  UNL     1      15.705  23.886  15.553  1.00  0.00    -0.266 OA
HETATM   25  N4  UNL     1      14.950  21.727  15.784  1.00  0.00    -0.360 N 
HETATM   26  C11 UNL     1      15.347  21.820  17.219  1.00  0.00     0.149 C 
ATOM     27  H4  UNL     1      14.529  20.881  15.398  1.00  0.00     0.162 HD
ENDBRANCH   7  23
BRANCH   6  28
HETATM   28  O5  UNL     1      12.765  21.860  13.696  1.00  0.00    -0.354 OA
ATOM     29  H5  UNL     1      11.939  22.314  13.818  1.00  0.00     0.218 HD
ENDBRANCH   6  28
TORSDOF 8
ENDMDL
MODEL 3
REMARK VINA RESULT: -7.842644925      0.999      1.153
REMARK  8 active torsions:
REMARK  status: ('A' for Active; 'I' for Inactive)
REMARK    1  A    between atoms: C2_2  and  O1_3 
REMARK    2  A    between atoms: O1_3  and  C3_4 
REMARK       I    between atoms: C3_4  and  N1_6 
REMARK    3  A    between atoms: N1_6  and  N2_8 
REMARK       I    between atoms: N2_8  and  C4_10 
REMARK    4  A    between atoms: C4_10  and  C5_12 
REMARK    5  A    between atoms: C5_12  and  S1_13 
REMARK    6  A    between atoms: S1_13  and  C6_14 
REMARK    7  A    between atoms: C8_19  and  O5_20 
REMARK    8  A    between atoms: C9_22  and  C10_23 
REMARK       I    between atoms: C10_23  and  N4_25 
ROOT
HETATM    1  C6  UNL     1      17.052  25.317   9.878  1.00  0.00     0.148 A 
HETATM    2  N3  UNL     1      17.462  25.226   8.577  1.00  0.00    -0.301 N 
ATOM      3  H3  UNL     1      17.458  24.324   8.103  1.00  0.00     0.171 HD
HETATM    4  C7  UNL     1      17.865  26.315   7.932  1.00  0.00     0.283 A 
HETATM    5  O4  UNL     1      18.258  26.263   6.712  1.00  0.00    -0.265 OA
HETATM    6  C8  UNL     1      17.887  27.568   8.534  1.00  0.00     0.167 A 
HETATM    7  C9  UNL     1      17.476  27.673   9.843  1.00  0.00     0.141 A 
HETATM    8  N5  UNL     1      17.075  26.519  10.458  1.00  0.00    -0.330 N 
ATOM      9  H5  UNL     1      16.771  26.581  11.430  1.00  0.00     0.168 HD
ENDROOT
BRANCH   1  10
HETATM   10  S1  UNL     1      16.430  23.851  10.688  1.00  0.00    -0.084 SA
BRANCH  10  11
HETATM   11  C5  UNL     1      14.863  24.118  11.468  1.00  0.00     0.186 C 
BRANCH  11  12
HETATM   12  C4  UNL     1      14.869  23.466  12.833  1.00  0.00     0.245 C 
HETATM   13  N2  UNL     1      14.287  22.181  12.854  1.00  0.00    -0.265 N 
ATOM     14  H2  UNL     1      13.915  21.807  11.980  1.00  0.00     0.190 HD
HETATM   15  O3  UNL     1      15.353  24.075  13.788  1.00  0.00    -0.271 OA
BRANCH  13  16
HETATM   16  N1  UNL     1      14.193  21.404  13.988  1.00  0.00    -0.243 N 
HETATM   17  C3  UNL     1      15.374  20.852  14.593  1.00  0.00     0.379 C 
HETATM   18  O2  UNL     1      16.515  21.093  14.064  1.00  0.00    -0.237 OA
ATOM     19  H1  UNL     1      13.279  21.218  14.399  1.00  0.00     0.192 HD
BRANCH  17  20
HETATM   20  O1  UNL     1      15.404  20.061  15.718  1.00  0.00    -0.303 OA
BRANCH  20  21
HETATM   21  C2  UNL     1      15.803  20.558  16.987  1.00  0.00     0.176 C 
HETATM   22  C1  UNL     1      14.817  21.509  17.605  1.00  0.00     0.034 C 
ENDBRANCH  20  21
ENDBRANCH  17  20
ENDBRANCH  13  16
ENDBRANCH  11  12
ENDBRANCH  10  11
ENDBRANCH   1  10
BRANCH   7  23
HETATM   23  C10 UNL     1      17.379  28.940  10.547  1.00  0.00     0.270 C 
HETATM   24  O6  UNL     1      18.414  29.694  10.450  1.00  0.00    -0.266 OA
HETATM   25  N4  UNL     1      16.300  29.392  11.302  1.00  0.00    -0.360 N 
HETATM   26  C11 UNL     1      16.450  30.728  11.949  1.00  0.00     0.149 C 
ATOM     27  H4  UNL     1      15.449  28.838  11.408  1.00  0.00     0.162 HD
ENDBRANCH   7  23
BRANCH   6  28
HETATM   28  O5  UNL     1      18.319  28.653   7.798  1.00  0.00    -0.354 OA
ATOM     29  H5  UNL     1      18.107  29.527   8.104  1.00  0.00     0.218 HD
ENDBRANCH   6  28
TORSDOF 8
ENDMDL
MODEL 4
REMARK VINA RESULT: -7.596555870      1.818      7.955
REMARK  8 active torsions:
REMARK  status: ('A' for Active; 'I' for Inactive)
REMARK    1  A    between atoms: C2_2  and  O1_3 
REMARK    2  A    between atoms: O1_3  and  C3_4 
REMARK       I    between atoms: C3_4  and  N1_6 
REMARK    3  A    between atoms: N1_6  and  N2_8 
REMARK       I    between atoms: N2_8  and  C4_10 
REMARK    4  A    between atoms: C4_10  and  C5_12 
REMARK    5  A    between atoms: C5_12  and  S1_13 
REMARK    6  A    between atoms: S1_13  and  C6_14 
REMARK    7  A    between atoms: C8_19  and  O5_20 
REMARK    8  A    between atoms: C9_22  and  C10_23 
REMARK       I    between atoms: C10_23  and  N4_25 
ROOT
HETATM    1  C6  UNL     1      16.176  24.470  10.584  1.00  0.00     0.148 A 
HETATM    2  N3  UNL     1      15.133  24.098   9.783  1.00  0.00    -0.301 N 
ATOM      3  H3  UNL     1      15.101  24.404   8.811  1.00  0.00     0.171 HD
HETATM    4  C7  UNL     1      14.160  23.336  10.271  1.00  0.00     0.283 A 
HETATM    5  O4  UNL     1      13.167  22.972   9.547  1.00  0.00    -0.265 OA
HETATM    6  C8  UNL     1      14.159  22.890  11.589  1.00  0.00     0.167 A 
HETATM    7  C9  UNL     1      15.203  23.258  12.405  1.00  0.00     0.141 A 
HETATM    8  N5  UNL     1      16.174  24.045  11.850  1.00  0.00    -0.330 N 
ATOM      9  H5  UNL     1      16.953  24.328  12.445  1.00  0.00     0.168 HD
ENDROOT
BRANCH   1  10
HETATM   10  S1  UNL     1      17.512  25.418   9.872  1.00  0.00    -0.084 SA
BRANCH  10  11
HETATM   11  C5  UNL     1      16.933  26.746   8.853  1.00  0.00     0.186 C 
BRANCH  11  12
HETATM   12  C4  UNL     1      17.571  28.039   9.311  1.00  0.00     0.245 C 
HETATM   13  N2  UNL     1      17.115  28.486  10.568  1.00  0.00    -0.265 N 
ATOM     14  H2  UNL     1      16.411  27.927  11.052  1.00  0.00     0.190 HD
HETATM   15  O3  UNL     1      18.401  28.590   8.586  1.00  0.00    -0.271 OA
BRANCH  13  16
HETATM   16  N1  UNL     1      17.567  29.635  11.180  1.00  0.00    -0.243 N 
HETATM   17  C3  UNL     1      16.655  30.492  11.887  1.00  0.00     0.379 C 
HETATM   18  O2  UNL     1      15.415  30.172  11.940  1.00  0.00    -0.237 OA
ATOM     19  H1  UNL     1      18.555  29.880  11.131  1.00  0.00     0.192 HD
BRANCH  17  20
HETATM   20  O1  UNL     1      16.986  31.662  12.529  1.00  0.00    -0.303 OA
BRANCH  20  21
HETATM   21  C2  UNL     1      17.159  32.889  11.834  1.00  0.00     0.176 C 
HETATM   22  C1  UNL     1      18.247  32.852  10.798  1.00  0.00     0.034 C 
ENDBRANCH  20  21
ENDBRANCH  17  20
ENDBRANCH  13  16
ENDBRANCH  11  12
ENDBRANCH  10  11
ENDBRANCH   1  10
BRANCH   7  23
HETATM   23  C10 UNL     1      15.349  22.785  13.772  1.00  0.00     0.270 C 
HETATM   24  O6  UNL     1      15.563  23.704  14.642  1.00  0.00    -0.266 OA
HETATM   25  N4  UNL     1      15.285  21.463  14.206  1.00  0.00    -0.360 N 
HETATM   26  C11 UNL     1      15.487  21.230  15.666  1.00  0.00     0.149 C 
ATOM     27  H4  UNL     1      15.110  20.693  13.560  1.00  0.00     0.162 HD
ENDBRANCH   7  23
BRANCH   6  28
HETATM   28  O5  UNL     1      13.113  22.101  12.023  1.00  0.00    -0.354 OA
ATOM     29  H5  UNL     1      13.275  21.181  12.196  1.00  0.00     0.218 HD
ENDBRANCH   6  28
TORSDOF 8
ENDMDL
MODEL 5
REMARK VINA RESULT: -7.293463307      1.885      8.756
REMARK  8 active torsions:
REMARK  status: ('A' for Active; 'I' for Inactive)
REMARK    1  A    between atoms: C2_2  and  O1_3 
REMARK    2  A    between atoms: O1_3  and  C3_4 
REMARK       I    between atoms: C3_4  and  N1_6 
REMARK    3  A    between atoms: N1_6  and  N2_8 
REMARK       I    between atoms: N2_8  and  C4_10 
REMARK    4  A    between atoms: C4_10  and  C5_12 
REMARK    5  A    between atoms: C5_12  and  S1_13 
REMARK    6  A    between atoms: S1_13  and  C6_14 
REMARK    7  A    between atoms: C8_19  and  O5_20 
REMARK    8  A    between atoms: C9_22  and  C10_23 
REMARK       I    between atoms: C10_23  and  N4_25 
ROOT
HETATM    1  C6  UNL     1      14.485  22.799  13.235  1.00  0.00     0.148 A 
HETATM    2  N3  UNL     1      13.663  23.478  14.091  1.00  0.00    -0.301 N 
ATOM      3  H3  UNL     1      12.981  24.142  13.725  1.00  0.00     0.171 HD
HETATM    4  C7  UNL     1      13.754  23.272  15.400  1.00  0.00     0.283 A 
HETATM    5  O4  UNL     1      13.001  23.894  16.230  1.00  0.00    -0.265 OA
HETATM    6  C8  UNL     1      14.667  22.376  15.947  1.00  0.00     0.167 A 
HETATM    7  C9  UNL     1      15.499  21.687  15.096  1.00  0.00     0.141 A 
HETATM    8  N5  UNL     1      15.362  21.941  13.759  1.00  0.00    -0.330 N 
ATOM      9  H5  UNL     1      15.975  21.440  13.117  1.00  0.00     0.168 HD
ENDROOT
BRANCH   1  10
HETATM   10  S1  UNL     1      14.274  23.032  11.476  1.00  0.00    -0.084 SA
BRANCH  10  11
HETATM   11  C5  UNL     1      15.790  23.444  10.659  1.00  0.00     0.186 C 
BRANCH  11  12
HETATM   12  C4  UNL     1      16.053  24.925  10.814  1.00  0.00     0.245 C 
HETATM   13  N2  UNL     1      17.239  25.363  10.188  1.00  0.00    -0.265 N 
ATOM     14  H2  UNL     1      17.810  24.672   9.701  1.00  0.00     0.190 HD
HETATM   15  O3  UNL     1      15.256  25.614  11.452  1.00  0.00    -0.271 OA
BRANCH  13  16
HETATM   16  N1  UNL     1      17.668  26.673  10.196  1.00  0.00    -0.243 N 
HETATM   17  C3  UNL     1      17.546  27.488   9.019  1.00  0.00     0.379 C 
HETATM   18  O2  UNL     1      17.033  26.980   7.962  1.00  0.00    -0.237 OA
ATOM     19  H1  UNL     1      18.076  27.066  11.044  1.00  0.00     0.192 HD
BRANCH  17  20
HETATM   20  O1  UNL     1      17.942  28.800   8.907  1.00  0.00    -0.303 OA
BRANCH  20  21
HETATM   21  C2  UNL     1      18.645  29.473   9.942  1.00  0.00     0.176 C 
HETATM   22  C1  UNL     1      17.945  30.701  10.452  1.00  0.00     0.034 C 
ENDBRANCH  20  21
ENDBRANCH  17  20
ENDBRANCH  13  16
ENDBRANCH  11  12
ENDBRANCH  10  11
ENDBRANCH   1  10
BRANCH   7  23
HETATM   23  C10 UNL     1      16.432  20.669  15.548  1.00  0.00     0.270 C 
HETATM   24  O6  UNL     1      17.653  21.053  15.634  1.00  0.00    -0.266 OA
HETATM   25  N4  UNL     1      16.128  19.350  15.878  1.00  0.00    -0.360 N 
HETATM   26  C11 UNL     1      17.271  18.487  16.298  1.00  0.00     0.149 C 
ATOM     27  H4  UNL     1      15.174  18.991  15.835  1.00  0.00     0.162 HD
ENDBRANCH   7  23
BRANCH   6  28
HETATM   28  O5  UNL     1      14.701  22.216  17.318  1.00  0.00    -0.354 OA
ATOM     29  H5  UNL     1      15.539  22.062  17.740  1.00  0.00     0.218 HD
ENDBRANCH   6  28
TORSDOF 8
ENDMDL
