MODEL 1
REMARK VINA RESULT: -4.936886966      0.000      0.000
REMARK  2 active torsions:
REMARK  status: ('A' for Active; 'I' for Inactive)
REMARK    1  A    between atoms: N1_2  and  C2_4 
REMARK    2  A    between atoms: N2_6  and  C4_8 
ROOT
HETATM    1  C2  UNL     1      -0.425   3.630  82.463  1.00  0.00     0.068 C 
HETATM    2  C3  UNL     1      -1.621   3.274  81.667  1.00  0.00     0.088 C 
HETATM    3  N2  UNL     1      -0.522   3.781  83.716  1.00  0.00    -0.376 N 
ATOM      4  H2  UNL     1       0.339   4.028  84.202  1.00  0.00     0.161 HD
ENDROOT
BRANCH   3   5
HETATM    5  C4  UNL     1      -1.688   3.651  84.536  1.00  0.00     0.086 C 
HETATM    6  C5  UNL     1      -1.988   5.013  85.139  1.00  0.00     0.051 C 
HETATM    7  C6  UNL     1      -3.179   4.801  86.074  1.00  0.00     0.169 C 
HETATM    8  O1  UNL     1      -2.749   4.056  87.141  1.00  0.00    -0.391 OA
HETATM    9  C7  UNL     1      -2.275   2.811  86.823  1.00  0.00     0.169 C 
HETATM   10  C8  UNL     1      -1.282   2.763  85.720  1.00  0.00     0.051 C 
ENDBRANCH   3   5
BRANCH   1  11
HETATM   11  N1  UNL     1       0.832   3.804  81.826  1.00  0.00    -0.385 N 
HETATM   12  C1  UNL     1       1.396   2.892  80.871  1.00  0.00     0.147 C 
ATOM     13  H1  UNL     1       1.373   4.635  82.064  1.00  0.00     0.160 HD
ENDBRANCH   1  11
TORSDOF 2
ENDMDL
MODEL 2
REMARK VINA RESULT: -4.810026594      2.715      4.893
REMARK  2 active torsions:
REMARK  status: ('A' for Active; 'I' for Inactive)
REMARK    1  A    between atoms: N1_2  and  C2_4 
REMARK    2  A    between atoms: N2_6  and  C4_8 
ROOT
HETATM    1  C2  UNL     1      -1.243   3.081  85.427  1.00  0.00     0.068 C 
HETATM    2  C3  UNL     1      -0.573   4.393  85.587  1.00  0.00     0.088 C 
HETATM    3  N2  UNL     1      -1.319   2.547  84.283  1.00  0.00    -0.376 N 
ATOM      4  H2  UNL     1      -1.795   1.646  84.243  1.00  0.00     0.161 HD
ENDROOT
BRANCH   3   5
HETATM    5  C4  UNL     1      -0.823   3.047  83.037  1.00  0.00     0.086 C 
HETATM    6  C5  UNL     1      -1.799   4.098  82.535  1.00  0.00     0.051 C 
HETATM    7  C6  UNL     1      -1.276   4.532  81.165  1.00  0.00     0.169 C 
HETATM    8  O1  UNL     1      -1.447   3.483  80.299  1.00  0.00    -0.391 OA
HETATM    9  C7  UNL     1      -0.769   2.341  80.633  1.00  0.00     0.169 C 
HETATM   10  C8  UNL     1      -0.927   1.886  82.037  1.00  0.00     0.051 C 
ENDBRANCH   3   5
BRANCH   1  11
HETATM   11  N1  UNL     1      -1.802   2.422  86.554  1.00  0.00    -0.385 N 
HETATM   12  C1  UNL     1      -3.069   2.751  87.146  1.00  0.00     0.147 C 
ATOM     13  H1  UNL     1      -1.267   1.661  86.971  1.00  0.00     0.160 HD
ENDBRANCH   1  11
TORSDOF 2
ENDMDL
MODEL 3
REMARK VINA RESULT: -4.792232486      2.691      5.208
REMARK  2 active torsions:
REMARK  status: ('A' for Active; 'I' for Inactive)
REMARK    1  A    between atoms: N1_2  and  C2_4 
REMARK    2  A    between atoms: N2_6  and  C4_8 
ROOT
HETATM    1  C2  UNL     1      -1.712   4.041  84.532  1.00  0.00     0.068 C 
HETATM    2  C3  UNL     1      -1.057   3.059  85.429  1.00  0.00     0.088 C 
HETATM    3  N2  UNL     1      -1.469   4.021  83.291  1.00  0.00    -0.376 N 
ATOM      4  H2  UNL     1      -1.951   4.724  82.732  1.00  0.00     0.161 HD
ENDROOT
BRANCH   3   5
HETATM    5  C4  UNL     1      -0.603   3.136  82.571  1.00  0.00     0.086 C 
HETATM    6  C5  UNL     1       0.390   3.986  81.796  1.00  0.00     0.051 C 
HETATM    7  C6  UNL     1       1.227   3.004  80.976  1.00  0.00     0.169 C 
HETATM    8  O1  UNL     1       0.420   2.472  80.004  1.00  0.00    -0.391 OA
HETATM    9  C7  UNL     1      -0.661   1.771  80.470  1.00  0.00     0.169 C 
HETATM   10  C8  UNL     1      -1.475   2.457  81.505  1.00  0.00     0.051 C 
ENDBRANCH   3   5
BRANCH   1  11
HETATM   11  N1  UNL     1      -2.610   5.005  85.061  1.00  0.00    -0.385 N 
HETATM   12  C1  UNL     1      -3.374   4.833  86.265  1.00  0.00     0.147 C 
ATOM     13  H1  UNL     1      -2.720   5.880  84.551  1.00  0.00     0.160 HD
ENDBRANCH   1  11
TORSDOF 2
ENDMDL
MODEL 4
REMARK VINA RESULT: -4.718583857      2.678      5.114
REMARK  2 active torsions:
REMARK  status: ('A' for Active; 'I' for Inactive)
REMARK    1  A    between atoms: N1_2  and  C2_4 
REMARK    2  A    between atoms: N2_6  and  C4_8 
ROOT
HETATM    1  C2  UNL     1      -1.496   3.972  84.919  1.00  0.00     0.068 C 
HETATM    2  C3  UNL     1      -2.366   5.082  84.466  1.00  0.00     0.088 C 
HETATM    3  N2  UNL     1      -0.950   3.212  84.068  1.00  0.00    -0.376 N 
ATOM      4  H2  UNL     1      -0.364   2.468  84.447  1.00  0.00     0.161 HD
ENDROOT
BRANCH   3   5
HETATM    5  C4  UNL     1      -1.049   3.263  82.641  1.00  0.00     0.086 C 
HETATM    6  C5  UNL     1      -1.013   1.835  82.121  1.00  0.00     0.051 C 
HETATM    7  C6  UNL     1      -1.029   1.948  80.596  1.00  0.00     0.169 C 
HETATM    8  O1  UNL     1       0.175   2.471  80.201  1.00  0.00    -0.391 OA
HETATM    9  C7  UNL     1       0.445   3.725  80.683  1.00  0.00     0.169 C 
HETATM   10  C8  UNL     1       0.252   3.908  82.144  1.00  0.00     0.051 C 
ENDBRANCH   3   5
BRANCH   1  11
HETATM   11  N1  UNL     1      -1.272   3.758  86.305  1.00  0.00    -0.385 N 
HETATM   12  C1  UNL     1      -2.304   3.475  87.263  1.00  0.00     0.147 C 
ATOM     13  H1  UNL     1      -0.312   3.809  86.643  1.00  0.00     0.160 HD
ENDBRANCH   1  11
TORSDOF 2
ENDMDL
MODEL 5
REMARK VINA RESULT: -4.576834503      2.752      4.955
REMARK  2 active torsions:
REMARK  status: ('A' for Active; 'I' for Inactive)
REMARK    1  A    between atoms: N1_2  and  C2_4 
REMARK    2  A    between atoms: N2_6  and  C4_8 
ROOT
HETATM    1  C2  UNL     1      -0.875   4.385  84.443  1.00  0.00     0.068 C 
HETATM    2  C3  UNL     1      -1.317   3.223  85.249  1.00  0.00     0.088 C 
HETATM    3  N2  UNL     1      -0.549   4.225  83.231  1.00  0.00    -0.376 N 
ATOM      4  H2  UNL     1      -0.253   5.065  82.735  1.00  0.00     0.161 HD
ENDROOT
BRANCH   3   5
HETATM    5  C4  UNL     1      -0.542   3.014  82.468  1.00  0.00     0.086 C 
HETATM    6  C5  UNL     1       0.675   3.044  81.558  1.00  0.00     0.051 C 
HETATM    7  C6  UNL     1       0.586   1.779  80.703  1.00  0.00     0.169 C 
HETATM    8  O1  UNL     1      -0.471   1.927  79.843  1.00  0.00    -0.391 OA
HETATM    9  C7  UNL     1      -1.691   2.076  80.448  1.00  0.00     0.169 C 
HETATM   10  C8  UNL     1      -1.754   3.093  81.528  1.00  0.00     0.051 C 
ENDBRANCH   3   5
BRANCH   1  11
HETATM   11  N1  UNL     1      -0.815   5.679  85.026  1.00  0.00    -0.385 N 
HETATM   12  C1  UNL     1      -0.449   6.875  84.321  1.00  0.00     0.147 C 
ATOM     13  H1  UNL     1      -1.049   5.764  86.015  1.00  0.00     0.160 HD
ENDBRANCH   1  11
TORSDOF 2
ENDMDL
