MODEL 1
REMARK VINA RESULT: -4.795923258      0.000      0.000
REMARK  2 active torsions:
REMARK  status: ('A' for Active; 'I' for Inactive)
REMARK    1  A    between atoms: N1_2  and  C2_3 
REMARK    2  A    between atoms: N1_2  and  C6_10 
ROOT
HETATM    1  C2  UNL     1      -1.553   4.558  85.061  1.00  0.00     0.012 C 
HETATM    2  C3  UNL     1      -0.393   5.513  85.172  1.00  0.00     0.081 C 
HETATM    3  C4  UNL     1      -0.159   5.833  83.691  1.00  0.00     0.238 C 
HETATM    4  N2  UNL     1      -0.221   4.507  83.104  1.00  0.00    -0.070 N 
ATOM      5  H21 UNL     1       0.618   3.940  83.225  1.00  0.00     0.277 HD
ATOM      6  H22 UNL     1      -0.207   4.483  82.085  1.00  0.00     0.277 HD
HETATM    7  C5  UNL     1      -1.441   3.961  83.726  1.00  0.00     0.284 C 
ENDROOT
BRANCH   1   8
HETATM    8  N1  UNL     1      -1.975   3.861  86.171  1.00  0.00    -0.382 N 
HETATM    9  C1  UNL     1      -1.574   2.462  86.148  1.00  0.00     0.150 C 
BRANCH   8  10
HETATM   10  C6  UNL     1      -3.166   4.108  86.857  1.00  0.00     0.021 C 
HETATM   11  C7  UNL     1      -3.725   5.512  86.784  1.00  0.00     0.037 C 
HETATM   12  C8  UNL     1      -4.307   3.161  86.723  1.00  0.00     0.037 C 
HETATM   13  C9  UNL     1      -2.794   4.010  88.370  1.00  0.00     0.037 C 
ENDBRANCH   8  10
ENDBRANCH   1   8
TORSDOF 2
ENDMDL
MODEL 2
REMARK VINA RESULT: -4.680208200      1.372      3.985
REMARK  2 active torsions:
REMARK  status: ('A' for Active; 'I' for Inactive)
REMARK    1  A    between atoms: N1_2  and  C2_3 
REMARK    2  A    between atoms: N1_2  and  C6_10 
ROOT
HETATM    1  C2  UNL     1      -1.998   4.217  85.747  1.00  0.00     0.012 C 
HETATM    2  C3  UNL     1      -3.361   4.252  86.391  1.00  0.00     0.081 C 
HETATM    3  C4  UNL     1      -3.082   3.443  87.664  1.00  0.00     0.238 C 
HETATM    4  N2  UNL     1      -2.333   2.323  87.126  1.00  0.00    -0.070 N 
ATOM      5  H21 UNL     1      -2.896   1.606  86.665  1.00  0.00     0.277 HD
ATOM      6  H22 UNL     1      -1.932   1.695  87.822  1.00  0.00     0.277 HD
HETATM    7  C5  UNL     1      -1.355   3.004  86.259  1.00  0.00     0.284 C 
ENDROOT
BRANCH   1   8
HETATM    8  N1  UNL     1      -1.838   4.676  84.458  1.00  0.00    -0.382 N 
HETATM    9  C1  UNL     1      -1.335   3.654  83.552  1.00  0.00     0.150 C 
BRANCH   8  10
HETATM   10  C6  UNL     1      -1.467   5.979  84.120  1.00  0.00     0.021 C 
HETATM   11  C7  UNL     1      -1.140   6.247  82.667  1.00  0.00     0.037 C 
HETATM   12  C8  UNL     1      -2.267   7.130  84.622  1.00  0.00     0.037 C 
HETATM   13  C9  UNL     1      -0.073   6.192  84.788  1.00  0.00     0.037 C 
ENDBRANCH   8  10
ENDBRANCH   1   8
TORSDOF 2
ENDMDL
MODEL 3
REMARK VINA RESULT: -4.659698320      1.364      4.089
REMARK  2 active torsions:
REMARK  status: ('A' for Active; 'I' for Inactive)
REMARK    1  A    between atoms: N1_2  and  C2_3 
REMARK    2  A    between atoms: N1_2  and  C6_10 
ROOT
HETATM    1  C2  UNL     1      -1.925   4.171  85.798  1.00  0.00     0.012 C 
HETATM    2  C3  UNL     1      -3.257   4.332  86.484  1.00  0.00     0.081 C 
HETATM    3  C4  UNL     1      -3.031   3.464  87.728  1.00  0.00     0.238 C 
HETATM    4  N2  UNL     1      -2.421   2.286  87.140  1.00  0.00    -0.070 N 
ATOM      5  H21 UNL     1      -3.069   1.646  86.680  1.00  0.00     0.277 HD
ATOM      6  H22 UNL     1      -2.069   1.601  87.809  1.00  0.00     0.277 HD
HETATM    7  C5  UNL     1      -1.400   2.883  86.261  1.00  0.00     0.284 C 
ENDROOT
BRANCH   1   8
HETATM    8  N1  UNL     1      -1.753   4.645  84.516  1.00  0.00    -0.382 N 
HETATM    9  C1  UNL     1      -1.330   3.612  83.583  1.00  0.00     0.150 C 
BRANCH   8  10
HETATM   10  C6  UNL     1      -1.303   5.929  84.199  1.00  0.00     0.021 C 
HETATM   11  C7  UNL     1      -2.286   7.066  84.375  1.00  0.00     0.037 C 
HETATM   12  C8  UNL     1       0.020   6.393  84.698  1.00  0.00     0.037 C 
HETATM   13  C9  UNL     1      -1.121   5.925  82.648  1.00  0.00     0.037 C 
ENDBRANCH   8  10
ENDBRANCH   1   8
TORSDOF 2
ENDMDL
MODEL 4
REMARK VINA RESULT: -4.532640414      1.567      1.887
REMARK  2 active torsions:
REMARK  status: ('A' for Active; 'I' for Inactive)
REMARK    1  A    between atoms: N1_2  and  C2_3 
REMARK    2  A    between atoms: N1_2  and  C6_10 
ROOT
HETATM    1  C2  UNL     1      -2.524   5.118  85.344  1.00  0.00     0.012 C 
HETATM    2  C3  UNL     1      -2.909   6.535  85.685  1.00  0.00     0.081 C 
HETATM    3  C4  UNL     1      -2.948   7.153  84.283  1.00  0.00     0.238 C 
HETATM    4  N2  UNL     1      -1.719   6.633  83.713  1.00  0.00    -0.070 N 
ATOM      5  H21 UNL     1      -0.866   7.106  84.015  1.00  0.00     0.277 HD
ATOM      6  H22 UNL     1      -1.586   6.824  82.720  1.00  0.00     0.277 HD
HETATM    7  C5  UNL     1      -1.803   5.206  84.071  1.00  0.00     0.284 C 
ENDROOT
BRANCH   1   8
HETATM    8  N1  UNL     1      -2.187   4.239  86.350  1.00  0.00    -0.382 N 
HETATM    9  C1  UNL     1      -1.046   3.402  86.010  1.00  0.00     0.150 C 
BRANCH   8  10
HETATM   10  C6  UNL     1      -3.100   3.644  87.222  1.00  0.00     0.021 C 
HETATM   11  C7  UNL     1      -3.166   4.192  88.631  1.00  0.00     0.037 C 
HETATM   12  C8  UNL     1      -4.496   3.390  86.771  1.00  0.00     0.037 C 
HETATM   13  C9  UNL     1      -2.540   2.210  87.482  1.00  0.00     0.037 C 
ENDBRANCH   8  10
ENDBRANCH   1   8
TORSDOF 2
ENDMDL
MODEL 5
REMARK VINA RESULT: -4.510812369      1.998      3.223
REMARK  2 active torsions:
REMARK  status: ('A' for Active; 'I' for Inactive)
REMARK    1  A    between atoms: N1_2  and  C2_3 
REMARK    2  A    between atoms: N1_2  and  C6_10 
ROOT
HETATM    1  C2  UNL     1      -0.901   3.191  82.815  1.00  0.00     0.012 C 
HETATM    2  C3  UNL     1      -0.981   1.818  82.200  1.00  0.00     0.081 C 
HETATM    3  C4  UNL     1      -1.164   2.188  80.724  1.00  0.00     0.238 C 
HETATM    4  N2  UNL     1      -2.173   3.227  80.819  1.00  0.00    -0.070 N 
ATOM      5  H21 UNL     1      -3.126   2.894  80.964  1.00  0.00     0.277 HD
ATOM      6  H22 UNL     1      -2.375   3.716  79.946  1.00  0.00     0.277 HD
HETATM    7  C5  UNL     1      -1.633   4.071  81.899  1.00  0.00     0.284 C 
ENDROOT
BRANCH   1   8
HETATM    8  N1  UNL     1      -0.925   3.331  84.185  1.00  0.00    -0.382 N 
HETATM    9  C1  UNL     1      -1.272   2.097  84.874  1.00  0.00     0.150 C 
BRANCH   8  10
HETATM   10  C6  UNL     1      -1.309   4.494  84.857  1.00  0.00     0.021 C 
HETATM   11  C7  UNL     1      -0.324   5.643  84.862  1.00  0.00     0.037 C 
HETATM   12  C8  UNL     1      -2.666   5.064  84.633  1.00  0.00     0.037 C 
HETATM   13  C9  UNL     1      -1.327   4.104  86.368  1.00  0.00     0.037 C 
ENDBRANCH   8  10
ENDBRANCH   1   8
TORSDOF 2
ENDMDL
