MODEL 1
REMARK VINA RESULT: -5.911669426      0.000      0.000
REMARK  0 active torsions:
REMARK  status: ('A' for Active; 'I' for Inactive)
ROOT
HETATM    1  C1  UNL     1      -2.890   5.054  84.961  1.00  0.00     0.032 C 
HETATM    2  C2  UNL     1      -3.186   4.253  86.184  1.00  0.00     0.027 C 
HETATM    3  C3  UNL     1      -3.457   2.812  85.944  1.00  0.00     0.086 C 
HETATM    4  C4  UNL     1      -4.039   2.243  87.249  1.00  0.00     0.030 C 
HETATM    5  C5  UNL     1      -2.741   1.790  87.932  1.00  0.00     0.046 C 
HETATM    6  C6  UNL     1      -2.012   1.173  86.750  1.00  0.00     0.061 C 
HETATM    7  N1  UNL     1      -2.398   1.973  85.663  1.00  0.00    -0.358 N 
HETATM    8  C7  UNL     1      -1.438   2.300  84.704  1.00  0.00     0.351 C 
HETATM    9  C8  UNL     1      -1.093   1.115  83.805  1.00  0.00     0.291 C 
HETATM   10  N2  UNL     1      -0.803   1.661  82.508  1.00  0.00    -0.045 N 
ATOM     11  H21 UNL     1      -1.288   1.174  81.754  1.00  0.00     0.279 HD
ATOM     12  H22 UNL     1       0.150   1.468  82.199  1.00  0.00     0.279 HD
HETATM   13  C9  UNL     1      -1.107   3.075  82.551  1.00  0.00     0.505 C 
HETATM   14  N3  UNL     1      -1.864   3.279  83.765  1.00  0.00     0.138 N 
HETATM   15  C10 UNL     1      -1.583   4.598  84.357  1.00  0.00     0.277 C 
ENDROOT
TORSDOF 0
ENDMDL
MODEL 2
REMARK VINA RESULT: -5.693129091      1.192      2.887
REMARK  0 active torsions:
REMARK  status: ('A' for Active; 'I' for Inactive)
ROOT
HETATM    1  C1  UNL     1      -0.914   1.440  84.060  1.00  0.00     0.032 C 
HETATM    2  C2  UNL     1      -1.676   0.991  85.261  1.00  0.00     0.027 C 
HETATM    3  C3  UNL     1      -1.839   2.015  86.324  1.00  0.00     0.086 C 
HETATM    4  C4  UNL     1      -2.356   1.284  87.574  1.00  0.00     0.030 C 
HETATM    5  C5  UNL     1      -3.867   1.418  87.343  1.00  0.00     0.046 C 
HETATM    6  C6  UNL     1      -3.943   2.858  86.861  1.00  0.00     0.061 C 
HETATM    7  N1  UNL     1      -2.754   3.031  86.136  1.00  0.00    -0.358 N 
HETATM    8  C7  UNL     1      -2.799   3.766  84.950  1.00  0.00     0.351 C 
HETATM    9  C8  UNL     1      -2.951   5.264  85.204  1.00  0.00     0.291 C 
HETATM   10  N2  UNL     1      -2.230   5.929  84.154  1.00  0.00    -0.045 N 
ATOM     11  H21 UNL     1      -1.607   6.658  84.500  1.00  0.00     0.279 HD
ATOM     12  H22 UNL     1      -2.826   6.523  83.578  1.00  0.00     0.279 HD
HETATM   13  C9  UNL     1      -1.538   4.914  83.389  1.00  0.00     0.505 C 
HETATM   14  N3  UNL     1      -1.604   3.708  84.183  1.00  0.00     0.138 N 
HETATM   15  C10 UNL     1      -1.693   2.509  83.332  1.00  0.00     0.277 C 
ENDROOT
TORSDOF 0
ENDMDL
MODEL 3
REMARK VINA RESULT: -5.559586137      1.286      1.516
REMARK  0 active torsions:
REMARK  status: ('A' for Active; 'I' for Inactive)
ROOT
HETATM    1  C1  UNL     1      -1.634   5.077  83.765  1.00  0.00     0.032 C 
HETATM    2  C2  UNL     1      -1.804   4.381  85.073  1.00  0.00     0.027 C 
HETATM    3  C3  UNL     1      -2.492   3.066  85.004  1.00  0.00     0.086 C 
HETATM    4  C4  UNL     1      -2.847   2.671  86.446  1.00  0.00     0.030 C 
HETATM    5  C5  UNL     1      -1.581   1.884  86.815  1.00  0.00     0.046 C 
HETATM    6  C6  UNL     1      -1.366   1.097  85.532  1.00  0.00     0.061 C 
HETATM    7  N1  UNL     1      -1.796   1.975  84.525  1.00  0.00    -0.358 N 
HETATM    8  C7  UNL     1      -1.064   2.036  83.338  1.00  0.00     0.351 C 
HETATM    9  C8  UNL     1      -1.281   0.804  82.462  1.00  0.00     0.291 C 
HETATM   10  N2  UNL     1      -1.203   1.256  81.100  1.00  0.00    -0.045 N 
ATOM     11  H21 UNL     1      -1.974   0.919  80.525  1.00  0.00     0.279 HD
ATOM     12  H22 UNL     1      -0.445   0.816  80.579  1.00  0.00     0.279 HD
HETATM   13  C9  UNL     1      -1.107   2.700  81.124  1.00  0.00     0.505 C 
HETATM   14  N3  UNL     1      -1.447   3.096  82.471  1.00  0.00     0.138 N 
HETATM   15  C10 UNL     1      -0.691   4.289  82.887  1.00  0.00     0.277 C 
ENDROOT
TORSDOF 0
ENDMDL
MODEL 4
REMARK VINA RESULT: -5.444531589      2.005      4.520
REMARK  0 active torsions:
REMARK  status: ('A' for Active; 'I' for Inactive)
ROOT
HETATM    1  C1  UNL     1      -0.264   4.275  82.094  1.00  0.00     0.032 C 
HETATM    2  C2  UNL     1      -0.214   3.048  81.247  1.00  0.00     0.027 C 
HETATM    3  C3  UNL     1       0.266   1.823  81.937  1.00  0.00     0.086 C 
HETATM    4  C4  UNL     1       0.544   0.775  80.846  1.00  0.00     0.030 C 
HETATM    5  C5  UNL     1      -0.831   0.094  80.791  1.00  0.00     0.046 C 
HETATM    6  C6  UNL     1      -1.153   0.007  82.273  1.00  0.00     0.061 C 
HETATM    7  N1  UNL     1      -0.585   1.173  82.808  1.00  0.00    -0.358 N 
HETATM    8  C7  UNL     1      -1.289   1.864  83.796  1.00  0.00     0.351 C 
HETATM    9  C8  UNL     1      -1.256   1.141  85.141  1.00  0.00     0.291 C 
HETATM   10  N2  UNL     1      -1.252   2.163  86.151  1.00  0.00    -0.045 N 
ATOM     11  H21 UNL     1      -0.537   2.016  86.862  1.00  0.00     0.279 HD
ATOM     12  H22 UNL     1      -2.064   2.116  86.766  1.00  0.00     0.279 HD
HETATM   13  C9  UNL     1      -1.127   3.440  85.480  1.00  0.00     0.505 C 
HETATM   14  N3  UNL     1      -0.741   3.135  84.121  1.00  0.00     0.138 N 
HETATM   15  C10 UNL     1      -1.309   4.106  83.172  1.00  0.00     0.277 C 
ENDROOT
TORSDOF 0
ENDMDL
MODEL 5
REMARK VINA RESULT: -5.391054624      1.164      3.829
REMARK  0 active torsions:
REMARK  status: ('A' for Active; 'I' for Inactive)
ROOT
HETATM    1  C1  UNL     1      -2.454   5.111  85.085  1.00  0.00     0.032 C 
HETATM    2  C2  UNL     1      -1.657   4.894  83.843  1.00  0.00     0.027 C 
HETATM    3  C3  UNL     1      -0.542   3.920  83.971  1.00  0.00     0.086 C 
HETATM    4  C4  UNL     1       0.332   4.074  82.715  1.00  0.00     0.030 C 
HETATM    5  C5  UNL     1      -0.345   3.039  81.805  1.00  0.00     0.046 C 
HETATM    6  C6  UNL     1      -0.571   1.909  82.797  1.00  0.00     0.061 C 
HETATM    7  N1  UNL     1      -0.836   2.572  84.005  1.00  0.00    -0.358 N 
HETATM    8  C7  UNL     1      -1.830   2.060  84.841  1.00  0.00     0.351 C 
HETATM    9  C8  UNL     1      -1.385   0.784  85.552  1.00  0.00     0.291 C 
HETATM   10  N2  UNL     1      -2.018   0.797  86.841  1.00  0.00    -0.045 N 
ATOM     11  H21 UNL     1      -1.372   0.595  87.603  1.00  0.00     0.279 HD
ATOM     12  H22 UNL     1      -2.644   0.004  86.984  1.00  0.00     0.279 HD
HETATM   13  C9  UNL     1      -2.684   2.073  86.989  1.00  0.00     0.505 C 
HETATM   14  N3  UNL     1      -2.172   2.910  85.928  1.00  0.00     0.138 N 
HETATM   15  C10 UNL     1      -3.198   3.846  85.440  1.00  0.00     0.277 C 
ENDROOT
TORSDOF 0
ENDMDL
