MODEL 1
REMARK VINA RESULT: -5.735245356      0.000      0.000
REMARK  2 active torsions:
REMARK  status: ('A' for Active; 'I' for Inactive)
REMARK    1  A    between atoms: C1_4  and  C2_5 
REMARK    2  A    between atoms: C1_4  and  N2_9 
ROOT
HETATM    1  N1  UNL     1      -2.054   3.019  84.236  1.00  0.00    -0.387 N 
ATOM      2  H11 UNL     1      -2.167   3.429  83.310  1.00  0.00     0.157 HD
ATOM      3  H12 UNL     1      -2.427   3.446  85.084  1.00  0.00     0.157 HD
HETATM    4  C1  UNL     1      -1.404   1.909  84.298  1.00  0.00     0.102 C 
ENDROOT
BRANCH   4   5
HETATM    5  C2  UNL     1      -1.239   1.308  85.652  1.00  0.00     0.190 C 
HETATM    6  C3  UNL     1      -1.773   2.132  86.774  1.00  0.00     0.066 C 
HETATM    7  C4  UNL     1      -2.422   0.836  87.222  1.00  0.00     0.171 C 
HETATM    8  O1  UNL     1      -2.184   0.330  85.962  1.00  0.00    -0.378 OA
ENDBRANCH   4   5
BRANCH   4   9
HETATM    9  N2  UNL     1      -0.890   1.319  83.130  1.00  0.00    -0.369 N 
HETATM   10  C5  UNL     1      -1.177  -0.038  82.701  1.00  0.00     0.124 C 
HETATM   11  C6  UNL     1      -1.341   0.020  81.186  1.00  0.00     0.020 C 
HETATM   12  C7  UNL     1       0.040   0.167  80.611  1.00  0.00     0.003 C 
HETATM   13  C8  UNL     1       0.839   1.139  81.411  1.00  0.00     0.020 C 
HETATM   14  C9  UNL     1      -0.006   2.068  82.253  1.00  0.00     0.124 C 
ENDBRANCH   4   9
TORSDOF 2
ENDMDL
MODEL 2
REMARK VINA RESULT: -5.609620324      3.056      3.832
REMARK  2 active torsions:
REMARK  status: ('A' for Active; 'I' for Inactive)
REMARK    1  A    between atoms: C1_4  and  C2_5 
REMARK    2  A    between atoms: C1_4  and  N2_9 
ROOT
HETATM    1  N1  UNL     1      -1.292   0.787  84.881  1.00  0.00    -0.387 N 
ATOM      2  H11 UNL     1      -0.831   1.020  84.002  1.00  0.00     0.157 HD
ATOM      3  H12 UNL     1      -1.418  -0.172  85.206  1.00  0.00     0.157 HD
HETATM    4  C1  UNL     1      -1.722   1.776  85.585  1.00  0.00     0.102 C 
ENDROOT
BRANCH   4   5
HETATM    5  C2  UNL     1      -2.396   1.435  86.870  1.00  0.00     0.190 C 
HETATM    6  C3  UNL     1      -3.378   2.447  87.351  1.00  0.00     0.066 C 
HETATM    7  C4  UNL     1      -4.291   1.253  87.550  1.00  0.00     0.171 C 
HETATM    8  O1  UNL     1      -3.445   0.525  86.739  1.00  0.00    -0.378 OA
ENDBRANCH   4   5
BRANCH   4   9
HETATM    9  N2  UNL     1      -1.548   3.097  85.137  1.00  0.00    -0.369 N 
HETATM   10  C5  UNL     1      -2.558   3.863  84.429  1.00  0.00     0.124 C 
HETATM   11  C6  UNL     1      -2.473   5.284  84.973  1.00  0.00     0.020 C 
HETATM   12  C7  UNL     1      -1.240   5.900  84.373  1.00  0.00     0.003 C 
HETATM   13  C8  UNL     1      -0.112   4.925  84.381  1.00  0.00     0.020 C 
HETATM   14  C9  UNL     1      -0.296   3.796  85.371  1.00  0.00     0.124 C 
ENDBRANCH   4   9
TORSDOF 2
ENDMDL
MODEL 3
REMARK VINA RESULT: -5.573382499      2.928      3.963
REMARK  2 active torsions:
REMARK  status: ('A' for Active; 'I' for Inactive)
REMARK    1  A    between atoms: C1_4  and  C2_5 
REMARK    2  A    between atoms: C1_4  and  N2_9 
ROOT
HETATM    1  N1  UNL     1      -1.272   0.865  84.523  1.00  0.00    -0.387 N 
ATOM      2  H11 UNL     1      -0.896   1.253  83.658  1.00  0.00     0.157 HD
ATOM      3  H12 UNL     1      -1.339  -0.137  84.700  1.00  0.00     0.157 HD
HETATM    4  C1  UNL     1      -1.669   1.712  85.408  1.00  0.00     0.102 C 
ENDROOT
BRANCH   4   5
HETATM    5  C2  UNL     1      -2.218   1.145  86.672  1.00  0.00     0.190 C 
HETATM    6  C3  UNL     1      -2.734   2.154  87.640  1.00  0.00     0.066 C 
HETATM    7  C4  UNL     1      -3.946   1.246  87.717  1.00  0.00     0.171 C 
HETATM    8  O1  UNL     1      -3.514   0.641  86.555  1.00  0.00    -0.378 OA
ENDBRANCH   4   5
BRANCH   4   9
HETATM    9  N2  UNL     1      -1.576   3.094  85.164  1.00  0.00    -0.369 N 
HETATM   10  C5  UNL     1      -0.363   3.875  85.324  1.00  0.00     0.124 C 
HETATM   11  C6  UNL     1      -0.338   4.863  84.162  1.00  0.00     0.020 C 
HETATM   12  C7  UNL     1      -1.352   5.926  84.482  1.00  0.00     0.003 C 
HETATM   13  C8  UNL     1      -2.591   5.314  85.042  1.00  0.00     0.020 C 
HETATM   14  C9  UNL     1      -2.738   3.843  84.720  1.00  0.00     0.124 C 
ENDBRANCH   4   9
TORSDOF 2
ENDMDL
MODEL 4
REMARK VINA RESULT: -5.557751819      0.191      1.422
REMARK  2 active torsions:
REMARK  status: ('A' for Active; 'I' for Inactive)
REMARK    1  A    between atoms: C1_4  and  C2_5 
REMARK    2  A    between atoms: C1_4  and  N2_9 
ROOT
HETATM    1  N1  UNL     1      -2.044   3.126  84.380  1.00  0.00    -0.387 N 
ATOM      2  H11 UNL     1      -2.164   3.596  83.483  1.00  0.00     0.157 HD
ATOM      3  H12 UNL     1      -2.389   3.512  85.260  1.00  0.00     0.157 HD
HETATM    4  C1  UNL     1      -1.425   1.998  84.361  1.00  0.00     0.102 C 
ENDROOT
BRANCH   4   5
HETATM    5  C2  UNL     1      -1.250   1.312  85.673  1.00  0.00     0.190 C 
HETATM    6  C3  UNL     1      -1.726   2.086  86.854  1.00  0.00     0.066 C 
HETATM    7  C4  UNL     1      -2.412   0.790  87.243  1.00  0.00     0.171 C 
HETATM    8  O1  UNL     1      -2.223   0.352  85.949  1.00  0.00    -0.378 OA
ENDBRANCH   4   5
BRANCH   4   9
HETATM    9  N2  UNL     1      -0.951   1.466  83.149  1.00  0.00    -0.369 N 
HETATM   10  C5  UNL     1      -0.230   2.228  82.145  1.00  0.00     0.124 C 
HETATM   11  C6  UNL     1       0.863   1.307  81.616  1.00  0.00     0.020 C 
HETATM   12  C7  UNL     1       0.185   0.309  80.718  1.00  0.00     0.003 C 
HETATM   13  C8  UNL     1      -1.091  -0.161  81.330  1.00  0.00     0.020 C 
HETATM   14  C9  UNL     1      -1.166   0.067  82.823  1.00  0.00     0.124 C 
ENDBRANCH   4   9
TORSDOF 2
ENDMDL
MODEL 5
REMARK VINA RESULT: -5.489055929      2.115      4.940
REMARK  2 active torsions:
REMARK  status: ('A' for Active; 'I' for Inactive)
REMARK    1  A    between atoms: C1_4  and  C2_5 
REMARK    2  A    between atoms: C1_4  and  N2_9 
ROOT
HETATM    1  N1  UNL     1       0.116   3.570  85.454  1.00  0.00    -0.387 N 
ATOM      2  H11 UNL     1       0.180   3.541  86.471  1.00  0.00     0.157 HD
ATOM      3  H12 UNL     1       0.842   3.975  84.863  1.00  0.00     0.157 HD
HETATM    4  C1  UNL     1      -0.945   3.063  84.929  1.00  0.00     0.102 C 
ENDROOT
BRANCH   4   5
HETATM    5  C2  UNL     1      -1.038   3.106  83.442  1.00  0.00     0.190 C 
HETATM    6  C3  UNL     1      -0.586   1.867  82.749  1.00  0.00     0.066 C 
HETATM    7  C4  UNL     1      -1.883   2.001  81.974  1.00  0.00     0.171 C 
HETATM    8  O1  UNL     1      -2.321   2.878  82.945  1.00  0.00    -0.378 OA
ENDBRANCH   4   5
BRANCH   4   9
HETATM    9  N2  UNL     1      -1.945   2.504  85.744  1.00  0.00    -0.369 N 
HETATM   10  C5  UNL     1      -2.001   1.106  86.133  1.00  0.00     0.124 C 
HETATM   11  C6  UNL     1      -2.455   1.088  87.589  1.00  0.00     0.020 C 
HETATM   12  C7  UNL     1      -3.927   1.395  87.583  1.00  0.00     0.003 C 
HETATM   13  C8  UNL     1      -4.228   2.493  86.619  1.00  0.00     0.020 C 
HETATM   14  C9  UNL     1      -3.021   3.332  86.262  1.00  0.00     0.124 C 
ENDBRANCH   4   9
TORSDOF 2
ENDMDL
