MODEL 1
REMARK VINA RESULT: -6.529360427      0.000      0.000
REMARK  3 active torsions:
REMARK  status: ('A' for Active; 'I' for Inactive)
REMARK    1  A    between atoms: N1_6  and  C6_7 
REMARK    2  A    between atoms: C6_7  and  C7_8 
REMARK    3  A    between atoms: C6_7  and  C8_11 
ROOT
HETATM    1  C1  UNL     1      -0.241   1.630  80.744  1.00  0.00     0.033 C 
HETATM    2  C2  UNL     1       0.505   2.470  81.758  1.00  0.00     0.090 C 
HETATM    3  C3  UNL     1       0.796   3.801  81.125  1.00  0.00     0.027 C 
HETATM    4  C4  UNL     1       0.079   4.958  81.772  1.00  0.00     0.018 C 
HETATM    5  C5  UNL     1      -0.041   4.757  83.276  1.00  0.00     0.114 C 
HETATM    6  N1  UNL     1      -0.814   3.554  83.412  1.00  0.00    -0.220 NA
HETATM    7  N2  UNL     1      -0.043   2.500  83.057  1.00  0.00    -0.349 N 
ATOM      8  H2  UNL     1       0.137   1.742  83.716  1.00  0.00     0.174 HD
ENDROOT
BRANCH   6   9
HETATM    9  C6  UNL     1      -1.594   3.414  84.572  1.00  0.00     0.184 C 
BRANCH   9  10
HETATM   10  C7  UNL     1      -1.082   2.367  85.473  1.00  0.00     0.193 C 
HETATM   11  O1  UNL     1      -1.558   1.222  85.457  1.00  0.00    -0.647 OA
HETATM   12  O2  UNL     1      -0.041   2.690  86.354  1.00  0.00    -0.647 OA
ENDBRANCH   9  10
BRANCH   9  13
HETATM   13  C8  UNL     1      -1.891   4.640  85.365  1.00  0.00     0.015 A 
HETATM   14  C9  UNL     1      -3.020   5.560  85.027  1.00  0.00     0.007 A 
HETATM   15  C10 UNL     1      -3.089   4.689  86.250  1.00  0.00     0.007 A 
ENDBRANCH   9  13
ENDBRANCH   6   9
TORSDOF 3
ENDMDL
MODEL 2
REMARK VINA RESULT: -6.462053082      1.366      2.263
REMARK  3 active torsions:
REMARK  status: ('A' for Active; 'I' for Inactive)
REMARK    1  A    between atoms: N1_6  and  C6_7 
REMARK    2  A    between atoms: C6_7  and  C7_8 
REMARK    3  A    between atoms: C6_7  and  C8_11 
ROOT
HETATM    1  C1  UNL     1      -0.313   4.474  81.504  1.00  0.00     0.033 C 
HETATM    2  C2  UNL     1       0.048   4.892  82.914  1.00  0.00     0.090 C 
HETATM    3  C3  UNL     1      -0.283   6.350  83.058  1.00  0.00     0.027 C 
HETATM    4  C4  UNL     1      -1.394   6.633  84.036  1.00  0.00     0.018 C 
HETATM    5  C5  UNL     1      -1.351   5.666  85.211  1.00  0.00     0.114 C 
HETATM    6  N1  UNL     1      -1.532   4.373  84.612  1.00  0.00    -0.220 NA
HETATM    7  N2  UNL     1      -0.402   4.041  83.944  1.00  0.00    -0.349 N 
ATOM      8  H2  UNL     1       0.112   3.193  84.181  1.00  0.00     0.174 HD
ENDROOT
BRANCH   6   9
HETATM    9  C6  UNL     1      -2.126   3.373  85.399  1.00  0.00     0.184 C 
BRANCH   9  10
HETATM   10  C7  UNL     1      -1.174   2.314  85.780  1.00  0.00     0.193 C 
HETATM   11  O1  UNL     1      -1.396   1.126  85.504  1.00  0.00    -0.647 OA
HETATM   12  O2  UNL     1      -0.006   2.678  86.464  1.00  0.00    -0.647 OA
ENDBRANCH   9  10
BRANCH   9  13
HETATM   13  C8  UNL     1      -2.894   3.797  86.604  1.00  0.00     0.015 A 
HETATM   14  C9  UNL     1      -4.033   3.000  87.151  1.00  0.00     0.007 A 
HETATM   15  C10 UNL     1      -2.728   3.069  87.893  1.00  0.00     0.007 A 
ENDBRANCH   9  13
ENDBRANCH   6   9
TORSDOF 3
ENDMDL
MODEL 3
REMARK VINA RESULT: -6.442431708      2.317      3.259
REMARK  3 active torsions:
REMARK  status: ('A' for Active; 'I' for Inactive)
REMARK    1  A    between atoms: N1_6  and  C6_7 
REMARK    2  A    between atoms: C6_7  and  C7_8 
REMARK    3  A    between atoms: C6_7  and  C8_11 
ROOT
HETATM    1  C1  UNL     1       0.666   5.850  83.240  1.00  0.00     0.033 C 
HETATM    2  C2  UNL     1      -0.065   6.187  84.522  1.00  0.00     0.090 C 
HETATM    3  C3  UNL     1      -1.035   7.293  84.219  1.00  0.00     0.027 C 
HETATM    4  C4  UNL     1      -2.482   6.894  84.353  1.00  0.00     0.018 C 
HETATM    5  C5  UNL     1      -2.674   5.903  85.492  1.00  0.00     0.114 C 
HETATM    6  N1  UNL     1      -1.878   4.769  85.113  1.00  0.00    -0.220 NA
HETATM    7  N2  UNL     1      -0.571   5.091  85.250  1.00  0.00    -0.349 N 
ATOM      8  H2  UNL     1       0.036   4.551  85.868  1.00  0.00     0.174 HD
ENDROOT
BRANCH   6   9
HETATM    9  C6  UNL     1      -2.280   3.510  85.588  1.00  0.00     0.184 C 
BRANCH   9  10
HETATM   10  C7  UNL     1      -1.214   2.498  85.475  1.00  0.00     0.193 C 
HETATM   11  O1  UNL     1      -1.304   1.563  84.666  1.00  0.00    -0.647 OA
HETATM   12  O2  UNL     1      -0.090   2.613  86.305  1.00  0.00    -0.647 OA
ENDBRANCH   9  10
BRANCH   9  13
HETATM   13  C8  UNL     1      -2.883   3.436  86.948  1.00  0.00     0.015 A 
HETATM   14  C9  UNL     1      -4.223   2.825  87.200  1.00  0.00     0.007 A 
HETATM   15  C10 UNL     1      -2.973   2.130  87.659  1.00  0.00     0.007 A 
ENDBRANCH   9  13
ENDBRANCH   6   9
TORSDOF 3
ENDMDL
MODEL 4
REMARK VINA RESULT: -6.364184855      1.773      3.068
REMARK  3 active torsions:
REMARK  status: ('A' for Active; 'I' for Inactive)
REMARK    1  A    between atoms: N1_6  and  C6_7 
REMARK    2  A    between atoms: C6_7  and  C7_8 
REMARK    3  A    between atoms: C6_7  and  C8_11 
ROOT
HETATM    1  C1  UNL     1      -0.754   7.506  84.897  1.00  0.00     0.033 C 
HETATM    2  C2  UNL     1      -1.485   6.586  83.942  1.00  0.00     0.090 C 
HETATM    3  C3  UNL     1      -0.539   6.239  82.827  1.00  0.00     0.027 C 
HETATM    4  C4  UNL     1      -0.150   4.784  82.784  1.00  0.00     0.018 C 
HETATM    5  C5  UNL     1      -1.311   3.893  83.203  1.00  0.00     0.114 C 
HETATM    6  N1  UNL     1      -1.595   4.293  84.553  1.00  0.00    -0.220 NA
HETATM    7  N2  UNL     1      -2.182   5.512  84.531  1.00  0.00    -0.349 N 
ATOM      8  H2  UNL     1      -3.109   5.650  84.933  1.00  0.00     0.174 HD
ENDROOT
BRANCH   6   9
HETATM    9  C6  UNL     1      -2.155   3.329  85.409  1.00  0.00     0.184 C 
BRANCH   9  10
HETATM   10  C7  UNL     1      -1.181   2.299  85.812  1.00  0.00     0.193 C 
HETATM   11  O1  UNL     1      -1.408   1.095  85.621  1.00  0.00    -0.647 OA
HETATM   12  O2  UNL     1       0.015   2.707  86.419  1.00  0.00    -0.647 OA
ENDBRANCH   9  10
BRANCH   9  13
HETATM   13  C8  UNL     1      -2.888   3.808  86.614  1.00  0.00     0.015 A 
HETATM   14  C9  UNL     1      -4.081   3.094  87.163  1.00  0.00     0.007 A 
HETATM   15  C10 UNL     1      -2.774   3.070  87.903  1.00  0.00     0.007 A 
ENDBRANCH   9  13
ENDBRANCH   6   9
TORSDOF 3
ENDMDL
MODEL 5
REMARK VINA RESULT: -6.215902608      0.801      1.871
REMARK  3 active torsions:
REMARK  status: ('A' for Active; 'I' for Inactive)
REMARK    1  A    between atoms: N1_6  and  C6_7 
REMARK    2  A    between atoms: C6_7  and  C7_8 
REMARK    3  A    between atoms: C6_7  and  C8_11 
ROOT
HETATM    1  C1  UNL     1       1.899   5.645  82.643  1.00  0.00     0.033 C 
HETATM    2  C2  UNL     1       0.698   4.961  82.026  1.00  0.00     0.090 C 
HETATM    3  C3  UNL     1       1.196   3.783  81.239  1.00  0.00     0.027 C 
HETATM    4  C4  UNL     1       0.761   2.449  81.789  1.00  0.00     0.018 C 
HETATM    5  C5  UNL     1      -0.642   2.530  82.376  1.00  0.00     0.114 C 
HETATM    6  N1  UNL     1      -0.527   3.492  83.436  1.00  0.00    -0.220 NA
HETATM    7  N2  UNL     1      -0.389   4.723  82.891  1.00  0.00    -0.349 N 
ATOM      8  H2  UNL     1      -1.058   5.465  83.103  1.00  0.00     0.174 HD
ENDROOT
BRANCH   6   9
HETATM    9  C6  UNL     1      -1.411   3.368  84.520  1.00  0.00     0.184 C 
BRANCH   9  10
HETATM   10  C7  UNL     1      -0.987   2.332  85.479  1.00  0.00     0.193 C 
HETATM   11  O1  UNL     1      -1.489   1.199  85.457  1.00  0.00    -0.647 OA
HETATM   12  O2  UNL     1       0.000   2.654  86.421  1.00  0.00    -0.647 OA
ENDBRANCH   9  10
BRANCH   9  13
HETATM   13  C8  UNL     1      -1.778   4.605  85.267  1.00  0.00     0.015 A 
HETATM   14  C9  UNL     1      -2.972   5.431  84.912  1.00  0.00     0.007 A 
HETATM   15  C10 UNL     1      -2.962   4.611  86.172  1.00  0.00     0.007 A 
ENDBRANCH   9  13
ENDBRANCH   6   9
TORSDOF 3
ENDMDL
