MODEL 1
REMARK VINA RESULT: -5.845684486      0.000      0.000
REMARK  4 active torsions:
REMARK  status: ('A' for Active; 'I' for Inactive)
REMARK    1  A    between atoms: N1_2  and  C2_4 
REMARK    2  A    between atoms: C2_4  and  C3_6 
REMARK    3  A    between atoms: C5_8  and  N2_9 
REMARK       I    between atoms: N2_9  and  C6_11 
REMARK    4  A    between atoms: C6_11  and  C7_13 
ROOT
HETATM    1  C3  UNL     1      -0.649   3.420  82.412  1.00  0.00     0.071 A 
HETATM    2  C4  UNL     1      -1.119   2.021  82.485  1.00  0.00     0.039 A 
HETATM    3  C5  UNL     1      -0.712   2.676  83.747  1.00  0.00     0.096 A 
ENDROOT
BRANCH   3   4
HETATM    4  N2  UNL     1      -1.636   3.235  84.670  1.00  0.00    -0.355 N 
HETATM    5  C6  UNL     1      -1.555   2.956  86.049  1.00  0.00     0.222 C 
HETATM    6  O1  UNL     1      -0.629   2.186  86.463  1.00  0.00    -0.273 OA
ATOM      7  H2  UNL     1      -2.373   3.851  84.328  1.00  0.00     0.162 HD
BRANCH   5   8
HETATM    8  C7  UNL     1      -2.529   3.554  86.976  1.00  0.00     0.078 A 
HETATM    9  C8  UNL     1      -2.734   2.980  88.331  1.00  0.00     0.015 A 
HETATM   10  C9  UNL     1      -3.728   2.636  87.253  1.00  0.00     0.015 A 
ENDBRANCH   5   8
ENDBRANCH   3   4
BRANCH   1  11
HETATM   11  C2  UNL     1       0.710   3.766  81.972  1.00  0.00     0.079 C 
HETATM   12  S1  UNL     1       1.489   2.901  80.834  1.00  0.00    -0.065 SA
BRANCH  11  13
HETATM   13  N1  UNL     1       1.378   4.879  82.540  1.00  0.00    -0.388 N 
HETATM   14  C1  UNL     1       0.700   6.035  83.064  1.00  0.00     0.147 C 
ATOM     15  H1  UNL     1       2.397   4.859  82.580  1.00  0.00     0.159 HD
ENDBRANCH  11  13
ENDBRANCH   1  11
TORSDOF 4
ENDMDL
MODEL 2
REMARK VINA RESULT: -5.710424230      1.711      1.928
REMARK  4 active torsions:
REMARK  status: ('A' for Active; 'I' for Inactive)
REMARK    1  A    between atoms: N1_2  and  C2_4 
REMARK    2  A    between atoms: C2_4  and  C3_6 
REMARK    3  A    between atoms: C5_8  and  N2_9 
REMARK       I    between atoms: N2_9  and  C6_11 
REMARK    4  A    between atoms: C6_11  and  C7_13 
ROOT
HETATM    1  C3  UNL     1      -0.978   4.546  83.396  1.00  0.00     0.071 A 
HETATM    2  C4  UNL     1      -1.099   3.269  82.663  1.00  0.00     0.039 A 
HETATM    3  C5  UNL     1      -0.852   3.205  84.120  1.00  0.00     0.096 A 
ENDROOT
BRANCH   3   4
HETATM    4  N2  UNL     1      -1.876   2.973  85.076  1.00  0.00    -0.355 N 
HETATM    5  C6  UNL     1      -1.585   2.447  86.351  1.00  0.00     0.222 C 
HETATM    6  O1  UNL     1      -0.374   2.179  86.639  1.00  0.00    -0.273 OA
ATOM      7  H2  UNL     1      -2.843   3.192  84.836  1.00  0.00     0.162 HD
BRANCH   5   8
HETATM    8  C7  UNL     1      -2.672   2.220  87.316  1.00  0.00     0.078 A 
HETATM    9  C8  UNL     1      -3.994   2.874  87.134  1.00  0.00     0.015 A 
HETATM   10  C9  UNL     1      -3.029   3.479  88.118  1.00  0.00     0.015 A 
ENDBRANCH   5   8
ENDBRANCH   3   4
BRANCH   1  11
HETATM   11  C2  UNL     1       0.256   5.345  83.375  1.00  0.00     0.079 C 
HETATM   12  S1  UNL     1       0.436   6.669  84.304  1.00  0.00    -0.065 SA
BRANCH  11  13
HETATM   13  N1  UNL     1       1.330   4.968  82.531  1.00  0.00    -0.388 N 
HETATM   14  C1  UNL     1       1.586   5.567  81.247  1.00  0.00     0.147 C 
ATOM     15  H1  UNL     1       1.958   4.231  82.852  1.00  0.00     0.159 HD
ENDBRANCH  11  13
ENDBRANCH   1  11
TORSDOF 4
ENDMDL
MODEL 3
REMARK VINA RESULT: -5.687681721      1.326      1.490
REMARK  4 active torsions:
REMARK  status: ('A' for Active; 'I' for Inactive)
REMARK    1  A    between atoms: N1_2  and  C2_4 
REMARK    2  A    between atoms: C2_4  and  C3_6 
REMARK    3  A    between atoms: C5_8  and  N2_9 
REMARK       I    between atoms: N2_9  and  C6_11 
REMARK    4  A    between atoms: C6_11  and  C7_13 
ROOT
HETATM    1  C3  UNL     1      -1.337   3.973  82.872  1.00  0.00     0.071 A 
HETATM    2  C4  UNL     1      -0.879   2.577  82.708  1.00  0.00     0.039 A 
HETATM    3  C5  UNL     1      -0.863   3.150  84.072  1.00  0.00     0.096 A 
ENDROOT
BRANCH   3   4
HETATM    4  N2  UNL     1      -1.878   2.904  85.034  1.00  0.00    -0.355 N 
HETATM    5  C6  UNL     1      -1.567   2.450  86.330  1.00  0.00     0.222 C 
HETATM    6  O1  UNL     1      -0.345   2.260  86.634  1.00  0.00    -0.273 OA
ATOM      7  H2  UNL     1      -2.854   3.061  84.781  1.00  0.00     0.162 HD
BRANCH   5   8
HETATM    8  C7  UNL     1      -2.646   2.207  87.301  1.00  0.00     0.078 A 
HETATM    9  C8  UNL     1      -3.965   2.872  87.148  1.00  0.00     0.015 A 
HETATM   10  C9  UNL     1      -2.986   3.448  88.136  1.00  0.00     0.015 A 
ENDBRANCH   5   8
ENDBRANCH   3   4
BRANCH   1  11
HETATM   11  C2  UNL     1      -0.478   5.120  82.545  1.00  0.00     0.079 C 
HETATM   12  S1  UNL     1       0.778   4.986  81.519  1.00  0.00    -0.065 SA
BRANCH  11  13
HETATM   13  N1  UNL     1      -0.735   6.386  83.126  1.00  0.00    -0.388 N 
HETATM   14  C1  UNL     1      -0.329   6.751  84.458  1.00  0.00     0.147 C 
ATOM     15  H1  UNL     1      -1.237   7.079  82.570  1.00  0.00     0.159 HD
ENDBRANCH  11  13
ENDBRANCH   1  11
TORSDOF 4
ENDMDL
MODEL 4
REMARK VINA RESULT: -5.659683805      1.511      1.612
REMARK  4 active torsions:
REMARK  status: ('A' for Active; 'I' for Inactive)
REMARK    1  A    between atoms: N1_2  and  C2_4 
REMARK    2  A    between atoms: C2_4  and  C3_6 
REMARK    3  A    between atoms: C5_8  and  N2_9 
REMARK       I    between atoms: N2_9  and  C6_11 
REMARK    4  A    between atoms: C6_11  and  C7_13 
ROOT
HETATM    1  C3  UNL     1      -1.307   3.114  82.292  1.00  0.00     0.071 A 
HETATM    2  C4  UNL     1      -0.975   1.794  82.868  1.00  0.00     0.039 A 
HETATM    3  C5  UNL     1      -0.735   2.990  83.706  1.00  0.00     0.096 A 
ENDROOT
BRANCH   3   4
HETATM    4  N2  UNL     1      -1.626   3.422  84.724  1.00  0.00    -0.355 N 
HETATM    5  C6  UNL     1      -1.455   3.027  86.065  1.00  0.00     0.222 C 
HETATM    6  O1  UNL     1      -0.476   2.267  86.358  1.00  0.00    -0.273 OA
ATOM      7  H2  UNL     1      -2.406   4.031  84.479  1.00  0.00     0.162 HD
BRANCH   5   8
HETATM    8  C7  UNL     1      -2.398   3.494  87.094  1.00  0.00     0.078 A 
HETATM    9  C8  UNL     1      -2.737   2.634  88.256  1.00  0.00     0.015 A 
HETATM   10  C9  UNL     1      -3.708   2.695  87.108  1.00  0.00     0.015 A 
ENDBRANCH   5   8
ENDBRANCH   3   4
BRANCH   1  11
HETATM   11  C2  UNL     1      -0.424   3.794  81.335  1.00  0.00     0.079 C 
HETATM   12  S1  UNL     1      -0.629   5.359  80.942  1.00  0.00    -0.065 SA
BRANCH  11  13
HETATM   13  N1  UNL     1       0.642   3.085  80.728  1.00  0.00    -0.388 N 
HETATM   14  C1  UNL     1       2.027   3.272  81.075  1.00  0.00     0.147 C 
ATOM     15  H1  UNL     1       0.416   2.404  80.003  1.00  0.00     0.159 HD
ENDBRANCH  11  13
ENDBRANCH   1  11
TORSDOF 4
ENDMDL
MODEL 5
REMARK VINA RESULT: -5.543424106      1.334      1.668
REMARK  4 active torsions:
REMARK  status: ('A' for Active; 'I' for Inactive)
REMARK    1  A    between atoms: N1_2  and  C2_4 
REMARK    2  A    between atoms: C2_4  and  C3_6 
REMARK    3  A    between atoms: C5_8  and  N2_9 
REMARK       I    between atoms: N2_9  and  C6_11 
REMARK    4  A    between atoms: C6_11  and  C7_13 
ROOT
HETATM    1  C3  UNL     1      -0.885   3.750  82.855  1.00  0.00     0.071 A 
HETATM    2  C4  UNL     1      -1.105   2.298  82.699  1.00  0.00     0.039 A 
HETATM    3  C5  UNL     1      -0.790   2.803  84.052  1.00  0.00     0.096 A 
ENDROOT
BRANCH   3   4
HETATM    4  N2  UNL     1      -1.774   3.039  85.047  1.00  0.00    -0.355 N 
HETATM    5  C6  UNL     1      -1.510   2.805  86.411  1.00  0.00     0.222 C 
HETATM    6  O1  UNL     1      -0.359   2.376  86.746  1.00  0.00    -0.273 OA
ATOM      7  H2  UNL     1      -2.693   3.384  84.769  1.00  0.00     0.162 HD
BRANCH   5   8
HETATM    8  C7  UNL     1      -2.556   3.061  87.415  1.00  0.00     0.078 A 
HETATM    9  C8  UNL     1      -3.978   2.750  87.122  1.00  0.00     0.015 A 
HETATM   10  C9  UNL     1      -3.521   4.179  86.998  1.00  0.00     0.015 A 
ENDBRANCH   5   8
ENDBRANCH   3   4
BRANCH   1  11
HETATM   11  C2  UNL     1       0.384   4.393  82.484  1.00  0.00     0.079 C 
HETATM   12  S1  UNL     1       0.657   5.973  82.756  1.00  0.00    -0.065 SA
BRANCH  11  13
HETATM   13  N1  UNL     1       1.411   3.632  81.871  1.00  0.00    -0.388 N 
HETATM   14  C1  UNL     1       1.909   3.884  80.544  1.00  0.00     0.147 C 
ATOM     15  H1  UNL     1       1.820   2.862  82.401  1.00  0.00     0.159 HD
ENDBRANCH  11  13
ENDBRANCH   1  11
TORSDOF 4
ENDMDL
