MODEL 1
REMARK VINA RESULT: -6.276945347      0.000      0.000
REMARK  3 active torsions:
REMARK  status: ('A' for Active; 'I' for Inactive)
REMARK       I    between atoms: C2_2  and  N1_4 
REMARK    1  A    between atoms: N1_4  and  C3_6 
REMARK    2  A    between atoms: C3_6  and  C5_8 
REMARK       I    between atoms: C5_8  and  N2_10 
REMARK    3  A    between atoms: N2_10  and  C6_12 
ROOT
HETATM    1  C5  UNL     1      -1.368   2.497  85.120  1.00  0.00     0.242 C 
HETATM    2  O2  UNL     1      -1.447   1.248  85.254  1.00  0.00    -0.271 OA
HETATM    3  N2  UNL     1      -0.926   3.032  83.885  1.00  0.00    -0.333 N 
ATOM      4  H2  UNL     1      -0.861   4.043  83.767  1.00  0.00     0.165 HD
ENDROOT
BRANCH   1   5
HETATM    5  C3  UNL     1      -1.736   3.409  86.240  1.00  0.00     0.172 C 
HETATM    6  C4  UNL     1      -2.544   2.656  87.256  1.00  0.00     0.042 C 
BRANCH   5   7
HETATM    7  N1  UNL     1      -2.511   4.526  85.776  1.00  0.00    -0.348 N 
HETATM    8  C2  UNL     1      -1.942   5.704  85.238  1.00  0.00     0.214 C 
HETATM    9  C1  UNL     1      -2.824   6.800  84.786  1.00  0.00     0.117 C 
HETATM   10  O1  UNL     1      -0.688   5.778  85.164  1.00  0.00    -0.274 OA
ATOM     11  H1  UNL     1      -3.527   4.465  85.836  1.00  0.00     0.163 HD
ENDBRANCH   5   7
ENDBRANCH   1   5
BRANCH   3  12
HETATM   12  C6  UNL     1      -0.571   2.173  82.805  1.00  0.00     0.223 C 
HETATM   13  C7  UNL     1      -1.516   2.260  81.624  1.00  0.00     0.056 C 
HETATM   14  C8  UNL     1      -0.691   1.496  80.578  1.00  0.00     0.031 C 
HETATM   15  C9  UNL     1       0.700   1.550  81.179  1.00  0.00     0.170 C 
HETATM   16  O3  UNL     1       0.638   2.542  82.184  1.00  0.00    -0.367 OA
ENDBRANCH   3  12
TORSDOF 3
ENDMDL
MODEL 2
REMARK VINA RESULT: -6.238235160      1.615      5.248
REMARK  3 active torsions:
REMARK  status: ('A' for Active; 'I' for Inactive)
REMARK       I    between atoms: C2_2  and  N1_4 
REMARK    1  A    between atoms: N1_4  and  C3_6 
REMARK    2  A    between atoms: C3_6  and  C5_8 
REMARK       I    between atoms: C5_8  and  N2_10 
REMARK    3  A    between atoms: N2_10  and  C6_12 
ROOT
HETATM    1  C5  UNL     1      -0.476   4.319  84.361  1.00  0.00     0.242 C 
HETATM    2  O2  UNL     1       0.208   4.807  85.298  1.00  0.00    -0.271 OA
HETATM    3  N2  UNL     1      -1.599   3.513  84.674  1.00  0.00    -0.333 N 
ATOM      4  H2  UNL     1      -2.159   3.115  83.920  1.00  0.00     0.165 HD
ENDROOT
BRANCH   1   5
HETATM    5  C3  UNL     1      -0.118   4.580  82.937  1.00  0.00     0.172 C 
HETATM    6  C4  UNL     1      -0.847   5.800  82.453  1.00  0.00     0.042 C 
BRANCH   5   7
HETATM    7  N1  UNL     1      -0.470   3.472  82.095  1.00  0.00    -0.348 N 
HETATM    8  C2  UNL     1       0.475   2.576  81.543  1.00  0.00     0.214 C 
HETATM    9  C1  UNL     1       0.014   1.463  80.687  1.00  0.00     0.117 C 
HETATM   10  O1  UNL     1       1.692   2.761  81.805  1.00  0.00    -0.274 OA
ATOM     11  H1  UNL     1      -1.457   3.322  81.884  1.00  0.00     0.163 HD
ENDBRANCH   5   7
ENDBRANCH   1   5
BRANCH   3  12
HETATM   12  C6  UNL     1      -1.954   3.254  86.029  1.00  0.00     0.223 C 
HETATM   13  C7  UNL     1      -3.153   4.048  86.505  1.00  0.00     0.056 C 
HETATM   14  C8  UNL     1      -3.439   3.313  87.823  1.00  0.00     0.031 C 
HETATM   15  C9  UNL     1      -2.706   2.003  87.616  1.00  0.00     0.170 C 
HETATM   16  O3  UNL     1      -2.426   1.943  86.231  1.00  0.00    -0.367 OA
ENDBRANCH   3  12
TORSDOF 3
ENDMDL
MODEL 3
REMARK VINA RESULT: -6.138582908      1.951      5.118
REMARK  3 active torsions:
REMARK  status: ('A' for Active; 'I' for Inactive)
REMARK       I    between atoms: C2_2  and  N1_4 
REMARK    1  A    between atoms: N1_4  and  C3_6 
REMARK    2  A    between atoms: C3_6  and  C5_8 
REMARK       I    between atoms: C5_8  and  N2_10 
REMARK    3  A    between atoms: N2_10  and  C6_12 
ROOT
HETATM    1  C5  UNL     1      -1.202   2.239  83.820  1.00  0.00     0.242 C 
HETATM    2  O2  UNL     1      -1.285   1.083  84.312  1.00  0.00    -0.271 OA
HETATM    3  N2  UNL     1      -1.480   3.359  84.642  1.00  0.00    -0.333 N 
ATOM      4  H2  UNL     1      -1.414   4.300  84.252  1.00  0.00     0.165 HD
ENDROOT
BRANCH   1   5
HETATM    5  C3  UNL     1      -0.816   2.437  82.394  1.00  0.00     0.172 C 
HETATM    6  C4  UNL     1      -0.930   1.133  81.659  1.00  0.00     0.042 C 
BRANCH   5   7
HETATM    7  N1  UNL     1       0.534   2.912  82.277  1.00  0.00    -0.348 N 
HETATM    8  C2  UNL     1       0.968   3.797  81.262  1.00  0.00     0.214 C 
HETATM    9  C1  UNL     1       2.380   4.230  81.224  1.00  0.00     0.117 C 
HETATM   10  O1  UNL     1       0.123   4.188  80.415  1.00  0.00    -0.274 OA
ATOM     11  H1  UNL     1       1.218   2.594  82.963  1.00  0.00     0.163 HD
ENDBRANCH   5   7
ENDBRANCH   1   5
BRANCH   3  12
HETATM   12  C6  UNL     1      -1.851   3.187  86.007  1.00  0.00     0.223 C 
HETATM   13  C7  UNL     1      -2.900   4.171  86.481  1.00  0.00     0.056 C 
HETATM   14  C8  UNL     1      -3.279   3.518  87.818  1.00  0.00     0.031 C 
HETATM   15  C9  UNL     1      -2.768   2.104  87.630  1.00  0.00     0.170 C 
HETATM   16  O3  UNL     1      -2.523   1.972  86.244  1.00  0.00    -0.367 OA
ENDBRANCH   3  12
TORSDOF 3
ENDMDL
MODEL 4
REMARK VINA RESULT: -6.134330262      1.912      5.261
REMARK  3 active torsions:
REMARK  status: ('A' for Active; 'I' for Inactive)
REMARK       I    between atoms: C2_2  and  N1_4 
REMARK    1  A    between atoms: N1_4  and  C3_6 
REMARK    2  A    between atoms: C3_6  and  C5_8 
REMARK       I    between atoms: C5_8  and  N2_10 
REMARK    3  A    between atoms: N2_10  and  C6_12 
ROOT
HETATM    1  C5  UNL     1      -0.721   3.238  83.983  1.00  0.00     0.242 C 
HETATM    2  O2  UNL     1      -0.120   4.168  84.581  1.00  0.00    -0.271 OA
HETATM    3  N2  UNL     1      -1.630   2.427  84.707  1.00  0.00    -0.333 N 
ATOM      4  H2  UNL     1      -2.122   1.671  84.229  1.00  0.00     0.165 HD
ENDROOT
BRANCH   1   5
HETATM    5  C3  UNL     1      -0.489   2.987  82.532  1.00  0.00     0.172 C 
HETATM    6  C4  UNL     1      -0.745   1.540  82.226  1.00  0.00     0.042 C 
BRANCH   5   7
HETATM    7  N1  UNL     1       0.861   3.303  82.154  1.00  0.00    -0.348 N 
HETATM    8  C2  UNL     1       1.198   4.037  80.993  1.00  0.00     0.214 C 
HETATM    9  C1  UNL     1       2.617   4.312  80.689  1.00  0.00     0.117 C 
HETATM   10  O1  UNL     1       0.263   4.436  80.251  1.00  0.00    -0.274 OA
ATOM     11  H1  UNL     1       1.617   2.979  82.757  1.00  0.00     0.163 HD
ENDBRANCH   5   7
ENDBRANCH   1   5
BRANCH   3  12
HETATM   12  C6  UNL     1      -1.863   2.653  86.094  1.00  0.00     0.223 C 
HETATM   13  C7  UNL     1      -2.924   3.699  86.368  1.00  0.00     0.056 C 
HETATM   14  C8  UNL     1      -3.138   3.458  87.870  1.00  0.00     0.031 C 
HETATM   15  C9  UNL     1      -2.559   2.069  88.049  1.00  0.00     0.170 C 
HETATM   16  O3  UNL     1      -2.434   1.541  86.743  1.00  0.00    -0.367 OA
ENDBRANCH   3  12
TORSDOF 3
ENDMDL
MODEL 5
REMARK VINA RESULT: -5.968754502      2.124      5.270
REMARK  3 active torsions:
REMARK  status: ('A' for Active; 'I' for Inactive)
REMARK       I    between atoms: C2_2  and  N1_4 
REMARK    1  A    between atoms: N1_4  and  C3_6 
REMARK    2  A    between atoms: C3_6  and  C5_8 
REMARK       I    between atoms: C5_8  and  N2_10 
REMARK    3  A    between atoms: N2_10  and  C6_12 
ROOT
HETATM    1  C5  UNL     1      -0.542   2.330  82.709  1.00  0.00     0.242 C 
HETATM    2  O2  UNL     1      -1.313   1.340  82.804  1.00  0.00    -0.271 OA
HETATM    3  N2  UNL     1      -0.554   3.315  83.727  1.00  0.00    -0.333 N 
ATOM      4  H2  UNL     1       0.069   4.120  83.658  1.00  0.00     0.165 HD
ENDROOT
BRANCH   1   5
HETATM    5  C3  UNL     1       0.377   2.473  81.543  1.00  0.00     0.172 C 
HETATM    6  C4  UNL     1       0.912   1.124  81.159  1.00  0.00     0.042 C 
BRANCH   5   7
HETATM    7  N1  UNL     1       1.485   3.334  81.851  1.00  0.00    -0.348 N 
HETATM    8  C2  UNL     1       2.071   4.220  80.917  1.00  0.00     0.214 C 
HETATM    9  C1  UNL     1       3.209   5.067  81.329  1.00  0.00     0.117 C 
HETATM   10  O1  UNL     1       1.594   4.256  79.753  1.00  0.00    -0.274 OA
ATOM     11  H1  UNL     1       1.871   3.304  82.795  1.00  0.00     0.163 HD
ENDBRANCH   5   7
ENDBRANCH   1   5
BRANCH   3  12
HETATM   12  C6  UNL     1      -1.427   3.194  84.847  1.00  0.00     0.223 C 
HETATM   13  C7  UNL     1      -0.702   3.033  86.167  1.00  0.00     0.056 C 
HETATM   14  C8  UNL     1      -1.876   3.254  87.133  1.00  0.00     0.031 C 
HETATM   15  C9  UNL     1      -2.884   3.953  86.243  1.00  0.00     0.170 C 
HETATM   16  O3  UNL     1      -2.156   4.371  85.104  1.00  0.00    -0.367 OA
ENDBRANCH   3  12
TORSDOF 3
ENDMDL
