MODEL 1
REMARK VINA RESULT: -6.790477506      0.000      0.000
REMARK  3 active torsions:
REMARK  status: ('A' for Active; 'I' for Inactive)
REMARK    1  A    between atoms: C2_3  and  C3_4 
REMARK    2  A    between atoms: C2_3  and  C7_11 
REMARK       I    between atoms: C3_4  and  N2_6 
REMARK    3  A    between atoms: N2_6  and  C4_8 
ROOT
HETATM    1  N1  UNL     1       0.431   5.204  85.165  1.00  0.00    -0.196 NA
HETATM    2  C1  UNL     1      -0.038   4.229  85.576  1.00  0.00     0.074 C 
HETATM    3  C2  UNL     1      -0.625   2.981  86.125  1.00  0.00     0.190 C 
ENDROOT
BRANCH   3   4
HETATM    4  C3  UNL     1      -0.953   2.134  84.973  1.00  0.00     0.236 C 
HETATM    5  O1  UNL     1      -1.427   0.996  85.133  1.00  0.00    -0.272 OA
HETATM    6  N2  UNL     1      -0.731   2.608  83.670  1.00  0.00    -0.355 N 
ATOM      7  H2  UNL     1      -0.341   3.544  83.562  1.00  0.00     0.162 HD
BRANCH   6   8
HETATM    8  C4  UNL     1      -1.021   1.852  82.470  1.00  0.00     0.084 A 
HETATM    9  C5  UNL     1      -0.076   2.154  81.315  1.00  0.00     0.027 A 
HETATM   10  C6  UNL     1      -1.524   2.534  81.246  1.00  0.00     0.027 A 
ENDBRANCH   6   8
ENDBRANCH   3   4
BRANCH   3  11
HETATM   11  C7  UNL     1      -1.835   3.401  86.913  1.00  0.00     0.039 C 
HETATM   12  C8  UNL     1      -2.643   2.227  87.404  1.00  0.00     0.035 C 
HETATM   13  C9  UNL     1      -4.053   2.770  87.469  1.00  0.00     0.232 C 
HETATM   14  N3  UNL     1      -3.981   4.140  86.992  1.00  0.00    -0.075 N 
HETATM   15  C10 UNL     1      -2.869   4.093  86.025  1.00  0.00     0.238 C 
ATOM     16  H32 UNL     1      -4.856   4.509  86.619  1.00  0.00     0.277 HD
ATOM     17  H31 UNL     1      -3.878   4.842  87.725  1.00  0.00     0.277 HD
ENDBRANCH   3  11
TORSDOF 3
ENDMDL
MODEL 2
REMARK VINA RESULT: -6.477346603      2.202      4.758
REMARK  3 active torsions:
REMARK  status: ('A' for Active; 'I' for Inactive)
REMARK    1  A    between atoms: C2_3  and  C3_4 
REMARK    2  A    between atoms: C2_3  and  C7_11 
REMARK       I    between atoms: C3_4  and  N2_6 
REMARK    3  A    between atoms: N2_6  and  C4_8 
ROOT
HETATM    1  N1  UNL     1      -2.262   3.912  82.665  1.00  0.00    -0.196 NA
HETATM    2  C1  UNL     1      -1.385   3.947  83.419  1.00  0.00     0.074 C 
HETATM    3  C2  UNL     1      -0.243   3.994  84.367  1.00  0.00     0.190 C 
ENDROOT
BRANCH   3   4
HETATM    4  C3  UNL     1      -0.696   3.331  85.595  1.00  0.00     0.236 C 
HETATM    5  O1  UNL     1       0.117   2.986  86.470  1.00  0.00    -0.272 OA
HETATM    6  N2  UNL     1      -2.063   3.080  85.792  1.00  0.00    -0.355 N 
ATOM      7  H2  UNL     1      -2.713   3.371  85.061  1.00  0.00     0.162 HD
BRANCH   6   8
HETATM    8  C4  UNL     1      -2.610   2.435  86.967  1.00  0.00     0.084 A 
HETATM    9  C5  UNL     1      -4.076   2.761  87.217  1.00  0.00     0.027 A 
HETATM   10  C6  UNL     1      -3.009   3.236  88.156  1.00  0.00     0.027 A 
ENDBRANCH   6   8
ENDBRANCH   3   4
BRANCH   3  11
HETATM   11  C7  UNL     1       0.077   5.449  84.564  1.00  0.00     0.039 C 
HETATM   12  C8  UNL     1      -1.154   6.285  84.813  1.00  0.00     0.035 C 
HETATM   13  C9  UNL     1      -0.780   7.641  84.257  1.00  0.00     0.232 C 
HETATM   14  N3  UNL     1       0.559   7.498  83.711  1.00  0.00    -0.075 N 
HETATM   15  C10 UNL     1       0.586   6.091  83.273  1.00  0.00     0.238 C 
ATOM     16  H32 UNL     1       0.798   8.176  82.986  1.00  0.00     0.277 HD
ATOM     17  H31 UNL     1       1.310   7.761  84.349  1.00  0.00     0.277 HD
ENDBRANCH   3  11
TORSDOF 3
ENDMDL
MODEL 3
REMARK VINA RESULT: -6.426971710      2.252      4.750
REMARK  3 active torsions:
REMARK  status: ('A' for Active; 'I' for Inactive)
REMARK    1  A    between atoms: C2_3  and  C3_4 
REMARK    2  A    between atoms: C2_3  and  C7_11 
REMARK       I    between atoms: C3_4  and  N2_6 
REMARK    3  A    between atoms: N2_6  and  C4_8 
ROOT
HETATM    1  N1  UNL     1      -1.354   1.986  82.400  1.00  0.00    -0.196 NA
HETATM    2  C1  UNL     1      -0.986   2.760  83.179  1.00  0.00     0.074 C 
HETATM    3  C2  UNL     1      -0.496   3.760  84.160  1.00  0.00     0.190 C 
ENDROOT
BRANCH   3   4
HETATM    4  C3  UNL     1      -0.807   3.223  85.490  1.00  0.00     0.236 C 
HETATM    5  O1  UNL     1       0.091   3.037  86.328  1.00  0.00    -0.272 OA
HETATM    6  N2  UNL     1      -2.135   2.914  85.827  1.00  0.00    -0.355 N 
ATOM      7  H2  UNL     1      -2.856   3.074  85.123  1.00  0.00     0.162 HD
BRANCH   6   8
HETATM    8  C4  UNL     1      -2.545   2.383  87.109  1.00  0.00     0.084 A 
HETATM    9  C5  UNL     1      -4.014   2.624  87.429  1.00  0.00     0.027 A 
HETATM   10  C6  UNL     1      -2.933   3.296  88.220  1.00  0.00     0.027 A 
ENDBRANCH   6   8
ENDBRANCH   3   4
BRANCH   3  11
HETATM   11  C7  UNL     1      -1.224   5.038  83.852  1.00  0.00     0.039 C 
HETATM   12  C8  UNL     1      -0.848   5.611  82.509  1.00  0.00     0.035 C 
HETATM   13  C9  UNL     1      -1.037   7.100  82.694  1.00  0.00     0.232 C 
HETATM   14  N3  UNL     1      -1.446   7.287  84.075  1.00  0.00    -0.075 N 
HETATM   15  C10 UNL     1      -0.773   6.174  84.770  1.00  0.00     0.238 C 
ATOM     16  H32 UNL     1      -1.247   8.212  84.457  1.00  0.00     0.277 HD
ATOM     17  H31 UNL     1      -2.454   7.332  84.219  1.00  0.00     0.277 HD
ENDBRANCH   3  11
TORSDOF 3
ENDMDL
MODEL 4
REMARK VINA RESULT: -6.388018644      1.952      2.288
REMARK  3 active torsions:
REMARK  status: ('A' for Active; 'I' for Inactive)
REMARK    1  A    between atoms: C2_3  and  C3_4 
REMARK    2  A    between atoms: C2_3  and  C7_11 
REMARK       I    between atoms: C3_4  and  N2_6 
REMARK    3  A    between atoms: N2_6  and  C4_8 
ROOT
HETATM    1  N1  UNL     1      -3.036   6.392  84.378  1.00  0.00    -0.196 NA
HETATM    2  C1  UNL     1      -2.310   5.559  84.724  1.00  0.00     0.074 C 
HETATM    3  C2  UNL     1      -1.379   4.502  85.191  1.00  0.00     0.190 C 
ENDROOT
BRANCH   3   4
HETATM    4  C3  UNL     1      -0.674   4.014  84.000  1.00  0.00     0.236 C 
HETATM    5  O1  UNL     1       0.358   4.577  83.594  1.00  0.00    -0.272 OA
HETATM    6  N2  UNL     1      -1.165   2.898  83.304  1.00  0.00    -0.355 N 
ATOM      7  H2  UNL     1      -2.013   2.451  83.653  1.00  0.00     0.162 HD
BRANCH   6   8
HETATM    8  C4  UNL     1      -0.544   2.340  82.122  1.00  0.00     0.084 A 
HETATM    9  C5  UNL     1      -1.537   1.971  81.027  1.00  0.00     0.027 A 
HETATM   10  C6  UNL     1      -0.760   0.913  81.752  1.00  0.00     0.027 A 
ENDBRANCH   6   8
ENDBRANCH   3   4
BRANCH   3  11
HETATM   11  C7  UNL     1      -2.233   3.451  85.844  1.00  0.00     0.039 C 
HETATM   12  C8  UNL     1      -3.262   4.039  86.777  1.00  0.00     0.035 C 
HETATM   13  C9  UNL     1      -3.459   2.955  87.813  1.00  0.00     0.232 C 
HETATM   14  N3  UNL     1      -2.546   1.883  87.456  1.00  0.00    -0.075 N 
HETATM   15  C10 UNL     1      -1.425   2.603  86.826  1.00  0.00     0.238 C 
ATOM     16  H32 UNL     1      -2.281   1.273  88.230  1.00  0.00     0.277 HD
ATOM     17  H31 UNL     1      -2.956   1.147  86.882  1.00  0.00     0.277 HD
ENDBRANCH   3  11
TORSDOF 3
ENDMDL
MODEL 5
REMARK VINA RESULT: -6.384284147      2.011      4.819
REMARK  3 active torsions:
REMARK  status: ('A' for Active; 'I' for Inactive)
REMARK    1  A    between atoms: C2_3  and  C3_4 
REMARK    2  A    between atoms: C2_3  and  C7_11 
REMARK       I    between atoms: C3_4  and  N2_6 
REMARK    3  A    between atoms: N2_6  and  C4_8 
ROOT
HETATM    1  N1  UNL     1       1.361   4.955  82.697  1.00  0.00    -0.196 NA
HETATM    2  C1  UNL     1       0.301   4.749  83.116  1.00  0.00     0.074 C 
HETATM    3  C2  UNL     1      -1.067   4.502  83.635  1.00  0.00     0.190 C 
ENDROOT
BRANCH   3   4
HETATM    4  C3  UNL     1      -0.914   4.124  85.044  1.00  0.00     0.236 C 
HETATM    5  O1  UNL     1       0.168   4.289  85.635  1.00  0.00    -0.272 OA
HETATM    6  N2  UNL     1      -1.998   3.567  85.741  1.00  0.00    -0.355 N 
ATOM      7  H2  UNL     1      -2.876   3.439  85.238  1.00  0.00     0.162 HD
BRANCH   6   8
HETATM    8  C4  UNL     1      -1.949   3.162  87.130  1.00  0.00     0.084 A 
HETATM    9  C5  UNL     1      -2.989   2.112  87.498  1.00  0.00     0.027 A 
HETATM   10  C6  UNL     1      -3.063   3.499  88.059  1.00  0.00     0.027 A 
ENDBRANCH   6   8
ENDBRANCH   3   4
BRANCH   3  11
HETATM   11  C7  UNL     1      -1.643   3.403  82.787  1.00  0.00     0.039 C 
HETATM   12  C8  UNL     1      -0.817   2.142  82.833  1.00  0.00     0.035 C 
HETATM   13  C9  UNL     1      -1.063   1.508  81.482  1.00  0.00     0.232 C 
HETATM   14  N3  UNL     1      -1.935   2.418  80.761  1.00  0.00    -0.075 N 
HETATM   15  C10 UNL     1      -1.550   3.736  81.298  1.00  0.00     0.238 C 
ATOM     16  H32 UNL     1      -1.887   2.341  79.745  1.00  0.00     0.277 HD
ATOM     17  H31 UNL     1      -2.929   2.203  80.833  1.00  0.00     0.277 HD
ENDBRANCH   3  11
TORSDOF 3
ENDMDL
