MODEL 1
REMARK VINA RESULT: -7.845141244      0.000      0.000
REMARK  8 active torsions:
REMARK  status: ('A' for Active; 'I' for Inactive)
REMARK    1  A    between atoms: N1_1  and  C1_4 
REMARK    2  A    between atoms: C3_6  and  N2_7 
REMARK    3  A    between atoms: C4_9  and  C5_10 
REMARK    4  A    between atoms: C5_10  and  O1_11 
REMARK    5  A    between atoms: N6_24  and  C9_25 
REMARK    6  A    between atoms: C9_25  and  C10_26 
REMARK    7  A    between atoms: C10_26  and  C11_27 
REMARK    8  A    between atoms: C11_27  and  N7_28 
ROOT
HETATM    1  C1  UNL     1     -45.114 -30.565   2.458  1.00  0.00     0.132 A 
HETATM    2  C2  UNL     1     -44.874 -31.098   1.202  1.00  0.00     0.087 A 
HETATM    3  C3  UNL     1     -45.905 -31.324   0.274  1.00  0.00     0.125 C 
HETATM    4  N3  UNL     1     -45.737 -32.066  -0.839  1.00  0.00    -0.293 N 
ATOM      5  H3  UNL     1     -46.582 -32.504  -1.207  1.00  0.00     0.172 HD
HETATM    6  C6  UNL     1     -44.604 -32.311  -1.536  1.00  0.00     0.328 C 
HETATM    7  O2  UNL     1     -44.784 -32.767  -2.691  1.00  0.00    -0.247 OA
HETATM    8  N4  UNL     1     -43.323 -32.135  -1.167  1.00  0.00    -0.273 N 
ATOM      9  H4  UNL     1     -42.633 -32.235  -1.911  1.00  0.00     0.173 HD
HETATM   10  C7  UNL     1     -42.836 -31.848   0.035  1.00  0.00     0.278 C 
HETATM   11  O3  UNL     1     -41.614 -32.057   0.284  1.00  0.00    -0.265 OA
HETATM   12  C8  UNL     1     -43.516 -31.319   1.125  1.00  0.00     0.134 A 
HETATM   13  N5  UNL     1     -42.956 -30.940   2.276  1.00  0.00    -0.291 N 
ATOM     14  H5  UNL     1     -41.962 -30.988   2.503  1.00  0.00     0.187 HD
HETATM   15  N6  UNL     1     -43.929 -30.485   3.082  1.00  0.00    -0.276 N 
ENDROOT
BRANCH  15  16
HETATM   16  C9  UNL     1     -43.657 -30.012   4.414  1.00  0.00     0.152 C 
BRANCH  16  17
HETATM   17  C10 UNL     1     -42.861 -30.971   5.250  1.00  0.00     0.049 C 
BRANCH  17  18
HETATM   18  C11 UNL     1     -43.371 -32.369   5.289  1.00  0.00     0.231 C 
BRANCH  18  19
HETATM   19  N7  UNL     1     -42.559 -33.074   6.300  1.00  0.00    -0.079 N 
ATOM     20  H73 UNL     1     -41.784 -33.603   5.900  1.00  0.00     0.274 HD
ATOM     21  H72 UNL     1     -41.998 -32.449   6.879  1.00  0.00     0.274 HD
ATOM     22  H71 UNL     1     -43.209 -33.649   6.836  1.00  0.00     0.274 HD
ENDBRANCH  18  19
ENDBRANCH  17  18
ENDBRANCH  16  17
ENDBRANCH  15  16
BRANCH   1  23
HETATM   23  N1  UNL     1     -46.252 -30.206   2.931  1.00  0.00    -0.383 N 
ATOM     24  H12 UNL     1     -47.148 -30.238   2.445  1.00  0.00     0.157 HD
ATOM     25  H11 UNL     1     -46.433 -29.844   3.867  1.00  0.00     0.157 HD
ENDBRANCH   1  23
BRANCH   3  26
HETATM   26  N2  UNL     1     -46.958 -30.802   0.546  1.00  0.00    -0.353 N 
HETATM   27  C4  UNL     1     -48.300 -30.793   0.577  1.00  0.00     0.088 C 
ATOM     28  H2  UNL     1     -46.693 -29.912   0.968  1.00  0.00     0.166 HD
BRANCH  27  29
HETATM   29  C5  UNL     1     -49.081 -31.996   0.116  1.00  0.00     0.208 C 
BRANCH  29  30
HETATM   30  O1  UNL     1     -50.361 -31.546  -0.277  1.00  0.00    -0.396 OA
ATOM     31  H1  UNL     1     -50.905 -32.313  -0.410  1.00  0.00     0.209 HD
ENDBRANCH  29  30
ENDBRANCH  27  29
ENDBRANCH   3  26
TORSDOF 8
ENDMDL
MODEL 2
REMARK VINA RESULT: -7.771776226      1.080      1.097
REMARK  8 active torsions:
REMARK  status: ('A' for Active; 'I' for Inactive)
REMARK    1  A    between atoms: N1_1  and  C1_4 
REMARK    2  A    between atoms: C3_6  and  N2_7 
REMARK    3  A    between atoms: C4_9  and  C5_10 
REMARK    4  A    between atoms: C5_10  and  O1_11 
REMARK    5  A    between atoms: N6_24  and  C9_25 
REMARK    6  A    between atoms: C9_25  and  C10_26 
REMARK    7  A    between atoms: C10_26  and  C11_27 
REMARK    8  A    between atoms: C11_27  and  N7_28 
ROOT
HETATM    1  C1  UNL     1     -45.423 -30.478   2.185  1.00  0.00     0.132 A 
HETATM    2  C2  UNL     1     -45.111 -31.067   0.971  1.00  0.00     0.087 A 
HETATM    3  C3  UNL     1     -46.095 -31.404   0.026  1.00  0.00     0.125 C 
HETATM    4  N3  UNL     1     -45.848 -32.197  -1.036  1.00  0.00    -0.293 N 
ATOM      5  H3  UNL     1     -46.655 -32.703  -1.404  1.00  0.00     0.172 HD
HETATM    6  C6  UNL     1     -44.680 -32.416  -1.682  1.00  0.00     0.328 C 
HETATM    7  O2  UNL     1     -44.795 -32.947  -2.813  1.00  0.00    -0.247 OA
HETATM    8  N4  UNL     1     -43.425 -32.146  -1.284  1.00  0.00    -0.273 N 
ATOM      9  H4  UNL     1     -42.704 -32.249  -1.999  1.00  0.00     0.173 HD
HETATM   10  C7  UNL     1     -42.996 -31.764  -0.087  1.00  0.00     0.278 C 
HETATM   11  O3  UNL     1     -41.773 -31.888   0.213  1.00  0.00    -0.265 OA
HETATM   12  C8  UNL     1     -43.741 -31.214   0.949  1.00  0.00     0.134 A 
HETATM   13  N5  UNL     1     -43.243 -30.739   2.093  1.00  0.00    -0.291 N 
ATOM     14  H5  UNL     1     -42.257 -30.716   2.353  1.00  0.00     0.187 HD
HETATM   15  N6  UNL     1     -44.267 -30.294   2.840  1.00  0.00    -0.276 N 
ENDROOT
BRANCH  15  16
HETATM   16  C9  UNL     1     -44.068 -29.732   4.149  1.00  0.00     0.152 C 
BRANCH  16  17
HETATM   17  C10 UNL     1     -43.854 -30.756   5.226  1.00  0.00     0.049 C 
BRANCH  17  18
HETATM   18  C11 UNL     1     -42.438 -31.132   5.485  1.00  0.00     0.231 C 
BRANCH  18  19
HETATM   19  N7  UNL     1     -41.622 -29.969   5.083  1.00  0.00    -0.079 N 
ATOM     20  H73 UNL     1     -40.796 -29.833   5.666  1.00  0.00     0.274 HD
ATOM     21  H72 UNL     1     -41.131 -30.105   4.200  1.00  0.00     0.274 HD
ATOM     22  H71 UNL     1     -42.253 -29.168   5.078  1.00  0.00     0.274 HD
ENDBRANCH  18  19
ENDBRANCH  17  18
ENDBRANCH  16  17
ENDBRANCH  15  16
BRANCH   1  23
HETATM   23  N1  UNL     1     -46.595 -30.159   2.600  1.00  0.00    -0.383 N 
ATOM     24  H12 UNL     1     -47.483 -30.516   2.247  1.00  0.00     0.157 HD
ATOM     25  H11 UNL     1     -46.816 -29.506   3.353  1.00  0.00     0.157 HD
ENDBRANCH   1  23
BRANCH   3  26
HETATM   26  N2  UNL     1     -47.185 -30.929   0.234  1.00  0.00    -0.353 N 
HETATM   27  C4  UNL     1     -48.517 -31.035   0.361  1.00  0.00     0.088 C 
ATOM     28  H2  UNL     1     -46.998 -29.939   0.395  1.00  0.00     0.166 HD
BRANCH  27  29
HETATM   29  C5  UNL     1     -49.184 -32.383   0.280  1.00  0.00     0.208 C 
BRANCH  29  30
HETATM   30  O1  UNL     1     -48.871 -33.084   1.466  1.00  0.00    -0.396 OA
ATOM     31  H1  UNL     1     -49.460 -33.827   1.522  1.00  0.00     0.209 HD
ENDBRANCH  29  30
ENDBRANCH  27  29
ENDBRANCH   3  26
TORSDOF 8
ENDMDL
MODEL 3
REMARK VINA RESULT: -7.296025675      2.648      6.469
REMARK  8 active torsions:
REMARK  status: ('A' for Active; 'I' for Inactive)
REMARK    1  A    between atoms: N1_1  and  C1_4 
REMARK    2  A    between atoms: C3_6  and  N2_7 
REMARK    3  A    between atoms: C4_9  and  C5_10 
REMARK    4  A    between atoms: C5_10  and  O1_11 
REMARK    5  A    between atoms: N6_24  and  C9_25 
REMARK    6  A    between atoms: C9_25  and  C10_26 
REMARK    7  A    between atoms: C10_26  and  C11_27 
REMARK    8  A    between atoms: C11_27  and  N7_28 
ROOT
HETATM    1  C1  UNL     1     -45.544 -32.412  -1.212  1.00  0.00     0.132 A 
HETATM    2  C2  UNL     1     -46.281 -31.579  -0.385  1.00  0.00     0.087 A 
HETATM    3  C3  UNL     1     -45.678 -30.596   0.418  1.00  0.00     0.125 C 
HETATM    4  N3  UNL     1     -46.334 -29.955   1.406  1.00  0.00    -0.293 N 
ATOM      5  H3  UNL     1     -45.749 -29.596   2.161  1.00  0.00     0.172 HD
HETATM    6  C6  UNL     1     -47.660 -29.722   1.535  1.00  0.00     0.328 C 
HETATM    7  O2  UNL     1     -47.959 -28.843   2.379  1.00  0.00    -0.247 OA
HETATM    8  N4  UNL     1     -48.691 -30.295   0.892  1.00  0.00    -0.273 N 
ATOM      9  H4  UNL     1     -49.599 -29.852   1.032  1.00  0.00     0.173 HD
HETATM   10  C7  UNL     1     -48.688 -31.360   0.098  1.00  0.00     0.278 C 
HETATM   11  O3  UNL     1     -49.770 -31.968  -0.143  1.00  0.00    -0.265 OA
HETATM   12  C8  UNL     1     -47.601 -31.938  -0.546  1.00  0.00     0.134 A 
HETATM   13  N5  UNL     1     -47.667 -32.939  -1.426  1.00  0.00    -0.291 N 
ATOM     14  H5  UNL     1     -48.518 -33.406  -1.741  1.00  0.00     0.187 HD
HETATM   15  N6  UNL     1     -46.417 -33.224  -1.827  1.00  0.00    -0.276 N 
ENDROOT
BRANCH  15  16
HETATM   16  C9  UNL     1     -46.139 -34.275  -2.770  1.00  0.00     0.152 C 
BRANCH  16  17
HETATM   17  C10 UNL     1     -47.211 -35.322  -2.849  1.00  0.00     0.049 C 
BRANCH  17  18
HETATM   18  C11 UNL     1     -46.951 -36.570  -2.080  1.00  0.00     0.231 C 
BRANCH  18  19
HETATM   19  N7  UNL     1     -45.507 -36.844  -2.217  1.00  0.00    -0.079 N 
ATOM     20  H73 UNL     1     -44.936 -36.000  -2.261  1.00  0.00     0.274 HD
ATOM     21  H72 UNL     1     -45.087 -37.236  -1.374  1.00  0.00     0.274 HD
ATOM     22  H71 UNL     1     -45.408 -37.445  -3.036  1.00  0.00     0.274 HD
ENDBRANCH  18  19
ENDBRANCH  17  18
ENDBRANCH  16  17
ENDBRANCH  15  16
BRANCH   1  23
HETATM   23  N1  UNL     1     -44.270 -32.400  -1.369  1.00  0.00    -0.383 N 
ATOM     24  H12 UNL     1     -43.661 -31.583  -1.330  1.00  0.00     0.157 HD
ATOM     25  H11 UNL     1     -43.673 -33.208  -1.547  1.00  0.00     0.157 HD
ENDBRANCH   1  23
BRANCH   3  26
HETATM   26  N2  UNL     1     -44.522 -30.363   0.157  1.00  0.00    -0.353 N 
HETATM   27  C4  UNL     1     -43.207 -30.491   0.393  1.00  0.00     0.088 C 
ATOM     28  H2  UNL     1     -44.570 -29.759  -0.665  1.00  0.00     0.166 HD
BRANCH  27  29
HETATM   29  C5  UNL     1     -42.717 -31.397   1.492  1.00  0.00     0.208 C 
BRANCH  29  30
HETATM   30  O1  UNL     1     -41.951 -32.420   0.889  1.00  0.00    -0.396 OA
ATOM     31  H1  UNL     1     -42.533 -33.152   0.724  1.00  0.00     0.209 HD
ENDBRANCH  29  30
ENDBRANCH  27  29
ENDBRANCH   3  26
TORSDOF 8
ENDMDL
MODEL 4
REMARK VINA RESULT: -7.283782235      1.837      5.672
REMARK  8 active torsions:
REMARK  status: ('A' for Active; 'I' for Inactive)
REMARK    1  A    between atoms: N1_1  and  C1_4 
REMARK    2  A    between atoms: C3_6  and  N2_7 
REMARK    3  A    between atoms: C4_9  and  C5_10 
REMARK    4  A    between atoms: C5_10  and  O1_11 
REMARK    5  A    between atoms: N6_24  and  C9_25 
REMARK    6  A    between atoms: C9_25  and  C10_26 
REMARK    7  A    between atoms: C10_26  and  C11_27 
REMARK    8  A    between atoms: C11_27  and  N7_28 
ROOT
HETATM    1  C1  UNL     1     -46.961 -30.406   1.578  1.00  0.00     0.132 A 
HETATM    2  C2  UNL     1     -45.723 -30.798   1.095  1.00  0.00     0.087 A 
HETATM    3  C3  UNL     1     -44.528 -30.515   1.778  1.00  0.00     0.125 C 
HETATM    4  N3  UNL     1     -43.312 -30.658   1.214  1.00  0.00    -0.293 N 
ATOM      5  H3  UNL     1     -42.575 -30.067   1.601  1.00  0.00     0.172 HD
HETATM    6  C6  UNL     1     -42.932 -31.475   0.205  1.00  0.00     0.328 C 
HETATM    7  O2  UNL     1     -41.692 -31.630   0.092  1.00  0.00    -0.247 OA
HETATM    8  N4  UNL     1     -43.691 -32.137  -0.685  1.00  0.00    -0.273 N 
ATOM      9  H4  UNL     1     -43.201 -32.823  -1.258  1.00  0.00     0.173 HD
HETATM   10  C7  UNL     1     -44.993 -32.019  -0.918  1.00  0.00     0.278 C 
HETATM   11  O3  UNL     1     -45.480 -32.450  -2.003  1.00  0.00    -0.265 OA
HETATM   12  C8  UNL     1     -45.958 -31.456  -0.092  1.00  0.00     0.134 A 
HETATM   13  N5  UNL     1     -47.273 -31.466  -0.321  1.00  0.00    -0.291 N 
ATOM     14  H5  UNL     1     -47.738 -31.885  -1.127  1.00  0.00     0.187 HD
HETATM   15  N6  UNL     1     -47.877 -30.826   0.694  1.00  0.00    -0.276 N 
ENDROOT
BRANCH  15  16
HETATM   16  C9  UNL     1     -49.305 -30.647   0.741  1.00  0.00     0.152 C 
BRANCH  16  17
HETATM   17  C10 UNL     1     -50.085 -31.867   0.346  1.00  0.00     0.049 C 
BRANCH  17  18
HETATM   18  C11 UNL     1     -51.563 -31.695   0.288  1.00  0.00     0.231 C 
BRANCH  18  19
HETATM   19  N7  UNL     1     -51.800 -30.296  -0.116  1.00  0.00    -0.079 N 
ATOM     20  H73 UNL     1     -51.755 -30.153  -1.125  1.00  0.00     0.274 HD
ATOM     21  H72 UNL     1     -52.767 -29.996   0.010  1.00  0.00     0.274 HD
ATOM     22  H71 UNL     1     -51.128 -29.732   0.405  1.00  0.00     0.274 HD
ENDBRANCH  18  19
ENDBRANCH  17  18
ENDBRANCH  16  17
ENDBRANCH  15  16
BRANCH   1  23
HETATM   23  N1  UNL     1     -47.189 -29.771   2.671  1.00  0.00    -0.383 N 
ATOM     24  H12 UNL     1     -46.533 -29.631   3.439  1.00  0.00     0.157 HD
ATOM     25  H11 UNL     1     -48.057 -29.303   2.931  1.00  0.00     0.157 HD
ENDBRANCH   1  23
BRANCH   3  26
HETATM   26  N2  UNL     1     -44.668 -30.135   2.915  1.00  0.00    -0.353 N 
HETATM   27  C4  UNL     1     -44.302 -30.104   4.206  1.00  0.00     0.088 C 
ATOM     28  H2  UNL     1     -45.484 -29.523   2.873  1.00  0.00     0.166 HD
BRANCH  27  29
HETATM   29  C5  UNL     1     -43.060 -30.824   4.662  1.00  0.00     0.208 C 
BRANCH  29  30
HETATM   30  O1  UNL     1     -42.025 -29.868   4.757  1.00  0.00    -0.396 OA
ATOM     31  H1  UNL     1     -42.155 -29.236   4.060  1.00  0.00     0.209 HD
ENDBRANCH  29  30
ENDBRANCH  27  29
ENDBRANCH   3  26
TORSDOF 8
ENDMDL
MODEL 5
REMARK VINA RESULT: -7.260165777      1.223      1.720
REMARK  8 active torsions:
REMARK  status: ('A' for Active; 'I' for Inactive)
REMARK    1  A    between atoms: N1_1  and  C1_4 
REMARK    2  A    between atoms: C3_6  and  N2_7 
REMARK    3  A    between atoms: C4_9  and  C5_10 
REMARK    4  A    between atoms: C5_10  and  O1_11 
REMARK    5  A    between atoms: N6_24  and  C9_25 
REMARK    6  A    between atoms: C9_25  and  C10_26 
REMARK    7  A    between atoms: C10_26  and  C11_27 
REMARK    8  A    between atoms: C11_27  and  N7_28 
ROOT
HETATM    1  C1  UNL     1     -45.032 -31.846   2.951  1.00  0.00     0.132 A 
HETATM    2  C2  UNL     1     -44.988 -31.946   1.570  1.00  0.00     0.087 A 
HETATM    3  C3  UNL     1     -46.144 -32.143   0.795  1.00  0.00     0.125 C 
HETATM    4  N3  UNL     1     -46.101 -32.494  -0.506  1.00  0.00    -0.293 N 
ATOM      5  H3  UNL     1     -46.918 -32.998  -0.852  1.00  0.00     0.172 HD
HETATM    6  C6  UNL     1     -45.126 -32.270  -1.416  1.00  0.00     0.328 C 
HETATM    7  O2  UNL     1     -45.477 -32.423  -2.611  1.00  0.00    -0.247 OA
HETATM    8  N4  UNL     1     -43.847 -31.909  -1.221  1.00  0.00    -0.273 N 
ATOM      9  H4  UNL     1     -43.332 -31.639  -2.059  1.00  0.00     0.173 HD
HETATM   10  C7  UNL     1     -43.162 -31.856  -0.084  1.00  0.00     0.278 C 
HETATM   11  O3  UNL     1     -41.897 -31.836  -0.111  1.00  0.00    -0.265 OA
HETATM   12  C8  UNL     1     -43.664 -31.817   1.211  1.00  0.00     0.134 A 
HETATM   13  N5  UNL     1     -42.937 -31.647   2.318  1.00  0.00    -0.291 N 
ATOM     14  H5  UNL     1     -41.925 -31.523   2.357  1.00  0.00     0.187 HD
HETATM   15  N6  UNL     1     -43.770 -31.666   3.371  1.00  0.00    -0.276 N 
ENDROOT
BRANCH  15  16
HETATM   16  C9  UNL     1     -43.296 -31.525   4.722  1.00  0.00     0.152 C 
BRANCH  16  17
HETATM   17  C10 UNL     1     -42.803 -30.147   5.053  1.00  0.00     0.049 C 
BRANCH  17  18
HETATM   18  C11 UNL     1     -43.775 -29.042   4.826  1.00  0.00     0.231 C 
BRANCH  18  19
HETATM   19  N7  UNL     1     -43.027 -27.970   4.141  1.00  0.00    -0.079 N 
ATOM     20  H73 UNL     1     -43.549 -27.535   3.380  1.00  0.00     0.274 HD
ATOM     21  H72 UNL     1     -42.911 -27.130   4.708  1.00  0.00     0.274 HD
ATOM     22  H71 UNL     1     -42.144 -28.384   3.843  1.00  0.00     0.274 HD
ENDBRANCH  18  19
ENDBRANCH  17  18
ENDBRANCH  16  17
ENDBRANCH  15  16
BRANCH   1  23
HETATM   23  N1  UNL     1     -46.081 -31.904   3.688  1.00  0.00    -0.383 N 
ATOM     24  H12 UNL     1     -46.418 -31.180   4.323  1.00  0.00     0.157 HD
ATOM     25  H11 UNL     1     -46.742 -32.679   3.744  1.00  0.00     0.157 HD
ENDBRANCH   1  23
BRANCH   3  26
HETATM   26  N2  UNL     1     -47.185 -31.974   1.382  1.00  0.00    -0.353 N 
HETATM   27  C4  UNL     1     -48.514 -31.787   1.402  1.00  0.00     0.088 C 
ATOM     28  H2  UNL     1     -46.919 -31.973   2.367  1.00  0.00     0.166 HD
BRANCH  27  29
HETATM   29  C5  UNL     1     -49.307 -31.818   0.122  1.00  0.00     0.208 C 
BRANCH  29  30
HETATM   30  O1  UNL     1     -50.103 -30.651   0.087  1.00  0.00    -0.396 OA
ATOM     31  H1  UNL     1     -49.569 -29.932   0.403  1.00  0.00     0.209 HD
ENDBRANCH  29  30
ENDBRANCH  27  29
ENDBRANCH   3  26
TORSDOF 8
ENDMDL
