MODEL 1
REMARK VINA RESULT: -6.557416295      0.000      0.000
REMARK  5 active torsions:
REMARK  status: ('A' for Active; 'I' for Inactive)
REMARK    1  A    between atoms: O1_2  and  C2_3 
REMARK    2  A    between atoms: C3_4  and  N1_5 
REMARK    3  A    between atoms: C8_13  and  N4_14 
REMARK    4  A    between atoms: N4_14  and  N5_16 
REMARK       I    between atoms: N5_16  and  C9_18 
REMARK    5  A    between atoms: C10_23  and  O2_24 
ROOT
HETATM    1  N1  UNL     1     -45.880 -32.018  -2.021  1.00  0.00    -0.319 N 
ATOM      2  H1  UNL     1     -46.086 -31.327  -2.742  1.00  0.00     0.172 HD
HETATM    3  C4  UNL     1     -45.722 -33.351  -2.416  1.00  0.00     0.177 C 
HETATM    4  N2  UNL     1     -45.580 -34.446  -2.762  1.00  0.00    -0.172 NA
ENDROOT
BRANCH   1   5
HETATM    5  C3  UNL     1     -45.770 -31.561  -0.659  1.00  0.00     0.157 C 
HETATM    6  C2  UNL     1     -46.841 -32.203   0.226  1.00  0.00     0.179 C 
HETATM    7  C10 UNL     1     -46.781 -31.391   1.531  1.00  0.00     0.206 C 
HETATM    8  C8  UNL     1     -45.462 -31.766   2.179  1.00  0.00     0.368 C 
HETATM    9  N3  UNL     1     -44.404 -31.311   1.303  1.00  0.00     0.117 N 
HETATM   10  C5  UNL     1     -44.472 -31.908  -0.015  1.00  0.00     0.247 C 
HETATM   11  C7  UNL     1     -44.235 -29.893   1.287  1.00  0.00     0.313 C 
HETATM   12  C6  UNL     1     -43.244 -31.607  -0.792  1.00  0.00     0.045 C 
BRANCH   6  13
HETATM   13  O1  UNL     1     -48.091 -32.200  -0.321  1.00  0.00    -0.386 OA
HETATM   14  C1  UNL     1     -49.057 -32.842   0.435  1.00  0.00     0.202 C 
ENDBRANCH   6  13
BRANCH   7  15
HETATM   15  O2  UNL     1     -46.925 -30.052   1.283  1.00  0.00    -0.384 OA
HETATM   16  C11 UNL     1     -47.971 -29.547   2.045  1.00  0.00     0.202 C 
ENDBRANCH   7  15
BRANCH   8  17
HETATM   17  N4  UNL     1     -45.266 -31.196   3.471  1.00  0.00    -0.299 N 
ATOM     18  H4  UNL     1     -46.012 -30.696   3.955  1.00  0.00     0.182 HD
BRANCH  17  19
HETATM   19  N5  UNL     1     -44.029 -31.354   4.027  1.00  0.00    -0.276 N 
HETATM   20  C9  UNL     1     -43.338 -30.231   4.564  1.00  0.00     0.200 C 
HETATM   21  N6  UNL     1     -42.082 -30.299   4.859  1.00  0.00    -0.372 N 
HETATM   22  N7  UNL     1     -44.008 -29.007   4.789  1.00  0.00    -0.062 NA
ATOM     23  H62 UNL     1     -41.599 -31.182   4.697  1.00  0.00     0.158 HD
ATOM     24  H61 UNL     1     -41.587 -29.494   5.244  1.00  0.00     0.158 HD
ATOM     25  H5  UNL     1     -43.599 -32.278   4.059  1.00  0.00     0.189 HD
ENDBRANCH  17  19
ENDBRANCH   8  17
ENDBRANCH   1   5
TORSDOF 5
ENDMDL
MODEL 2
REMARK VINA RESULT: -6.404694412      1.782      6.034
REMARK  5 active torsions:
REMARK  status: ('A' for Active; 'I' for Inactive)
REMARK    1  A    between atoms: O1_2  and  C2_3 
REMARK    2  A    between atoms: C3_4  and  N1_5 
REMARK    3  A    between atoms: C8_13  and  N4_14 
REMARK    4  A    between atoms: N4_14  and  N5_16 
REMARK       I    between atoms: N5_16  and  C9_18 
REMARK    5  A    between atoms: C10_23  and  O2_24 
ROOT
HETATM    1  N1  UNL     1     -45.275 -30.087   3.998  1.00  0.00    -0.319 N 
ATOM      2  H1  UNL     1     -45.988 -30.352   4.678  1.00  0.00     0.172 HD
HETATM    3  C4  UNL     1     -44.141 -29.414   4.466  1.00  0.00     0.177 C 
HETATM    4  N2  UNL     1     -43.202 -28.871   4.871  1.00  0.00    -0.172 NA
ENDROOT
BRANCH   1   5
HETATM    5  C3  UNL     1     -45.500 -30.428   2.617  1.00  0.00     0.157 C 
HETATM    6  C2  UNL     1     -44.920 -31.806   2.288  1.00  0.00     0.179 C 
HETATM    7  C10 UNL     1     -44.965 -31.871   0.752  1.00  0.00     0.206 C 
HETATM    8  C8  UNL     1     -46.437 -31.971   0.396  1.00  0.00     0.368 C 
HETATM    9  N3  UNL     1     -47.070 -30.742   0.824  1.00  0.00     0.117 N 
HETATM   10  C5  UNL     1     -46.941 -30.512   2.249  1.00  0.00     0.247 C 
HETATM   11  C7  UNL     1     -46.736 -29.609   0.023  1.00  0.00     0.313 C 
HETATM   12  C6  UNL     1     -47.804 -29.384   2.678  1.00  0.00     0.045 C 
BRANCH   6  13
HETATM   13  O1  UNL     1     -43.661 -32.011   2.772  1.00  0.00    -0.386 OA
HETATM   14  C1  UNL     1     -43.582 -32.913   3.820  1.00  0.00     0.202 C 
ENDBRANCH   6  13
BRANCH   7  15
HETATM   15  O2  UNL     1     -44.324 -30.798   0.195  1.00  0.00    -0.384 OA
HETATM   16  C11 UNL     1     -43.053 -31.177  -0.218  1.00  0.00     0.202 C 
ENDBRANCH   7  15
BRANCH   8  17
HETATM   17  N4  UNL     1     -46.687 -32.156  -0.995  1.00  0.00    -0.299 N 
ATOM     18  H4  UNL     1     -46.703 -31.371  -1.647  1.00  0.00     0.182 HD
BRANCH  17  19
HETATM   19  N5  UNL     1     -46.904 -33.439  -1.411  1.00  0.00    -0.276 N 
HETATM   20  C9  UNL     1     -46.143 -33.980  -2.486  1.00  0.00     0.200 C 
HETATM   21  N6  UNL     1     -46.492 -35.081  -3.064  1.00  0.00    -0.372 N 
HETATM   22  N7  UNL     1     -44.980 -33.325  -2.952  1.00  0.00    -0.062 NA
ATOM     23  H62 UNL     1     -47.331 -35.554  -2.726  1.00  0.00     0.158 HD
ATOM     24  H61 UNL     1     -45.947 -35.469  -3.833  1.00  0.00     0.158 HD
ATOM     25  H5  UNL     1     -47.612 -34.010  -0.951  1.00  0.00     0.189 HD
ENDBRANCH  17  19
ENDBRANCH   8  17
ENDBRANCH   1   5
TORSDOF 5
ENDMDL
MODEL 3
REMARK VINA RESULT: -6.383929136      1.734      3.102
REMARK  5 active torsions:
REMARK  status: ('A' for Active; 'I' for Inactive)
REMARK    1  A    between atoms: O1_2  and  C2_3 
REMARK    2  A    between atoms: C3_4  and  N1_5 
REMARK    3  A    between atoms: C8_13  and  N4_14 
REMARK    4  A    between atoms: N4_14  and  N5_16 
REMARK       I    between atoms: N5_16  and  C9_18 
REMARK    5  A    between atoms: C10_23  and  O2_24 
ROOT
HETATM    1  N1  UNL     1     -46.177 -31.795  -1.465  1.00  0.00    -0.319 N 
ATOM      2  H1  UNL     1     -46.754 -31.129  -1.979  1.00  0.00     0.172 HD
HETATM    3  C4  UNL     1     -45.605 -32.854  -2.178  1.00  0.00     0.177 C 
HETATM    4  N2  UNL     1     -45.126 -33.715  -2.785  1.00  0.00    -0.172 NA
ENDROOT
BRANCH   1   5
HETATM    5  C3  UNL     1     -46.004 -31.586  -0.050  1.00  0.00     0.157 C 
HETATM    6  C2  UNL     1     -44.702 -30.836   0.242  1.00  0.00     0.179 C 
HETATM    7  C10 UNL     1     -44.526 -30.975   1.763  1.00  0.00     0.206 C 
HETATM    8  C8  UNL     1     -45.617 -30.117   2.376  1.00  0.00     0.368 C 
HETATM    9  N3  UNL     1     -46.887 -30.702   2.003  1.00  0.00     0.117 N 
HETATM   10  C5  UNL     1     -47.078 -30.760   0.568  1.00  0.00     0.247 C 
HETATM   11  C7  UNL     1     -47.180 -31.927   2.675  1.00  0.00     0.313 C 
HETATM   12  C6  UNL     1     -48.476 -31.133   0.240  1.00  0.00     0.045 C 
BRANCH   6  13
HETATM   13  O1  UNL     1     -43.622 -31.308  -0.444  1.00  0.00    -0.386 OA
HETATM   14  C1  UNL     1     -42.426 -30.675  -0.151  1.00  0.00     0.202 C 
ENDBRANCH   6  13
BRANCH   7  15
HETATM   15  O2  UNL     1     -44.564 -32.289   2.144  1.00  0.00    -0.384 OA
HETATM   16  C11 UNL     1     -43.360 -32.635   2.747  1.00  0.00     0.202 C 
ENDBRANCH   7  15
BRANCH   8  17
HETATM   17  N4  UNL     1     -45.553 -30.023   3.796  1.00  0.00    -0.299 N 
ATOM     18  H4  UNL     1     -46.340 -29.680   4.347  1.00  0.00     0.182 HD
BRANCH  17  19
HETATM   19  N5  UNL     1     -44.384 -30.414   4.383  1.00  0.00    -0.276 N 
HETATM   20  C9  UNL     1     -43.322 -29.482   4.554  1.00  0.00     0.200 C 
HETATM   21  N6  UNL     1     -42.131 -29.875   4.864  1.00  0.00    -0.372 N 
HETATM   22  N7  UNL     1     -43.541 -28.095   4.387  1.00  0.00    -0.062 NA
ATOM     23  H62 UNL     1     -41.973 -30.876   4.985  1.00  0.00     0.158 HD
ATOM     24  H61 UNL     1     -41.370 -29.207   4.987  1.00  0.00     0.158 HD
ATOM     25  H5  UNL     1     -44.271 -31.377   4.700  1.00  0.00     0.189 HD
ENDBRANCH  17  19
ENDBRANCH   8  17
ENDBRANCH   1   5
TORSDOF 5
ENDMDL
MODEL 4
REMARK VINA RESULT: -6.180942669      1.972      3.437
REMARK  5 active torsions:
REMARK  status: ('A' for Active; 'I' for Inactive)
REMARK    1  A    between atoms: O1_2  and  C2_3 
REMARK    2  A    between atoms: C3_4  and  N1_5 
REMARK    3  A    between atoms: C8_13  and  N4_14 
REMARK    4  A    between atoms: N4_14  and  N5_16 
REMARK       I    between atoms: N5_16  and  C9_18 
REMARK    5  A    between atoms: C10_23  and  O2_24 
ROOT
HETATM    1  N1  UNL     1     -48.324 -32.500   0.385  1.00  0.00    -0.319 N 
ATOM      2  H1  UNL     1     -48.428 -33.478   0.113  1.00  0.00     0.172 HD
HETATM    3  C4  UNL     1     -49.439 -31.664   0.260  1.00  0.00     0.177 C 
HETATM    4  N2  UNL     1     -50.374 -30.989   0.164  1.00  0.00    -0.172 NA
ENDROOT
BRANCH   1   5
HETATM    5  C3  UNL     1     -47.040 -32.067   0.872  1.00  0.00     0.157 C 
HETATM    6  C2  UNL     1     -46.505 -30.893   0.049  1.00  0.00     0.179 C 
HETATM    7  C10 UNL     1     -45.036 -30.770   0.489  1.00  0.00     0.206 C 
HETATM    8  C8  UNL     1     -45.084 -30.257   1.916  1.00  0.00     0.368 C 
HETATM    9  N3  UNL     1     -45.722 -31.276   2.721  1.00  0.00     0.117 N 
HETATM   10  C5  UNL     1     -47.069 -31.577   2.279  1.00  0.00     0.247 C 
HETATM   11  C7  UNL     1     -44.914 -32.433   2.939  1.00  0.00     0.313 C 
HETATM   12  C6  UNL     1     -47.765 -32.437   3.268  1.00  0.00     0.045 C 
BRANCH   6  13
HETATM   13  O1  UNL     1     -46.623 -31.059  -1.300  1.00  0.00    -0.386 OA
HETATM   14  C1  UNL     1     -46.414 -32.354  -1.745  1.00  0.00     0.202 C 
ENDBRANCH   6  13
BRANCH   7  15
HETATM   15  O2  UNL     1     -44.377 -31.961   0.341  1.00  0.00    -0.384 OA
HETATM   16  C11 UNL     1     -43.174 -31.749  -0.321  1.00  0.00     0.202 C 
ENDBRANCH   7  15
BRANCH   8  17
HETATM   17  N4  UNL     1     -43.804 -29.967   2.472  1.00  0.00    -0.299 N 
ATOM     18  H4  UNL     1     -42.941 -30.255   2.012  1.00  0.00     0.182 HD
BRANCH  17  19
HETATM   19  N5  UNL     1     -43.793 -29.282   3.654  1.00  0.00    -0.276 N 
HETATM   20  C9  UNL     1     -43.101 -29.810   4.780  1.00  0.00     0.200 C 
HETATM   21  N6  UNL     1     -43.282 -29.325   5.963  1.00  0.00    -0.372 N 
HETATM   22  N7  UNL     1     -42.194 -30.886   4.635  1.00  0.00    -0.062 NA
ATOM     23  H62 UNL     1     -43.936 -28.549   6.067  1.00  0.00     0.158 HD
ATOM     24  H61 UNL     1     -42.786 -29.704   6.770  1.00  0.00     0.158 HD
ATOM     25  H5  UNL     1     -44.280 -28.389   3.729  1.00  0.00     0.189 HD
ENDBRANCH  17  19
ENDBRANCH   8  17
ENDBRANCH   1   5
TORSDOF 5
ENDMDL
MODEL 5
REMARK VINA RESULT: -6.047830855      3.002      4.927
REMARK  5 active torsions:
REMARK  status: ('A' for Active; 'I' for Inactive)
REMARK    1  A    between atoms: O1_2  and  C2_3 
REMARK    2  A    between atoms: C3_4  and  N1_5 
REMARK    3  A    between atoms: C8_13  and  N4_14 
REMARK    4  A    between atoms: N4_14  and  N5_16 
REMARK       I    between atoms: N5_16  and  C9_18 
REMARK    5  A    between atoms: C10_23  and  O2_24 
ROOT
HETATM    1  N1  UNL     1     -50.435 -33.744   2.482  1.00  0.00    -0.319 N 
ATOM      2  H1  UNL     1     -51.044 -33.990   1.701  1.00  0.00     0.172 HD
HETATM    3  C4  UNL     1     -50.689 -34.336   3.724  1.00  0.00     0.177 C 
HETATM    4  N2  UNL     1     -50.904 -34.846   4.741  1.00  0.00    -0.172 NA
ENDROOT
BRANCH   1   5
HETATM    5  C3  UNL     1     -49.368 -32.808   2.236  1.00  0.00     0.157 C 
HETATM    6  C2  UNL     1     -48.293 -33.421   1.337  1.00  0.00     0.179 C 
HETATM    7  C10 UNL     1     -47.118 -32.432   1.435  1.00  0.00     0.206 C 
HETATM    8  C8  UNL     1     -47.578 -31.186   0.701  1.00  0.00     0.368 C 
HETATM    9  N3  UNL     1     -48.701 -30.642   1.434  1.00  0.00     0.117 N 
HETATM   10  C5  UNL     1     -49.809 -31.571   1.532  1.00  0.00     0.247 C 
HETATM   11  C7  UNL     1     -48.344 -30.036   2.676  1.00  0.00     0.313 C 
HETATM   12  C6  UNL     1     -51.015 -30.894   2.069  1.00  0.00     0.045 C 
BRANCH   6  13
HETATM   13  O1  UNL     1     -47.927 -34.686   1.690  1.00  0.00    -0.386 OA
HETATM   14  C1  UNL     1     -48.315 -35.673   0.798  1.00  0.00     0.202 C 
ENDBRANCH   6  13
BRANCH   7  15
HETATM   15  O2  UNL     1     -46.764 -32.218   2.740  1.00  0.00    -0.384 OA
HETATM   16  C11 UNL     1     -45.461 -32.653   2.946  1.00  0.00     0.202 C 
ENDBRANCH   7  15
BRANCH   8  17
HETATM   17  N4  UNL     1     -46.576 -30.180   0.582  1.00  0.00    -0.299 N 
ATOM     18  H4  UNL     1     -46.750 -29.214   0.860  1.00  0.00     0.182 HD
BRANCH  17  19
HETATM   19  N5  UNL     1     -45.371 -30.574   0.075  1.00  0.00    -0.276 N 
HETATM   20  C9  UNL     1     -44.161 -30.127   0.677  1.00  0.00     0.200 C 
HETATM   21  N6  UNL     1     -43.025 -30.269   0.080  1.00  0.00    -0.372 N 
HETATM   22  N7  UNL     1     -44.169 -29.511   1.950  1.00  0.00    -0.062 NA
ATOM     23  H62 UNL     1     -43.019 -30.714  -0.838  1.00  0.00     0.158 HD
ATOM     24  H61 UNL     1     -42.158 -29.949   0.511  1.00  0.00     0.158 HD
ATOM     25  H5  UNL     1     -45.337 -31.192  -0.736  1.00  0.00     0.189 HD
ENDBRANCH  17  19
ENDBRANCH   8  17
ENDBRANCH   1   5
TORSDOF 5
ENDMDL
