MODEL 1
REMARK VINA RESULT: -7.910693178      0.000      0.000
REMARK  6 active torsions:
REMARK  status: ('A' for Active; 'I' for Inactive)
REMARK    1  A    between atoms: C2_2  and  S1_3 
REMARK    2  A    between atoms: S1_3  and  N1_6 
REMARK    3  A    between atoms: N1_6  and  C3_8 
REMARK    4  A    between atoms: C4_9  and  N2_10 
REMARK    5  A    between atoms: N2_10  and  S2_12 
REMARK    6  A    between atoms: C5_18  and  N4_19 
ROOT
HETATM    1  C3  UNL     1     -45.785 -31.112   1.645  1.00  0.00     0.156 A 
HETATM    2  C4  UNL     1     -45.428 -31.598   0.435  1.00  0.00     0.165 A 
HETATM    3  N3  UNL     1     -44.261 -31.149  -0.117  1.00  0.00    -0.174 N 
ATOM      4  H3  UNL     1     -43.980 -31.508  -1.029  1.00  0.00     0.186 HD
HETATM    5  C5  UNL     1     -43.475 -30.259   0.494  1.00  0.00     0.680 A 
HETATM    6  N5  UNL     1     -43.802 -29.755   1.698  1.00  0.00    -0.154 N 
ATOM      7  H5  UNL     1     -43.204 -29.075   2.167  1.00  0.00     0.187 HD
HETATM    8  C6  UNL     1     -44.961 -30.189   2.266  1.00  0.00     0.290 A 
HETATM    9  O6  UNL     1     -45.268 -29.715   3.399  1.00  0.00    -0.265 OA
ENDROOT
BRANCH   1  10
HETATM   10  N1  UNL     1     -46.989 -31.453   2.275  1.00  0.00    -0.276 N 
ATOM     11  H1  UNL     1     -47.006 -32.217   2.951  1.00  0.00     0.179 HD
BRANCH  10  12
HETATM   12  S1  UNL     1     -48.433 -30.600   1.921  1.00  0.00     0.230 S 
HETATM   13  O1  UNL     1     -48.613 -30.448   0.414  1.00  0.00    -0.206 OA
HETATM   14  O2  UNL     1     -48.433 -29.273   2.548  1.00  0.00    -0.206 OA
BRANCH  12  15
HETATM   15  C2  UNL     1     -49.862 -31.502   2.531  1.00  0.00     0.159 C 
HETATM   16  C1  UNL     1     -49.381 -32.820   3.102  1.00  0.00     0.023 C 
ENDBRANCH  12  15
ENDBRANCH  10  12
ENDBRANCH   1  10
BRANCH   2  17
HETATM   17  N2  UNL     1     -46.201 -32.509  -0.284  1.00  0.00    -0.248 N 
ATOM     18  H2  UNL     1     -46.819 -33.088   0.286  1.00  0.00     0.183 HD
BRANCH  17  19
HETATM   19  S2  UNL     1     -46.281 -32.812  -1.946  1.00  0.00     0.210 S 
HETATM   20  O3  UNL     1     -46.964 -34.055  -2.364  1.00  0.00    -0.578 OA
HETATM   21  O4  UNL     1     -47.039 -31.666  -2.610  1.00  0.00    -0.578 OA
HETATM   22  O5  UNL     1     -44.729 -32.853  -2.644  1.00  0.00    -0.578 OA
ENDBRANCH  17  19
ENDBRANCH   2  17
BRANCH   5  23
HETATM   23  N4  UNL     1     -42.363 -29.826  -0.023  1.00  0.00    -0.234 N 
ATOM     24  H42 UNL     1     -42.447 -29.051  -0.681  1.00  0.00     0.174 HD
ATOM     25  H41 UNL     1     -41.453 -30.226   0.207  1.00  0.00     0.174 HD
ENDBRANCH   5  23
TORSDOF 6
ENDMDL
MODEL 2
REMARK VINA RESULT: -7.723341541      0.213      1.029
REMARK  6 active torsions:
REMARK  status: ('A' for Active; 'I' for Inactive)
REMARK    1  A    between atoms: C2_2  and  S1_3 
REMARK    2  A    between atoms: S1_3  and  N1_6 
REMARK    3  A    between atoms: N1_6  and  C3_8 
REMARK    4  A    between atoms: C4_9  and  N2_10 
REMARK    5  A    between atoms: N2_10  and  S2_12 
REMARK    6  A    between atoms: C5_18  and  N4_19 
ROOT
HETATM    1  C3  UNL     1     -45.719 -31.160   1.641  1.00  0.00     0.156 A 
HETATM    2  C4  UNL     1     -45.342 -31.571   0.409  1.00  0.00     0.165 A 
HETATM    3  N3  UNL     1     -44.202 -31.038  -0.123  1.00  0.00    -0.174 N 
ATOM      4  H3  UNL     1     -43.906 -31.340  -1.051  1.00  0.00     0.186 HD
HETATM    5  C5  UNL     1     -43.460 -30.138   0.527  1.00  0.00     0.680 A 
HETATM    6  N5  UNL     1     -43.807 -29.708   1.754  1.00  0.00    -0.154 N 
ATOM      7  H5  UNL     1     -43.243 -29.020   2.253  1.00  0.00     0.187 HD
HETATM    8  C6  UNL     1     -44.941 -30.226   2.302  1.00  0.00     0.290 A 
HETATM    9  O6  UNL     1     -45.267 -29.821   3.456  1.00  0.00    -0.265 OA
ENDROOT
BRANCH   1  10
HETATM   10  N1  UNL     1     -46.902 -31.591   2.256  1.00  0.00    -0.276 N 
ATOM     11  H1  UNL     1     -46.870 -32.355   2.931  1.00  0.00     0.179 HD
BRANCH  10  12
HETATM   12  S1  UNL     1     -48.401 -30.848   1.885  1.00  0.00     0.230 S 
HETATM   13  O1  UNL     1     -48.592 -30.745   0.375  1.00  0.00    -0.206 OA
HETATM   14  O2  UNL     1     -48.492 -29.509   2.479  1.00  0.00    -0.206 OA
BRANCH  12  15
HETATM   15  C2  UNL     1     -49.765 -31.830   2.520  1.00  0.00     0.159 C 
HETATM   16  C1  UNL     1     -49.189 -33.058   3.195  1.00  0.00     0.023 C 
ENDBRANCH  12  15
ENDBRANCH  10  12
ENDBRANCH   1  10
BRANCH   2  17
HETATM   17  N2  UNL     1     -46.071 -32.486  -0.350  1.00  0.00    -0.248 N 
ATOM     18  H2  UNL     1     -46.690 -33.092   0.189  1.00  0.00     0.183 HD
BRANCH  17  19
HETATM   19  S2  UNL     1     -46.095 -32.757  -2.020  1.00  0.00     0.210 S 
HETATM   20  O3  UNL     1     -46.728 -31.713  -2.854  1.00  0.00    -0.578 OA
HETATM   21  O4  UNL     1     -44.656 -32.878  -2.511  1.00  0.00    -0.578 OA
HETATM   22  O5  UNL     1     -46.877 -34.222  -2.399  1.00  0.00    -0.578 OA
ENDBRANCH  17  19
ENDBRANCH   2  17
BRANCH   5  23
HETATM   23  N4  UNL     1     -42.373 -29.625   0.030  1.00  0.00    -0.234 N 
ATOM     24  H42 UNL     1     -41.581 -30.262  -0.064  1.00  0.00     0.174 HD
ATOM     25  H41 UNL     1     -42.300 -28.649  -0.255  1.00  0.00     0.174 HD
ENDBRANCH   5  23
TORSDOF 6
ENDMDL
MODEL 3
REMARK VINA RESULT: -7.718517196      2.886      4.622
REMARK  6 active torsions:
REMARK  status: ('A' for Active; 'I' for Inactive)
REMARK    1  A    between atoms: C2_2  and  S1_3 
REMARK    2  A    between atoms: S1_3  and  N1_6 
REMARK    3  A    between atoms: N1_6  and  C3_8 
REMARK    4  A    between atoms: C4_9  and  N2_10 
REMARK    5  A    between atoms: N2_10  and  S2_12 
REMARK    6  A    between atoms: C5_18  and  N4_19 
ROOT
HETATM    1  C3  UNL     1     -44.013 -30.828   1.016  1.00  0.00     0.156 A 
HETATM    2  C4  UNL     1     -45.301 -30.621   0.663  1.00  0.00     0.165 A 
HETATM    3  N3  UNL     1     -45.762 -31.236  -0.468  1.00  0.00    -0.174 N 
ATOM      4  H3  UNL     1     -46.733 -31.088  -0.746  1.00  0.00     0.186 HD
HETATM    5  C5  UNL     1     -44.989 -32.021  -1.222  1.00  0.00     0.680 A 
HETATM    6  N5  UNL     1     -43.703 -32.247  -0.898  1.00  0.00    -0.154 N 
ATOM      7  H5  UNL     1     -43.110 -32.847  -1.472  1.00  0.00     0.187 HD
HETATM    8  C6  UNL     1     -43.224 -31.644   0.225  1.00  0.00     0.290 A 
HETATM    9  O6  UNL     1     -42.014 -31.857   0.529  1.00  0.00    -0.265 OA
ENDROOT
BRANCH   1  10
HETATM   10  N1  UNL     1     -43.419 -30.200   2.119  1.00  0.00    -0.276 N 
ATOM     11  H1  UNL     1     -42.612 -29.592   1.979  1.00  0.00     0.179 HD
BRANCH  10  12
HETATM   12  S1  UNL     1     -44.035 -30.442   3.700  1.00  0.00     0.230 S 
HETATM   13  O1  UNL     1     -44.938 -31.671   3.744  1.00  0.00    -0.206 OA
HETATM   14  O2  UNL     1     -44.786 -29.270   4.164  1.00  0.00    -0.206 OA
BRANCH  12  15
HETATM   15  C2  UNL     1     -42.693 -30.736   4.859  1.00  0.00     0.159 C 
HETATM   16  C1  UNL     1     -42.992 -32.016   5.613  1.00  0.00     0.023 C 
ENDBRANCH  12  15
ENDBRANCH  10  12
ENDBRANCH   1  10
BRANCH   2  17
HETATM   17  N2  UNL     1     -46.170 -29.796   1.377  1.00  0.00    -0.248 N 
ATOM     18  H2  UNL     1     -45.758 -28.920   1.700  1.00  0.00     0.183 HD
BRANCH  17  19
HETATM   19  S2  UNL     1     -47.796 -30.009   1.795  1.00  0.00     0.210 S 
HETATM   20  O3  UNL     1     -48.111 -31.148   2.683  1.00  0.00    -0.578 OA
HETATM   21  O4  UNL     1     -48.276 -28.757   2.522  1.00  0.00    -0.578 OA
HETATM   22  O5  UNL     1     -48.772 -30.188   0.411  1.00  0.00    -0.578 OA
ENDBRANCH  17  19
ENDBRANCH   2  17
BRANCH   5  23
HETATM   23  N4  UNL     1     -45.419 -32.611  -2.299  1.00  0.00    -0.234 N 
ATOM     24  H42 UNL     1     -45.651 -31.999  -3.082  1.00  0.00     0.174 HD
ATOM     25  H41 UNL     1     -45.521 -33.623  -2.373  1.00  0.00     0.174 HD
ENDBRANCH   5  23
TORSDOF 6
ENDMDL
MODEL 4
REMARK VINA RESULT: -7.586497129      2.878      4.620
REMARK  6 active torsions:
REMARK  status: ('A' for Active; 'I' for Inactive)
REMARK    1  A    between atoms: C2_2  and  S1_3 
REMARK    2  A    between atoms: S1_3  and  N1_6 
REMARK    3  A    between atoms: N1_6  and  C3_8 
REMARK    4  A    between atoms: C4_9  and  N2_10 
REMARK    5  A    between atoms: N2_10  and  S2_12 
REMARK    6  A    between atoms: C5_18  and  N4_19 
ROOT
HETATM    1  C3  UNL     1     -43.903 -30.930   0.958  1.00  0.00     0.156 A 
HETATM    2  C4  UNL     1     -45.181 -30.726   0.570  1.00  0.00     0.165 A 
HETATM    3  N3  UNL     1     -45.606 -31.329  -0.581  1.00  0.00    -0.174 N 
ATOM      4  H3  UNL     1     -46.569 -31.183  -0.884  1.00  0.00     0.186 HD
HETATM    5  C5  UNL     1     -44.808 -32.101  -1.322  1.00  0.00     0.680 A 
HETATM    6  N5  UNL     1     -43.530 -32.325  -0.964  1.00  0.00    -0.154 N 
ATOM      7  H5  UNL     1     -42.918 -32.914  -1.528  1.00  0.00     0.187 HD
HETATM    8  C6  UNL     1     -43.087 -31.733   0.180  1.00  0.00     0.290 A 
HETATM    9  O6  UNL     1     -41.884 -31.944   0.515  1.00  0.00    -0.265 OA
ENDROOT
BRANCH   1  10
HETATM   10  N1  UNL     1     -43.343 -30.313   2.084  1.00  0.00    -0.276 N 
ATOM     11  H1  UNL     1     -42.530 -29.706   1.976  1.00  0.00     0.179 HD
BRANCH  10  12
HETATM   12  S1  UNL     1     -44.011 -30.567   3.642  1.00  0.00     0.230 S 
HETATM   13  O1  UNL     1     -44.881 -31.820   3.658  1.00  0.00    -0.206 OA
HETATM   14  O2  UNL     1     -44.813 -29.414   4.071  1.00  0.00    -0.206 OA
BRANCH  12  15
HETATM   15  C2  UNL     1     -42.708 -30.817   4.853  1.00  0.00     0.159 C 
HETATM   16  C1  UNL     1     -43.004 -32.096   5.609  1.00  0.00     0.023 C 
ENDBRANCH  12  15
ENDBRANCH  10  12
ENDBRANCH   1  10
BRANCH   2  17
HETATM   17  N2  UNL     1     -46.074 -29.914   1.269  1.00  0.00    -0.248 N 
ATOM     18  H2  UNL     1     -45.648 -29.112   1.734  1.00  0.00     0.183 HD
BRANCH  17  19
HETATM   19  S2  UNL     1     -47.749 -30.042   1.472  1.00  0.00     0.210 S 
HETATM   20  O3  UNL     1     -48.573 -30.012   0.245  1.00  0.00    -0.578 OA
HETATM   21  O4  UNL     1     -48.052 -31.371   2.156  1.00  0.00    -0.578 OA
HETATM   22  O5  UNL     1     -48.345 -28.811   2.487  1.00  0.00    -0.578 OA
ENDBRANCH  17  19
ENDBRANCH   2  17
BRANCH   5  23
HETATM   23  N4  UNL     1     -45.203 -32.680  -2.418  1.00  0.00    -0.234 N 
ATOM     24  H42 UNL     1     -44.665 -33.495  -2.712  1.00  0.00     0.174 HD
ATOM     25  H41 UNL     1     -46.001 -32.351  -2.962  1.00  0.00     0.174 HD
ENDBRANCH   5  23
TORSDOF 6
ENDMDL
MODEL 5
REMARK VINA RESULT: -7.582022671      1.043      1.169
REMARK  6 active torsions:
REMARK  status: ('A' for Active; 'I' for Inactive)
REMARK    1  A    between atoms: C2_2  and  S1_3 
REMARK    2  A    between atoms: S1_3  and  N1_6 
REMARK    3  A    between atoms: N1_6  and  C3_8 
REMARK    4  A    between atoms: C4_9  and  N2_10 
REMARK    5  A    between atoms: N2_10  and  S2_12 
REMARK    6  A    between atoms: C5_18  and  N4_19 
ROOT
HETATM    1  C3  UNL     1     -45.630 -31.170   1.693  1.00  0.00     0.156 A 
HETATM    2  C4  UNL     1     -45.306 -31.627   0.463  1.00  0.00     0.165 A 
HETATM    3  N3  UNL     1     -44.177 -31.131  -0.128  1.00  0.00    -0.174 N 
ATOM      4  H3  UNL     1     -43.921 -31.467  -1.056  1.00  0.00     0.186 HD
HETATM    5  C5  UNL     1     -43.399 -30.222   0.465  1.00  0.00     0.680 A 
HETATM    6  N5  UNL     1     -43.694 -29.747   1.688  1.00  0.00    -0.154 N 
ATOM      7  H5  UNL     1     -43.101 -29.052   2.144  1.00  0.00     0.187 HD
HETATM    8  C6  UNL     1     -44.814 -30.228   2.295  1.00  0.00     0.290 A 
HETATM    9  O6  UNL     1     -45.092 -29.779   3.446  1.00  0.00    -0.265 OA
ENDROOT
BRANCH   1  10
HETATM   10  N1  UNL     1     -46.796 -31.561   2.365  1.00  0.00    -0.276 N 
ATOM     11  H1  UNL     1     -46.774 -32.370   2.986  1.00  0.00     0.179 HD
BRANCH  10  12
HETATM   12  S1  UNL     1     -48.259 -30.693   2.153  1.00  0.00     0.230 S 
HETATM   13  O1  UNL     1     -48.063 -29.217   2.480  1.00  0.00    -0.206 OA
HETATM   14  O2  UNL     1     -49.328 -31.240   2.998  1.00  0.00    -0.206 OA
BRANCH  12  15
HETATM   15  C2  UNL     1     -48.802 -30.783   0.443  1.00  0.00     0.159 C 
HETATM   16  C1  UNL     1     -49.635 -32.038   0.276  1.00  0.00     0.023 C 
ENDBRANCH  12  15
ENDBRANCH  10  12
ENDBRANCH   1  10
BRANCH   2  17
HETATM   17  N2  UNL     1     -46.076 -32.554  -0.238  1.00  0.00    -0.248 N 
ATOM     18  H2  UNL     1     -46.636 -33.174   0.347  1.00  0.00     0.183 HD
BRANCH  17  19
HETATM   19  S2  UNL     1     -46.232 -32.820  -1.902  1.00  0.00     0.210 S 
HETATM   20  O3  UNL     1     -46.945 -34.047  -2.316  1.00  0.00    -0.578 OA
HETATM   21  O4  UNL     1     -47.006 -31.653  -2.507  1.00  0.00    -0.578 OA
HETATM   22  O5  UNL     1     -44.712 -32.860  -2.668  1.00  0.00    -0.578 OA
ENDBRANCH  17  19
ENDBRANCH   2  17
BRANCH   5  23
HETATM   23  N4  UNL     1     -42.323 -29.744  -0.088  1.00  0.00    -0.234 N 
ATOM     24  H42 UNL     1     -41.474 -30.297   0.035  1.00  0.00     0.174 HD
ATOM     25  H41 UNL     1     -42.312 -28.872  -0.617  1.00  0.00     0.174 HD
ENDBRANCH   5  23
TORSDOF 6
ENDMDL
