MODEL 1
REMARK VINA RESULT: -7.696420587      0.000      0.000
REMARK  5 active torsions:
REMARK  status: ('A' for Active; 'I' for Inactive)
REMARK    1  A    between atoms: C3_6  and  N3_7 
REMARK    2  A    between atoms: C6_10  and  N4_11 
REMARK    3  A    between atoms: N4_11  and  C7_13 
REMARK    4  A    between atoms: C16_22  and  C17_23 
REMARK       I    between atoms: C17_23  and  N5_25 
REMARK    5  A    between atoms: N5_25  and  C18_27 
ROOT
HETATM    1  N3  UNL     1     -16.015 -41.145 -11.782  1.00  0.00    -0.378 N 
HETATM    2  C4  UNL     1     -15.647 -42.307 -12.564  1.00  0.00     0.125 C 
HETATM    3  C5  UNL     1     -15.980 -43.539 -11.755  1.00  0.00     0.044 C 
HETATM    4  C6  UNL     1     -15.276 -43.473 -10.416  1.00  0.00     0.080 C 
HETATM    5  C14 UNL     1     -15.817 -42.356  -9.619  1.00  0.00     0.044 C 
HETATM    6  C15 UNL     1     -16.309 -41.190 -10.379  1.00  0.00     0.125 C 
ENDROOT
BRANCH   1   7
HETATM    7  C3  UNL     1     -16.076 -39.898 -12.441  1.00  0.00     0.081 A 
HETATM    8  C2  UNL     1     -17.293 -39.408 -12.927  1.00  0.00     0.139 A 
HETATM    9  N2  UNL     1     -17.021 -38.207 -13.439  1.00  0.00    -0.307 N 
HETATM   10  N1  UNL     1     -15.752 -37.913 -13.315  1.00  0.00    -0.290 N 
ATOM     11  H2  UNL     1     -17.715 -37.596 -13.872  1.00  0.00     0.186 HD
HETATM   12  C1  UNL     1     -15.088 -36.685 -13.761  1.00  0.00     0.178 C 
HETATM   13  C16 UNL     1     -15.121 -38.955 -12.691  1.00  0.00     0.146 A 
BRANCH  13  14
HETATM   14  C17 UNL     1     -13.685 -38.965 -12.387  1.00  0.00     0.272 C 
HETATM   15  O1  UNL     1     -12.935 -39.734 -13.092  1.00  0.00    -0.266 OA
HETATM   16  N5  UNL     1     -13.041 -38.216 -11.393  1.00  0.00    -0.351 N 
ATOM     17  H5  UNL     1     -13.582 -37.591 -10.795  1.00  0.00     0.163 HD
BRANCH  16  18
HETATM   18  C18 UNL     1     -11.587 -38.333 -11.212  1.00  0.00     0.085 A 
HETATM   19  C19 UNL     1     -10.672 -37.444 -11.969  1.00  0.00     0.027 A 
HETATM   20  C20 UNL     1     -10.947 -37.187 -10.504  1.00  0.00     0.027 A 
ENDBRANCH  16  18
ENDBRANCH  13  14
ENDBRANCH   1   7
BRANCH   4  21
HETATM   21  N4  UNL     1     -15.387 -44.765  -9.834  1.00  0.00    -0.413 N 
ATOM     22  H4  UNL     1     -16.137 -45.401 -10.105  1.00  0.00     0.154 HD
BRANCH  21  23
HETATM   23  C7  UNL     1     -14.435 -45.142  -8.873  1.00  0.00     0.077 C 
HETATM   24  C8  UNL     1     -14.276 -46.644  -8.866  1.00  0.00     0.024 C 
HETATM   25  C9  UNL     1     -15.554 -47.293  -8.432  1.00  0.00     0.002 C 
HETATM   26  C10 UNL     1     -15.912 -47.071  -6.991  1.00  0.00     0.000 C 
HETATM   27  C11 UNL     1     -14.728 -46.710  -6.129  1.00  0.00     0.000 C 
HETATM   28  C12 UNL     1     -14.196 -45.334  -6.388  1.00  0.00     0.002 C 
HETATM   29  C13 UNL     1     -14.905 -44.628  -7.511  1.00  0.00     0.024 C 
ENDBRANCH  21  23
ENDBRANCH   4  21
TORSDOF 5
ENDMDL
MODEL 2
REMARK VINA RESULT: -7.472993107      6.607      8.385
REMARK  5 active torsions:
REMARK  status: ('A' for Active; 'I' for Inactive)
REMARK    1  A    between atoms: C3_6  and  N3_7 
REMARK    2  A    between atoms: C6_10  and  N4_11 
REMARK    3  A    between atoms: N4_11  and  C7_13 
REMARK    4  A    between atoms: C16_22  and  C17_23 
REMARK       I    between atoms: C17_23  and  N5_25 
REMARK    5  A    between atoms: N5_25  and  C18_27 
ROOT
HETATM    1  N3  UNL     1     -13.588 -35.391 -11.844  1.00  0.00    -0.378 N 
HETATM    2  C4  UNL     1     -13.629 -36.812 -12.122  1.00  0.00     0.125 C 
HETATM    3  C5  UNL     1     -14.079 -36.994 -13.553  1.00  0.00     0.044 C 
HETATM    4  C6  UNL     1     -15.412 -36.305 -13.759  1.00  0.00     0.080 C 
HETATM    5  C14 UNL     1     -15.252 -34.848 -13.609  1.00  0.00     0.044 C 
HETATM    6  C15 UNL     1     -14.198 -34.398 -12.679  1.00  0.00     0.125 C 
ENDROOT
BRANCH   1   7
HETATM    7  C3  UNL     1     -12.915 -34.967 -10.678  1.00  0.00     0.081 A 
HETATM    8  C2  UNL     1     -13.565 -34.169  -9.731  1.00  0.00     0.139 A 
HETATM    9  N2  UNL     1     -12.687 -33.990  -8.743  1.00  0.00    -0.307 N 
HETATM   10  N1  UNL     1     -11.557 -34.602  -8.994  1.00  0.00    -0.290 N 
ATOM     11  H2  UNL     1     -12.873 -33.447  -7.899  1.00  0.00     0.186 HD
HETATM   12  C1  UNL     1     -10.365 -34.627  -8.143  1.00  0.00     0.178 C 
HETATM   13  C16 UNL     1     -11.660 -35.229 -10.207  1.00  0.00     0.146 A 
BRANCH  13  14
HETATM   14  C17 UNL     1     -10.574 -36.015 -10.804  1.00  0.00     0.272 C 
HETATM   15  O1  UNL     1     -10.408 -37.216 -10.377  1.00  0.00    -0.266 OA
HETATM   16  N5  UNL     1      -9.688 -35.585 -11.800  1.00  0.00    -0.351 N 
ATOM     17  H5  UNL     1      -9.763 -34.640 -12.177  1.00  0.00     0.163 HD
BRANCH  16  18
HETATM   18  C18 UNL     1      -8.649 -36.497 -12.301  1.00  0.00     0.085 A 
HETATM   19  C19 UNL     1      -8.392 -36.597 -13.759  1.00  0.00     0.027 A 
HETATM   20  C20 UNL     1      -7.444 -35.826 -12.868  1.00  0.00     0.027 A 
ENDBRANCH  16  18
ENDBRANCH  13  14
ENDBRANCH   1   7
BRANCH   4  21
HETATM   21  N4  UNL     1     -15.912 -36.753 -15.012  1.00  0.00    -0.413 N 
ATOM     22  H4  UNL     1     -15.450 -36.496 -15.884  1.00  0.00     0.154 HD
BRANCH  21  23
HETATM   23  C7  UNL     1     -17.062 -37.558 -15.016  1.00  0.00     0.077 C 
HETATM   24  C8  UNL     1     -18.131 -36.928 -15.877  1.00  0.00     0.024 C 
HETATM   25  C9  UNL     1     -18.565 -35.623 -15.283  1.00  0.00     0.002 C 
HETATM   26  C10 UNL     1     -19.319 -35.742 -13.991  1.00  0.00     0.000 C 
HETATM   27  C11 UNL     1     -19.953 -37.096 -13.791  1.00  0.00     0.000 C 
HETATM   28  C12 UNL     1     -18.964 -38.185 -13.513  1.00  0.00     0.002 C 
HETATM   29  C13 UNL     1     -17.537 -37.716 -13.570  1.00  0.00     0.024 C 
ENDBRANCH  21  23
ENDBRANCH   4  21
TORSDOF 5
ENDMDL
MODEL 3
REMARK VINA RESULT: -7.352164029      1.445      2.088
REMARK  5 active torsions:
REMARK  status: ('A' for Active; 'I' for Inactive)
REMARK    1  A    between atoms: C3_6  and  N3_7 
REMARK    2  A    between atoms: C6_10  and  N4_11 
REMARK    3  A    between atoms: N4_11  and  C7_13 
REMARK    4  A    between atoms: C16_22  and  C17_23 
REMARK       I    between atoms: C17_23  and  N5_25 
REMARK    5  A    between atoms: N5_25  and  C18_27 
ROOT
HETATM    1  N3  UNL     1     -15.639 -41.652 -11.474  1.00  0.00    -0.378 N 
HETATM    2  C4  UNL     1     -15.949 -41.827 -10.070  1.00  0.00     0.125 C 
HETATM    3  C5  UNL     1     -15.194 -43.038  -9.574  1.00  0.00     0.044 C 
HETATM    4  C6  UNL     1     -15.551 -44.243 -10.420  1.00  0.00     0.080 C 
HETATM    5  C14 UNL     1     -15.065 -44.050 -11.798  1.00  0.00     0.044 C 
HETATM    6  C15 UNL     1     -15.011 -42.656 -12.283  1.00  0.00     0.125 C 
ENDROOT
BRANCH   1   7
HETATM    7  C3  UNL     1     -15.986 -40.424 -12.078  1.00  0.00     0.081 A 
HETATM    8  C2  UNL     1     -17.319 -40.134 -12.388  1.00  0.00     0.139 A 
HETATM    9  N2  UNL     1     -17.314 -38.899 -12.890  1.00  0.00    -0.307 N 
HETATM   10  N1  UNL     1     -16.103 -38.402 -12.919  1.00  0.00    -0.290 N 
ATOM     11  H2  UNL     1     -18.147 -38.404 -13.211  1.00  0.00     0.186 HD
HETATM   12  C1  UNL     1     -15.709 -37.076 -13.404  1.00  0.00     0.178 C 
HETATM   13  C16 UNL     1     -15.236 -39.334 -12.416  1.00  0.00     0.146 A 
BRANCH  13  14
HETATM   14  C17 UNL     1     -13.789 -39.112 -12.298  1.00  0.00     0.272 C 
HETATM   15  O1  UNL     1     -13.029 -39.687 -13.160  1.00  0.00    -0.266 OA
HETATM   16  N5  UNL     1     -13.146 -38.333 -11.328  1.00  0.00    -0.351 N 
ATOM     17  H5  UNL     1     -13.692 -37.855 -10.611  1.00  0.00     0.163 HD
BRANCH  16  18
HETATM   18  C18 UNL     1     -11.681 -38.205 -11.344  1.00  0.00     0.085 A 
HETATM   19  C19 UNL     1     -11.043 -37.089 -12.085  1.00  0.00     0.027 A 
HETATM   20  C20 UNL     1     -11.143 -37.044 -10.577  1.00  0.00     0.027 A 
ENDBRANCH  16  18
ENDBRANCH  13  14
ENDBRANCH   1   7
BRANCH   4  21
HETATM   21  N4  UNL     1     -15.050 -45.384  -9.736  1.00  0.00    -0.413 N 
ATOM     22  H4  UNL     1     -14.927 -45.377  -8.723  1.00  0.00     0.154 HD
BRANCH  21  23
HETATM   23  C7  UNL     1     -14.729 -46.521 -10.493  1.00  0.00     0.077 C 
HETATM   24  C8  UNL     1     -15.821 -47.556 -10.361  1.00  0.00     0.024 C 
HETATM   25  C9  UNL     1     -15.905 -48.035  -8.943  1.00  0.00     0.002 C 
HETATM   26  C10 UNL     1     -14.730 -48.850  -8.488  1.00  0.00     0.000 C 
HETATM   27  C11 UNL     1     -13.958 -49.474  -9.623  1.00  0.00     0.000 C 
HETATM   28  C12 UNL     1     -13.177 -48.485 -10.432  1.00  0.00     0.002 C 
HETATM   29  C13 UNL     1     -13.389 -47.063  -9.992  1.00  0.00     0.024 C 
ENDBRANCH  21  23
ENDBRANCH   4  21
TORSDOF 5
ENDMDL
MODEL 4
REMARK VINA RESULT: -7.118068655      2.006      3.114
REMARK  5 active torsions:
REMARK  status: ('A' for Active; 'I' for Inactive)
REMARK    1  A    between atoms: C3_6  and  N3_7 
REMARK    2  A    between atoms: C6_10  and  N4_11 
REMARK    3  A    between atoms: N4_11  and  C7_13 
REMARK    4  A    between atoms: C16_22  and  C17_23 
REMARK       I    between atoms: C17_23  and  N5_25 
REMARK    5  A    between atoms: N5_25  and  C18_27 
ROOT
HETATM    1  N3  UNL     1     -15.809 -38.923 -12.836  1.00  0.00    -0.378 N 
HETATM    2  C4  UNL     1     -14.403 -39.265 -12.786  1.00  0.00     0.125 C 
HETATM    3  C5  UNL     1     -14.281 -40.654 -12.202  1.00  0.00     0.044 C 
HETATM    4  C6  UNL     1     -14.955 -40.696 -10.847  1.00  0.00     0.080 C 
HETATM    5  C14 UNL     1     -16.407 -40.491 -11.002  1.00  0.00     0.044 C 
HETATM    6  C15 UNL     1     -16.830 -39.645 -12.135  1.00  0.00     0.125 C 
ENDROOT
BRANCH   1   7
HETATM    7  C3  UNL     1     -16.189 -37.807 -13.613  1.00  0.00     0.081 A 
HETATM    8  C2  UNL     1     -17.317 -37.863 -14.438  1.00  0.00     0.139 A 
HETATM    9  N2  UNL     1     -17.428 -36.652 -14.984  1.00  0.00    -0.307 N 
HETATM   10  N1  UNL     1     -16.473 -35.856 -14.575  1.00  0.00    -0.290 N 
ATOM     11  H2  UNL     1     -18.163 -36.380 -15.638  1.00  0.00     0.186 HD
HETATM   12  C1  UNL     1     -16.270 -34.457 -14.961  1.00  0.00     0.178 C 
HETATM   13  C16 UNL     1     -15.669 -36.548 -13.709  1.00  0.00     0.146 A 
BRANCH  13  14
HETATM   14  C17 UNL     1     -14.494 -35.960 -13.053  1.00  0.00     0.272 C 
HETATM   15  O1  UNL     1     -13.375 -36.014 -13.682  1.00  0.00    -0.266 OA
HETATM   16  N5  UNL     1     -14.466 -35.345 -11.795  1.00  0.00    -0.351 N 
ATOM     17  H5  UNL     1     -15.321 -35.276 -11.242  1.00  0.00     0.163 HD
BRANCH  16  18
HETATM   18  C18 UNL     1     -13.205 -34.799 -11.273  1.00  0.00     0.085 A 
HETATM   19  C19 UNL     1     -13.080 -34.470  -9.832  1.00  0.00     0.027 A 
HETATM   20  C20 UNL     1     -12.439 -35.722 -10.387  1.00  0.00     0.027 A 
ENDBRANCH  16  18
ENDBRANCH  13  14
ENDBRANCH   1   7
BRANCH   4  21
HETATM   21  N4  UNL     1     -14.560 -41.916 -10.233  1.00  0.00    -0.413 N 
ATOM     22  H4  UNL     1     -13.642 -42.012  -9.800  1.00  0.00     0.154 HD
BRANCH  21  23
HETATM   23  C7  UNL     1     -15.469 -42.986 -10.241  1.00  0.00     0.077 C 
HETATM   24  C8  UNL     1     -15.874 -43.329  -8.827  1.00  0.00     0.024 C 
HETATM   25  C9  UNL     1     -14.686 -43.825  -8.060  1.00  0.00     0.002 C 
HETATM   26  C10 UNL     1     -14.166 -45.160  -8.504  1.00  0.00     0.000 C 
HETATM   27  C11 UNL     1     -15.189 -45.986  -9.244  1.00  0.00     0.000 C 
HETATM   28  C12 UNL     1     -15.507 -45.461 -10.610  1.00  0.00     0.002 C 
HETATM   29  C13 UNL     1     -14.798 -44.175 -10.930  1.00  0.00     0.024 C 
ENDBRANCH  21  23
ENDBRANCH   4  21
TORSDOF 5
ENDMDL
MODEL 5
REMARK VINA RESULT: -7.098122351      0.705      1.165
REMARK  5 active torsions:
REMARK  status: ('A' for Active; 'I' for Inactive)
REMARK    1  A    between atoms: C3_6  and  N3_7 
REMARK    2  A    between atoms: C6_10  and  N4_11 
REMARK    3  A    between atoms: N4_11  and  C7_13 
REMARK    4  A    between atoms: C16_22  and  C17_23 
REMARK       I    between atoms: C17_23  and  N5_25 
REMARK    5  A    between atoms: N5_25  and  C18_27 
ROOT
HETATM    1  N3  UNL     1     -15.569 -40.847 -11.968  1.00  0.00    -0.378 N 
HETATM    2  C4  UNL     1     -15.293 -40.990 -10.553  1.00  0.00     0.125 C 
HETATM    3  C5  UNL     1     -14.894 -42.425 -10.299  1.00  0.00     0.044 C 
HETATM    4  C6  UNL     1     -15.986 -43.352 -10.793  1.00  0.00     0.080 C 
HETATM    5  C14 UNL     1     -16.098 -43.259 -12.259  1.00  0.00     0.044 C 
HETATM    6  C15 UNL     1     -15.755 -41.954 -12.860  1.00  0.00     0.125 C 
ENDROOT
BRANCH   1   7
HETATM    7  C3  UNL     1     -15.668 -39.540 -12.491  1.00  0.00     0.081 A 
HETATM    8  C2  UNL     1     -16.919 -38.956 -12.718  1.00  0.00     0.139 A 
HETATM    9  N2  UNL     1     -16.670 -37.722 -13.157  1.00  0.00    -0.307 N 
HETATM   10  N1  UNL     1     -15.383 -37.492 -13.223  1.00  0.00    -0.290 N 
ATOM     11  H2  UNL     1     -17.390 -37.044 -13.409  1.00  0.00     0.186 HD
HETATM   12  C1  UNL     1     -14.734 -36.253 -13.661  1.00  0.00     0.178 C 
HETATM   13  C16 UNL     1     -14.716 -38.615 -12.812  1.00  0.00     0.146 A 
BRANCH  13  14
HETATM   14  C17 UNL     1     -13.252 -38.711 -12.757  1.00  0.00     0.272 C 
HETATM   15  O1  UNL     1     -12.672 -39.428 -13.651  1.00  0.00    -0.266 OA
HETATM   16  N5  UNL     1     -12.414 -38.098 -11.817  1.00  0.00    -0.351 N 
ATOM     17  H5  UNL     1     -12.814 -37.519 -11.078  1.00  0.00     0.163 HD
BRANCH  16  18
HETATM   18  C18 UNL     1     -10.959 -38.288 -11.897  1.00  0.00     0.085 A 
HETATM   19  C19 UNL     1     -10.065 -37.113 -12.039  1.00  0.00     0.027 A 
HETATM   20  C20 UNL     1     -10.196 -37.814 -10.706  1.00  0.00     0.027 A 
ENDBRANCH  16  18
ENDBRANCH  13  14
ENDBRANCH   1   7
BRANCH   4  21
HETATM   21  N4  UNL     1     -15.693 -44.641 -10.270  1.00  0.00    -0.413 N 
ATOM     22  H4  UNL     1     -16.235 -45.457 -10.552  1.00  0.00     0.154 HD
BRANCH  21  23
HETATM   23  C7  UNL     1     -14.635 -44.759  -9.355  1.00  0.00     0.077 C 
HETATM   24  C8  UNL     1     -14.152 -46.190  -9.305  1.00  0.00     0.024 C 
HETATM   25  C9  UNL     1     -15.236 -47.078  -8.774  1.00  0.00     0.002 C 
HETATM   26  C10 UNL     1     -15.561 -46.871  -7.324  1.00  0.00     0.000 C 
HETATM   27  C11 UNL     1     -14.442 -46.224  -6.546  1.00  0.00     0.000 C 
HETATM   28  C12 UNL     1     -14.236 -44.779  -6.883  1.00  0.00     0.002 C 
HETATM   29  C13 UNL     1     -15.136 -44.296  -7.986  1.00  0.00     0.024 C 
ENDBRANCH  21  23
ENDBRANCH   4  21
TORSDOF 5
ENDMDL
