MODEL 1
REMARK VINA RESULT: -6.302139839      0.000      0.000
REMARK  8 active torsions:
REMARK  status: ('A' for Active; 'I' for Inactive)
REMARK    1  A    between atoms: O1_2  and  C2_3 
REMARK    2  A    between atoms: C2_3  and  O3_5 
REMARK    3  A    between atoms: O3_5  and  C3_6 
REMARK    4  A    between atoms: C3_6  and  O4_7 
REMARK    5  A    between atoms: C9_21  and  N4_22 
REMARK    6  A    between atoms: C10_26  and  O6_27 
REMARK    7  A    between atoms: C10_26  and  C11_29 
REMARK    8  A    between atoms: C11_29  and  O7_30 
ROOT
HETATM    1  C3  UNL     1      27.556 -21.513 -23.102  1.00  0.00     0.305 C 
HETATM    2  C4  UNL     1      28.811 -21.148 -23.824  1.00  0.00     0.094 C 
HETATM    3  N1  UNL     1      29.084 -21.557 -24.994  1.00  0.00    -0.398 N 
ATOM      4  H11 UNL     1      29.942 -21.308 -25.487  1.00  0.00     0.156 HD
ATOM      5  H12 UNL     1      28.417 -22.161 -25.474  1.00  0.00     0.156 HD
HETATM    6  C5  UNL     1      29.800 -20.253 -23.112  1.00  0.00     0.208 C 
HETATM    7  C6  UNL     1      31.163 -20.694 -23.446  1.00  0.00     0.081 C 
HETATM    8  N2  UNL     1      32.235 -21.057 -23.712  1.00  0.00    -0.196 NA
HETATM    9  S1  UNL     1      29.533 -20.588 -21.334  1.00  0.00    -0.114 SA
HETATM   10  C7  UNL     1      29.029 -22.313 -21.249  1.00  0.00     0.196 C 
HETATM   11  N3  UNL     1      27.842 -22.490 -22.046  1.00  0.00    -0.272 N 
HETATM   12  C8  UNL     1      27.201 -23.656 -21.573  1.00  0.00     0.259 C 
HETATM   13  O5  UNL     1      26.416 -24.371 -22.211  1.00  0.00    -0.271 OA
HETATM   14  C9  UNL     1      27.649 -23.854 -20.173  1.00  0.00     0.314 C 
HETATM   15  C10 UNL     1      28.610 -22.742 -19.870  1.00  0.00     0.145 C 
ENDROOT
BRANCH   1  16
HETATM   16  O3  UNL     1      26.595 -22.038 -23.963  1.00  0.00    -0.234 OA
BRANCH  16  17
HETATM   17  C2  UNL     1      25.744 -21.320 -24.769  1.00  0.00     0.410 C 
HETATM   18  O2  UNL     1      24.930 -21.928 -25.482  1.00  0.00    -0.229 OA
BRANCH  17  19
HETATM   19  O1  UNL     1      25.749 -19.928 -24.825  1.00  0.00    -0.303 OA
HETATM   20  C1  UNL     1      26.280 -19.227 -25.940  1.00  0.00     0.215 C 
ENDBRANCH  17  19
ENDBRANCH  16  17
ENDBRANCH   1  16
BRANCH   1  21
HETATM   21  O4  UNL     1      27.065 -20.334 -22.504  1.00  0.00    -0.343 OA
ATOM     22  H4  UNL     1      27.569 -19.588 -22.807  1.00  0.00     0.215 HD
ENDBRANCH   1  21
BRANCH  15  23
HETATM   23  O6  UNL     1      28.004 -21.670 -19.226  1.00  0.00    -0.382 OA
ATOM     24  H6  UNL     1      27.200 -21.967 -18.817  1.00  0.00     0.210 HD
ENDBRANCH  15  23
BRANCH  15  25
HETATM   25  C11 UNL     1      29.854 -23.220 -19.151  1.00  0.00     0.207 C 
BRANCH  25  26
HETATM   26  O7  UNL     1      29.524 -24.013 -18.058  1.00  0.00    -0.398 OA
ATOM     27  H7  UNL     1      29.579 -23.517 -17.249  1.00  0.00     0.209 HD
ENDBRANCH  25  26
ENDBRANCH  15  25
BRANCH  14  28
HETATM   28  N4  UNL     1      26.484 -23.842 -19.336  1.00  0.00    -0.063 N 
ATOM     29  H43 UNL     1      26.404 -22.991 -18.779  1.00  0.00     0.275 HD
ATOM     30  H42 UNL     1      25.617 -23.738 -19.864  1.00  0.00     0.275 HD
ATOM     31  H41 UNL     1      26.502 -24.689 -18.767  1.00  0.00     0.275 HD
ENDBRANCH  14  28
TORSDOF 8
ENDMDL
MODEL 2
REMARK VINA RESULT: -6.231203114      3.277      5.879
REMARK  8 active torsions:
REMARK  status: ('A' for Active; 'I' for Inactive)
REMARK    1  A    between atoms: O1_2  and  C2_3 
REMARK    2  A    between atoms: C2_3  and  O3_5 
REMARK    3  A    between atoms: O3_5  and  C3_6 
REMARK    4  A    between atoms: C3_6  and  O4_7 
REMARK    5  A    between atoms: C9_21  and  N4_22 
REMARK    6  A    between atoms: C10_26  and  O6_27 
REMARK    7  A    between atoms: C10_26  and  C11_29 
REMARK    8  A    between atoms: C11_29  and  O7_30 
ROOT
HETATM    1  C3  UNL     1      28.492 -22.837 -19.551  1.00  0.00     0.305 C 
HETATM    2  C4  UNL     1      27.337 -22.871 -20.496  1.00  0.00     0.094 C 
HETATM    3  N1  UNL     1      26.593 -23.888 -20.649  1.00  0.00    -0.398 N 
ATOM      4  H11 UNL     1      25.804 -23.912 -21.295  1.00  0.00     0.156 HD
ATOM      5  H12 UNL     1      26.785 -24.727 -20.100  1.00  0.00     0.156 HD
HETATM    6  C5  UNL     1      27.054 -21.629 -21.310  1.00  0.00     0.208 C 
HETATM    7  C6  UNL     1      26.616 -22.033 -22.654  1.00  0.00     0.081 C 
HETATM    8  N2  UNL     1      26.278 -22.367 -23.716  1.00  0.00    -0.196 NA
HETATM    9  S1  UNL     1      28.678 -20.808 -21.484  1.00  0.00    -0.114 SA
HETATM   10  C7  UNL     1      29.883 -22.144 -21.508  1.00  0.00     0.196 C 
HETATM   11  N3  UNL     1      29.756 -22.904 -20.290  1.00  0.00    -0.272 N 
HETATM   12  C8  UNL     1      30.982 -23.580 -20.100  1.00  0.00     0.259 C 
HETATM   13  O5  UNL     1      31.154 -24.616 -19.442  1.00  0.00    -0.271 OA
HETATM   14  C9  UNL     1      32.014 -22.813 -20.839  1.00  0.00     0.314 C 
HETATM   15  C10 UNL     1      31.307 -21.660 -21.489  1.00  0.00     0.145 C 
ENDROOT
BRANCH   1  16
HETATM   16  O3  UNL     1      28.443 -23.883 -18.632  1.00  0.00    -0.234 OA
BRANCH  16  17
HETATM   17  C2  UNL     1      28.369 -23.763 -17.264  1.00  0.00     0.410 C 
HETATM   18  O2  UNL     1      27.268 -23.548 -16.734  1.00  0.00    -0.229 OA
BRANCH  17  19
HETATM   19  O1  UNL     1      29.483 -23.872 -16.434  1.00  0.00    -0.303 OA
HETATM   20  C1  UNL     1      30.091 -25.125 -16.160  1.00  0.00     0.215 C 
ENDBRANCH  17  19
ENDBRANCH  16  17
ENDBRANCH   1  16
BRANCH   1  21
HETATM   21  O4  UNL     1      28.433 -21.603 -18.870  1.00  0.00    -0.343 OA
ATOM     22  H4  UNL     1      28.370 -20.894 -19.499  1.00  0.00     0.215 HD
ENDBRANCH   1  21
BRANCH  15  23
HETATM   23  O6  UNL     1      31.380 -20.493 -20.740  1.00  0.00    -0.382 OA
ATOM     24  H6  UNL     1      30.532 -20.324 -20.346  1.00  0.00     0.210 HD
ENDBRANCH  15  23
BRANCH  15  25
HETATM   25  C11 UNL     1      31.727 -21.450 -22.929  1.00  0.00     0.207 C 
BRANCH  25  26
HETATM   26  O7  UNL     1      32.895 -22.148 -23.214  1.00  0.00    -0.398 OA
ATOM     27  H7  UNL     1      32.708 -22.937 -23.709  1.00  0.00     0.209 HD
ENDBRANCH  25  26
ENDBRANCH  15  25
BRANCH  14  28
HETATM   28  N4  UNL     1      33.015 -22.406 -19.894  1.00  0.00    -0.063 N 
ATOM     29  H43 UNL     1      32.812 -21.502 -19.467  1.00  0.00     0.275 HD
ATOM     30  H42 UNL     1      33.004 -22.963 -19.040  1.00  0.00     0.275 HD
ATOM     31  H41 UNL     1      33.917 -22.426 -20.370  1.00  0.00     0.275 HD
ENDBRANCH  14  28
TORSDOF 8
ENDMDL
MODEL 3
REMARK VINA RESULT: -6.217697714      2.729      4.771
REMARK  8 active torsions:
REMARK  status: ('A' for Active; 'I' for Inactive)
REMARK    1  A    between atoms: O1_2  and  C2_3 
REMARK    2  A    between atoms: C2_3  and  O3_5 
REMARK    3  A    between atoms: O3_5  and  C3_6 
REMARK    4  A    between atoms: C3_6  and  O4_7 
REMARK    5  A    between atoms: C9_21  and  N4_22 
REMARK    6  A    between atoms: C10_26  and  O6_27 
REMARK    7  A    between atoms: C10_26  and  C11_29 
REMARK    8  A    between atoms: C11_29  and  O7_30 
ROOT
HETATM    1  C3  UNL     1      28.694 -22.400 -21.139  1.00  0.00     0.305 C 
HETATM    2  C4  UNL     1      28.758 -22.694 -19.677  1.00  0.00     0.094 C 
HETATM    3  N1  UNL     1      27.992 -22.151 -18.823  1.00  0.00    -0.398 N 
ATOM      4  H11 UNL     1      28.036 -22.352 -17.824  1.00  0.00     0.156 HD
ATOM      5  H12 UNL     1      27.290 -21.483 -19.145  1.00  0.00     0.156 HD
HETATM    6  C5  UNL     1      29.798 -23.684 -19.201  1.00  0.00     0.208 C 
HETATM    7  C6  UNL     1      30.330 -23.227 -17.908  1.00  0.00     0.081 C 
HETATM    8  N2  UNL     1      30.747 -22.851 -16.890  1.00  0.00    -0.196 NA
HETATM    9  S1  UNL     1      31.150 -23.562 -20.426  1.00  0.00    -0.114 SA
HETATM   10  C7  UNL     1      31.127 -21.852 -20.986  1.00  0.00     0.196 C 
HETATM   11  N3  UNL     1      29.829 -21.562 -21.540  1.00  0.00    -0.272 N 
HETATM   12  C8  UNL     1      29.988 -20.452 -22.399  1.00  0.00     0.259 C 
HETATM   13  O5  UNL     1      29.104 -19.653 -22.736  1.00  0.00    -0.271 OA
HETATM   14  C9  UNL     1      31.412 -20.431 -22.813  1.00  0.00     0.314 C 
HETATM   15  C10 UNL     1      32.076 -21.587 -22.123  1.00  0.00     0.145 C 
ENDROOT
BRANCH   1  16
HETATM   16  O3  UNL     1      27.507 -21.760 -21.489  1.00  0.00    -0.234 OA
BRANCH  16  17
HETATM   17  C2  UNL     1      26.629 -22.151 -22.472  1.00  0.00     0.410 C 
HETATM   18  O2  UNL     1      26.006 -23.216 -22.339  1.00  0.00    -0.229 OA
BRANCH  17  19
HETATM   19  O1  UNL     1      26.402 -21.402 -23.625  1.00  0.00    -0.303 OA
HETATM   20  C1  UNL     1      27.111 -21.650 -24.829  1.00  0.00     0.215 C 
ENDBRANCH  17  19
ENDBRANCH  16  17
ENDBRANCH   1  16
BRANCH   1  21
HETATM   21  O4  UNL     1      28.785 -23.635 -21.814  1.00  0.00    -0.343 OA
ATOM     22  H4  UNL     1      29.698 -23.871 -21.927  1.00  0.00     0.215 HD
ENDBRANCH   1  21
BRANCH  15  23
HETATM   23  O6  UNL     1      32.152 -22.719 -22.924  1.00  0.00    -0.382 OA
ATOM     24  H6  UNL     1      32.985 -22.720 -23.381  1.00  0.00     0.210 HD
ENDBRANCH  15  23
BRANCH  15  25
HETATM   25  C11 UNL     1      33.412 -21.218 -21.513  1.00  0.00     0.207 C 
BRANCH  25  26
HETATM   26  O7  UNL     1      34.217 -20.562 -22.439  1.00  0.00    -0.398 OA
ATOM     27  H7  UNL     1      34.254 -19.630 -22.256  1.00  0.00     0.209 HD
ENDBRANCH  25  26
ENDBRANCH  15  25
BRANCH  14  28
HETATM   28  N4  UNL     1      31.451 -20.526 -24.245  1.00  0.00    -0.063 N 
ATOM     29  H43 UNL     1      30.604 -20.936 -24.638  1.00  0.00     0.275 HD
ATOM     30  H42 UNL     1      31.386 -19.618 -24.704  1.00  0.00     0.275 HD
ATOM     31  H41 UNL     1      32.295 -21.040 -24.499  1.00  0.00     0.275 HD
ENDBRANCH  14  28
TORSDOF 8
ENDMDL
MODEL 4
REMARK VINA RESULT: -6.036856630      2.638      4.904
REMARK  8 active torsions:
REMARK  status: ('A' for Active; 'I' for Inactive)
REMARK    1  A    between atoms: O1_2  and  C2_3 
REMARK    2  A    between atoms: C2_3  and  O3_5 
REMARK    3  A    between atoms: O3_5  and  C3_6 
REMARK    4  A    between atoms: C3_6  and  O4_7 
REMARK    5  A    between atoms: C9_21  and  N4_22 
REMARK    6  A    between atoms: C10_26  and  O6_27 
REMARK    7  A    between atoms: C10_26  and  C11_29 
REMARK    8  A    between atoms: C11_29  and  O7_30 
ROOT
HETATM    1  C3  UNL     1      28.548 -22.233 -21.217  1.00  0.00     0.305 C 
HETATM    2  C4  UNL     1      28.473 -22.278 -19.727  1.00  0.00     0.094 C 
HETATM    3  N1  UNL     1      27.564 -21.697 -19.058  1.00  0.00    -0.398 N 
ATOM      4  H11 UNL     1      27.513 -21.728 -18.039  1.00  0.00     0.156 HD
ATOM      5  H12 UNL     1      26.843 -21.175 -19.556  1.00  0.00     0.156 HD
HETATM    6  C5  UNL     1      29.542 -23.052 -18.989  1.00  0.00     0.208 C 
HETATM    7  C6  UNL     1      29.876 -22.335 -17.749  1.00  0.00     0.081 C 
HETATM    8  N2  UNL     1      30.135 -21.754 -16.775  1.00  0.00    -0.196 NA
HETATM    9  S1  UNL     1      31.007 -22.974 -20.081  1.00  0.00    -0.114 SA
HETATM   10  C7  UNL     1      30.883 -21.391 -20.926  1.00  0.00     0.196 C 
HETATM   11  N3  UNL     1      29.634 -21.345 -21.645  1.00  0.00    -0.272 N 
HETATM   12  C8  UNL     1      29.782 -20.377 -22.662  1.00  0.00     0.259 C 
HETATM   13  O5  UNL     1      28.869 -19.750 -23.216  1.00  0.00    -0.271 OA
HETATM   14  C9  UNL     1      31.236 -20.260 -22.934  1.00  0.00     0.314 C 
HETATM   15  C10 UNL     1      31.925 -21.204 -21.994  1.00  0.00     0.145 C 
ENDROOT
BRANCH   1  16
HETATM   16  O3  UNL     1      27.352 -21.798 -21.785  1.00  0.00    -0.234 OA
BRANCH  16  17
HETATM   17  C2  UNL     1      26.584 -22.487 -22.693  1.00  0.00     0.410 C 
HETATM   18  O2  UNL     1      26.402 -22.003 -23.822  1.00  0.00    -0.229 OA
BRANCH  17  19
HETATM   19  O1  UNL     1      25.992 -23.716 -22.407  1.00  0.00    -0.303 OA
HETATM   20  C1  UNL     1      25.098 -23.879 -21.317  1.00  0.00     0.215 C 
ENDBRANCH  17  19
ENDBRANCH  16  17
ENDBRANCH   1  16
BRANCH   1  21
HETATM   21  O4  UNL     1      28.835 -23.541 -21.657  1.00  0.00    -0.343 OA
ATOM     22  H4  UNL     1      29.309 -23.505 -22.480  1.00  0.00     0.215 HD
ENDBRANCH   1  21
BRANCH  15  23
HETATM   23  O6  UNL     1      32.202 -22.435 -22.577  1.00  0.00    -0.382 OA
ATOM     24  H6  UNL     1      32.882 -22.870 -22.075  1.00  0.00     0.210 HD
ENDBRANCH  15  23
BRANCH  15  25
HETATM   25  C11 UNL     1      33.141 -20.591 -21.331  1.00  0.00     0.207 C 
BRANCH  25  26
HETATM   26  O7  UNL     1      33.676 -19.575 -22.116  1.00  0.00    -0.398 OA
ATOM     27  H7  UNL     1      34.625 -19.621 -22.130  1.00  0.00     0.209 HD
ENDBRANCH  25  26
ENDBRANCH  15  25
BRANCH  14  28
HETATM   28  N4  UNL     1      31.448 -20.578 -24.318  1.00  0.00    -0.063 N 
ATOM     29  H43 UNL     1      31.708 -21.554 -24.464  1.00  0.00     0.275 HD
ATOM     30  H42 UNL     1      30.583 -20.588 -24.860  1.00  0.00     0.275 HD
ATOM     31  H41 UNL     1      32.139 -19.924 -24.684  1.00  0.00     0.275 HD
ENDBRANCH  14  28
TORSDOF 8
ENDMDL
MODEL 5
REMARK VINA RESULT: -5.995693941      2.814      5.381
REMARK  8 active torsions:
REMARK  status: ('A' for Active; 'I' for Inactive)
REMARK    1  A    between atoms: O1_2  and  C2_3 
REMARK    2  A    between atoms: C2_3  and  O3_5 
REMARK    3  A    between atoms: O3_5  and  C3_6 
REMARK    4  A    between atoms: C3_6  and  O4_7 
REMARK    5  A    between atoms: C9_21  and  N4_22 
REMARK    6  A    between atoms: C10_26  and  O6_27 
REMARK    7  A    between atoms: C10_26  and  C11_29 
REMARK    8  A    between atoms: C11_29  and  O7_30 
ROOT
HETATM    1  C3  UNL     1      28.053 -22.491 -20.387  1.00  0.00     0.305 C 
HETATM    2  C4  UNL     1      26.972 -22.539 -21.415  1.00  0.00     0.094 C 
HETATM    3  N1  UNL     1      26.246 -23.561 -21.615  1.00  0.00    -0.398 N 
ATOM      4  H11 UNL     1      25.507 -23.594 -22.318  1.00  0.00     0.156 HD
ATOM      5  H12 UNL     1      26.400 -24.394 -21.046  1.00  0.00     0.156 HD
HETATM    6  C5  UNL     1      26.744 -21.304 -22.257  1.00  0.00     0.208 C 
HETATM    7  C6  UNL     1      26.410 -21.721 -23.628  1.00  0.00     0.081 C 
HETATM    8  N2  UNL     1      26.153 -22.065 -24.709  1.00  0.00    -0.196 NA
HETATM    9  S1  UNL     1      28.374 -20.477 -22.317  1.00  0.00    -0.114 SA
HETATM   10  C7  UNL     1      29.583 -21.807 -22.240  1.00  0.00     0.196 C 
HETATM   11  N3  UNL     1      29.369 -22.558 -21.029  1.00  0.00    -0.272 N 
HETATM   12  C8  UNL     1      30.580 -23.227 -20.743  1.00  0.00     0.259 C 
HETATM   13  O5  UNL     1      30.708 -24.256 -20.066  1.00  0.00    -0.271 OA
HETATM   14  C9  UNL     1      31.661 -22.459 -21.410  1.00  0.00     0.314 C 
HETATM   15  C10 UNL     1      30.999 -21.316 -22.120  1.00  0.00     0.145 C 
ENDROOT
BRANCH   1  16
HETATM   16  O3  UNL     1      27.940 -23.530 -19.465  1.00  0.00    -0.234 OA
BRANCH  16  17
HETATM   17  C2  UNL     1      27.959 -23.411 -18.096  1.00  0.00     0.410 C 
HETATM   18  O2  UNL     1      27.271 -24.184 -17.411  1.00  0.00    -0.229 OA
BRANCH  17  19
HETATM   19  O1  UNL     1      28.722 -22.454 -17.430  1.00  0.00    -0.303 OA
HETATM   20  C1  UNL     1      30.038 -22.731 -16.976  1.00  0.00     0.215 C 
ENDBRANCH  17  19
ENDBRANCH  16  17
ENDBRANCH   1  16
BRANCH   1  21
HETATM   21  O4  UNL     1      27.938 -21.253 -19.722  1.00  0.00    -0.343 OA
ATOM     22  H4  UNL     1      27.178 -21.264 -19.154  1.00  0.00     0.215 HD
ENDBRANCH   1  21
BRANCH  15  23
HETATM   23  O6  UNL     1      31.011 -20.142 -21.376  1.00  0.00    -0.382 OA
ATOM     24  H6  UNL     1      31.898 -19.806 -21.342  1.00  0.00     0.210 HD
ENDBRANCH  15  23
BRANCH  15  25
HETATM   25  C11 UNL     1      31.524 -21.115 -23.526  1.00  0.00     0.207 C 
BRANCH  25  26
HETATM   26  O7  UNL     1      32.912 -21.028 -23.532  1.00  0.00    -0.398 OA
ATOM     27  H7  UNL     1      33.305 -21.880 -23.676  1.00  0.00     0.209 HD
ENDBRANCH  25  26
ENDBRANCH  15  25
BRANCH  14  28
HETATM   28  N4  UNL     1      32.587 -22.040 -20.396  1.00  0.00    -0.063 N 
ATOM     29  H43 UNL     1      32.132 -21.827 -19.508  1.00  0.00     0.275 HD
ATOM     30  H42 UNL     1      33.182 -22.799 -20.063  1.00  0.00     0.275 HD
ATOM     31  H41 UNL     1      33.118 -21.253 -20.768  1.00  0.00     0.275 HD
ENDBRANCH  14  28
TORSDOF 8
ENDMDL
