MODEL 1
REMARK VINA RESULT: -7.984308877      0.000      0.000
REMARK  2 active torsions:
REMARK  status: ('A' for Active; 'I' for Inactive)
REMARK    1  A    between atoms: N6_16  and  C7_18 
REMARK    2  A    between atoms: C10_26  and  N10_27 
ROOT
HETATM    1  C7  UNL     1      30.528 -20.715 -20.943  1.00  0.00     0.138 A 
HETATM    2  N7  UNL     1      30.393 -20.769 -19.613  1.00  0.00    -0.281 N 
ATOM      3  H7  UNL     1      29.520 -20.589 -19.119  1.00  0.00     0.189 HD
HETATM    4  N8  UNL     1      31.523 -21.082 -19.022  1.00  0.00    -0.278 N 
HETATM    5  C8  UNL     1      31.802 -21.243 -17.598  1.00  0.00     0.179 C 
HETATM    6  C9  UNL     1      32.440 -21.241 -19.989  1.00  0.00     0.155 A 
HETATM    7  N9  UNL     1      33.755 -21.558 -20.007  1.00  0.00    -0.174 N 
ATOM      8  H9  UNL     1      34.228 -21.730 -19.120  1.00  0.00     0.186 HD
HETATM    9  C10 UNL     1      34.462 -21.655 -21.145  1.00  0.00     0.679 A 
HETATM   10  N11 UNL     1      33.896 -21.439 -22.347  1.00  0.00    -0.176 N 
ATOM     11  H11 UNL     1      34.438 -21.515 -23.207  1.00  0.00     0.186 HD
HETATM   12  C11 UNL     1      32.589 -21.120 -22.373  1.00  0.00     0.132 A 
HETATM   13  N12 UNL     1      31.967 -20.896 -23.490  1.00  0.00    -0.384 N 
ATOM     14 1H12 UNL     1      30.975 -20.654 -23.510  1.00  0.00     0.157 HD
ATOM     15 2H12 UNL     1      32.516 -20.973 -24.346  1.00  0.00     0.157 HD
HETATM   16  C12 UNL     1      31.844 -21.016 -21.213  1.00  0.00     0.099 A 
ENDROOT
BRANCH   1  17
HETATM   17  N6  UNL     1      29.579 -20.418 -21.950  1.00  0.00    -0.341 N 
HETATM   18  C6  UNL     1      28.778 -21.280 -22.468  1.00  0.00     0.061 C 
HETATM   19  C2  UNL     1      27.897 -20.720 -23.487  1.00  0.00     0.126 A 
HETATM   20  C5  UNL     1      28.807 -22.678 -22.022  1.00  0.00     0.182 C 
HETATM   21  N3  UNL     1      28.105 -19.563 -24.157  1.00  0.00    -0.280 N 
HETATM   22  C3  UNL     1      26.707 -21.274 -23.939  1.00  0.00     0.199 A 
HETATM   23  N2  UNL     1      27.075 -19.416 -24.990  1.00  0.00    -0.238 N 
ATOM     24  H3  UNL     1      28.895 -18.928 -24.047  1.00  0.00     0.188 HD
HETATM   25  N1  UNL     1      26.236 -20.413 -24.880  1.00  0.00    -0.259 N 
ATOM     26  H2  UNL     1      26.957 -18.630 -25.629  1.00  0.00     0.208 HD
HETATM   27  C1  UNL     1      24.988 -20.669 -25.583  1.00  0.00     0.181 C 
HETATM   28  O1  UNL     1      26.090 -22.454 -23.543  1.00  0.00    -0.261 OA
HETATM   29  C4  UNL     1      26.353 -23.133 -22.344  1.00  0.00     0.234 C 
HETATM   30  N4  UNL     1      25.256 -23.808 -21.738  1.00  0.00    -0.056 NA
HETATM   31  N5  UNL     1      27.493 -23.188 -21.769  1.00  0.00    -0.353 N 
ATOM     32  H5  UNL     1      27.458 -23.737 -20.910  1.00  0.00     0.163 HD
ATOM     33  H6  UNL     1      29.527 -19.456 -22.287  1.00  0.00     0.167 HD
ENDBRANCH   1  17
BRANCH   9  34
HETATM   34  N10 UNL     1      35.731 -21.966 -21.081  1.00  0.00    -0.234 N 
ATOM     35 2H10 UNL     1      36.432 -21.247 -21.260  1.00  0.00     0.174 HD
ATOM     36 1H10 UNL     1      35.997 -22.924 -20.852  1.00  0.00     0.174 HD
ENDBRANCH   9  34
TORSDOF 2
ENDMDL
MODEL 2
REMARK VINA RESULT: -7.756604350      2.408      7.284
REMARK  2 active torsions:
REMARK  status: ('A' for Active; 'I' for Inactive)
REMARK    1  A    between atoms: N6_16  and  C7_18 
REMARK    2  A    between atoms: C10_26  and  N10_27 
ROOT
HETATM    1  C7  UNL     1      29.075 -21.339 -22.011  1.00  0.00     0.138 A 
HETATM    2  N7  UNL     1      28.953 -21.045 -23.310  1.00  0.00    -0.281 N 
ATOM      3  H7  UNL     1      29.610 -20.463 -23.830  1.00  0.00     0.189 HD
HETATM    4  N8  UNL     1      27.884 -21.597 -23.835  1.00  0.00    -0.278 N 
HETATM    5  C8  UNL     1      27.391 -21.526 -25.208  1.00  0.00     0.179 C 
HETATM    6  C9  UNL     1      27.274 -22.280 -22.854  1.00  0.00     0.155 A 
HETATM    7  N9  UNL     1      26.155 -23.036 -22.778  1.00  0.00    -0.174 N 
ATOM      8  H9  UNL     1      25.593 -23.163 -23.619  1.00  0.00     0.186 HD
HETATM    9  C10 UNL     1      25.755 -23.627 -21.640  1.00  0.00     0.679 A 
HETATM   10  N11 UNL     1      26.452 -23.498 -20.496  1.00  0.00    -0.176 N 
ATOM     11  H11 UNL     1      26.143 -23.949 -19.636  1.00  0.00     0.186 HD
HETATM   12  C11 UNL     1      27.572 -22.752 -20.528  1.00  0.00     0.132 A 
HETATM   13  N12 UNL     1      28.302 -22.576 -19.470  1.00  0.00    -0.384 N 
ATOM     14 1H12 UNL     1      29.151 -22.011 -19.495  1.00  0.00     0.157 HD
ATOM     15 2H12 UNL     1      27.986 -23.031 -18.613  1.00  0.00     0.157 HD
HETATM   16  C12 UNL     1      28.000 -22.136 -21.690  1.00  0.00     0.099 A 
ENDROOT
BRANCH   1  17
HETATM   17  N6  UNL     1      30.064 -20.957 -21.074  1.00  0.00    -0.341 N 
HETATM   18  C6  UNL     1      31.123 -21.640 -20.818  1.00  0.00     0.061 C 
HETATM   19  C2  UNL     1      31.983 -21.029 -19.812  1.00  0.00     0.126 A 
HETATM   20  C5  UNL     1      31.372 -22.906 -21.517  1.00  0.00     0.182 C 
HETATM   21  N3  UNL     1      31.602 -20.091 -18.915  1.00  0.00    -0.280 N 
HETATM   22  C3  UNL     1      33.328 -21.305 -19.603  1.00  0.00     0.199 A 
HETATM   23  N2  UNL     1      32.678 -19.802 -18.184  1.00  0.00    -0.238 N 
ATOM     24  H3  UNL     1      30.672 -19.684 -18.817  1.00  0.00     0.188 HD
HETATM   25  N1  UNL     1      33.710 -20.506 -18.571  1.00  0.00    -0.259 N 
ATOM     26  H2  UNL     1      32.695 -19.123 -17.423  1.00  0.00     0.208 HD
HETATM   27  C1  UNL     1      35.076 -20.522 -18.068  1.00  0.00     0.181 C 
HETATM   28  O1  UNL     1      34.150 -22.197 -20.281  1.00  0.00    -0.261 OA
HETATM   29  C4  UNL     1      33.882 -22.726 -21.551  1.00  0.00     0.234 C 
HETATM   30  N4  UNL     1      35.006 -22.977 -22.389  1.00  0.00    -0.056 NA
HETATM   31  N5  UNL     1      32.717 -22.997 -22.001  1.00  0.00    -0.353 N 
ATOM     32  H5  UNL     1      32.754 -23.375 -22.948  1.00  0.00     0.163 HD
ATOM     33  H6  UNL     1      29.928 -20.082 -20.567  1.00  0.00     0.167 HD
ENDBRANCH   1  17
BRANCH   9  34
HETATM   34  N10 UNL     1      24.661 -24.344 -21.646  1.00  0.00    -0.234 N 
ATOM     35 2H10 UNL     1      23.765 -23.888 -21.821  1.00  0.00     0.174 HD
ATOM     36 1H10 UNL     1      24.723 -25.348 -21.476  1.00  0.00     0.174 HD
ENDBRANCH   9  34
TORSDOF 2
ENDMDL
MODEL 3
REMARK VINA RESULT: -7.713861101      2.405      7.394
REMARK  2 active torsions:
REMARK  status: ('A' for Active; 'I' for Inactive)
REMARK    1  A    between atoms: N6_16  and  C7_18 
REMARK    2  A    between atoms: C10_26  and  N10_27 
ROOT
HETATM    1  C7  UNL     1      28.900 -20.872 -21.088  1.00  0.00     0.138 A 
HETATM    2  N7  UNL     1      28.546 -20.069 -22.098  1.00  0.00    -0.281 N 
ATOM      3  H7  UNL     1      29.043 -19.216 -22.352  1.00  0.00     0.189 HD
HETATM    4  N8  UNL     1      27.479 -20.514 -22.721  1.00  0.00    -0.278 N 
HETATM    5  C8  UNL     1      26.776 -19.940 -23.865  1.00  0.00     0.179 C 
HETATM    6  C9  UNL     1      27.111 -21.648 -22.106  1.00  0.00     0.155 A 
HETATM    7  N9  UNL     1      26.112 -22.543 -22.284  1.00  0.00    -0.174 N 
ATOM      8  H9  UNL     1      25.445 -22.387 -23.040  1.00  0.00     0.186 HD
HETATM    9  C10 UNL     1      25.963 -23.628 -21.507  1.00  0.00     0.679 A 
HETATM   10  N11 UNL     1      26.809 -23.890 -20.493  1.00  0.00    -0.176 N 
ATOM     11  H11 UNL     1      26.690 -24.716 -19.907  1.00  0.00     0.186 HD
HETATM   12  C11 UNL     1      27.817 -23.024 -20.281  1.00  0.00     0.132 A 
HETATM   13  N12 UNL     1      28.676 -23.202 -19.326  1.00  0.00    -0.384 N 
ATOM     14 1H12 UNL     1      29.440 -22.545 -19.165  1.00  0.00     0.157 HD
ATOM     15 2H12 UNL     1      28.550 -24.030 -18.743  1.00  0.00     0.157 HD
HETATM   16  C12 UNL     1      27.987 -21.902 -21.071  1.00  0.00     0.099 A 
ENDROOT
BRANCH   1  17
HETATM   17  N6  UNL     1      29.971 -20.771 -20.169  1.00  0.00    -0.341 N 
HETATM   18  C6  UNL     1      31.182 -21.117 -20.425  1.00  0.00     0.061 C 
HETATM   19  C2  UNL     1      32.098 -20.913 -19.309  1.00  0.00     0.126 A 
HETATM   20  C5  UNL     1      31.532 -21.659 -21.744  1.00  0.00     0.182 C 
HETATM   21  N3  UNL     1      31.738 -20.777 -18.012  1.00  0.00    -0.280 N 
HETATM   22  C3  UNL     1      33.481 -20.826 -19.386  1.00  0.00     0.199 A 
HETATM   23  N2  UNL     1      32.865 -20.611 -17.320  1.00  0.00    -0.238 N 
ATOM     24  H3  UNL     1      30.790 -20.797 -17.636  1.00  0.00     0.188 HD
HETATM   25  N1  UNL     1      33.908 -20.636 -18.108  1.00  0.00    -0.259 N 
ATOM     26  H2  UNL     1      32.909 -20.482 -16.309  1.00  0.00     0.208 HD
HETATM   27  C1  UNL     1      35.322 -20.498 -17.796  1.00  0.00     0.181 C 
HETATM   28  O1  UNL     1      34.298 -20.909 -20.506  1.00  0.00    -0.261 OA
HETATM   29  C4  UNL     1      33.868 -20.724 -21.828  1.00  0.00     0.234 C 
HETATM   30  N4  UNL     1      34.796 -20.123 -22.725  1.00  0.00    -0.056 NA
HETATM   31  N5  UNL     1      32.717 -21.055 -22.276  1.00  0.00    -0.353 N 
ATOM     32  H5  UNL     1      32.617 -20.831 -23.266  1.00  0.00     0.163 HD
ATOM     33  H6  UNL     1      29.768 -20.398 -19.240  1.00  0.00     0.167 HD
ENDBRANCH   1  17
BRANCH   9  34
HETATM   34  N10 UNL     1      24.971 -24.448 -21.742  1.00  0.00    -0.234 N 
ATOM     35 2H10 UNL     1      24.340 -24.259 -22.521  1.00  0.00     0.174 HD
ATOM     36 1H10 UNL     1      24.848 -25.264 -21.142  1.00  0.00     0.174 HD
ENDBRANCH   9  34
TORSDOF 2
ENDMDL
MODEL 4
REMARK VINA RESULT: -7.606031021      2.705      3.027
REMARK  2 active torsions:
REMARK  status: ('A' for Active; 'I' for Inactive)
REMARK    1  A    between atoms: N6_16  and  C7_18 
REMARK    2  A    between atoms: C10_26  and  N10_27 
ROOT
HETATM    1  C7  UNL     1      30.100 -23.256 -19.055  1.00  0.00     0.138 A 
HETATM    2  N7  UNL     1      29.649 -23.653 -17.860  1.00  0.00    -0.281 N 
ATOM      3  H7  UNL     1      28.765 -23.349 -17.452  1.00  0.00     0.189 HD
HETATM    4  N8  UNL     1      30.483 -24.482 -17.276  1.00  0.00    -0.278 N 
HETATM    5  C8  UNL     1      30.368 -25.139 -15.977  1.00  0.00     0.179 C 
HETATM    6  C9  UNL     1      31.524 -24.641 -18.108  1.00  0.00     0.155 A 
HETATM    7  N9  UNL     1      32.672 -25.354 -18.065  1.00  0.00    -0.174 N 
ATOM      8  H9  UNL     1      32.861 -25.927 -17.243  1.00  0.00     0.186 HD
HETATM    9  C10 UNL     1      33.573 -25.339 -19.061  1.00  0.00     0.679 A 
HETATM   10  N11 UNL     1      33.382 -24.603 -20.172  1.00  0.00    -0.176 N 
ATOM     11  H11 UNL     1      34.070 -24.595 -20.925  1.00  0.00     0.186 HD
HETATM   12  C11 UNL     1      32.252 -23.877 -20.254  1.00  0.00     0.132 A 
HETATM   13  N12 UNL     1      31.991 -23.141 -21.290  1.00  0.00    -0.384 N 
ATOM     14 1H12 UNL     1      31.134 -22.590 -21.352  1.00  0.00     0.157 HD
ATOM     15 2H12 UNL     1      32.684 -23.138 -22.039  1.00  0.00     0.157 HD
HETATM   16  C12 UNL     1      31.313 -23.881 -19.240  1.00  0.00     0.099 A 
ENDROOT
BRANCH   1  17
HETATM   17  N6  UNL     1      29.527 -22.379 -20.006  1.00  0.00    -0.341 N 
HETATM   18  C6  UNL     1      28.697 -22.740 -20.919  1.00  0.00     0.061 C 
HETATM   19  C2  UNL     1      28.254 -21.645 -21.773  1.00  0.00     0.126 A 
HETATM   20  C5  UNL     1      28.281 -24.144 -21.025  1.00  0.00     0.182 C 
HETATM   21  N3  UNL     1      28.891 -20.461 -21.928  1.00  0.00    -0.280 N 
HETATM   22  C3  UNL     1      27.116 -21.631 -22.568  1.00  0.00     0.199 A 
HETATM   23  N2  UNL     1      28.164 -19.747 -22.787  1.00  0.00    -0.238 N 
ATOM     24  H3  UNL     1      29.757 -20.171 -21.475  1.00  0.00     0.188 HD
HETATM   25  N1  UNL     1      27.111 -20.416 -23.179  1.00  0.00    -0.259 N 
ATOM     26  H2  UNL     1      28.397 -18.804 -23.098  1.00  0.00     0.208 HD
HETATM   27  C1  UNL     1      26.050 -20.038 -24.101  1.00  0.00     0.181 C 
HETATM   28  O1  UNL     1      26.157 -22.622 -22.733  1.00  0.00    -0.261 OA
HETATM   29  C4  UNL     1      25.947 -23.690 -21.849  1.00  0.00     0.234 C 
HETATM   30  N4  UNL     1      24.605 -24.146 -21.704  1.00  0.00    -0.056 NA
HETATM   31  N5  UNL     1      26.863 -24.274 -21.176  1.00  0.00    -0.353 N 
ATOM     32  H5  UNL     1      26.487 -25.026 -20.597  1.00  0.00     0.163 HD
ATOM     33  H6  UNL     1      29.791 -21.394 -19.965  1.00  0.00     0.167 HD
ENDBRANCH   1  17
BRANCH   9  34
HETATM   34  N10 UNL     1      34.661 -26.056 -18.947  1.00  0.00    -0.234 N 
ATOM     35 2H10 UNL     1      34.804 -26.616 -18.107  1.00  0.00     0.174 HD
ATOM     36 1H10 UNL     1      35.347 -26.042 -19.702  1.00  0.00     0.174 HD
ENDBRANCH   9  34
TORSDOF 2
ENDMDL
MODEL 5
REMARK VINA RESULT: -7.461573641      2.172      7.131
REMARK  2 active torsions:
REMARK  status: ('A' for Active; 'I' for Inactive)
REMARK    1  A    between atoms: N6_16  and  C7_18 
REMARK    2  A    between atoms: C10_26  and  N10_27 
ROOT
HETATM    1  C7  UNL     1      29.353 -21.994 -22.894  1.00  0.00     0.138 A 
HETATM    2  N7  UNL     1      28.841 -21.095 -23.742  1.00  0.00    -0.281 N 
ATOM      3  H7  UNL     1      29.396 -20.416 -24.260  1.00  0.00     0.189 HD
HETATM    4  N8  UNL     1      27.534 -21.196 -23.826  1.00  0.00    -0.278 N 
HETATM    5  C8  UNL     1      26.601 -20.412 -24.630  1.00  0.00     0.179 C 
HETATM    6  C9  UNL     1      27.165 -22.192 -23.006  1.00  0.00     0.155 A 
HETATM    7  N9  UNL     1      25.982 -22.755 -22.670  1.00  0.00    -0.174 N 
ATOM      8  H9  UNL     1      25.130 -22.392 -23.096  1.00  0.00     0.186 HD
HETATM    9  C10 UNL     1      25.884 -23.773 -21.798  1.00  0.00     0.679 A 
HETATM   10  N11 UNL     1      26.972 -24.295 -21.201  1.00  0.00    -0.176 N 
ATOM     11  H11 UNL     1      26.891 -25.068 -20.540  1.00  0.00     0.186 HD
HETATM   12  C11 UNL     1      28.169 -23.763 -21.507  1.00  0.00     0.132 A 
HETATM   13  N12 UNL     1      29.266 -24.208 -20.977  1.00  0.00    -0.384 N 
ATOM     14 1H12 UNL     1      30.174 -23.804 -21.209  1.00  0.00     0.157 HD
ATOM     15 2H12 UNL     1      29.177 -24.980 -20.316  1.00  0.00     0.157 HD
HETATM   16  C12 UNL     1      28.289 -22.716 -22.403  1.00  0.00     0.099 A 
ENDROOT
BRANCH   1  17
HETATM   17  N6  UNL     1      30.695 -22.232 -22.511  1.00  0.00    -0.341 N 
HETATM   18  C6  UNL     1      31.301 -21.607 -21.565  1.00  0.00     0.061 C 
HETATM   19  C2  UNL     1      32.680 -22.039 -21.369  1.00  0.00     0.126 A 
HETATM   20  C5  UNL     1      30.601 -20.570 -20.798  1.00  0.00     0.182 C 
HETATM   21  N3  UNL     1      33.433 -22.700 -22.277  1.00  0.00    -0.280 N 
HETATM   22  C3  UNL     1      33.447 -21.846 -20.228  1.00  0.00     0.199 A 
HETATM   23  N2  UNL     1      34.621 -22.905 -21.709  1.00  0.00    -0.238 N 
ATOM     24  H3  UNL     1      33.148 -22.986 -23.213  1.00  0.00     0.188 HD
HETATM   25  N1  UNL     1      34.655 -22.410 -20.499  1.00  0.00    -0.259 N 
ATOM     26  H2  UNL     1      35.402 -23.384 -22.158  1.00  0.00     0.208 HD
HETATM   27  C1  UNL     1      35.731 -22.400 -19.520  1.00  0.00     0.181 C 
HETATM   28  O1  UNL     1      33.098 -21.218 -19.039  1.00  0.00    -0.261 OA
HETATM   29  C4  UNL     1      31.783 -20.981 -18.614  1.00  0.00     0.234 C 
HETATM   30  N4  UNL     1      31.544 -21.039 -17.211  1.00  0.00    -0.056 NA
HETATM   31  N5  UNL     1      30.799 -20.719 -19.387  1.00  0.00    -0.353 N 
ATOM     32  H5  UNL     1      29.934 -20.580 -18.866  1.00  0.00     0.163 HD
ATOM     33  H6  UNL     1      31.215 -22.947 -23.020  1.00  0.00     0.167 HD
ENDBRANCH   1  17
BRANCH   9  34
HETATM   34  N10 UNL     1      24.704 -24.265 -21.523  1.00  0.00    -0.234 N 
ATOM     35 2H10 UNL     1      24.007 -24.334 -22.264  1.00  0.00     0.174 HD
ATOM     36 1H10 UNL     1      24.502 -24.571 -20.571  1.00  0.00     0.174 HD
ENDBRANCH   9  34
TORSDOF 2
ENDMDL
