MODEL 1
REMARK VINA RESULT: -7.052464255      0.000      0.000
REMARK  7 active torsions:
REMARK  status: ('A' for Active; 'I' for Inactive)
REMARK    1  A    between atoms: C5_6  and  O1_7 
REMARK    2  A    between atoms: C6_9  and  C7_10 
REMARK    3  A    between atoms: C8_13  and  S1_14 
REMARK    4  A    between atoms: S1_14  and  O2_15 
REMARK    5  A    between atoms: C9_17  and  O3_18 
REMARK    6  A    between atoms: C12_25  and  O4_26 
REMARK    7  A    between atoms: C13_28  and  O5_29 
ROOT
HETATM    1  C1  UNL     1      26.852 -22.006 -22.725  1.00  0.00     0.028 C 
HETATM    2  C2  UNL     1      28.126 -21.752 -22.472  1.00  0.00     0.014 A 
HETATM    3  C3  UNL     1      28.994 -21.361 -23.469  1.00  0.00     0.091 A 
HETATM    4  C4  UNL     1      28.409 -21.247 -24.801  1.00  0.00     0.103 C 
HETATM    5  N1  UNL     1      27.971 -21.151 -25.847  1.00  0.00    -0.191 NA
HETATM    6  C5  UNL     1      30.313 -21.089 -23.262  1.00  0.00     0.104 A 
HETATM    7  C6  UNL     1      30.861 -21.200 -21.977  1.00  0.00     0.078 A 
HETATM    8  C12 UNL     1      30.033 -21.584 -20.975  1.00  0.00     0.116 A 
HETATM    9  C13 UNL     1      28.674 -21.859 -21.218  1.00  0.00     0.113 A 
ENDROOT
BRANCH   6  10
HETATM   10  O1  UNL     1      31.132 -20.699 -24.310  1.00  0.00    -0.358 OA
ATOM     11  H1  UNL     1      31.434 -21.329 -24.953  1.00  0.00     0.217 HD
ENDBRANCH   6  10
BRANCH   9  12
HETATM   12  O5  UNL     1      27.853 -22.251 -20.161  1.00  0.00    -0.352 OA
HETATM   13  C14 UNL     1      27.757 -23.601 -19.745  1.00  0.00     0.210 C 
ENDBRANCH   9  12
BRANCH   7  14
HETATM   14  C7  UNL     1      32.155 -20.947 -21.831  1.00  0.00     0.119 C 
HETATM   15  N2  UNL     1      33.043 -22.022 -21.490  1.00  0.00    -0.336 N 
HETATM   16  C8  UNL     1      34.290 -21.829 -21.346  1.00  0.00     0.107 C 
ATOM     17  H2  UNL     1      32.665 -22.961 -21.360  1.00  0.00     0.168 HD
HETATM   18  C9  UNL     1      34.925 -20.484 -21.479  1.00  0.00     0.213 C 
HETATM   19  C10 UNL     1      33.915 -19.383 -21.203  1.00  0.00     0.226 C 
HETATM   20  C11 UNL     1      33.524 -19.272 -19.822  1.00  0.00     0.087 C 
HETATM   21  N4  UNL     1      32.703 -19.666 -22.009  1.00  0.00    -0.356 N 
HETATM   22  N3  UNL     1      33.231 -19.176 -18.721  1.00  0.00    -0.195 NA
ATOM     23  H4  UNL     1      32.296 -18.980 -22.646  1.00  0.00     0.162 HD
BRANCH  16  24
HETATM   24  S1  UNL     1      35.384 -23.218 -20.919  1.00  0.00     0.042 SA
BRANCH  24  25
HETATM   25  O2  UNL     1      34.445 -24.637 -20.845  1.00  0.00    -0.324 OA
ATOM     26  H2  UNL     1      34.527 -25.094 -21.674  1.00  0.00     0.228 HD
ENDBRANCH  24  25
ENDBRANCH  16  24
BRANCH  18  27
HETATM   27  O3  UNL     1      35.402 -20.366 -22.779  1.00  0.00    -0.386 OA
ATOM     28  H3  UNL     1      34.719 -19.964 -23.303  1.00  0.00     0.210 HD
ENDBRANCH  18  27
ENDBRANCH   7  14
BRANCH   8  29
HETATM   29  O4  UNL     1      30.466 -21.734 -19.653  1.00  0.00    -0.357 OA
ATOM     30  H4  UNL     1      30.372 -22.549 -19.172  1.00  0.00     0.217 HD
ENDBRANCH   8  29
TORSDOF 7
ENDMDL
MODEL 2
REMARK VINA RESULT: -6.798486990      3.379      6.690
REMARK  7 active torsions:
REMARK  status: ('A' for Active; 'I' for Inactive)
REMARK    1  A    between atoms: C5_6  and  O1_7 
REMARK    2  A    between atoms: C6_9  and  C7_10 
REMARK    3  A    between atoms: C8_13  and  S1_14 
REMARK    4  A    between atoms: S1_14  and  O2_15 
REMARK    5  A    between atoms: C9_17  and  O3_18 
REMARK    6  A    between atoms: C12_25  and  O4_26 
REMARK    7  A    between atoms: C13_28  and  O5_29 
ROOT
HETATM    1  C1  UNL     1      33.613 -23.221 -21.185  1.00  0.00     0.028 C 
HETATM    2  C2  UNL     1      32.444 -22.832 -21.670  1.00  0.00     0.014 A 
HETATM    3  C3  UNL     1      31.279 -23.501 -21.361  1.00  0.00     0.091 A 
HETATM    4  C4  UNL     1      31.431 -24.649 -20.473  1.00  0.00     0.103 C 
HETATM    5  N1  UNL     1      31.528 -25.547 -19.781  1.00  0.00    -0.191 NA
HETATM    6  C5  UNL     1      30.052 -23.142 -21.832  1.00  0.00     0.104 A 
HETATM    7  C6  UNL     1      29.921 -22.035 -22.683  1.00  0.00     0.078 A 
HETATM    8  C12 UNL     1      31.049 -21.357 -23.005  1.00  0.00     0.116 A 
HETATM    9  C13 UNL     1      32.305 -21.751 -22.503  1.00  0.00     0.113 A 
ENDROOT
BRANCH   6  10
HETATM   10  O1  UNL     1      28.919 -23.858 -21.483  1.00  0.00    -0.358 OA
ATOM     11  H1  UNL     1      28.970 -24.589 -20.879  1.00  0.00     0.217 HD
ENDBRANCH   6  10
BRANCH   9  12
HETATM   12  O5  UNL     1      33.443 -21.028 -22.857  1.00  0.00    -0.352 OA
HETATM   13  C14 UNL     1      33.946 -19.978 -22.051  1.00  0.00     0.210 C 
ENDBRANCH   9  12
BRANCH   7  14
HETATM   14  C7  UNL     1      28.709 -21.740 -23.134  1.00  0.00     0.119 C 
HETATM   15  N2  UNL     1      28.424 -21.906 -24.531  1.00  0.00    -0.336 N 
HETATM   16  C8  UNL     1      27.277 -21.643 -25.007  1.00  0.00     0.107 C 
ATOM     17  H2  UNL     1      29.158 -22.242 -25.155  1.00  0.00     0.168 HD
HETATM   18  C9  UNL     1      26.155 -21.111 -24.177  1.00  0.00     0.213 C 
HETATM   19  C10 UNL     1      26.688 -20.392 -22.950  1.00  0.00     0.226 C 
HETATM   20  C11 UNL     1      27.327 -19.134 -23.233  1.00  0.00     0.087 C 
HETATM   21  N4  UNL     1      27.679 -21.281 -22.297  1.00  0.00    -0.356 N 
HETATM   22  N3  UNL     1      27.818 -18.126 -23.461  1.00  0.00    -0.195 NA
ATOM     23  H4  UNL     1      27.617 -21.541 -21.312  1.00  0.00     0.162 HD
BRANCH  16  24
HETATM   24  S1  UNL     1      26.952 -21.871 -26.782  1.00  0.00     0.042 SA
BRANCH  24  25
HETATM   25  O2  UNL     1      25.452 -22.659 -26.957  1.00  0.00    -0.324 OA
ATOM     26  H2  UNL     1      25.549 -23.556 -26.660  1.00  0.00     0.228 HD
ENDBRANCH  24  25
ENDBRANCH  16  24
BRANCH  18  27
HETATM   27  O3  UNL     1      25.369 -22.188 -23.785  1.00  0.00    -0.386 OA
ATOM     28  H3  UNL     1      24.799 -21.891 -23.085  1.00  0.00     0.210 HD
ENDBRANCH  18  27
ENDBRANCH   7  14
BRANCH   8  29
HETATM   29  O4  UNL     1      31.045 -20.241 -23.848  1.00  0.00    -0.357 OA
ATOM     30  H4  UNL     1      31.165 -19.354 -23.527  1.00  0.00     0.217 HD
ENDBRANCH   8  29
TORSDOF 7
ENDMDL
MODEL 3
REMARK VINA RESULT: -6.750881294      1.480      2.889
REMARK  7 active torsions:
REMARK  status: ('A' for Active; 'I' for Inactive)
REMARK    1  A    between atoms: C5_6  and  O1_7 
REMARK    2  A    between atoms: C6_9  and  C7_10 
REMARK    3  A    between atoms: C8_13  and  S1_14 
REMARK    4  A    between atoms: S1_14  and  O2_15 
REMARK    5  A    between atoms: C9_17  and  O3_18 
REMARK    6  A    between atoms: C12_25  and  O4_26 
REMARK    7  A    between atoms: C13_28  and  O5_29 
ROOT
HETATM    1  C1  UNL     1      26.975 -22.396 -22.739  1.00  0.00     0.028 C 
HETATM    2  C2  UNL     1      28.250 -22.067 -22.605  1.00  0.00     0.014 A 
HETATM    3  C3  UNL     1      28.937 -22.312 -21.435  1.00  0.00     0.091 A 
HETATM    4  C4  UNL     1      28.164 -22.954 -20.376  1.00  0.00     0.103 C 
HETATM    5  N1  UNL     1      27.579 -23.455 -19.538  1.00  0.00    -0.191 NA
HETATM    6  C5  UNL     1      30.248 -21.993 -21.245  1.00  0.00     0.104 A 
HETATM    7  C6  UNL     1      30.978 -21.380 -22.271  1.00  0.00     0.078 A 
HETATM    8  C12 UNL     1      30.331 -21.124 -23.434  1.00  0.00     0.116 A 
HETATM    9  C13 UNL     1      28.974 -21.465 -23.602  1.00  0.00     0.113 A 
ENDROOT
BRANCH   6  10
HETATM   10  O1  UNL     1      30.880 -22.268 -20.043  1.00  0.00    -0.358 OA
ATOM     11  H1  UNL     1      31.466 -23.010 -19.958  1.00  0.00     0.217 HD
ENDBRANCH   6  10
BRANCH   9  12
HETATM   12  O5  UNL     1      28.342 -21.187 -24.813  1.00  0.00    -0.352 OA
HETATM   13  C14 UNL     1      27.528 -20.042 -24.990  1.00  0.00     0.210 C 
ENDBRANCH   9  12
BRANCH   7  14
HETATM   14  C7  UNL     1      32.245 -21.067 -22.030  1.00  0.00     0.119 C 
HETATM   15  N2  UNL     1      33.163 -22.106 -21.657  1.00  0.00    -0.336 N 
HETATM   16  C8  UNL     1      34.386 -21.856 -21.424  1.00  0.00     0.107 C 
ATOM     17  H2  UNL     1      32.826 -23.066 -21.578  1.00  0.00     0.168 HD
HETATM   18  C9  UNL     1      34.957 -20.477 -21.479  1.00  0.00     0.213 C 
HETATM   19  C10 UNL     1      33.876 -19.437 -21.243  1.00  0.00     0.226 C 
HETATM   20  C11 UNL     1      33.389 -19.386 -19.890  1.00  0.00     0.087 C 
HETATM   21  N4  UNL     1      32.737 -19.755 -22.137  1.00  0.00    -0.356 N 
HETATM   22  N3  UNL     1      33.017 -19.337 -18.810  1.00  0.00    -0.195 NA
ATOM     23  H4  UNL     1      32.339 -19.072 -22.783  1.00  0.00     0.162 HD
BRANCH  16  24
HETATM   24  S1  UNL     1      35.519 -23.200 -20.960  1.00  0.00     0.042 SA
BRANCH  24  25
HETATM   25  O2  UNL     1      34.606 -24.624 -20.753  1.00  0.00    -0.324 OA
ATOM     26  H2  UNL     1      35.167 -25.285 -20.365  1.00  0.00     0.228 HD
ENDBRANCH  24  25
ENDBRANCH  16  24
BRANCH  18  27
HETATM   27  O3  UNL     1      35.514 -20.298 -22.739  1.00  0.00    -0.386 OA
ATOM     28  H3  UNL     1      36.155 -19.600 -22.676  1.00  0.00     0.210 HD
ENDBRANCH  18  27
ENDBRANCH   7  14
BRANCH   8  29
HETATM   29  O4  UNL     1      30.952 -20.511 -24.527  1.00  0.00    -0.357 OA
ATOM     30  H4  UNL     1      30.464 -20.125 -25.246  1.00  0.00     0.217 HD
ENDBRANCH   8  29
TORSDOF 7
ENDMDL
MODEL 4
REMARK VINA RESULT: -6.665512945      3.360      5.541
REMARK  7 active torsions:
REMARK  status: ('A' for Active; 'I' for Inactive)
REMARK    1  A    between atoms: C5_6  and  O1_7 
REMARK    2  A    between atoms: C6_9  and  C7_10 
REMARK    3  A    between atoms: C8_13  and  S1_14 
REMARK    4  A    between atoms: S1_14  and  O2_15 
REMARK    5  A    between atoms: C9_17  and  O3_18 
REMARK    6  A    between atoms: C12_25  and  O4_26 
REMARK    7  A    between atoms: C13_28  and  O5_29 
ROOT
HETATM    1  C1  UNL     1      31.394 -26.271 -16.742  1.00  0.00     0.028 C 
HETATM    2  C2  UNL     1      31.526 -25.390 -17.721  1.00  0.00     0.014 A 
HETATM    3  C3  UNL     1      30.582 -24.408 -17.936  1.00  0.00     0.091 A 
HETATM    4  C4  UNL     1      29.450 -24.413 -17.016  1.00  0.00     0.103 C 
HETATM    5  N1  UNL     1      28.560 -24.399 -16.307  1.00  0.00    -0.191 NA
HETATM    6  C5  UNL     1      30.669 -23.478 -18.928  1.00  0.00     0.104 A 
HETATM    7  C6  UNL     1      31.764 -23.483 -19.803  1.00  0.00     0.078 A 
HETATM    8  C12 UNL     1      32.709 -24.438 -19.618  1.00  0.00     0.116 A 
HETATM    9  C13 UNL     1      32.592 -25.387 -18.584  1.00  0.00     0.113 A 
ENDROOT
BRANCH   6  10
HETATM   10  O1  UNL     1      29.686 -22.516 -19.089  1.00  0.00    -0.358 OA
ATOM     11  H1  UNL     1      29.777 -21.829 -19.740  1.00  0.00     0.217 HD
ENDBRANCH   6  10
BRANCH   9  12
HETATM   12  O5  UNL     1      33.584 -26.354 -18.425  1.00  0.00    -0.352 OA
HETATM   13  C14 UNL     1      34.689 -26.161 -17.560  1.00  0.00     0.210 C 
ENDBRANCH   9  12
BRANCH   7  14
HETATM   14  C7  UNL     1      31.792 -22.572 -20.767  1.00  0.00     0.119 C 
HETATM   15  N2  UNL     1      32.792 -21.543 -20.728  1.00  0.00    -0.336 N 
HETATM   16  C8  UNL     1      32.862 -20.655 -21.632  1.00  0.00     0.107 C 
ATOM     17  H2  UNL     1      33.461 -21.525 -19.957  1.00  0.00     0.168 HD
HETATM   18  C9  UNL     1      31.904 -20.582 -22.775  1.00  0.00     0.213 C 
HETATM   19  C10 UNL     1      30.585 -21.243 -22.415  1.00  0.00     0.226 C 
HETATM   20  C11 UNL     1      29.797 -20.510 -21.459  1.00  0.00     0.087 C 
HETATM   21  N4  UNL     1      30.888 -22.578 -21.842  1.00  0.00    -0.356 N 
HETATM   22  N3  UNL     1      29.166 -19.915 -20.714  1.00  0.00    -0.195 NA
ATOM     23  H4  UNL     1      30.471 -23.436 -22.203  1.00  0.00     0.162 HD
BRANCH  16  24
HETATM   24  S1  UNL     1      34.147 -19.370 -21.550  1.00  0.00     0.042 SA
BRANCH  24  25
HETATM   25  O2  UNL     1      34.928 -19.295 -23.063  1.00  0.00    -0.324 OA
ATOM     26  H2  UNL     1      34.843 -18.411 -23.399  1.00  0.00     0.228 HD
ENDBRANCH  24  25
ENDBRANCH  16  24
BRANCH  18  27
HETATM   27  O3  UNL     1      32.479 -21.240 -23.855  1.00  0.00    -0.386 OA
ATOM     28  H3  UNL     1      32.875 -22.040 -23.529  1.00  0.00     0.210 HD
ENDBRANCH  18  27
ENDBRANCH   7  14
BRANCH   8  29
HETATM   29  O4  UNL     1      33.842 -24.547 -20.430  1.00  0.00    -0.357 OA
ATOM     30  H4  UNL     1      34.545 -23.908 -20.420  1.00  0.00     0.217 HD
ENDBRANCH   8  29
TORSDOF 7
ENDMDL
MODEL 5
REMARK VINA RESULT: -6.459654156      3.026      6.699
REMARK  7 active torsions:
REMARK  status: ('A' for Active; 'I' for Inactive)
REMARK    1  A    between atoms: C5_6  and  O1_7 
REMARK    2  A    between atoms: C6_9  and  C7_10 
REMARK    3  A    between atoms: C8_13  and  S1_14 
REMARK    4  A    between atoms: S1_14  and  O2_15 
REMARK    5  A    between atoms: C9_17  and  O3_18 
REMARK    6  A    between atoms: C12_25  and  O4_26 
REMARK    7  A    between atoms: C13_28  and  O5_29 
ROOT
HETATM    1  C1  UNL     1      34.831 -20.505 -19.596  1.00  0.00     0.028 C 
HETATM    2  C2  UNL     1      33.731 -20.656 -20.319  1.00  0.00     0.014 A 
HETATM    3  C3  UNL     1      32.488 -20.727 -19.728  1.00  0.00     0.091 A 
HETATM    4  C4  UNL     1      32.477 -20.622 -18.273  1.00  0.00     0.103 C 
HETATM    5  N1  UNL     1      32.447 -20.540 -17.138  1.00  0.00    -0.191 NA
HETATM    6  C5  UNL     1      31.326 -20.882 -20.423  1.00  0.00     0.104 A 
HETATM    7  C6  UNL     1      31.351 -20.979 -21.822  1.00  0.00     0.078 A 
HETATM    8  C12 UNL     1      32.560 -20.914 -22.432  1.00  0.00     0.116 A 
HETATM    9  C13 UNL     1      33.744 -20.753 -21.687  1.00  0.00     0.113 A 
ENDROOT
BRANCH   6  10
HETATM   10  O1  UNL     1      30.107 -20.945 -19.768  1.00  0.00    -0.358 OA
ATOM     11  H1  UNL     1      29.766 -21.773 -19.452  1.00  0.00     0.217 HD
ENDBRANCH   6  10
BRANCH   9  12
HETATM   12  O5  UNL     1      34.969 -20.690 -22.350  1.00  0.00    -0.352 OA
HETATM   13  C14 UNL     1      35.543 -19.459 -22.750  1.00  0.00     0.210 C 
ENDBRANCH   9  12
BRANCH   7  14
HETATM   14  C7  UNL     1      30.197 -21.153 -22.452  1.00  0.00     0.119 C 
HETATM   15  N2  UNL     1      29.468 -20.002 -22.906  1.00  0.00    -0.336 N 
HETATM   16  C8  UNL     1      28.363 -20.120 -23.520  1.00  0.00     0.107 C 
ATOM     17  H2  UNL     1      29.846 -19.070 -22.732  1.00  0.00     0.168 HD
HETATM   18  C9  UNL     1      27.718 -21.440 -23.786  1.00  0.00     0.213 C 
HETATM   19  C10 UNL     1      28.176 -22.476 -22.774  1.00  0.00     0.226 C 
HETATM   20  C11 UNL     1      27.659 -22.276 -21.446  1.00  0.00     0.087 C 
HETATM   21  N4  UNL     1      29.658 -22.424 -22.710  1.00  0.00    -0.356 N 
HETATM   22  N3  UNL     1      27.232 -22.124 -20.397  1.00  0.00    -0.195 NA
ATOM     23  H4  UNL     1      30.242 -23.250 -22.844  1.00  0.00     0.162 HD
BRANCH  16  24
HETATM   24  S1  UNL     1      27.472 -18.638 -24.085  1.00  0.00     0.042 SA
BRANCH  24  25
HETATM   25  O2  UNL     1      26.984 -18.888 -25.698  1.00  0.00    -0.324 OA
ATOM     26  H2  UNL     1      26.038 -18.809 -25.739  1.00  0.00     0.228 HD
ENDBRANCH  24  25
ENDBRANCH  16  24
BRANCH  18  27
HETATM   27  O3  UNL     1      28.081 -21.841 -25.065  1.00  0.00    -0.386 OA
ATOM     28  H3  UNL     1      28.922 -21.447 -25.265  1.00  0.00     0.210 HD
ENDBRANCH  18  27
ENDBRANCH   7  14
BRANCH   8  29
HETATM   29  O4  UNL     1      32.712 -21.004 -23.819  1.00  0.00    -0.357 OA
ATOM     30  H4  UNL     1      31.998 -20.844 -24.426  1.00  0.00     0.217 HD
ENDBRANCH   8  29
TORSDOF 7
ENDMDL
