MODEL 1
REMARK VINA RESULT: -8.894266639      0.000      0.000
REMARK  8 active torsions:
REMARK  status: ('A' for Active; 'I' for Inactive)
REMARK    1  A    between atoms: C1_2  and  O3_4 
REMARK    2  A    between atoms: O3_4  and  C2_5 
REMARK    3  A    between atoms: C2_5  and  C3_7 
REMARK    4  A    between atoms: C4_8  and  O5_9 
REMARK    5  A    between atoms: C8_14  and  O6_15 
REMARK    6  A    between atoms: C12_22  and  O9_23 
REMARK    7  A    between atoms: C12_22  and  O10_25 
REMARK    8  A    between atoms: C14_28  and  O11_29 
ROOT
HETATM    1  C3  UNL     1      26.500 -20.736 -24.762  1.00  0.00     0.107 A 
HETATM    2  C4  UNL     1      27.245 -19.590 -24.836  1.00  0.00     0.085 A 
HETATM    3  C5  UNL     1      28.260 -19.399 -23.905  1.00  0.00     0.049 A 
HETATM    4  C6  UNL     1      28.542 -20.294 -22.932  1.00  0.00    -0.003 A 
HETATM    5  C7  UNL     1      27.803 -21.447 -22.847  1.00  0.00     0.054 A 
HETATM    6  C8  UNL     1      26.786 -21.672 -23.754  1.00  0.00     0.099 A 
HETATM    7  C9  UNL     1      28.288 -22.270 -21.726  1.00  0.00     0.177 C 
HETATM    8  O7  UNL     1      27.673 -23.139 -21.092  1.00  0.00    -0.291 OA
HETATM    9  C10 UNL     1      29.685 -21.802 -21.548  1.00  0.00     0.175 C 
HETATM   10  C11 UNL     1      30.562 -22.238 -22.686  1.00  0.00     0.203 C 
HETATM   11  O8  UNL     1      30.446 -23.221 -23.394  1.00  0.00    -0.291 OA
HETATM   12  C12 UNL     1      31.617 -21.189 -22.754  1.00  0.00     0.226 C 
HETATM   13  C13 UNL     1      30.916 -19.939 -22.314  1.00  0.00     0.121 C 
HETATM   14  C14 UNL     1      29.547 -20.339 -21.817  1.00  0.00     0.109 C 
ENDROOT
BRANCH   1  15
HETATM   15  C2  UNL     1      25.416 -21.038 -25.683  1.00  0.00     0.308 C 
HETATM   16  O4  UNL     1      24.643 -20.077 -26.044  1.00  0.00    -0.258 OA
BRANCH  15  17
HETATM   17  O3  UNL     1      25.114 -22.265 -26.229  1.00  0.00    -0.214 OA
BRANCH  17  18
HETATM   18  C1  UNL     1      25.499 -22.651 -27.503  1.00  0.00     0.340 C 
HETATM   19  O1  UNL     1      24.976 -23.703 -27.996  1.00  0.00    -0.623 OA
HETATM   20  O2  UNL     1      26.430 -21.934 -28.248  1.00  0.00    -0.623 OA
ENDBRANCH  17  18
ENDBRANCH  15  17
ENDBRANCH   1  15
BRANCH   2  21
HETATM   21  O5  UNL     1      27.051 -18.604 -25.785  1.00  0.00    -0.360 OA
ATOM     22  H5  UNL     1      26.407 -17.910 -25.704  1.00  0.00     0.217 HD
ENDBRANCH   2  21
BRANCH   6  23
HETATM   23  O6  UNL     1      26.020 -22.835 -23.691  1.00  0.00    -0.359 OA
ATOM     24  H6  UNL     1      26.279 -23.515 -23.080  1.00  0.00     0.217 HD
ENDBRANCH   6  23
BRANCH  14  25
HETATM   25  O11 UNL     1      29.112 -19.596 -20.748  1.00  0.00    -0.383 OA
ATOM     26  H11 UNL     1      29.549 -19.873 -19.952  1.00  0.00     0.211 HD
ENDBRANCH  14  25
BRANCH  12  27
HETATM   27  O9  UNL     1      32.132 -21.080 -24.052  1.00  0.00    -0.359 OA
ATOM     28  H9  UNL     1      33.072 -21.213 -24.056  1.00  0.00     0.213 HD
ENDBRANCH  12  27
BRANCH  12  29
HETATM   29  O10 UNL     1      32.627 -21.583 -21.868  1.00  0.00    -0.359 OA
ATOM     30  H10 UNL     1      32.709 -20.888 -21.227  1.00  0.00     0.213 HD
ENDBRANCH  12  29
TORSDOF 8
ENDMDL
MODEL 2
REMARK VINA RESULT: -7.664668154      1.528      1.877
REMARK  8 active torsions:
REMARK  status: ('A' for Active; 'I' for Inactive)
REMARK    1  A    between atoms: C1_2  and  O3_4 
REMARK    2  A    between atoms: O3_4  and  C2_5 
REMARK    3  A    between atoms: C2_5  and  C3_7 
REMARK    4  A    between atoms: C4_8  and  O5_9 
REMARK    5  A    between atoms: C8_14  and  O6_15 
REMARK    6  A    between atoms: C12_22  and  O9_23 
REMARK    7  A    between atoms: C12_22  and  O10_25 
REMARK    8  A    between atoms: C14_28  and  O11_29 
ROOT
HETATM    1  C3  UNL     1      26.937 -20.474 -23.993  1.00  0.00     0.107 A 
HETATM    2  C4  UNL     1      27.615 -19.458 -23.374  1.00  0.00     0.085 A 
HETATM    3  C5  UNL     1      28.167 -19.699 -22.121  1.00  0.00     0.049 A 
HETATM    4  C6  UNL     1      28.064 -20.889 -21.488  1.00  0.00    -0.003 A 
HETATM    5  C7  UNL     1      27.388 -21.916 -22.099  1.00  0.00     0.054 A 
HETATM    6  C8  UNL     1      26.825 -21.714 -23.344  1.00  0.00     0.099 A 
HETATM    7  C9  UNL     1      27.410 -23.111 -21.238  1.00  0.00     0.177 C 
HETATM    8  O7  UNL     1      26.620 -24.065 -21.232  1.00  0.00    -0.291 OA
HETATM    9  C10 UNL     1      28.605 -22.886 -20.386  1.00  0.00     0.175 C 
HETATM   10  C11 UNL     1      29.876 -23.020 -21.174  1.00  0.00     0.203 C 
HETATM   11  O8  UNL     1      30.082 -23.695 -22.165  1.00  0.00    -0.291 OA
HETATM   12  C12 UNL     1      30.838 -22.131 -20.464  1.00  0.00     0.226 C 
HETATM   13  C13 UNL     1      29.982 -21.025 -19.925  1.00  0.00     0.121 C 
HETATM   14  C14 UNL     1      28.541 -21.411 -20.163  1.00  0.00     0.109 C 
ENDROOT
BRANCH   1  15
HETATM   15  C2  UNL     1      26.321 -20.333 -25.303  1.00  0.00     0.308 C 
HETATM   16  O4  UNL     1      25.241 -19.642 -25.392  1.00  0.00    -0.258 OA
BRANCH  15  17
HETATM   17  O3  UNL     1      26.771 -20.866 -26.489  1.00  0.00    -0.214 OA
BRANCH  17  18
HETATM   18  C1  UNL     1      26.084 -21.839 -27.200  1.00  0.00     0.340 C 
HETATM   19  O1  UNL     1      26.449 -22.078 -28.396  1.00  0.00    -0.623 OA
HETATM   20  O2  UNL     1      25.020 -22.548 -26.652  1.00  0.00    -0.623 OA
ENDBRANCH  17  18
ENDBRANCH  15  17
ENDBRANCH   1  15
BRANCH   2  21
HETATM   21  O5  UNL     1      27.785 -18.200 -23.919  1.00  0.00    -0.360 OA
ATOM     22  H5  UNL     1      28.561 -17.930 -24.396  1.00  0.00     0.217 HD
ENDBRANCH   2  21
BRANCH   6  23
HETATM   23  O6  UNL     1      26.134 -22.741 -23.987  1.00  0.00    -0.359 OA
ATOM     24  H6  UNL     1      26.356 -22.942 -24.887  1.00  0.00     0.217 HD
ENDBRANCH   6  23
BRANCH  14  25
HETATM   25  O11 UNL     1      27.693 -21.017 -19.159  1.00  0.00    -0.383 OA
ATOM     26  H11 UNL     1      28.187 -20.722 -18.404  1.00  0.00     0.211 HD
ENDBRANCH  14  25
BRANCH  12  27
HETATM   27  O9  UNL     1      31.825 -21.660 -21.338  1.00  0.00    -0.359 OA
ATOM     28  H9  UNL     1      32.643 -22.124 -21.209  1.00  0.00     0.213 HD
ENDBRANCH  12  27
BRANCH  12  29
HETATM   29  O10 UNL     1      31.422 -22.905 -19.453  1.00  0.00    -0.359 OA
ATOM     30  H10 UNL     1      30.786 -22.953 -18.749  1.00  0.00     0.213 HD
ENDBRANCH  12  29
TORSDOF 8
ENDMDL
MODEL 3
REMARK VINA RESULT: -7.654624072      1.848      3.696
REMARK  8 active torsions:
REMARK  status: ('A' for Active; 'I' for Inactive)
REMARK    1  A    between atoms: C1_2  and  O3_4 
REMARK    2  A    between atoms: O3_4  and  C2_5 
REMARK    3  A    between atoms: C2_5  and  C3_7 
REMARK    4  A    between atoms: C4_8  and  O5_9 
REMARK    5  A    between atoms: C8_14  and  O6_15 
REMARK    6  A    between atoms: C12_22  and  O9_23 
REMARK    7  A    between atoms: C12_22  and  O10_25 
REMARK    8  A    between atoms: C14_28  and  O11_29 
ROOT
HETATM    1  C3  UNL     1      28.074 -21.638 -24.130  1.00  0.00     0.107 A 
HETATM    2  C4  UNL     1      27.177 -22.321 -23.354  1.00  0.00     0.085 A 
HETATM    3  C5  UNL     1      27.647 -22.975 -22.220  1.00  0.00     0.049 A 
HETATM    4  C6  UNL     1      28.947 -22.968 -21.853  1.00  0.00    -0.003 A 
HETATM    5  C7  UNL     1      29.856 -22.286 -22.622  1.00  0.00     0.054 A 
HETATM    6  C8  UNL     1      29.428 -21.623 -23.756  1.00  0.00     0.099 A 
HETATM    7  C9  UNL     1      31.201 -22.405 -22.032  1.00  0.00     0.177 C 
HETATM    8  O7  UNL     1      32.297 -22.290 -22.595  1.00  0.00    -0.291 OA
HETATM    9  C10 UNL     1      30.913 -22.698 -20.605  1.00  0.00     0.175 C 
HETATM   10  C11 UNL     1      30.346 -21.500 -19.900  1.00  0.00     0.203 C 
HETATM   11  O8  UNL     1      30.528 -20.322 -20.148  1.00  0.00    -0.291 OA
HETATM   12  C12 UNL     1      29.500 -22.081 -18.820  1.00  0.00     0.226 C 
HETATM   13  C13 UNL     1      28.992 -23.363 -19.407  1.00  0.00     0.121 C 
HETATM   14  C14 UNL     1      29.713 -23.580 -20.716  1.00  0.00     0.109 C 
ENDROOT
BRANCH   1  15
HETATM   15  C2  UNL     1      27.694 -20.918 -25.335  1.00  0.00     0.308 C 
HETATM   16  O4  UNL     1      27.410 -19.668 -25.229  1.00  0.00    -0.258 OA
BRANCH  15  17
HETATM   17  O3  UNL     1      27.600 -21.429 -26.608  1.00  0.00    -0.214 OA
BRANCH  17  18
HETATM   18  C1  UNL     1      26.422 -21.917 -27.153  1.00  0.00     0.340 C 
HETATM   19  O1  UNL     1      26.383 -22.130 -28.408  1.00  0.00    -0.623 OA
HETATM   20  O2  UNL     1      25.295 -22.173 -26.378  1.00  0.00    -0.623 OA
ENDBRANCH  17  18
ENDBRANCH  15  17
ENDBRANCH   1  15
BRANCH   2  21
HETATM   21  O5  UNL     1      25.825 -22.401 -23.627  1.00  0.00    -0.360 OA
ATOM     22  H5  UNL     1      25.410 -23.153 -24.034  1.00  0.00     0.217 HD
ENDBRANCH   2  21
BRANCH   6  23
HETATM   23  O6  UNL     1      30.331 -20.923 -24.555  1.00  0.00    -0.359 OA
ATOM     24  H6  UNL     1      29.991 -20.282 -25.168  1.00  0.00     0.217 HD
ENDBRANCH   6  23
BRANCH  14  25
HETATM   25  O11 UNL     1      29.991 -24.898 -20.979  1.00  0.00    -0.383 OA
ATOM     26  H11 UNL     1      30.790 -25.163 -20.540  1.00  0.00     0.211 HD
ENDBRANCH  14  25
BRANCH  12  27
HETATM   27  O9  UNL     1      28.462 -21.208 -18.472  1.00  0.00    -0.359 OA
ATOM     28  H9  UNL     1      27.616 -21.592 -18.668  1.00  0.00     0.213 HD
ENDBRANCH  12  27
BRANCH  12  29
HETATM   29  O10 UNL     1      30.344 -22.285 -17.722  1.00  0.00    -0.359 OA
ATOM     30  H10 UNL     1      30.288 -23.209 -17.508  1.00  0.00     0.213 HD
ENDBRANCH  12  29
TORSDOF 8
ENDMDL
MODEL 4
REMARK VINA RESULT: -7.622134545      1.477      3.063
REMARK  8 active torsions:
REMARK  status: ('A' for Active; 'I' for Inactive)
REMARK    1  A    between atoms: C1_2  and  O3_4 
REMARK    2  A    between atoms: O3_4  and  C2_5 
REMARK    3  A    between atoms: C2_5  and  C3_7 
REMARK    4  A    between atoms: C4_8  and  O5_9 
REMARK    5  A    between atoms: C8_14  and  O6_15 
REMARK    6  A    between atoms: C12_22  and  O9_23 
REMARK    7  A    between atoms: C12_22  and  O10_25 
REMARK    8  A    between atoms: C14_28  and  O11_29 
ROOT
HETATM    1  C3  UNL     1      27.673 -20.210 -24.748  1.00  0.00     0.107 A 
HETATM    2  C4  UNL     1      28.407 -21.261 -25.225  1.00  0.00     0.085 A 
HETATM    3  C5  UNL     1      29.299 -21.891 -24.363  1.00  0.00     0.049 A 
HETATM    4  C6  UNL     1      29.472 -21.509 -23.078  1.00  0.00    -0.003 A 
HETATM    5  C7  UNL     1      28.741 -20.458 -22.587  1.00  0.00     0.054 A 
HETATM    6  C8  UNL     1      27.845 -19.807 -23.413  1.00  0.00     0.099 A 
HETATM    7  C9  UNL     1      29.084 -20.226 -21.174  1.00  0.00     0.177 C 
HETATM    8  O7  UNL     1      28.962 -19.184 -20.516  1.00  0.00    -0.291 OA
HETATM    9  C10 UNL     1      29.610 -21.545 -20.738  1.00  0.00     0.175 C 
HETATM   10  C11 UNL     1      28.519 -22.572 -20.652  1.00  0.00     0.203 C 
HETATM   11  O8  UNL     1      27.336 -22.399 -20.423  1.00  0.00    -0.291 OA
HETATM   12  C12 UNL     1      29.215 -23.863 -20.914  1.00  0.00     0.226 C 
HETATM   13  C13 UNL     1      30.317 -23.496 -21.861  1.00  0.00     0.121 C 
HETATM   14  C14 UNL     1      30.349 -21.990 -21.957  1.00  0.00     0.109 C 
ENDROOT
BRANCH   1  15
HETATM   15  C2  UNL     1      26.712 -19.481 -25.559  1.00  0.00     0.308 C 
HETATM   16  O4  UNL     1      27.050 -18.323 -26.004  1.00  0.00    -0.258 OA
BRANCH  15  17
HETATM   17  O3  UNL     1      25.450 -19.895 -25.918  1.00  0.00    -0.214 OA
BRANCH  17  18
HETATM   18  C1  UNL     1      25.201 -21.050 -26.644  1.00  0.00     0.340 C 
HETATM   19  O1  UNL     1      24.537 -21.981 -26.083  1.00  0.00    -0.623 OA
HETATM   20  O2  UNL     1      25.652 -21.219 -27.949  1.00  0.00    -0.623 OA
ENDBRANCH  17  18
ENDBRANCH  15  17
ENDBRANCH   1  15
BRANCH   2  21
HETATM   21  O5  UNL     1      28.318 -21.740 -26.518  1.00  0.00    -0.360 OA
ATOM     22  H5  UNL     1      28.042 -21.215 -27.260  1.00  0.00     0.217 HD
ENDBRANCH   2  21
BRANCH   6  23
HETATM   23  O6  UNL     1      27.090 -18.735 -22.939  1.00  0.00    -0.359 OA
ATOM     24  H6  UNL     1      27.090 -18.558 -22.007  1.00  0.00     0.217 HD
ENDBRANCH   6  23
BRANCH  14  25
HETATM   25  O11 UNL     1      31.615 -21.473 -22.083  1.00  0.00    -0.383 OA
ATOM     26  H11 UNL     1      32.216 -22.140 -22.392  1.00  0.00     0.211 HD
ENDBRANCH  14  25
BRANCH  12  27
HETATM   27  O9  UNL     1      28.335 -24.804 -21.462  1.00  0.00    -0.359 OA
ATOM     28  H9  UNL     1      28.811 -25.537 -21.836  1.00  0.00     0.213 HD
ENDBRANCH  12  27
BRANCH  12  29
HETATM   29  O10 UNL     1      29.692 -24.315 -19.677  1.00  0.00    -0.359 OA
ATOM     30  H10 UNL     1      29.288 -25.161 -19.526  1.00  0.00     0.213 HD
ENDBRANCH  12  29
TORSDOF 8
ENDMDL
MODEL 5
REMARK VINA RESULT: -7.488343523      2.147      4.091
REMARK  8 active torsions:
REMARK  status: ('A' for Active; 'I' for Inactive)
REMARK    1  A    between atoms: C1_2  and  O3_4 
REMARK    2  A    between atoms: O3_4  and  C2_5 
REMARK    3  A    between atoms: C2_5  and  C3_7 
REMARK    4  A    between atoms: C4_8  and  O5_9 
REMARK    5  A    between atoms: C8_14  and  O6_15 
REMARK    6  A    between atoms: C12_22  and  O9_23 
REMARK    7  A    between atoms: C12_22  and  O10_25 
REMARK    8  A    between atoms: C14_28  and  O11_29 
ROOT
HETATM    1  C3  UNL     1      28.282 -21.910 -23.602  1.00  0.00     0.107 A 
HETATM    2  C4  UNL     1      27.546 -22.635 -22.705  1.00  0.00     0.085 A 
HETATM    3  C5  UNL     1      28.214 -23.284 -21.672  1.00  0.00     0.049 A 
HETATM    4  C6  UNL     1      29.556 -23.231 -21.517  1.00  0.00    -0.003 A 
HETATM    5  C7  UNL     1      30.305 -22.506 -22.409  1.00  0.00     0.054 A 
HETATM    6  C8  UNL     1      29.677 -21.848 -23.449  1.00  0.00     0.099 A 
HETATM    7  C9  UNL     1      31.730 -22.581 -22.043  1.00  0.00     0.177 C 
HETATM    8  O7  UNL     1      32.717 -22.418 -22.772  1.00  0.00    -0.291 OA
HETATM    9  C10 UNL     1      31.685 -22.900 -20.594  1.00  0.00     0.175 C 
HETATM   10  C11 UNL     1      31.194 -21.732 -19.787  1.00  0.00     0.203 C 
HETATM   11  O8  UNL     1      31.293 -20.546 -20.040  1.00  0.00    -0.291 OA
HETATM   12  C12 UNL     1      30.554 -22.358 -18.596  1.00  0.00     0.226 C 
HETATM   13  C13 UNL     1      30.004 -23.652 -19.116  1.00  0.00     0.121 C 
HETATM   14  C14 UNL     1      30.515 -23.826 -20.527  1.00  0.00     0.109 C 
ENDROOT
BRANCH   1  15
HETATM   15  C2  UNL     1      27.689 -21.192 -24.719  1.00  0.00     0.308 C 
HETATM   16  O4  UNL     1      28.192 -21.368 -25.888  1.00  0.00    -0.258 OA
BRANCH  15  17
HETATM   17  O3  UNL     1      26.622 -20.323 -24.669  1.00  0.00    -0.214 OA
BRANCH  17  18
HETATM   18  C1  UNL     1      25.424 -20.544 -25.331  1.00  0.00     0.340 C 
HETATM   19  O1  UNL     1      24.864 -19.556 -25.907  1.00  0.00    -0.623 OA
HETATM   20  O2  UNL     1      24.823 -21.798 -25.380  1.00  0.00    -0.623 OA
ENDBRANCH  17  18
ENDBRANCH  15  17
ENDBRANCH   1  15
BRANCH   2  21
HETATM   21  O5  UNL     1      26.172 -22.764 -22.761  1.00  0.00    -0.360 OA
ATOM     22  H5  UNL     1      25.569 -22.241 -22.245  1.00  0.00     0.217 HD
ENDBRANCH   2  21
BRANCH   6  23
HETATM   23  O6  UNL     1      30.415 -21.105 -24.369  1.00  0.00    -0.359 OA
ATOM     24  H6  UNL     1      31.126 -21.532 -24.830  1.00  0.00     0.217 HD
ENDBRANCH   6  23
BRANCH  14  25
HETATM   25  O11 UNL     1      30.794 -25.130 -20.853  1.00  0.00    -0.383 OA
ATOM     26  H11 UNL     1      30.358 -25.723 -20.253  1.00  0.00     0.211 HD
ENDBRANCH  14  25
BRANCH  12  27
HETATM   27  O9  UNL     1      29.554 -21.529 -18.073  1.00  0.00    -0.359 OA
ATOM     28  H9  UNL     1      29.616 -21.479 -17.126  1.00  0.00     0.213 HD
ENDBRANCH  12  27
BRANCH  12  29
HETATM   29  O10 UNL     1      31.570 -22.542 -17.650  1.00  0.00    -0.359 OA
ATOM     30  H10 UNL     1      32.081 -23.285 -17.946  1.00  0.00     0.213 HD
ENDBRANCH  12  29
TORSDOF 8
ENDMDL
