MODEL 1
REMARK VINA RESULT: -7.926121600      0.000      0.000
REMARK  6 active torsions:
REMARK  status: ('A' for Active; 'I' for Inactive)
REMARK    1  A    between atoms: C6_7  and  C7_8 
REMARK    2  A    between atoms: C9_12  and  O4_13 
REMARK    3  A    between atoms: O4_13  and  C10_14 
REMARK    4  A    between atoms: C17_21  and  C19_23 
REMARK    5  A    between atoms: C19_23  and  O5_24 
REMARK    6  A    between atoms: N1_26  and  O6_28 
ROOT
HETATM    1  C10 UNL     1     -14.359 -37.708 -12.919  1.00  0.00     0.126 C 
HETATM    2  C11 UNL     1     -14.214 -36.235 -12.723  1.00  0.00     0.033 C 
HETATM    3  C12 UNL     1     -12.846 -35.701 -12.774  1.00  0.00     0.008 C 
HETATM    4  C13 UNL     1     -11.726 -36.657 -12.638  1.00  0.00     0.002 C 
HETATM    5  C14 UNL     1     -12.005 -38.021 -13.242  1.00  0.00     0.013 C 
HETATM    6  C15 UNL     1     -13.165 -38.453 -12.338  1.00  0.00     0.016 C 
HETATM    7  C16 UNL     1     -12.839 -37.868 -10.976  1.00  0.00     0.025 C 
HETATM    8  C17 UNL     1     -11.597 -37.066 -11.171  1.00  0.00     0.027 C 
HETATM    9  C18 UNL     1     -10.410 -38.003 -10.987  1.00  0.00     0.024 C 
ENDROOT
BRANCH   1  10
HETATM   10  O4  UNL     1     -15.506 -38.242 -12.424  1.00  0.00    -0.380 OA
BRANCH  10  11
HETATM   11  C9  UNL     1     -15.526 -39.673 -12.411  1.00  0.00     0.128 C 
HETATM   12  C8  UNL     1     -15.950 -40.020 -13.766  1.00  0.00     0.084 C 
HETATM   13  C6  UNL     1     -16.099 -41.365 -14.307  1.00  0.00     0.177 A 
HETATM   14  C5  UNL     1     -16.527 -42.515 -13.742  1.00  0.00     0.169 A 
HETATM   15  O1  UNL     1     -15.124 -42.329 -14.272  1.00  0.00    -0.357 OA
HETATM   16  C4  UNL     1     -16.382 -43.058 -12.378  1.00  0.00     0.038 C 
HETATM   17  C3  UNL     1     -15.091 -42.766 -11.661  1.00  0.00     0.043 C 
HETATM   18  C2  UNL     1     -15.365 -42.088 -10.384  1.00  0.00     0.084 A 
HETATM   19  C1  UNL     1     -15.357 -43.035  -9.163  1.00  0.00     0.049 C 
HETATM   20  C21 UNL     1     -15.975 -40.871 -10.245  1.00  0.00     0.159 A 
HETATM   21  O7  UNL     1     -14.488 -40.939 -10.193  1.00  0.00    -0.369 OA
HETATM   22  C20 UNL     1     -16.528 -40.032 -11.319  1.00  0.00     0.067 C 
BRANCH  13  23
HETATM   23  C7  UNL     1     -16.509 -41.175 -15.767  1.00  0.00     0.212 C 
HETATM   24  O2  UNL     1     -16.545 -42.189 -16.537  1.00  0.00    -0.646 OA
HETATM   25  O3  UNL     1     -16.843 -39.944 -16.285  1.00  0.00    -0.646 OA
ENDBRANCH  13  23
ENDBRANCH  10  11
ENDBRANCH   1  10
BRANCH   8  26
HETATM   26  C19 UNL     1     -11.459 -35.922 -10.282  1.00  0.00     0.144 C 
HETATM   27  N1  UNL     1     -10.336 -35.349 -10.059  1.00  0.00    -0.250 N 
ATOM     28  H1  UNL     1      -9.505 -35.710 -10.526  1.00  0.00     0.196 HD
BRANCH  26  29
HETATM   29  O5  UNL     1     -12.589 -35.432  -9.649  1.00  0.00    -0.348 OA
ATOM     30  H5  UNL     1     -12.528 -34.609  -9.180  1.00  0.00     0.219 HD
ENDBRANCH  26  29
BRANCH  27  31
HETATM   31  O6  UNL     1     -10.199 -34.268  -9.220  1.00  0.00    -0.288 OA
ATOM     32  H6  UNL     1     -10.593 -33.422  -9.396  1.00  0.00     0.244 HD
ENDBRANCH  27  31
ENDBRANCH   8  26
TORSDOF 6
ENDMDL
MODEL 2
REMARK VINA RESULT: -7.760316830      8.154     11.111
REMARK  6 active torsions:
REMARK  status: ('A' for Active; 'I' for Inactive)
REMARK    1  A    between atoms: C6_7  and  C7_8 
REMARK    2  A    between atoms: C9_12  and  O4_13 
REMARK    3  A    between atoms: O4_13  and  C10_14 
REMARK    4  A    between atoms: C17_21  and  C19_23 
REMARK    5  A    between atoms: C19_23  and  O5_24 
REMARK    6  A    between atoms: N1_26  and  O6_28 
ROOT
HETATM    1  C10 UNL     1      -7.108 -32.671 -16.561  1.00  0.00     0.126 C 
HETATM    2  C11 UNL     1      -7.469 -31.366 -15.932  1.00  0.00     0.033 C 
HETATM    3  C12 UNL     1      -7.853 -30.284 -16.848  1.00  0.00     0.008 C 
HETATM    4  C13 UNL     1      -7.504 -30.432 -18.277  1.00  0.00     0.002 C 
HETATM    5  C14 UNL     1      -7.547 -31.866 -18.775  1.00  0.00     0.013 C 
HETATM    6  C15 UNL     1      -6.430 -32.455 -17.906  1.00  0.00     0.016 C 
HETATM    7  C16 UNL     1      -5.410 -31.339 -17.768  1.00  0.00     0.025 C 
HETATM    8  C17 UNL     1      -6.011 -30.160 -18.455  1.00  0.00     0.027 C 
HETATM    9  C18 UNL     1      -5.631 -30.242 -19.928  1.00  0.00     0.024 C 
ENDROOT
BRANCH   1  10
HETATM   10  O4  UNL     1      -6.336 -33.483 -15.793  1.00  0.00    -0.380 OA
BRANCH  10  11
HETATM   11  C9  UNL     1      -6.683 -34.870 -15.877  1.00  0.00     0.128 C 
HETATM   12  C8  UNL     1      -7.238 -35.161 -14.556  1.00  0.00     0.084 C 
HETATM   13  C6  UNL     1      -7.788 -36.435 -14.113  1.00  0.00     0.177 A 
HETATM   14  C5  UNL     1      -7.427 -37.709 -14.382  1.00  0.00     0.169 A 
HETATM   15  O1  UNL     1      -8.767 -37.132 -14.774  1.00  0.00    -0.357 OA
HETATM   16  C4  UNL     1      -6.882 -38.344 -15.597  1.00  0.00     0.038 C 
HETATM   17  C3  UNL     1      -7.381 -37.826 -16.919  1.00  0.00     0.043 C 
HETATM   18  C2  UNL     1      -6.249 -37.377 -17.745  1.00  0.00     0.084 A 
HETATM   19  C1  UNL     1      -5.787 -38.419 -18.788  1.00  0.00     0.049 C 
HETATM   20  C21 UNL     1      -5.383 -36.366 -17.425  1.00  0.00     0.159 A 
HETATM   21  O7  UNL     1      -6.514 -36.077 -18.350  1.00  0.00    -0.369 OA
HETATM   22  C20 UNL     1      -5.368 -35.576 -16.184  1.00  0.00     0.067 C 
BRANCH  13  23
HETATM   23  C7  UNL     1      -8.276 -36.195 -12.685  1.00  0.00     0.212 C 
HETATM   24  O2  UNL     1      -8.129 -35.041 -12.166  1.00  0.00    -0.646 OA
HETATM   25  O3  UNL     1      -8.874 -37.182 -11.932  1.00  0.00    -0.646 OA
ENDBRANCH  13  23
ENDBRANCH  10  11
ENDBRANCH   1  10
BRANCH   8  26
HETATM   26  C19 UNL     1      -5.610 -28.868 -17.919  1.00  0.00     0.144 C 
HETATM   27  N1  UNL     1      -4.869 -28.747 -16.882  1.00  0.00    -0.250 N 
ATOM     28  H1  UNL     1      -4.546 -29.593 -16.414  1.00  0.00     0.196 HD
BRANCH  26  29
HETATM   29  O5  UNL     1      -6.049 -27.719 -18.556  1.00  0.00    -0.348 OA
ATOM     30  H5  UNL     1      -6.736 -27.205 -18.148  1.00  0.00     0.219 HD
ENDBRANCH  26  29
BRANCH  27  31
HETATM   31  O6  UNL     1      -4.487 -27.530 -16.371  1.00  0.00    -0.288 OA
ATOM     32  H6  UNL     1      -3.973 -27.439 -15.577  1.00  0.00     0.244 HD
ENDBRANCH  27  31
ENDBRANCH   8  26
TORSDOF 6
ENDMDL
MODEL 3
REMARK VINA RESULT: -7.378607424      4.202      6.747
REMARK  6 active torsions:
REMARK  status: ('A' for Active; 'I' for Inactive)
REMARK    1  A    between atoms: C6_7  and  C7_8 
REMARK    2  A    between atoms: C9_12  and  O4_13 
REMARK    3  A    between atoms: O4_13  and  C10_14 
REMARK    4  A    between atoms: C17_21  and  C19_23 
REMARK    5  A    between atoms: C19_23  and  O5_24 
REMARK    6  A    between atoms: N1_26  and  O6_28 
ROOT
HETATM    1  C10 UNL     1     -15.021 -36.223 -13.889  1.00  0.00     0.126 C 
HETATM    2  C11 UNL     1     -14.187 -35.001 -14.092  1.00  0.00     0.033 C 
HETATM    3  C12 UNL     1     -14.778 -33.935 -14.912  1.00  0.00     0.008 C 
HETATM    4  C13 UNL     1     -15.941 -34.278 -15.758  1.00  0.00     0.002 C 
HETATM    5  C14 UNL     1     -16.853 -35.331 -15.152  1.00  0.00     0.013 C 
HETATM    6  C15 UNL     1     -15.872 -36.508 -15.119  1.00  0.00     0.016 C 
HETATM    7  C16 UNL     1     -15.013 -36.339 -16.359  1.00  0.00     0.025 C 
HETATM    8  C17 UNL     1     -15.455 -35.057 -16.980  1.00  0.00     0.027 C 
HETATM    9  C18 UNL     1     -16.622 -35.371 -17.905  1.00  0.00     0.024 C 
ENDROOT
BRANCH   1  10
HETATM   10  O4  UNL     1     -14.329 -37.341 -13.552  1.00  0.00    -0.380 OA
BRANCH  10  11
HETATM   11  C9  UNL     1     -13.001 -37.086 -13.081  1.00  0.00     0.128 C 
HETATM   12  C8  UNL     1     -12.174 -37.966 -13.905  1.00  0.00     0.084 C 
HETATM   13  C6  UNL     1     -10.722 -38.074 -13.863  1.00  0.00     0.177 A 
HETATM   14  C5  UNL     1      -9.848 -38.004 -12.836  1.00  0.00     0.169 A 
HETATM   15  O1  UNL     1      -9.860 -37.013 -13.977  1.00  0.00    -0.357 OA
HETATM   16  C4  UNL     1      -9.843 -37.204 -11.597  1.00  0.00     0.038 C 
HETATM   17  C3  UNL     1     -10.407 -35.811 -11.683  1.00  0.00     0.043 C 
HETATM   18  C2  UNL     1     -11.497 -35.647 -10.708  1.00  0.00     0.084 A 
HETATM   19  C1  UNL     1     -11.062 -34.952  -9.398  1.00  0.00     0.049 C 
HETATM   20  C21 UNL     1     -12.667 -36.356 -10.697  1.00  0.00     0.159 A 
HETATM   21  O7  UNL     1     -12.657 -35.000 -11.312  1.00  0.00    -0.369 OA
HETATM   22  C20 UNL     1     -13.042 -37.454 -11.602  1.00  0.00     0.067 C 
BRANCH  13  23
HETATM   23  C7  UNL     1     -10.356 -39.084 -14.950  1.00  0.00     0.212 C 
HETATM   24  O2  UNL     1     -10.899 -40.236 -14.933  1.00  0.00    -0.646 OA
HETATM   25  O3  UNL     1      -9.458 -38.797 -15.954  1.00  0.00    -0.646 OA
ENDBRANCH  13  23
ENDBRANCH  10  11
ENDBRANCH   1  10
BRANCH   8  26
HETATM   26  C19 UNL     1     -14.422 -34.347 -17.720  1.00  0.00     0.144 C 
HETATM   27  N1  UNL     1     -13.423 -34.939 -18.258  1.00  0.00    -0.250 N 
ATOM     28  H1  UNL     1     -13.350 -35.952 -18.164  1.00  0.00     0.196 HD
BRANCH  26  29
HETATM   29  O5  UNL     1     -14.523 -32.971 -17.849  1.00  0.00    -0.348 OA
ATOM     30  H5  UNL     1     -15.151 -32.507 -17.308  1.00  0.00     0.219 HD
ENDBRANCH  26  29
BRANCH  27  31
HETATM   31  O6  UNL     1     -12.445 -34.275 -18.959  1.00  0.00    -0.288 OA
ATOM     32  H6  UNL     1     -11.797 -34.719 -19.494  1.00  0.00     0.244 HD
ENDBRANCH  27  31
ENDBRANCH   8  26
TORSDOF 6
ENDMDL
MODEL 4
REMARK VINA RESULT: -7.248626615      4.732      7.948
REMARK  6 active torsions:
REMARK  status: ('A' for Active; 'I' for Inactive)
REMARK    1  A    between atoms: C6_7  and  C7_8 
REMARK    2  A    between atoms: C9_12  and  O4_13 
REMARK    3  A    between atoms: O4_13  and  C10_14 
REMARK    4  A    between atoms: C17_21  and  C19_23 
REMARK    5  A    between atoms: C19_23  and  O5_24 
REMARK    6  A    between atoms: N1_26  and  O6_28 
ROOT
HETATM    1  C10 UNL     1      -7.926 -36.313 -13.181  1.00  0.00     0.126 C 
HETATM    2  C11 UNL     1      -6.441 -36.358 -13.034  1.00  0.00     0.033 C 
HETATM    3  C12 UNL     1      -5.657 -36.114 -14.252  1.00  0.00     0.008 C 
HETATM    4  C13 UNL     1      -6.352 -36.216 -15.553  1.00  0.00     0.002 C 
HETATM    5  C14 UNL     1      -7.803 -35.770 -15.512  1.00  0.00     0.013 C 
HETATM    6  C15 UNL     1      -8.352 -36.829 -14.548  1.00  0.00     0.016 C 
HETATM    7  C16 UNL     1      -7.568 -38.089 -14.862  1.00  0.00     0.025 C 
HETATM    8  C17 UNL     1      -6.563 -37.691 -15.890  1.00  0.00     0.027 C 
HETATM    9  C18 UNL     1      -7.221 -37.833 -17.256  1.00  0.00     0.024 C 
ENDROOT
BRANCH   1  10
HETATM   10  O4  UNL     1      -8.618 -36.972 -12.216  1.00  0.00    -0.380 OA
BRANCH  10  11
HETATM   11  C9  UNL     1     -10.027 -36.718 -12.230  1.00  0.00     0.128 C 
HETATM   12  C8  UNL     1     -10.254 -35.995 -10.980  1.00  0.00     0.084 C 
HETATM   13  C6  UNL     1     -11.525 -35.459 -10.511  1.00  0.00     0.177 A 
HETATM   14  C5  UNL     1     -12.788 -35.926 -10.619  1.00  0.00     0.169 A 
HETATM   15  O1  UNL     1     -12.334 -34.626 -11.242  1.00  0.00    -0.357 OA
HETATM   16  C4  UNL     1     -13.475 -36.675 -11.688  1.00  0.00     0.038 C 
HETATM   17  C3  UNL     1     -13.094 -36.345 -13.106  1.00  0.00     0.043 C 
HETATM   18  C2  UNL     1     -12.633 -37.558 -13.800  1.00  0.00     0.084 A 
HETATM   19  C1  UNL     1     -13.718 -38.223 -14.677  1.00  0.00     0.049 C 
HETATM   20  C21 UNL     1     -11.545 -38.310 -13.449  1.00  0.00     0.159 A 
HETATM   21  O7  UNL     1     -11.404 -37.310 -14.544  1.00  0.00    -0.369 OA
HETATM   22  C20 UNL     1     -10.665 -38.102 -12.289  1.00  0.00     0.067 C 
BRANCH  13  23
HETATM   23  C7  UNL     1     -11.211 -34.757  -9.191  1.00  0.00     0.212 C 
HETATM   24  O2  UNL     1      -9.995 -34.630  -8.830  1.00  0.00    -0.646 OA
HETATM   25  O3  UNL     1     -12.195 -34.252  -8.370  1.00  0.00    -0.646 OA
ENDBRANCH  13  23
ENDBRANCH  10  11
ENDBRANCH   1  10
BRANCH   8  26
HETATM   26  C19 UNL     1      -5.324 -38.454 -15.863  1.00  0.00     0.144 C 
HETATM   27  N1  UNL     1      -5.224 -39.595 -15.292  1.00  0.00    -0.250 N 
ATOM     28  H1  UNL     1      -6.049 -39.985 -14.838  1.00  0.00     0.196 HD
BRANCH  26  29
HETATM   29  O5  UNL     1      -4.203 -37.924 -16.481  1.00  0.00    -0.348 OA
ATOM     30  H5  UNL     1      -3.500 -38.511 -16.733  1.00  0.00     0.219 HD
ENDBRANCH  26  29
BRANCH  27  31
HETATM   31  O6  UNL     1      -4.057 -40.320 -15.263  1.00  0.00    -0.288 OA
ATOM     32  H6  UNL     1      -3.295 -40.058 -14.759  1.00  0.00     0.244 HD
ENDBRANCH  27  31
ENDBRANCH   8  26
TORSDOF 6
ENDMDL
MODEL 5
REMARK VINA RESULT: -7.139278354      7.816     10.456
REMARK  6 active torsions:
REMARK  status: ('A' for Active; 'I' for Inactive)
REMARK    1  A    between atoms: C6_7  and  C7_8 
REMARK    2  A    between atoms: C9_12  and  O4_13 
REMARK    3  A    between atoms: O4_13  and  C10_14 
REMARK    4  A    between atoms: C17_21  and  C19_23 
REMARK    5  A    between atoms: C19_23  and  O5_24 
REMARK    6  A    between atoms: N1_26  and  O6_28 
ROOT
HETATM    1  C10 UNL     1      -6.738 -34.044 -16.911  1.00  0.00     0.126 C 
HETATM    2  C11 UNL     1      -7.944 -33.701 -17.721  1.00  0.00     0.033 C 
HETATM    3  C12 UNL     1      -7.803 -32.577 -18.657  1.00  0.00     0.008 C 
HETATM    4  C13 UNL     1      -6.659 -31.660 -18.469  1.00  0.00     0.002 C 
HETATM    5  C14 UNL     1      -5.407 -32.339 -17.944  1.00  0.00     0.013 C 
HETATM    6  C15 UNL     1      -5.935 -32.794 -16.578  1.00  0.00     0.016 C 
HETATM    7  C16 UNL     1      -6.891 -31.699 -16.143  1.00  0.00     0.025 C 
HETATM    8  C17 UNL     1      -6.948 -30.740 -17.284  1.00  0.00     0.027 C 
HETATM    9  C18 UNL     1      -5.815 -29.739 -17.103  1.00  0.00     0.024 C 
ENDROOT
BRANCH   1  10
HETATM   10  O4  UNL     1      -6.992 -34.732 -15.768  1.00  0.00    -0.380 OA
BRANCH  10  11
HETATM   11  C9  UNL     1      -6.824 -36.148 -15.889  1.00  0.00     0.128 C 
HETATM   12  C8  UNL     1      -7.584 -36.679 -14.758  1.00  0.00     0.084 C 
HETATM   13  C6  UNL     1      -7.778 -38.085 -14.432  1.00  0.00     0.177 A 
HETATM   14  C5  UNL     1      -6.957 -39.152 -14.544  1.00  0.00     0.169 A 
HETATM   15  O1  UNL     1      -8.255 -39.028 -15.307  1.00  0.00    -0.357 OA
HETATM   16  C4  UNL     1      -5.928 -39.504 -15.541  1.00  0.00     0.038 C 
HETATM   17  C3  UNL     1      -6.196 -39.108 -16.968  1.00  0.00     0.043 C 
HETATM   18  C2  UNL     1      -5.099 -38.266 -17.472  1.00  0.00     0.084 A 
HETATM   19  C1  UNL     1      -4.057 -39.039 -18.311  1.00  0.00     0.049 C 
HETATM   20  C21 UNL     1      -4.737 -37.046 -16.969  1.00  0.00     0.159 A 
HETATM   21  O7  UNL     1      -5.608 -37.095 -18.175  1.00  0.00    -0.369 OA
HETATM   22  C20 UNL     1      -5.318 -36.365 -15.801  1.00  0.00     0.067 C 
BRANCH  13  23
HETATM   23  C7  UNL     1      -8.682 -38.098 -13.200  1.00  0.00     0.212 C 
HETATM   24  O2  UNL     1      -8.606 -37.138 -12.366  1.00  0.00    -0.646 OA
HETATM   25  O3  UNL     1      -9.582 -39.111 -12.954  1.00  0.00    -0.646 OA
ENDBRANCH  13  23
ENDBRANCH  10  11
ENDBRANCH   1  10
BRANCH   8  26
HETATM   26  C19 UNL     1      -8.210 -30.028 -17.424  1.00  0.00     0.144 C 
HETATM   27  N1  UNL     1      -8.346 -29.000 -18.174  1.00  0.00    -0.250 N 
ATOM     28  H1  UNL     1      -7.535 -28.667 -18.694  1.00  0.00     0.196 HD
BRANCH  26  29
HETATM   29  O5  UNL     1      -9.311 -30.482 -16.717  1.00  0.00    -0.348 OA
ATOM     30  H5  UNL     1      -9.594 -29.995 -15.952  1.00  0.00     0.219 HD
ENDBRANCH  26  29
BRANCH  27  31
HETATM   31  O6  UNL     1      -9.535 -28.323 -18.310  1.00  0.00    -0.288 OA
ATOM     32  H6  UNL     1     -10.045 -28.326 -19.112  1.00  0.00     0.244 HD
ENDBRANCH  27  31
ENDBRANCH   8  26
TORSDOF 6
ENDMDL
