MODEL 1
REMARK VINA RESULT: -8.152300237      0.000      0.000
REMARK  9 active torsions:
REMARK  status: ('A' for Active; 'I' for Inactive)
REMARK    1  A    between atoms: O1_2  and  C2_3 
REMARK    2  A    between atoms: C4_5  and  N1_6 
REMARK    3  A    between atoms: C5_11  and  C6_12 
REMARK       I    between atoms: N3_14  and  C8_15 
REMARK    4  A    between atoms: C8_15  and  O3_17 
REMARK    5  A    between atoms: O3_17  and  C9_18 
REMARK    6  A    between atoms: C14_23  and  O4_24 
REMARK    7  A    between atoms: O4_24  and  C15_25 
REMARK    8  A    between atoms: C15_25  and  O6_27 
REMARK    9  A    between atoms: O6_27  and  C16_28 
ROOT
HETATM    1  C6  UNL     1     -12.051 -35.754 -11.686  1.00  0.00     0.103 C 
HETATM    2  C7  UNL     1     -13.295 -35.299 -12.459  1.00  0.00     0.143 C 
HETATM    3  N3  UNL     1     -13.589 -36.486 -13.227  1.00  0.00    -0.325 N 
HETATM    4  C8  UNL     1     -13.952 -36.509 -14.597  1.00  0.00     0.363 C 
HETATM    5  O2  UNL     1     -14.196 -37.578 -15.210  1.00  0.00    -0.238 OA
HETATM    6  C13 UNL     1     -13.433 -37.593 -12.304  1.00  0.00     0.161 C 
HETATM    7  C14 UNL     1     -12.119 -37.244 -11.634  1.00  0.00     0.165 C 
ENDROOT
BRANCH   1   8
HETATM    8  C5  UNL     1     -11.982 -35.111 -10.354  1.00  0.00     0.093 A 
HETATM    9  N2  UNL     1     -10.854 -35.104  -9.627  1.00  0.00    -0.332 N 
HETATM   10  C4  UNL     1     -10.701 -34.556  -8.429  1.00  0.00     0.104 A 
ATOM     11  H2  UNL     1     -10.040 -35.565 -10.033  1.00  0.00     0.168 HD
HETATM   12  C3  UNL     1     -11.816 -33.930  -7.879  1.00  0.00     0.104 A 
HETATM   13  C2  UNL     1     -12.995 -33.913  -8.591  1.00  0.00     0.146 A 
HETATM   14  N4  UNL     1     -13.054 -34.496  -9.797  1.00  0.00    -0.326 N 
ATOM     15  H4  UNL     1     -13.934 -34.476 -10.312  1.00  0.00     0.169 HD
BRANCH  10  16
HETATM   16  N1  UNL     1      -9.578 -34.614  -7.838  1.00  0.00    -0.385 N 
ATOM     17  H12 UNL     1      -9.528 -34.874  -6.853  1.00  0.00     0.157 HD
ATOM     18  H11 UNL     1      -8.693 -34.410  -8.303  1.00  0.00     0.157 HD
ENDBRANCH  10  16
BRANCH  13  19
HETATM   19  O1  UNL     1     -14.107 -33.279  -8.021  1.00  0.00    -0.341 OA
HETATM   20  C1  UNL     1     -14.295 -33.247  -6.620  1.00  0.00     0.211 C 
ENDBRANCH  13  19
ENDBRANCH   1   8
BRANCH   7  21
HETATM   21  O4  UNL     1     -11.094 -37.750 -12.502  1.00  0.00    -0.290 OA
BRANCH  21  22
HETATM   22  C15 UNL     1      -9.789 -37.900 -12.070  1.00  0.00     0.407 C 
HETATM   23  O5  UNL     1      -9.579 -37.834 -10.837  1.00  0.00    -0.229 OA
BRANCH  22  24
HETATM   24  O6  UNL     1      -8.716 -38.114 -12.906  1.00  0.00    -0.288 OA
BRANCH  24  25
HETATM   25  C16 UNL     1      -8.077 -37.019 -13.505  1.00  0.00     0.062 C 
HETATM   26  C17 UNL     1      -6.573 -37.175 -13.573  1.00  0.00     0.046 C 
HETATM   27  C18 UNL     1      -8.582 -36.938 -14.943  1.00  0.00     0.046 C 
HETATM   28  C19 UNL     1      -8.375 -35.716 -12.822  1.00  0.00     0.046 C 
ENDBRANCH  24  25
ENDBRANCH  22  24
ENDBRANCH  21  22
ENDBRANCH   7  21
BRANCH   4  29
HETATM   29  O3  UNL     1     -14.050 -35.327 -15.310  1.00  0.00    -0.294 OA
BRANCH  29  30
HETATM   30  C9  UNL     1     -15.318 -34.776 -15.556  1.00  0.00     0.061 C 
HETATM   31  C10 UNL     1     -16.378 -35.277 -14.607  1.00  0.00     0.046 C 
HETATM   32  C11 UNL     1     -15.765 -34.919 -16.988  1.00  0.00     0.046 C 
HETATM   33  C12 UNL     1     -15.189 -33.270 -15.294  1.00  0.00     0.046 C 
ENDBRANCH  29  30
ENDBRANCH   4  29
TORSDOF 9
ENDMDL
MODEL 2
REMARK VINA RESULT: -7.552692595      1.240      1.669
REMARK  9 active torsions:
REMARK  status: ('A' for Active; 'I' for Inactive)
REMARK    1  A    between atoms: O1_2  and  C2_3 
REMARK    2  A    between atoms: C4_5  and  N1_6 
REMARK    3  A    between atoms: C5_11  and  C6_12 
REMARK       I    between atoms: N3_14  and  C8_15 
REMARK    4  A    between atoms: C8_15  and  O3_17 
REMARK    5  A    between atoms: O3_17  and  C9_18 
REMARK    6  A    between atoms: C14_23  and  O4_24 
REMARK    7  A    between atoms: O4_24  and  C15_25 
REMARK    8  A    between atoms: C15_25  and  O6_27 
REMARK    9  A    between atoms: O6_27  and  C16_28 
ROOT
HETATM    1  C6  UNL     1     -11.795 -35.639 -11.574  1.00  0.00     0.103 C 
HETATM    2  C7  UNL     1     -13.218 -35.986 -12.030  1.00  0.00     0.143 C 
HETATM    3  N3  UNL     1     -12.969 -37.157 -12.836  1.00  0.00    -0.325 N 
HETATM    4  C8  UNL     1     -13.554 -37.423 -14.100  1.00  0.00     0.363 C 
HETATM    5  O2  UNL     1     -13.295 -38.465 -14.754  1.00  0.00    -0.238 OA
HETATM    6  C13 UNL     1     -12.025 -37.955 -12.080  1.00  0.00     0.161 C 
HETATM    7  C14 UNL     1     -11.013 -36.908 -11.658  1.00  0.00     0.165 C 
ENDROOT
BRANCH   1   8
HETATM    8  C5  UNL     1     -11.797 -35.026 -10.226  1.00  0.00     0.093 A 
HETATM    9  N2  UNL     1     -10.704 -35.020  -9.447  1.00  0.00    -0.332 N 
HETATM   10  C4  UNL     1     -10.614 -34.497  -8.232  1.00  0.00     0.104 A 
ATOM     11  H2  UNL     1      -9.865 -35.459  -9.825  1.00  0.00     0.168 HD
HETATM   12  C3  UNL     1     -11.763 -33.900  -7.721  1.00  0.00     0.104 A 
HETATM   13  C2  UNL     1     -12.908 -33.883  -8.486  1.00  0.00     0.146 A 
HETATM   14  N4  UNL     1     -12.903 -34.439  -9.706  1.00  0.00    -0.326 N 
ATOM     15  H4  UNL     1     -13.758 -34.420 -10.261  1.00  0.00     0.169 HD
BRANCH  10  16
HETATM   16  N1  UNL     1      -9.519 -34.552  -7.591  1.00  0.00    -0.385 N 
ATOM     17  H12 UNL     1      -8.843 -33.793  -7.662  1.00  0.00     0.157 HD
ATOM     18  H11 UNL     1      -9.266 -35.337  -6.990  1.00  0.00     0.157 HD
ENDBRANCH  10  16
BRANCH  13  19
HETATM   19  O1  UNL     1     -14.055 -33.278  -7.954  1.00  0.00    -0.341 OA
HETATM   20  C1  UNL     1     -14.293 -33.256  -6.560  1.00  0.00     0.211 C 
ENDBRANCH  13  19
ENDBRANCH   1   8
BRANCH   7  21
HETATM   21  O4  UNL     1     -10.105 -36.780 -12.761  1.00  0.00    -0.290 OA
BRANCH  21  22
HETATM   22  C15 UNL     1      -8.790 -36.393 -12.575  1.00  0.00     0.407 C 
HETATM   23  O5  UNL     1      -8.588 -35.257 -12.087  1.00  0.00    -0.229 OA
BRANCH  22  24
HETATM   24  O6  UNL     1      -7.701 -37.174 -12.891  1.00  0.00    -0.288 OA
BRANCH  24  25
HETATM   25  C16 UNL     1      -7.364 -37.378 -14.237  1.00  0.00     0.062 C 
HETATM   26  C17 UNL     1      -7.666 -36.181 -15.112  1.00  0.00     0.046 C 
HETATM   27  C18 UNL     1      -5.855 -37.600 -14.291  1.00  0.00     0.046 C 
HETATM   28  C19 UNL     1      -8.043 -38.574 -14.839  1.00  0.00     0.046 C 
ENDBRANCH  24  25
ENDBRANCH  22  24
ENDBRANCH  21  22
ENDBRANCH   7  21
BRANCH   4  29
HETATM   29  O3  UNL     1     -14.446 -36.524 -14.656  1.00  0.00    -0.294 OA
BRANCH  29  30
HETATM   30  C9  UNL     1     -15.821 -36.796 -14.601  1.00  0.00     0.061 C 
HETATM   31  C10 UNL     1     -16.199 -37.727 -13.475  1.00  0.00     0.046 C 
HETATM   32  C11 UNL     1     -16.390 -37.277 -15.911  1.00  0.00     0.046 C 
HETATM   33  C12 UNL     1     -16.512 -35.459 -14.298  1.00  0.00     0.046 C 
ENDBRANCH  29  30
ENDBRANCH   4  29
TORSDOF 9
ENDMDL
MODEL 3
REMARK VINA RESULT: -7.550641871      2.058      2.649
REMARK  9 active torsions:
REMARK  status: ('A' for Active; 'I' for Inactive)
REMARK    1  A    between atoms: O1_2  and  C2_3 
REMARK    2  A    between atoms: C4_5  and  N1_6 
REMARK    3  A    between atoms: C5_11  and  C6_12 
REMARK       I    between atoms: N3_14  and  C8_15 
REMARK    4  A    between atoms: C8_15  and  O3_17 
REMARK    5  A    between atoms: O3_17  and  C9_18 
REMARK    6  A    between atoms: C14_23  and  O4_24 
REMARK    7  A    between atoms: O4_24  and  C15_25 
REMARK    8  A    between atoms: C15_25  and  O6_27 
REMARK    9  A    between atoms: O6_27  and  C16_28 
ROOT
HETATM    1  C6  UNL     1     -11.416 -35.831 -11.305  1.00  0.00     0.103 C 
HETATM    2  C7  UNL     1     -12.610 -36.767 -11.534  1.00  0.00     0.143 C 
HETATM    3  N3  UNL     1     -11.990 -37.815 -12.310  1.00  0.00    -0.325 N 
HETATM    4  C8  UNL     1     -12.550 -38.423 -13.462  1.00  0.00     0.363 C 
HETATM    5  O2  UNL     1     -11.959 -39.333 -14.095  1.00  0.00    -0.238 OA
HETATM    6  C13 UNL     1     -10.723 -38.082 -11.659  1.00  0.00     0.161 C 
HETATM    7  C14 UNL     1     -10.195 -36.679 -11.438  1.00  0.00     0.165 C 
ENDROOT
BRANCH   1   8
HETATM    8  C5  UNL     1     -11.521 -35.136 -10.002  1.00  0.00     0.093 A 
HETATM    9  N2  UNL     1     -10.491 -35.075  -9.144  1.00  0.00    -0.332 N 
HETATM   10  C4  UNL     1     -10.495 -34.477  -7.961  1.00  0.00     0.104 A 
ATOM     11  H2  UNL     1      -9.625 -35.533  -9.429  1.00  0.00     0.168 HD
HETATM   12  C3  UNL     1     -11.680 -33.855  -7.577  1.00  0.00     0.104 A 
HETATM   13  C2  UNL     1     -12.763 -33.892  -8.426  1.00  0.00     0.146 A 
HETATM   14  N4  UNL     1     -12.664 -34.523  -9.605  1.00  0.00    -0.326 N 
ATOM     15  H4  UNL     1     -13.474 -34.542 -10.224  1.00  0.00     0.169 HD
BRANCH  10  16
HETATM   16  N1  UNL     1      -9.451 -34.487  -7.235  1.00  0.00    -0.385 N 
ATOM     17  H12 UNL     1      -9.440 -33.991  -6.344  1.00  0.00     0.157 HD
ATOM     18  H11 UNL     1      -8.596 -34.977  -7.498  1.00  0.00     0.157 HD
ENDBRANCH  10  16
BRANCH  13  19
HETATM   19  O1  UNL     1     -13.947 -33.261  -8.022  1.00  0.00    -0.341 OA
HETATM   20  C1  UNL     1     -14.336 -33.232  -6.663  1.00  0.00     0.211 C 
ENDBRANCH  13  19
ENDBRANCH   1   8
BRANCH   7  21
HETATM   21  O4  UNL     1      -9.550 -36.310 -12.666  1.00  0.00    -0.290 OA
BRANCH  21  22
HETATM   22  C15 UNL     1      -8.183 -36.105 -12.732  1.00  0.00     0.407 C 
HETATM   23  O5  UNL     1      -7.760 -34.957 -12.467  1.00  0.00    -0.229 OA
BRANCH  22  24
HETATM   24  O6  UNL     1      -7.270 -37.079 -13.069  1.00  0.00    -0.288 OA
BRANCH  24  25
HETATM   25  C16 UNL     1      -7.286 -37.625 -14.361  1.00  0.00     0.062 C 
HETATM   26  C17 UNL     1      -7.598 -36.602 -15.433  1.00  0.00     0.046 C 
HETATM   27  C18 UNL     1      -5.881 -38.150 -14.642  1.00  0.00     0.046 C 
HETATM   28  C19 UNL     1      -8.257 -38.759 -14.510  1.00  0.00     0.046 C 
ENDBRANCH  24  25
ENDBRANCH  22  24
ENDBRANCH  21  22
ENDBRANCH   7  21
BRANCH   4  29
HETATM   29  O3  UNL     1     -13.789 -38.022 -13.927  1.00  0.00    -0.294 OA
BRANCH  29  30
HETATM   30  C9  UNL     1     -14.917 -38.809 -13.647  1.00  0.00     0.061 C 
HETATM   31  C10 UNL     1     -14.713 -39.746 -12.481  1.00  0.00     0.046 C 
HETATM   32  C11 UNL     1     -15.443 -39.550 -14.848  1.00  0.00     0.046 C 
HETATM   33  C12 UNL     1     -16.025 -37.837 -13.223  1.00  0.00     0.046 C 
ENDBRANCH  29  30
ENDBRANCH   4  29
TORSDOF 9
ENDMDL
MODEL 4
REMARK VINA RESULT: -7.422972057      2.073      2.682
REMARK  9 active torsions:
REMARK  status: ('A' for Active; 'I' for Inactive)
REMARK    1  A    between atoms: O1_2  and  C2_3 
REMARK    2  A    between atoms: C4_5  and  N1_6 
REMARK    3  A    between atoms: C5_11  and  C6_12 
REMARK       I    between atoms: N3_14  and  C8_15 
REMARK    4  A    between atoms: C8_15  and  O3_17 
REMARK    5  A    between atoms: O3_17  and  C9_18 
REMARK    6  A    between atoms: C14_23  and  O4_24 
REMARK    7  A    between atoms: O4_24  and  C15_25 
REMARK    8  A    between atoms: C15_25  and  O6_27 
REMARK    9  A    between atoms: O6_27  and  C16_28 
ROOT
HETATM    1  C6  UNL     1     -11.457 -35.863 -11.297  1.00  0.00     0.103 C 
HETATM    2  C7  UNL     1     -12.673 -36.771 -11.519  1.00  0.00     0.143 C 
HETATM    3  N3  UNL     1     -12.081 -37.839 -12.288  1.00  0.00    -0.325 N 
HETATM    4  C8  UNL     1     -12.656 -38.442 -13.436  1.00  0.00     0.363 C 
HETATM    5  O2  UNL     1     -12.087 -39.370 -14.063  1.00  0.00    -0.238 OA
HETATM    6  C13 UNL     1     -10.820 -38.133 -11.636  1.00  0.00     0.161 C 
HETATM    7  C14 UNL     1     -10.257 -36.741 -11.425  1.00  0.00     0.165 C 
ENDROOT
BRANCH   1   8
HETATM    8  C5  UNL     1     -11.545 -35.156  -9.999  1.00  0.00     0.093 A 
HETATM    9  N2  UNL     1     -10.504 -35.089  -9.155  1.00  0.00    -0.332 N 
HETATM   10  C4  UNL     1     -10.491 -34.481  -7.977  1.00  0.00     0.104 A 
ATOM     11  H2  UNL     1      -9.642 -35.550  -9.447  1.00  0.00     0.168 HD
HETATM   12  C3  UNL     1     -11.670 -33.854  -7.583  1.00  0.00     0.104 A 
HETATM   13  C2  UNL     1     -12.764 -33.898  -8.418  1.00  0.00     0.146 A 
HETATM   14  N4  UNL     1     -12.681 -34.539  -9.592  1.00  0.00    -0.326 N 
ATOM     15  H4  UNL     1     -13.500 -34.562 -10.200  1.00  0.00     0.169 HD
BRANCH  10  16
HETATM   16  N1  UNL     1      -9.438 -34.486  -7.266  1.00  0.00    -0.385 N 
ATOM     17  H12 UNL     1      -8.650 -33.887  -7.510  1.00  0.00     0.157 HD
ATOM     18  H11 UNL     1      -9.329 -35.072  -6.438  1.00  0.00     0.157 HD
ENDBRANCH  10  16
BRANCH  13  19
HETATM   19  O1  UNL     1     -13.942 -33.261  -8.004  1.00  0.00    -0.341 OA
HETATM   20  C1  UNL     1     -14.321 -33.234  -6.642  1.00  0.00     0.211 C 
ENDBRANCH  13  19
ENDBRANCH   1   8
BRANCH   7  21
HETATM   21  O4  UNL     1      -9.604 -36.397 -12.656  1.00  0.00    -0.290 OA
BRANCH  21  22
HETATM   22  C15 UNL     1      -8.245 -36.142 -12.707  1.00  0.00     0.407 C 
HETATM   23  O5  UNL     1      -7.866 -34.982 -12.424  1.00  0.00    -0.229 OA
BRANCH  22  24
HETATM   24  O6  UNL     1      -7.294 -37.078 -13.047  1.00  0.00    -0.288 OA
BRANCH  24  25
HETATM   25  C16 UNL     1      -7.312 -37.649 -14.328  1.00  0.00     0.062 C 
HETATM   26  C17 UNL     1      -8.396 -38.692 -14.496  1.00  0.00     0.046 C 
HETATM   27  C18 UNL     1      -7.619 -36.525 -15.313  1.00  0.00     0.046 C 
HETATM   28  C19 UNL     1      -6.004 -38.275 -14.712  1.00  0.00     0.046 C 
ENDBRANCH  24  25
ENDBRANCH  22  24
ENDBRANCH  21  22
ENDBRANCH   7  21
BRANCH   4  29
HETATM   29  O3  UNL     1     -13.885 -38.013 -13.903  1.00  0.00    -0.294 OA
BRANCH  29  30
HETATM   30  C9  UNL     1     -15.052 -38.653 -13.456  1.00  0.00     0.061 C 
HETATM   31  C10 UNL     1     -16.075 -37.697 -12.893  1.00  0.00     0.046 C 
HETATM   32  C11 UNL     1     -14.785 -39.783 -12.496  1.00  0.00     0.046 C 
HETATM   33  C12 UNL     1     -15.697 -39.285 -14.696  1.00  0.00     0.046 C 
ENDBRANCH  29  30
ENDBRANCH   4  29
TORSDOF 9
ENDMDL
MODEL 5
REMARK VINA RESULT: -7.389091150      1.211      1.697
REMARK  9 active torsions:
REMARK  status: ('A' for Active; 'I' for Inactive)
REMARK    1  A    between atoms: O1_2  and  C2_3 
REMARK    2  A    between atoms: C4_5  and  N1_6 
REMARK    3  A    between atoms: C5_11  and  C6_12 
REMARK       I    between atoms: N3_14  and  C8_15 
REMARK    4  A    between atoms: C8_15  and  O3_17 
REMARK    5  A    between atoms: O3_17  and  C9_18 
REMARK    6  A    between atoms: C14_23  and  O4_24 
REMARK    7  A    between atoms: O4_24  and  C15_25 
REMARK    8  A    between atoms: C15_25  and  O6_27 
REMARK    9  A    between atoms: O6_27  and  C16_28 
ROOT
HETATM    1  C6  UNL     1     -12.587 -36.363 -11.448  1.00  0.00     0.103 C 
HETATM    2  C7  UNL     1     -14.062 -36.400 -11.867  1.00  0.00     0.143 C 
HETATM    3  N3  UNL     1     -14.166 -37.744 -12.385  1.00  0.00    -0.325 N 
HETATM    4  C8  UNL     1     -14.835 -38.114 -13.579  1.00  0.00     0.363 C 
HETATM    5  O2  UNL     1     -14.890 -39.305 -13.976  1.00  0.00    -0.238 OA
HETATM    6  C13 UNL     1     -13.458 -38.580 -11.437  1.00  0.00     0.161 C 
HETATM    7  C14 UNL     1     -12.187 -37.782 -11.221  1.00  0.00     0.165 C 
ENDROOT
BRANCH   1   8
HETATM    8  C5  UNL     1     -12.385 -35.489 -10.271  1.00  0.00     0.093 A 
HETATM    9  N2  UNL     1     -11.192 -35.374  -9.668  1.00  0.00    -0.332 N 
HETATM   10  C4  UNL     1     -10.920 -34.619  -8.612  1.00  0.00     0.104 A 
ATOM     11  H2  UNL     1     -10.423 -35.920 -10.057  1.00  0.00     0.168 HD
HETATM   12  C3  UNL     1     -11.973 -33.877  -8.084  1.00  0.00     0.104 A 
HETATM   13  C2  UNL     1     -13.215 -33.964  -8.671  1.00  0.00     0.146 A 
HETATM   14  N4  UNL     1     -13.395 -34.757  -9.737  1.00  0.00    -0.326 N 
ATOM     15  H4  UNL     1     -14.320 -34.811 -10.162  1.00  0.00     0.169 HD
BRANCH  10  16
HETATM   16  N1  UNL     1      -9.744 -34.594  -8.130  1.00  0.00    -0.385 N 
ATOM     17  H12 UNL     1      -9.577 -34.889  -7.168  1.00  0.00     0.157 HD
ATOM     18  H11 UNL     1      -8.931 -34.286  -8.663  1.00  0.00     0.157 HD
ENDBRANCH  10  16
BRANCH  13  19
HETATM   19  O1  UNL     1     -14.263 -33.211  -8.125  1.00  0.00    -0.341 OA
HETATM   20  C1  UNL     1     -14.543 -33.240  -6.740  1.00  0.00     0.211 C 
ENDBRANCH  13  19
ENDBRANCH   1   8
BRANCH   7  21
HETATM   21  O4  UNL     1     -11.308 -38.157 -12.292  1.00  0.00    -0.290 OA
BRANCH  21  22
HETATM   22  C15 UNL     1      -9.937 -38.204 -12.119  1.00  0.00     0.407 C 
HETATM   23  O5  UNL     1      -9.457 -37.578 -11.146  1.00  0.00    -0.229 OA
BRANCH  22  24
HETATM   24  O6  UNL     1      -9.075 -38.891 -12.945  1.00  0.00    -0.288 OA
BRANCH  24  25
HETATM   25  C16 UNL     1      -8.748 -38.358 -14.200  1.00  0.00     0.062 C 
HETATM   26  C17 UNL     1      -8.602 -36.851 -14.184  1.00  0.00     0.046 C 
HETATM   27  C18 UNL     1      -7.389 -38.932 -14.589  1.00  0.00     0.046 C 
HETATM   28  C19 UNL     1      -9.740 -38.714 -15.269  1.00  0.00     0.046 C 
ENDBRANCH  24  25
ENDBRANCH  22  24
ENDBRANCH  21  22
ENDBRANCH   7  21
BRANCH   4  29
HETATM   29  O3  UNL     1     -15.460 -37.152 -14.353  1.00  0.00    -0.294 OA
BRANCH  29  30
HETATM   30  C9  UNL     1     -14.847 -36.719 -15.539  1.00  0.00     0.061 C 
HETATM   31  C10 UNL     1     -15.740 -36.843 -16.749  1.00  0.00     0.046 C 
HETATM   32  C11 UNL     1     -13.507 -37.361 -15.789  1.00  0.00     0.046 C 
HETATM   33  C12 UNL     1     -14.579 -35.219 -15.360  1.00  0.00     0.046 C 
ENDBRANCH  29  30
ENDBRANCH   4  29
TORSDOF 9
ENDMDL
