MODEL 1
REMARK VINA RESULT: -7.268793639      0.000      0.000
REMARK  6 active torsions:
REMARK  status: ('A' for Active; 'I' for Inactive)
REMARK    1  A    between atoms: C10_13  and  O4_14 
REMARK    2  A    between atoms: C12_17  and  O5_18 
REMARK    3  A    between atoms: O5_18  and  C13_19 
REMARK    4  A    between atoms: C13_19  and  C14_21 
REMARK    5  A    between atoms: C14_21  and  C16_23 
REMARK    6  A    between atoms: C20_27  and  O7_28 
ROOT
HETATM    1  C1  UNL     1     -13.291 -35.068 -10.624  1.00  0.00     0.012 C 
HETATM    2  C2  UNL     1     -12.397 -36.108 -11.316  1.00  0.00     0.008 C 
HETATM    3  C3  UNL     1     -11.003 -35.841 -10.867  1.00  0.00     0.183 C 
HETATM    4  O1  UNL     1     -10.053 -36.802 -11.083  1.00  0.00    -0.321 OA
HETATM    5  C4  UNL     1      -9.698 -37.585 -12.106  1.00  0.00     0.261 C 
HETATM    6  O2  UNL     1      -9.337 -38.769 -11.945  1.00  0.00    -0.265 OA
HETATM    7  C5  UNL     1      -9.716 -37.082 -13.493  1.00  0.00     0.151 C 
HETATM    8  C6  UNL     1      -9.246 -38.065 -14.504  1.00  0.00     0.092 A 
HETATM    9  C7  UNL     1      -7.772 -37.982 -14.941  1.00  0.00     0.049 C 
HETATM   10  O3  UNL     1      -9.600 -39.477 -14.192  1.00  0.00    -0.369 OA
HETATM   11  C8  UNL     1     -10.122 -38.804 -15.296  1.00  0.00     0.159 A 
HETATM   12  C9  UNL     1     -11.586 -38.556 -15.341  1.00  0.00     0.067 C 
HETATM   13  C10 UNL     1     -12.388 -39.814 -15.007  1.00  0.00     0.123 C 
HETATM   14  C11 UNL     1     -13.830 -39.455 -14.964  1.00  0.00     0.064 C 
HETATM   15  C12 UNL     1     -14.440 -39.390 -13.599  1.00  0.00     0.136 C 
HETATM   16  C19 UNL     1     -13.492 -39.186 -12.474  1.00  0.00     0.064 C 
HETATM   17  C20 UNL     1     -13.969 -38.048 -11.580  1.00  0.00     0.121 C 
HETATM   18  C21 UNL     1     -12.854 -37.450 -10.790  1.00  0.00     0.038 C 
ENDROOT
BRANCH  15  19
HETATM   19  O5  UNL     1     -15.216 -40.543 -13.322  1.00  0.00    -0.316 OA
BRANCH  19  20
HETATM   20  C13 UNL     1     -16.446 -40.503 -12.710  1.00  0.00     0.263 C 
HETATM   21  O6  UNL     1     -17.361 -39.820 -13.202  1.00  0.00    -0.265 OA
BRANCH  20  22
HETATM   22  C14 UNL     1     -16.688 -41.263 -11.477  1.00  0.00     0.085 C 
HETATM   23  C15 UNL     1     -16.823 -40.256 -10.347  1.00  0.00     0.021 C 
BRANCH  22  24
HETATM   24  C16 UNL     1     -15.545 -42.196 -11.134  1.00  0.00    -0.010 C 
HETATM   25  C17 UNL     1     -15.335 -42.322  -9.651  1.00  0.00     0.010 C 
HETATM   26  C18 UNL     1     -15.684 -43.553 -11.734  1.00  0.00     0.010 C 
ENDBRANCH  22  24
ENDBRANCH  20  22
ENDBRANCH  19  20
ENDBRANCH  15  19
BRANCH  13  27
HETATM   27  O4  UNL     1     -12.132 -40.703 -16.081  1.00  0.00    -0.395 OA
ATOM     28  H4  UNL     1     -12.773 -41.397 -15.981  1.00  0.00     0.210 HD
ENDBRANCH  13  27
BRANCH  17  29
HETATM   29  O7  UNL     1     -14.717 -37.100 -12.271  1.00  0.00    -0.395 OA
ATOM     30  H7  UNL     1     -14.381 -36.933 -13.143  1.00  0.00     0.210 HD
ENDBRANCH  17  29
TORSDOF 6
ENDMDL
MODEL 2
REMARK VINA RESULT: -7.193058058      0.907      1.405
REMARK  6 active torsions:
REMARK  status: ('A' for Active; 'I' for Inactive)
REMARK    1  A    between atoms: C10_13  and  O4_14 
REMARK    2  A    between atoms: C12_17  and  O5_18 
REMARK    3  A    between atoms: O5_18  and  C13_19 
REMARK    4  A    between atoms: C13_19  and  C14_21 
REMARK    5  A    between atoms: C14_21  and  C16_23 
REMARK    6  A    between atoms: C20_27  and  O7_28 
ROOT
HETATM    1  C1  UNL     1     -13.863 -34.927 -11.499  1.00  0.00     0.012 C 
HETATM    2  C2  UNL     1     -12.813 -35.982 -11.877  1.00  0.00     0.008 C 
HETATM    3  C3  UNL     1     -11.561 -35.616 -11.161  1.00  0.00     0.183 C 
HETATM    4  O1  UNL     1     -10.564 -36.550 -11.073  1.00  0.00    -0.321 OA
HETATM    5  C4  UNL     1      -9.972 -37.402 -11.914  1.00  0.00     0.261 C 
HETATM    6  O2  UNL     1      -9.627 -38.550 -11.567  1.00  0.00    -0.265 OA
HETATM    7  C5  UNL     1      -9.694 -37.022 -13.313  1.00  0.00     0.151 C 
HETATM    8  C6  UNL     1      -8.988 -38.068 -14.098  1.00  0.00     0.092 A 
HETATM    9  C7  UNL     1      -7.456 -37.959 -14.209  1.00  0.00     0.049 C 
HETATM   10  O3  UNL     1      -9.369 -39.462 -13.739  1.00  0.00    -0.369 OA
HETATM   11  C8  UNL     1      -9.649 -38.911 -14.989  1.00  0.00     0.159 A 
HETATM   12  C9  UNL     1     -11.071 -38.733 -15.377  1.00  0.00     0.067 C 
HETATM   13  C10 UNL     1     -11.897 -39.991 -15.109  1.00  0.00     0.123 C 
HETATM   14  C11 UNL     1     -13.321 -39.694 -15.417  1.00  0.00     0.064 C 
HETATM   15  C12 UNL     1     -14.220 -39.537 -14.231  1.00  0.00     0.136 C 
HETATM   16  C19 UNL     1     -13.550 -39.194 -12.950  1.00  0.00     0.064 C 
HETATM   17  C20 UNL     1     -14.241 -38.005 -12.293  1.00  0.00     0.121 C 
HETATM   18  C21 UNL     1     -13.343 -37.293 -11.339  1.00  0.00     0.038 C 
ENDROOT
BRANCH  15  19
HETATM   19  O5  UNL     1     -15.011 -40.695 -14.023  1.00  0.00    -0.316 OA
BRANCH  19  20
HETATM   20  C13 UNL     1     -14.682 -41.690 -13.134  1.00  0.00     0.263 C 
HETATM   21  O6  UNL     1     -13.560 -42.223 -13.187  1.00  0.00    -0.265 OA
BRANCH  20  22
HETATM   22  C14 UNL     1     -15.648 -42.129 -12.118  1.00  0.00     0.085 C 
HETATM   23  C15 UNL     1     -17.026 -41.697 -12.591  1.00  0.00     0.021 C 
BRANCH  22  24
HETATM   24  C16 UNL     1     -15.401 -41.492 -10.766  1.00  0.00    -0.010 C 
HETATM   25  C17 UNL     1     -16.420 -40.438 -10.435  1.00  0.00     0.010 C 
HETATM   26  C18 UNL     1     -15.323 -42.477  -9.649  1.00  0.00     0.010 C 
ENDBRANCH  22  24
ENDBRANCH  20  22
ENDBRANCH  19  20
ENDBRANCH  15  19
BRANCH  13  27
HETATM   27  O4  UNL     1     -11.389 -40.958 -16.013  1.00  0.00    -0.395 OA
ATOM     28  H4  UNL     1     -12.154 -41.301 -16.459  1.00  0.00     0.210 HD
ENDBRANCH  13  27
BRANCH  17  29
HETATM   29  O7  UNL     1     -14.840 -37.155 -13.218  1.00  0.00    -0.395 OA
ATOM     30  H7  UNL     1     -14.538 -36.258 -13.139  1.00  0.00     0.210 HD
ENDBRANCH  17  29
TORSDOF 6
ENDMDL
MODEL 3
REMARK VINA RESULT: -6.911147001      0.858      1.238
REMARK  6 active torsions:
REMARK  status: ('A' for Active; 'I' for Inactive)
REMARK    1  A    between atoms: C10_13  and  O4_14 
REMARK    2  A    between atoms: C12_17  and  O5_18 
REMARK    3  A    between atoms: O5_18  and  C13_19 
REMARK    4  A    between atoms: C13_19  and  C14_21 
REMARK    5  A    between atoms: C14_21  and  C16_23 
REMARK    6  A    between atoms: C20_27  and  O7_28 
ROOT
HETATM    1  C1  UNL     1     -13.679 -34.785 -11.492  1.00  0.00     0.012 C 
HETATM    2  C2  UNL     1     -12.640 -35.851 -11.868  1.00  0.00     0.008 C 
HETATM    3  C3  UNL     1     -11.393 -35.512 -11.131  1.00  0.00     0.183 C 
HETATM    4  O1  UNL     1     -10.411 -36.462 -11.040  1.00  0.00    -0.321 OA
HETATM    5  C4  UNL     1      -9.819 -37.313 -11.883  1.00  0.00     0.261 C 
HETATM    6  O2  UNL     1      -9.497 -38.470 -11.545  1.00  0.00    -0.265 OA
HETATM    7  C5  UNL     1      -9.516 -36.921 -13.273  1.00  0.00     0.151 C 
HETATM    8  C6  UNL     1      -8.815 -37.968 -14.061  1.00  0.00     0.092 A 
HETATM    9  C7  UNL     1      -7.280 -37.880 -14.149  1.00  0.00     0.049 C 
HETATM   10  O3  UNL     1      -9.221 -39.360 -13.724  1.00  0.00    -0.369 OA
HETATM   11  C8  UNL     1      -9.476 -38.790 -14.971  1.00  0.00     0.159 A 
HETATM   12  C9  UNL     1     -10.890 -38.587 -15.376  1.00  0.00     0.067 C 
HETATM   13  C10 UNL     1     -11.737 -39.835 -15.135  1.00  0.00     0.123 C 
HETATM   14  C11 UNL     1     -13.152 -39.514 -15.459  1.00  0.00     0.064 C 
HETATM   15  C12 UNL     1     -14.066 -39.357 -14.284  1.00  0.00     0.136 C 
HETATM   16  C19 UNL     1     -13.409 -39.039 -12.989  1.00  0.00     0.064 C 
HETATM   17  C20 UNL     1     -14.091 -37.848 -12.328  1.00  0.00     0.121 C 
HETATM   18  C21 UNL     1     -13.197 -37.160 -11.353  1.00  0.00     0.038 C 
ENDROOT
BRANCH  15  19
HETATM   19  O5  UNL     1     -14.876 -40.506 -14.100  1.00  0.00    -0.316 OA
BRANCH  19  20
HETATM   20  C13 UNL     1     -15.581 -40.762 -12.948  1.00  0.00     0.263 C 
HETATM   21  O6  UNL     1     -16.586 -40.085 -12.673  1.00  0.00    -0.265 OA
BRANCH  20  22
HETATM   22  C14 UNL     1     -15.155 -41.834 -12.039  1.00  0.00     0.085 C 
HETATM   23  C15 UNL     1     -16.020 -43.047 -12.337  1.00  0.00     0.021 C 
BRANCH  22  24
HETATM   24  C16 UNL     1     -15.350 -41.472 -10.581  1.00  0.00    -0.010 C 
HETATM   25  C17 UNL     1     -15.418 -42.684  -9.695  1.00  0.00     0.010 C 
HETATM   26  C18 UNL     1     -14.318 -40.532 -10.058  1.00  0.00     0.010 C 
ENDBRANCH  22  24
ENDBRANCH  20  22
ENDBRANCH  19  20
ENDBRANCH  15  19
BRANCH  13  27
HETATM   27  O4  UNL     1     -11.231 -40.799 -16.043  1.00  0.00    -0.395 OA
ATOM     28  H4  UNL     1     -10.577 -41.279 -15.548  1.00  0.00     0.210 HD
ENDBRANCH  13  27
BRANCH  17  29
HETATM   29  O7  UNL     1     -14.664 -36.978 -13.251  1.00  0.00    -0.395 OA
ATOM     30  H7  UNL     1     -15.546 -37.231 -13.495  1.00  0.00     0.210 HD
ENDBRANCH  17  29
TORSDOF 6
ENDMDL
MODEL 4
REMARK VINA RESULT: -6.892201571      2.718      4.071
REMARK  6 active torsions:
REMARK  status: ('A' for Active; 'I' for Inactive)
REMARK    1  A    between atoms: C10_13  and  O4_14 
REMARK    2  A    between atoms: C12_17  and  O5_18 
REMARK    3  A    between atoms: O5_18  and  C13_19 
REMARK    4  A    between atoms: C13_19  and  C14_21 
REMARK    5  A    between atoms: C14_21  and  C16_23 
REMARK    6  A    between atoms: C20_27  and  O7_28 
ROOT
HETATM    1  C1  UNL     1     -15.319 -34.530 -16.148  1.00  0.00     0.012 C 
HETATM    2  C2  UNL     1     -14.890 -34.895 -14.719  1.00  0.00     0.008 C 
HETATM    3  C3  UNL     1     -14.525 -33.621 -14.043  1.00  0.00     0.183 C 
HETATM    4  O1  UNL     1     -14.406 -33.618 -12.679  1.00  0.00    -0.321 OA
HETATM    5  C4  UNL     1     -13.827 -34.404 -11.766  1.00  0.00     0.261 C 
HETATM    6  O2  UNL     1     -14.353 -34.638 -10.659  1.00  0.00    -0.265 OA
HETATM    7  C5  UNL     1     -12.522 -35.042 -12.028  1.00  0.00     0.151 C 
HETATM    8  C6  UNL     1     -11.998 -35.843 -10.890  1.00  0.00     0.092 A 
HETATM    9  C7  UNL     1     -10.998 -35.159  -9.942  1.00  0.00     0.049 C 
HETATM   10  O3  UNL     1     -13.051 -36.537 -10.097  1.00  0.00    -0.369 OA
HETATM   11  C8  UNL     1     -12.099 -37.232 -10.843  1.00  0.00     0.159 A 
HETATM   12  C9  UNL     1     -12.566 -38.055 -11.987  1.00  0.00     0.067 C 
HETATM   13  C10 UNL     1     -13.751 -38.941 -11.607  1.00  0.00     0.123 C 
HETATM   14  C11 UNL     1     -14.226 -39.644 -12.828  1.00  0.00     0.064 C 
HETATM   15  C12 UNL     1     -15.513 -39.142 -13.404  1.00  0.00     0.136 C 
HETATM   16  C19 UNL     1     -15.892 -37.754 -13.035  1.00  0.00     0.064 C 
HETATM   17  C20 UNL     1     -16.256 -36.956 -14.281  1.00  0.00     0.121 C 
HETATM   18  C21 UNL     1     -16.119 -35.486 -14.066  1.00  0.00     0.038 C 
ENDROOT
BRANCH  15  19
HETATM   19  O5  UNL     1     -16.596 -39.998 -13.079  1.00  0.00    -0.316 OA
BRANCH  19  20
HETATM   20  C13 UNL     1     -16.451 -41.339 -12.817  1.00  0.00     0.263 C 
HETATM   21  O6  UNL     1     -16.158 -42.123 -13.736  1.00  0.00    -0.265 OA
BRANCH  20  22
HETATM   22  C14 UNL     1     -16.641 -41.855 -11.454  1.00  0.00     0.085 C 
HETATM   23  C15 UNL     1     -16.826 -40.655 -10.541  1.00  0.00     0.021 C 
BRANCH  22  24
HETATM   24  C16 UNL     1     -15.443 -42.637 -10.956  1.00  0.00    -0.010 C 
HETATM   25  C17 UNL     1     -15.302 -42.577  -9.461  1.00  0.00     0.010 C 
HETATM   26  C18 UNL     1     -15.435 -44.061 -11.399  1.00  0.00     0.010 C 
ENDBRANCH  22  24
ENDBRANCH  20  22
ENDBRANCH  19  20
ENDBRANCH  15  19
BRANCH  13  27
HETATM   27  O4  UNL     1     -13.225 -39.872 -10.676  1.00  0.00    -0.395 OA
ATOM     28  H4  UNL     1     -12.505 -40.292 -11.131  1.00  0.00     0.210 HD
ENDBRANCH  13  27
BRANCH  17  29
HETATM   29  O7  UNL     1     -15.591 -37.405 -15.419  1.00  0.00    -0.395 OA
ATOM     30  H7  UNL     1     -15.925 -38.236 -15.733  1.00  0.00     0.210 HD
ENDBRANCH  17  29
TORSDOF 6
ENDMDL
MODEL 5
REMARK VINA RESULT: -6.762534776      3.019      6.599
REMARK  6 active torsions:
REMARK  status: ('A' for Active; 'I' for Inactive)
REMARK    1  A    between atoms: C10_13  and  O4_14 
REMARK    2  A    between atoms: C12_17  and  O5_18 
REMARK    3  A    between atoms: O5_18  and  C13_19 
REMARK    4  A    between atoms: C13_19  and  C14_21 
REMARK    5  A    between atoms: C14_21  and  C16_23 
REMARK    6  A    between atoms: C20_27  and  O7_28 
ROOT
HETATM    1  C1  UNL     1      -7.936 -37.460 -13.949  1.00  0.00     0.012 C 
HETATM    2  C2  UNL     1      -9.436 -37.785 -13.884  1.00  0.00     0.008 C 
HETATM    3  C3  UNL     1      -9.652 -38.984 -14.737  1.00  0.00     0.183 C 
HETATM    4  O1  UNL     1     -10.832 -39.669 -14.613  1.00  0.00    -0.321 OA
HETATM    5  C4  UNL     1     -12.125 -39.343 -14.541  1.00  0.00     0.261 C 
HETATM    6  O2  UNL     1     -12.924 -39.946 -13.795  1.00  0.00    -0.265 OA
HETATM    7  C5  UNL     1     -12.679 -38.239 -15.349  1.00  0.00     0.151 C 
HETATM    8  C6  UNL     1     -14.144 -38.041 -15.185  1.00  0.00     0.092 A 
HETATM    9  C7  UNL     1     -15.069 -38.702 -16.222  1.00  0.00     0.049 C 
HETATM   10  O3  UNL     1     -14.647 -38.318 -13.811  1.00  0.00    -0.369 OA
HETATM   11  C8  UNL     1     -14.679 -37.043 -14.373  1.00  0.00     0.159 A 
HETATM   12  C9  UNL     1     -13.859 -35.976 -13.745  1.00  0.00     0.067 C 
HETATM   13  C10 UNL     1     -14.040 -35.936 -12.228  1.00  0.00     0.123 C 
HETATM   14  C11 UNL     1     -13.107 -34.924 -11.668  1.00  0.00     0.064 C 
HETATM   15  C12 UNL     1     -11.917 -35.472 -10.943  1.00  0.00     0.136 C 
HETATM   16  C19 UNL     1     -11.535 -36.866 -11.283  1.00  0.00     0.064 C 
HETATM   17  C20 UNL     1     -10.047 -36.945 -11.597  1.00  0.00     0.121 C 
HETATM   18  C21 UNL     1      -9.713 -38.131 -12.438  1.00  0.00     0.038 C 
ENDROOT
BRANCH  15  19
HETATM   19  O5  UNL     1     -12.083 -35.387  -9.537  1.00  0.00    -0.316 OA
BRANCH  19  20
HETATM   20  C13 UNL     1     -11.261 -34.651  -8.718  1.00  0.00     0.263 C 
HETATM   21  O6  UNL     1     -10.028 -34.784  -8.795  1.00  0.00    -0.265 OA
BRANCH  20  22
HETATM   22  C14 UNL     1     -11.831 -33.705  -7.750  1.00  0.00     0.085 C 
HETATM   23  C15 UNL     1     -11.196 -34.002  -6.402  1.00  0.00     0.021 C 
BRANCH  22  24
HETATM   24  C16 UNL     1     -13.331 -33.858  -7.600  1.00  0.00    -0.010 C 
HETATM   25  C17 UNL     1     -13.826 -33.364  -6.270  1.00  0.00     0.010 C 
HETATM   26  C18 UNL     1     -14.108 -33.207  -8.693  1.00  0.00     0.010 C 
ENDBRANCH  22  24
ENDBRANCH  20  22
ENDBRANCH  19  20
ENDBRANCH  15  19
BRANCH  13  27
HETATM   27  O4  UNL     1     -15.384 -35.529 -12.034  1.00  0.00    -0.395 OA
ATOM     28  H4  UNL     1     -15.620 -35.867 -11.177  1.00  0.00     0.210 HD
ENDBRANCH  13  27
BRANCH  17  29
HETATM   29  O7  UNL     1      -9.542 -35.754 -12.111  1.00  0.00    -0.395 OA
ATOM     30  H7  UNL     1      -8.715 -35.506 -11.716  1.00  0.00     0.210 HD
ENDBRANCH  17  29
TORSDOF 6
ENDMDL
