MODEL 1
REMARK VINA RESULT: -6.165842931      0.000      0.000
REMARK  9 active torsions:
REMARK  status: ('A' for Active; 'I' for Inactive)
REMARK    1  A    between atoms: S1_2  and  C2_3 
REMARK    2  A    between atoms: C2_3  and  N2_12 
REMARK    3  A    between atoms: N1_4  and  C3_6 
REMARK    4  A    between atoms: N2_12  and  C7_14 
REMARK    5  A    between atoms: C7_14  and  S3_23 
REMARK       I    between atoms: N3_15  and  C8_17 
REMARK    6  A    between atoms: C8_17  and  C9_19 
REMARK    7  A    between atoms: S3_23  and  C13_24 
REMARK    8  A    between atoms: C13_24  and  C14_25 
REMARK    9  A    between atoms: C14_25  and  O3_28 
ROOT
HETATM    1  C7  UNL     1     -15.825 -38.043 -12.644  1.00  0.00     0.148 C 
HETATM    2  N3  UNL     1     -15.355 -38.764 -11.702  1.00  0.00    -0.307 N 
ATOM      3  H3  UNL     1     -15.125 -38.288 -10.830  1.00  0.00     0.171 HD
HETATM    4  C8  UNL     1     -15.125 -40.142 -11.749  1.00  0.00     0.231 C 
HETATM    5  O2  UNL     1     -14.124 -40.568 -12.377  1.00  0.00    -0.272 OA
ENDROOT
BRANCH   1   6
HETATM    6  N2  UNL     1     -16.014 -36.661 -12.483  1.00  0.00    -0.317 N 
ATOM      7  H2  UNL     1     -16.971 -36.310 -12.496  1.00  0.00     0.170 HD
BRANCH   6   8
HETATM    8  C2  UNL     1     -14.970 -35.719 -12.304  1.00  0.00     0.142 C 
HETATM    9  N1  UNL     1     -13.975 -36.062 -11.567  1.00  0.00    -0.351 N 
ATOM     10  H1  UNL     1     -13.947 -36.984 -11.131  1.00  0.00     0.163 HD
BRANCH   8  11
HETATM   11  S1  UNL     1     -15.135 -34.142 -13.116  1.00  0.00    -0.099 SA
HETATM   12  C1  UNL     1     -14.890 -34.290 -14.884  1.00  0.00     0.099 C 
ENDBRANCH   8  11
BRANCH   9  13
HETATM   13  C3  UNL     1     -12.913 -35.138 -11.368  1.00  0.00     0.215 C 
HETATM   14  S2  UNL     1     -12.954 -34.371  -9.704  1.00  0.00    -0.136 SA
HETATM   15  C4  UNL     1     -11.234 -34.783  -9.212  1.00  0.00     0.084 C 
HETATM   16  C5  UNL     1     -10.974 -35.971 -10.108  1.00  0.00     0.091 C 
HETATM   17  C6  UNL     1     -11.562 -35.723 -11.415  1.00  0.00     0.160 C 
HETATM   18  O1  UNL     1     -11.001 -35.972 -12.489  1.00  0.00    -0.295 OA
ENDBRANCH   9  13
ENDBRANCH   6   8
ENDBRANCH   1   6
BRANCH   1  19
HETATM   19  S3  UNL     1     -16.244 -38.809 -14.184  1.00  0.00    -0.091 SA
BRANCH  19  20
HETATM   20  C13 UNL     1     -16.719 -37.521 -15.362  1.00  0.00     0.119 C 
BRANCH  20  21
HETATM   21  C14 UNL     1     -18.183 -37.149 -15.224  1.00  0.00     0.059 C 
HETATM   22  C15 UNL     1     -18.737 -36.731 -16.553  1.00  0.00     0.046 C 
HETATM   23  C16 UNL     1     -18.903 -38.343 -14.641  1.00  0.00     0.046 C 
BRANCH  21  24
HETATM   24  O3  UNL     1     -18.249 -36.089 -14.333  1.00  0.00    -0.390 OA
ATOM     25  H3  UNL     1     -18.169 -35.291 -14.843  1.00  0.00     0.210 HD
ENDBRANCH  21  24
ENDBRANCH  20  21
ENDBRANCH  19  20
ENDBRANCH   1  19
BRANCH   4  26
HETATM   26  C9  UNL     1     -16.022 -41.110 -11.083  1.00  0.00     0.030 C 
HETATM   27  C10 UNL     1     -15.290 -42.002 -10.106  1.00  0.00     0.025 C 
HETATM   28  C11 UNL     1     -16.680 -42.016 -12.110  1.00  0.00     0.025 C 
HETATM   29  C12 UNL     1     -17.140 -40.392 -10.328  1.00  0.00     0.025 C 
ENDBRANCH   4  26
TORSDOF 9
ENDMDL
MODEL 2
REMARK VINA RESULT: -6.159898356      0.520      1.002
REMARK  9 active torsions:
REMARK  status: ('A' for Active; 'I' for Inactive)
REMARK    1  A    between atoms: S1_2  and  C2_3 
REMARK    2  A    between atoms: C2_3  and  N2_12 
REMARK    3  A    between atoms: N1_4  and  C3_6 
REMARK    4  A    between atoms: N2_12  and  C7_14 
REMARK    5  A    between atoms: C7_14  and  S3_23 
REMARK       I    between atoms: N3_15  and  C8_17 
REMARK    6  A    between atoms: C8_17  and  C9_19 
REMARK    7  A    between atoms: S3_23  and  C13_24 
REMARK    8  A    between atoms: C13_24  and  C14_25 
REMARK    9  A    between atoms: C14_25  and  O3_28 
ROOT
HETATM    1  C7  UNL     1     -15.571 -38.240 -12.694  1.00  0.00     0.148 C 
HETATM    2  N3  UNL     1     -15.160 -38.958 -11.723  1.00  0.00    -0.307 N 
ATOM      3  H3  UNL     1     -14.923 -38.471 -10.859  1.00  0.00     0.171 HD
HETATM    4  C8  UNL     1     -15.001 -40.347 -11.728  1.00  0.00     0.231 C 
HETATM    5  O2  UNL     1     -14.011 -40.842 -12.322  1.00  0.00    -0.272 OA
ENDROOT
BRANCH   1   6
HETATM    6  N2  UNL     1     -15.691 -36.847 -12.574  1.00  0.00    -0.317 N 
ATOM      7  H2  UNL     1     -16.631 -36.450 -12.580  1.00  0.00     0.170 HD
BRANCH   6   8
HETATM    8  C2  UNL     1     -14.601 -35.951 -12.444  1.00  0.00     0.142 C 
HETATM    9  N1  UNL     1     -14.001 -35.899 -11.309  1.00  0.00    -0.351 N 
ATOM     10  H1  UNL     1     -14.308 -36.488 -10.534  1.00  0.00     0.163 HD
BRANCH   8  11
HETATM   11  S1  UNL     1     -14.162 -34.974 -13.868  1.00  0.00    -0.099 SA
HETATM   12  C1  UNL     1     -14.856 -33.326 -13.770  1.00  0.00     0.099 C 
ENDBRANCH   8  11
BRANCH   9  13
HETATM   13  C3  UNL     1     -12.904 -35.010 -11.148  1.00  0.00     0.215 C 
HETATM   14  S2  UNL     1     -12.858 -34.249  -9.481  1.00  0.00    -0.136 SA
HETATM   15  C4  UNL     1     -11.134 -34.716  -9.056  1.00  0.00     0.084 C 
HETATM   16  C5  UNL     1     -10.946 -35.908  -9.965  1.00  0.00     0.091 C 
HETATM   17  C6  UNL     1     -11.575 -35.636 -11.248  1.00  0.00     0.160 C 
HETATM   18  O1  UNL     1     -11.063 -35.898 -12.343  1.00  0.00    -0.295 OA
ENDBRANCH   9  13
ENDBRANCH   6   8
ENDBRANCH   1   6
BRANCH   1  19
HETATM   19  S3  UNL     1     -15.999 -39.026 -14.222  1.00  0.00    -0.091 SA
BRANCH  19  20
HETATM   20  C13 UNL     1     -16.706 -37.786 -15.333  1.00  0.00     0.119 C 
BRANCH  20  21
HETATM   21  C14 UNL     1     -18.180 -37.564 -15.057  1.00  0.00     0.059 C 
HETATM   22  C15 UNL     1     -18.901 -37.241 -16.332  1.00  0.00     0.046 C 
HETATM   23  C16 UNL     1     -18.711 -38.810 -14.386  1.00  0.00     0.046 C 
BRANCH  21  24
HETATM   24  O3  UNL     1     -18.272 -36.492 -14.182  1.00  0.00    -0.390 OA
ATOM     25  H3  UNL     1     -18.666 -36.819 -13.382  1.00  0.00     0.210 HD
ENDBRANCH  21  24
ENDBRANCH  20  21
ENDBRANCH  19  20
ENDBRANCH   1  19
BRANCH   4  26
HETATM   26  C9  UNL     1     -15.961 -41.249 -11.057  1.00  0.00     0.030 C 
HETATM   27  C10 UNL     1     -17.061 -40.495 -10.343  1.00  0.00     0.025 C 
HETATM   28  C11 UNL     1     -15.252 -42.099 -10.016  1.00  0.00     0.025 C 
HETATM   29  C12 UNL     1     -16.609 -42.203 -12.059  1.00  0.00     0.025 C 
ENDBRANCH   4  26
TORSDOF 9
ENDMDL
MODEL 3
REMARK VINA RESULT: -6.125661222      3.000      4.154
REMARK  9 active torsions:
REMARK  status: ('A' for Active; 'I' for Inactive)
REMARK    1  A    between atoms: S1_2  and  C2_3 
REMARK    2  A    between atoms: C2_3  and  N2_12 
REMARK    3  A    between atoms: N1_4  and  C3_6 
REMARK    4  A    between atoms: N2_12  and  C7_14 
REMARK    5  A    between atoms: C7_14  and  S3_23 
REMARK       I    between atoms: N3_15  and  C8_17 
REMARK    6  A    between atoms: C8_17  and  C9_19 
REMARK    7  A    between atoms: S3_23  and  C13_24 
REMARK    8  A    between atoms: C13_24  and  C14_25 
REMARK    9  A    between atoms: C14_25  and  O3_28 
ROOT
HETATM    1  C7  UNL     1     -13.716 -37.229 -12.802  1.00  0.00     0.148 C 
HETATM    2  N3  UNL     1     -13.478 -38.480 -12.714  1.00  0.00    -0.307 N 
ATOM      3  H3  UNL     1     -12.518 -38.751 -12.504  1.00  0.00     0.171 HD
HETATM    4  C8  UNL     1     -14.405 -39.514 -12.878  1.00  0.00     0.231 C 
HETATM    5  O2  UNL     1     -14.777 -39.815 -14.040  1.00  0.00    -0.272 OA
ENDROOT
BRANCH   1   6
HETATM    6  N2  UNL     1     -12.702 -36.277 -12.617  1.00  0.00    -0.317 N 
ATOM      7  H2  UNL     1     -12.941 -35.296 -12.763  1.00  0.00     0.170 HD
BRANCH   6   8
HETATM    8  C2  UNL     1     -11.369 -36.579 -12.241  1.00  0.00     0.142 C 
HETATM    9  N1  UNL     1     -10.508 -36.754 -13.179  1.00  0.00    -0.351 N 
ATOM     10  H1  UNL     1     -10.785 -36.675 -14.158  1.00  0.00     0.163 HD
BRANCH   8  11
HETATM   11  S1  UNL     1     -11.008 -36.691 -10.500  1.00  0.00    -0.099 SA
HETATM   12  C1  UNL     1     -11.085 -35.084  -9.713  1.00  0.00     0.099 C 
ENDBRANCH   8  11
BRANCH   9  13
HETATM   13  C3  UNL     1      -9.163 -37.058 -12.834  1.00  0.00     0.215 C 
HETATM   14  S2  UNL     1      -8.425 -38.321 -13.938  1.00  0.00    -0.136 SA
HETATM   15  C4  UNL     1      -6.935 -37.366 -14.426  1.00  0.00     0.084 C 
HETATM   16  C5  UNL     1      -7.424 -35.958 -14.177  1.00  0.00     0.091 C 
HETATM   17  C6  UNL     1      -8.219 -35.936 -12.959  1.00  0.00     0.160 C 
HETATM   18  O1  UNL     1      -8.132 -35.063 -12.088  1.00  0.00    -0.295 OA
ENDBRANCH   9  13
ENDBRANCH   6   8
ENDBRANCH   1   6
BRANCH   1  19
HETATM   19  S3  UNL     1     -15.364 -36.693 -13.165  1.00  0.00    -0.091 SA
BRANCH  19  20
HETATM   20  C13 UNL     1     -15.373 -34.887 -13.279  1.00  0.00     0.119 C 
BRANCH  20  21
HETATM   21  C14 UNL     1     -15.126 -34.416 -14.700  1.00  0.00     0.059 C 
HETATM   22  C15 UNL     1     -16.281 -34.797 -15.578  1.00  0.00     0.046 C 
HETATM   23  C16 UNL     1     -14.899 -32.923 -14.651  1.00  0.00     0.046 C 
BRANCH  21  24
HETATM   24  O3  UNL     1     -13.973 -35.046 -15.142  1.00  0.00    -0.390 OA
ATOM     25  H3  UNL     1     -13.705 -34.606 -15.940  1.00  0.00     0.210 HD
ENDBRANCH  21  24
ENDBRANCH  20  21
ENDBRANCH  19  20
ENDBRANCH   1  19
BRANCH   4  26
HETATM   26  C9  UNL     1     -14.958 -40.261 -11.729  1.00  0.00     0.030 C 
HETATM   27  C10 UNL     1     -14.157 -40.053 -10.464  1.00  0.00     0.025 C 
HETATM   28  C11 UNL     1     -14.961 -41.752 -12.018  1.00  0.00     0.025 C 
HETATM   29  C12 UNL     1     -16.403 -39.849 -11.452  1.00  0.00     0.025 C 
ENDBRANCH   4  26
TORSDOF 9
ENDMDL
MODEL 4
REMARK VINA RESULT: -6.115352343      2.185      3.013
REMARK  9 active torsions:
REMARK  status: ('A' for Active; 'I' for Inactive)
REMARK    1  A    between atoms: S1_2  and  C2_3 
REMARK    2  A    between atoms: C2_3  and  N2_12 
REMARK    3  A    between atoms: N1_4  and  C3_6 
REMARK    4  A    between atoms: N2_12  and  C7_14 
REMARK    5  A    between atoms: C7_14  and  S3_23 
REMARK       I    between atoms: N3_15  and  C8_17 
REMARK    6  A    between atoms: C8_17  and  C9_19 
REMARK    7  A    between atoms: S3_23  and  C13_24 
REMARK    8  A    between atoms: C13_24  and  C14_25 
REMARK    9  A    between atoms: C14_25  and  O3_28 
ROOT
HETATM    1  C7  UNL     1     -13.712 -39.171 -11.982  1.00  0.00     0.148 C 
HETATM    2  N3  UNL     1     -13.816 -40.417 -12.236  1.00  0.00    -0.307 N 
ATOM      3  H3  UNL     1     -12.986 -40.989 -12.078  1.00  0.00     0.171 HD
HETATM    4  C8  UNL     1     -14.955 -41.074 -12.711  1.00  0.00     0.231 C 
HETATM    5  O2  UNL     1     -15.265 -40.950 -13.922  1.00  0.00    -0.272 OA
ENDROOT
BRANCH   1   6
HETATM    6  N2  UNL     1     -12.512 -38.619 -11.507  1.00  0.00    -0.317 N 
ATOM      7  H2  UNL     1     -11.790 -39.263 -11.183  1.00  0.00     0.170 HD
BRANCH   6   8
HETATM    8  C2  UNL     1     -12.230 -37.232 -11.445  1.00  0.00     0.142 C 
HETATM    9  N1  UNL     1     -12.707 -36.568 -10.453  1.00  0.00    -0.351 N 
ATOM     10  H1  UNL     1     -13.268 -37.034  -9.740  1.00  0.00     0.163 HD
BRANCH   8  11
HETATM   11  S1  UNL     1     -11.239 -36.532 -12.750  1.00  0.00    -0.099 SA
HETATM   12  C1  UNL     1      -9.505 -36.931 -12.539  1.00  0.00     0.099 C 
ENDBRANCH   8  11
BRANCH   9  13
HETATM   13  C3  UNL     1     -12.441 -35.174 -10.364  1.00  0.00     0.215 C 
HETATM   14  S2  UNL     1     -13.879 -34.226  -9.737  1.00  0.00    -0.136 SA
HETATM   15  C4  UNL     1     -13.015 -33.371  -8.361  1.00  0.00     0.084 C 
HETATM   16  C5  UNL     1     -11.864 -34.323  -8.132  1.00  0.00     0.091 C 
HETATM   17  C6  UNL     1     -11.377 -34.803  -9.415  1.00  0.00     0.160 C 
HETATM   18  O1  UNL     1     -10.181 -34.903  -9.713  1.00  0.00    -0.295 OA
ENDBRANCH   9  13
ENDBRANCH   6   8
ENDBRANCH   1   6
BRANCH   1  19
HETATM   19  S3  UNL     1     -15.116 -38.123 -12.236  1.00  0.00    -0.091 SA
BRANCH  19  20
HETATM   20  C13 UNL     1     -14.821 -37.106 -13.702  1.00  0.00     0.119 C 
BRANCH  20  21
HETATM   21  C14 UNL     1     -15.412 -35.717 -13.547  1.00  0.00     0.059 C 
HETATM   22  C15 UNL     1     -14.335 -34.681 -13.665  1.00  0.00     0.046 C 
HETATM   23  C16 UNL     1     -16.489 -35.561 -14.597  1.00  0.00     0.046 C 
BRANCH  21  24
HETATM   24  O3  UNL     1     -15.984 -35.658 -12.286  1.00  0.00    -0.390 OA
ATOM     25  H3  UNL     1     -16.361 -34.791 -12.192  1.00  0.00     0.210 HD
ENDBRANCH  21  24
ENDBRANCH  20  21
ENDBRANCH  19  20
ENDBRANCH   1  19
BRANCH   4  26
HETATM   26  C9  UNL     1     -15.803 -41.908 -11.833  1.00  0.00     0.030 C 
HETATM   27  C10 UNL     1     -15.308 -41.932 -10.404  1.00  0.00     0.025 C 
HETATM   28  C11 UNL     1     -15.822 -43.345 -12.324  1.00  0.00     0.025 C 
HETATM   29  C12 UNL     1     -17.247 -41.409 -11.830  1.00  0.00     0.025 C 
ENDBRANCH   4  26
TORSDOF 9
ENDMDL
MODEL 5
REMARK VINA RESULT: -6.103874454      2.878      3.418
REMARK  9 active torsions:
REMARK  status: ('A' for Active; 'I' for Inactive)
REMARK    1  A    between atoms: S1_2  and  C2_3 
REMARK    2  A    between atoms: C2_3  and  N2_12 
REMARK    3  A    between atoms: N1_4  and  C3_6 
REMARK    4  A    between atoms: N2_12  and  C7_14 
REMARK    5  A    between atoms: C7_14  and  S3_23 
REMARK       I    between atoms: N3_15  and  C8_17 
REMARK    6  A    between atoms: C8_17  and  C9_19 
REMARK    7  A    between atoms: S3_23  and  C13_24 
REMARK    8  A    between atoms: C13_24  and  C14_25 
REMARK    9  A    between atoms: C14_25  and  O3_28 
ROOT
HETATM    1  C7  UNL     1     -14.110 -40.765 -13.861  1.00  0.00     0.148 C 
HETATM    2  N3  UNL     1     -14.066 -41.529 -12.840  1.00  0.00    -0.307 N 
ATOM      3  H3  UNL     1     -13.157 -41.927 -12.602  1.00  0.00     0.171 HD
HETATM    4  C8  UNL     1     -15.142 -41.874 -12.016  1.00  0.00     0.231 C 
HETATM    5  O2  UNL     1     -15.975 -42.718 -12.430  1.00  0.00    -0.272 OA
ENDROOT
BRANCH   1   6
HETATM    6  N2  UNL     1     -12.960 -40.489 -14.617  1.00  0.00    -0.317 N 
ATOM      7  H2  UNL     1     -12.754 -41.101 -15.406  1.00  0.00     0.170 HD
BRANCH   6   8
HETATM    8  C2  UNL     1     -12.066 -39.419 -14.365  1.00  0.00     0.142 C 
HETATM    9  N1  UNL     1     -12.224 -38.750 -13.279  1.00  0.00    -0.351 N 
ATOM     10  H1  UNL     1     -12.972 -38.990 -12.628  1.00  0.00     0.163 HD
BRANCH   8  11
HETATM   11  S1  UNL     1     -10.801 -39.097 -15.578  1.00  0.00    -0.099 SA
HETATM   12  C1  UNL     1     -10.977 -40.167 -17.004  1.00  0.00     0.099 C 
ENDBRANCH   8  11
BRANCH   9  13
HETATM   13  C3  UNL     1     -11.343 -37.671 -12.997  1.00  0.00     0.215 C 
HETATM   14  S2  UNL     1     -12.237 -36.123 -12.595  1.00  0.00    -0.136 SA
HETATM   15  C4  UNL     1     -11.411 -35.784 -10.990  1.00  0.00     0.084 C 
HETATM   16  C5  UNL     1     -10.958 -37.178 -10.621  1.00  0.00     0.091 C 
HETATM   17  C6  UNL     1     -10.485 -37.860 -11.815  1.00  0.00     0.160 C 
HETATM   18  O1  UNL     1      -9.458 -38.546 -11.864  1.00  0.00    -0.295 OA
ENDBRANCH   9  13
ENDBRANCH   6   8
ENDBRANCH   1   6
BRANCH   1  19
HETATM   19  S3  UNL     1     -15.658 -40.043 -14.327  1.00  0.00    -0.091 SA
BRANCH  19  20
HETATM   20  C13 UNL     1     -15.514 -38.243 -14.211  1.00  0.00     0.119 C 
BRANCH  20  21
HETATM   21  C14 UNL     1     -16.755 -37.622 -13.598  1.00  0.00     0.059 C 
HETATM   22  C15 UNL     1     -17.149 -36.393 -14.363  1.00  0.00     0.046 C 
HETATM   23  C16 UNL     1     -17.837 -38.677 -13.592  1.00  0.00     0.046 C 
BRANCH  21  24
HETATM   24  O3  UNL     1     -16.435 -37.279 -12.294  1.00  0.00    -0.390 OA
ATOM     25  H3  UNL     1     -17.199 -36.854 -11.922  1.00  0.00     0.210 HD
ENDBRANCH  21  24
ENDBRANCH  20  21
ENDBRANCH  19  20
ENDBRANCH   1  19
BRANCH   4  26
HETATM   26  C9  UNL     1     -15.326 -41.278 -10.676  1.00  0.00     0.030 C 
HETATM   27  C10 UNL     1     -14.233 -40.295 -10.325  1.00  0.00     0.025 C 
HETATM   28  C11 UNL     1     -15.317 -42.358  -9.608  1.00  0.00     0.025 C 
HETATM   29  C12 UNL     1     -16.668 -40.553 -10.579  1.00  0.00     0.025 C 
ENDBRANCH   4  26
TORSDOF 9
ENDMDL
