MODEL 1
REMARK VINA RESULT: -7.529609497      0.000      0.000
REMARK  5 active torsions:
REMARK  status: ('A' for Active; 'I' for Inactive)
REMARK    1  A    between atoms: C2_2  and  C3_8 
REMARK    2  A    between atoms: N1_3  and  O1_5 
REMARK    3  A    between atoms: O1_5  and  O2_6 
REMARK    4  A    between atoms: C3_8  and  O3_9 
REMARK    5  A    between atoms: C12_21  and  C13_22 
ROOT
HETATM    1  C3  UNL     1      -6.673 -30.610 -18.025  1.00  0.00     0.165 C 
HETATM    2  C4  UNL     1      -6.655 -30.552 -16.542  1.00  0.00     0.168 C 
HETATM    3  O4  UNL     1      -7.087 -29.662 -15.869  1.00  0.00    -0.294 OA
HETATM    4  C5  UNL     1      -6.010 -31.791 -16.066  1.00  0.00     0.088 C 
HETATM    5  C6  UNL     1      -5.714 -32.619 -17.292  1.00  0.00     0.009 C 
HETATM    6  C7  UNL     1      -5.824 -34.076 -17.022  1.00  0.00    -0.004 C 
HETATM    7  C8  UNL     1      -6.511 -34.415 -15.729  1.00  0.00     0.022 C 
HETATM    8  C9  UNL     1      -6.577 -35.945 -15.836  1.00  0.00     0.022 C 
HETATM    9  C10 UNL     1      -5.231 -36.426 -15.268  1.00  0.00     0.024 C 
HETATM   10  C11 UNL     1      -7.609 -36.508 -14.971  1.00  0.00     0.149 C 
HETATM   11  O5  UNL     1      -7.912 -35.993 -13.938  1.00  0.00    -0.296 OA
HETATM   12  C12 UNL     1      -8.287 -37.753 -15.404  1.00  0.00     0.157 C 
HETATM   13  C14 UNL     1      -8.867 -37.455 -16.766  1.00  0.00     0.024 C 
HETATM   14  C15 UNL     1      -7.867 -36.982 -17.756  1.00  0.00     0.007 C 
HETATM   15  C16 UNL     1      -6.719 -36.220 -17.287  1.00  0.00     0.006 C 
HETATM   16  C17 UNL     1      -6.615 -34.867 -18.013  1.00  0.00    -0.005 C 
HETATM   17  C18 UNL     1      -7.940 -34.228 -18.244  1.00  0.00     0.006 C 
HETATM   18  C19 UNL     1      -7.981 -32.744 -18.129  1.00  0.00     0.014 C 
HETATM   19  C20 UNL     1      -6.664 -32.084 -18.330  1.00  0.00     0.004 C 
HETATM   20  C21 UNL     1      -6.194 -32.307 -19.732  1.00  0.00     0.019 C 
ENDROOT
BRANCH   1  21
HETATM   21  C2  UNL     1      -7.789 -29.853 -18.585  1.00  0.00     0.051 C 
HETATM   22  C1  UNL     1      -7.878 -29.495 -20.008  1.00  0.00     0.069 C 
HETATM   23  N1  UNL     1      -8.743 -29.478 -17.811  1.00  0.00    -0.240 N 
ATOM     24  H1  UNL     1      -8.680 -29.726 -16.824  1.00  0.00     0.196 HD
BRANCH  23  25
HETATM   25  O1  UNL     1      -9.837 -28.767 -18.220  1.00  0.00    -0.115 OA
BRANCH  25  26
HETATM   26  O2  UNL     1      -9.851 -27.452 -17.900  1.00  0.00    -0.227 OA
ATOM     27  H2  UNL     1     -10.578 -26.944 -18.239  1.00  0.00     0.256 HD
ENDBRANCH  25  26
ENDBRANCH  23  25
ENDBRANCH   1  21
BRANCH   1  28
HETATM   28  O3  UNL     1      -5.424 -30.114 -18.446  1.00  0.00    -0.375 OA
ATOM     29  H3  UNL     1      -5.181 -29.316 -17.992  1.00  0.00     0.211 HD
ENDBRANCH   1  28
BRANCH  12  30
HETATM   30  C13 UNL     1      -7.382 -38.906 -15.480  1.00  0.00     0.184 C 
HETATM   31  O6  UNL     1      -6.527 -39.145 -14.589  1.00  0.00    -0.647 OA
HETATM   32  O7  UNL     1      -7.436 -39.789 -16.552  1.00  0.00    -0.647 OA
ENDBRANCH  12  30
TORSDOF 5
ENDMDL
MODEL 2
REMARK VINA RESULT: -6.963870836      1.736      2.353
REMARK  5 active torsions:
REMARK  status: ('A' for Active; 'I' for Inactive)
REMARK    1  A    between atoms: C2_2  and  C3_8 
REMARK    2  A    between atoms: N1_3  and  O1_5 
REMARK    3  A    between atoms: O1_5  and  O2_6 
REMARK    4  A    between atoms: C3_8  and  O3_9 
REMARK    5  A    between atoms: C12_21  and  C13_22 
ROOT
HETATM    1  C3  UNL     1      -6.992 -30.166 -17.196  1.00  0.00     0.165 C 
HETATM    2  C4  UNL     1      -7.956 -30.877 -16.321  1.00  0.00     0.168 C 
HETATM    3  O4  UNL     1      -9.055 -30.499 -16.034  1.00  0.00    -0.294 OA
HETATM    4  C5  UNL     1      -7.304 -32.125 -15.880  1.00  0.00     0.088 C 
HETATM    5  C6  UNL     1      -5.964 -32.176 -16.571  1.00  0.00     0.009 C 
HETATM    6  C7  UNL     1      -5.555 -33.568 -16.892  1.00  0.00    -0.004 C 
HETATM    7  C8  UNL     1      -6.660 -34.580 -16.778  1.00  0.00     0.022 C 
HETATM    8  C9  UNL     1      -5.948 -35.836 -17.300  1.00  0.00     0.022 C 
HETATM    9  C10 UNL     1      -5.256 -36.426 -16.060  1.00  0.00     0.024 C 
HETATM   10  C11 UNL     1      -6.895 -36.848 -17.758  1.00  0.00     0.149 C 
HETATM   11  O5  UNL     1      -7.975 -36.965 -17.267  1.00  0.00    -0.296 OA
HETATM   12  C12 UNL     1      -6.484 -37.745 -18.865  1.00  0.00     0.157 C 
HETATM   13  C14 UNL     1      -6.108 -36.839 -20.013  1.00  0.00     0.024 C 
HETATM   14  C15 UNL     1      -5.061 -35.842 -19.675  1.00  0.00     0.007 C 
HETATM   15  C16 UNL     1      -4.985 -35.337 -18.312  1.00  0.00     0.006 C 
HETATM   16  C17 UNL     1      -5.060 -33.799 -18.284  1.00  0.00    -0.005 C 
HETATM   17  C18 UNL     1      -6.026 -33.246 -19.273  1.00  0.00     0.006 C 
HETATM   18  C19 UNL     1      -6.788 -32.043 -18.843  1.00  0.00     0.014 C 
HETATM   19  C20 UNL     1      -6.132 -31.265 -17.758  1.00  0.00     0.004 C 
HETATM   20  C21 UNL     1      -4.842 -30.695 -18.252  1.00  0.00     0.019 C 
ENDROOT
BRANCH   1  21
HETATM   21  C2  UNL     1      -7.669 -29.324 -18.180  1.00  0.00     0.051 C 
HETATM   22  C1  UNL     1      -6.974 -28.712 -19.321  1.00  0.00     0.069 C 
HETATM   23  N1  UNL     1      -8.928 -29.103 -18.054  1.00  0.00    -0.240 N 
ATOM     24  H1  UNL     1      -9.409 -29.528 -17.262  1.00  0.00     0.196 HD
BRANCH  23  25
HETATM   25  O1  UNL     1      -9.668 -28.335 -18.910  1.00  0.00    -0.115 OA
BRANCH  25  26
HETATM   26  O2  UNL     1     -10.056 -27.124 -18.446  1.00  0.00    -0.227 OA
ATOM     27  H2  UNL     1      -9.944 -26.975 -17.514  1.00  0.00     0.256 HD
ENDBRANCH  25  26
ENDBRANCH  23  25
ENDBRANCH   1  21
BRANCH   1  28
HETATM   28  O3  UNL     1      -6.164 -29.420 -16.334  1.00  0.00    -0.375 OA
ATOM     29  H3  UNL     1      -6.107 -28.507 -16.588  1.00  0.00     0.211 HD
ENDBRANCH   1  28
BRANCH  12  30
HETATM   30  C13 UNL     1      -5.355 -38.614 -18.515  1.00  0.00     0.184 C 
HETATM   31  O6  UNL     1      -4.325 -38.693 -19.232  1.00  0.00    -0.647 OA
HETATM   32  O7  UNL     1      -5.379 -39.392 -17.363  1.00  0.00    -0.647 OA
ENDBRANCH  12  30
TORSDOF 5
ENDMDL
MODEL 3
REMARK VINA RESULT: -6.889035401      2.350      7.538
REMARK  5 active torsions:
REMARK  status: ('A' for Active; 'I' for Inactive)
REMARK    1  A    between atoms: C2_2  and  C3_8 
REMARK    2  A    between atoms: N1_3  and  O1_5 
REMARK    3  A    between atoms: O1_5  and  O2_6 
REMARK    4  A    between atoms: C3_8  and  O3_9 
REMARK    5  A    between atoms: C12_21  and  C13_22 
ROOT
HETATM    1  C3  UNL     1      -6.491 -38.220 -16.780  1.00  0.00     0.165 C 
HETATM    2  C4  UNL     1      -7.551 -38.131 -17.815  1.00  0.00     0.168 C 
HETATM    3  O4  UNL     1      -8.460 -38.898 -17.956  1.00  0.00    -0.294 OA
HETATM    4  C5  UNL     1      -7.269 -36.930 -18.624  1.00  0.00     0.088 C 
HETATM    5  C6  UNL     1      -6.066 -36.266 -18.002  1.00  0.00     0.009 C 
HETATM    6  C7  UNL     1      -6.120 -34.787 -18.125  1.00  0.00    -0.004 C 
HETATM    7  C8  UNL     1      -7.464 -34.246 -18.523  1.00  0.00     0.022 C 
HETATM    8  C9  UNL     1      -7.206 -32.737 -18.419  1.00  0.00     0.022 C 
HETATM    9  C10 UNL     1      -6.625 -32.353 -19.790  1.00  0.00     0.024 C 
HETATM   10  C11 UNL     1      -8.446 -31.980 -18.274  1.00  0.00     0.149 C 
HETATM   11  O5  UNL     1      -9.468 -32.353 -18.761  1.00  0.00    -0.296 OA
HETATM   12  C12 UNL     1      -8.412 -30.718 -17.499  1.00  0.00     0.157 C 
HETATM   13  C14 UNL     1      -7.874 -31.084 -16.136  1.00  0.00     0.024 C 
HETATM   14  C15 UNL     1      -6.554 -31.761 -16.172  1.00  0.00     0.007 C 
HETATM   15  C16 UNL     1      -6.221 -32.594 -17.318  1.00  0.00     0.006 C 
HETATM   16  C17 UNL     1      -5.830 -34.016 -16.877  1.00  0.00    -0.005 C 
HETATM   17  C18 UNL     1      -6.661 -34.525 -15.752  1.00  0.00     0.006 C 
HETATM   18  C19 UNL     1      -6.991 -35.976 -15.785  1.00  0.00     0.014 C 
HETATM   19  C20 UNL     1      -6.048 -36.794 -16.592  1.00  0.00     0.004 C 
HETATM   20  C21 UNL     1      -4.690 -36.765 -15.969  1.00  0.00     0.019 C 
ENDROOT
BRANCH   1  21
HETATM   21  C2  UNL     1      -6.962 -38.901 -15.576  1.00  0.00     0.051 C 
HETATM   22  C1  UNL     1      -6.121 -39.824 -14.800  1.00  0.00     0.069 C 
HETATM   23  N1  UNL     1      -8.162 -38.694 -15.168  1.00  0.00    -0.240 N 
ATOM     24  H1  UNL     1      -8.744 -38.054 -15.708  1.00  0.00     0.196 HD
BRANCH  23  25
HETATM   25  O1  UNL     1      -8.712 -39.272 -14.058  1.00  0.00    -0.115 OA
BRANCH  25  26
HETATM   26  O2  UNL     1      -9.987 -39.709 -14.180  1.00  0.00    -0.227 OA
ATOM     27  H2  UNL     1     -10.316 -40.252 -13.472  1.00  0.00     0.256 HD
ENDBRANCH  25  26
ENDBRANCH  23  25
ENDBRANCH   1  21
BRANCH   1  28
HETATM   28  O3  UNL     1      -5.412 -38.890 -17.388  1.00  0.00    -0.375 OA
ATOM     29  H3  UNL     1      -5.638 -39.236 -18.244  1.00  0.00     0.211 HD
ENDBRANCH   1  28
BRANCH  12  30
HETATM   30  C13 UNL     1      -7.571 -29.685 -18.114  1.00  0.00     0.184 C 
HETATM   31  O6  UNL     1      -7.768 -29.272 -19.285  1.00  0.00    -0.647 OA
HETATM   32  O7  UNL     1      -6.510 -29.115 -17.417  1.00  0.00    -0.647 OA
ENDBRANCH  12  30
TORSDOF 5
ENDMDL
MODEL 4
REMARK VINA RESULT: -6.671121518      4.855      7.863
REMARK  5 active torsions:
REMARK  status: ('A' for Active; 'I' for Inactive)
REMARK    1  A    between atoms: C2_2  and  C3_8 
REMARK    2  A    between atoms: N1_3  and  O1_5 
REMARK    3  A    between atoms: O1_5  and  O2_6 
REMARK    4  A    between atoms: C3_8  and  O3_9 
REMARK    5  A    between atoms: C12_21  and  C13_22 
ROOT
HETATM    1  C3  UNL     1     -12.443 -36.768 -11.544  1.00  0.00     0.165 C 
HETATM    2  C4  UNL     1     -12.955 -36.439 -12.897  1.00  0.00     0.168 C 
HETATM    3  O4  UNL     1     -13.832 -35.663 -13.147  1.00  0.00    -0.294 OA
HETATM    4  C5  UNL     1     -12.181 -37.244 -13.862  1.00  0.00     0.088 C 
HETATM    5  C6  UNL     1     -11.150 -37.999 -13.061  1.00  0.00     0.009 C 
HETATM    6  C7  UNL     1      -9.886 -38.190 -13.818  1.00  0.00    -0.004 C 
HETATM    7  C8  UNL     1      -9.766 -37.335 -15.048  1.00  0.00     0.022 C 
HETATM    8  C9  UNL     1      -8.333 -37.670 -15.488  1.00  0.00     0.022 C 
HETATM    9  C10 UNL     1      -8.485 -38.930 -16.356  1.00  0.00     0.024 C 
HETATM   10  C11 UNL     1      -7.776 -36.640 -16.358  1.00  0.00     0.149 C 
HETATM   11  O5  UNL     1      -8.463 -35.998 -17.091  1.00  0.00    -0.296 OA
HETATM   12  C12 UNL     1      -6.313 -36.402 -16.316  1.00  0.00     0.157 C 
HETATM   13  C14 UNL     1      -5.987 -36.086 -14.876  1.00  0.00     0.024 C 
HETATM   14  C15 UNL     1      -6.416 -37.135 -13.918  1.00  0.00     0.007 C 
HETATM   15  C16 UNL     1      -7.598 -37.928 -14.225  1.00  0.00     0.006 C 
HETATM   16  C17 UNL     1      -8.627 -37.858 -13.083  1.00  0.00    -0.005 C 
HETATM   17  C18 UNL     1      -8.727 -36.504 -12.473  1.00  0.00     0.006 C 
HETATM   18  C19 UNL     1     -10.087 -36.077 -12.044  1.00  0.00     0.014 C 
HETATM   19  C20 UNL     1     -11.024 -37.204 -11.789  1.00  0.00     0.004 C 
HETATM   20  C21 UNL     1     -10.538 -38.016 -10.631  1.00  0.00     0.019 C 
ENDROOT
BRANCH   1  21
HETATM   21  C2  UNL     1     -12.613 -35.655 -10.613  1.00  0.00     0.051 C 
HETATM   22  C1  UNL     1     -11.487 -35.013  -9.921  1.00  0.00     0.069 C 
HETATM   23  N1  UNL     1     -13.794 -35.208 -10.379  1.00  0.00    -0.240 N 
ATOM     24  H1  UNL     1     -14.575 -35.655 -10.860  1.00  0.00     0.196 HD
BRANCH  23  25
HETATM   25  O1  UNL     1     -14.077 -34.174  -9.531  1.00  0.00    -0.115 OA
BRANCH  25  26
HETATM   26  O2  UNL     1     -15.388 -33.904  -9.331  1.00  0.00    -0.227 OA
ATOM     27  H2  UNL     1     -15.685 -33.041  -9.596  1.00  0.00     0.256 HD
ENDBRANCH  25  26
ENDBRANCH  23  25
ENDBRANCH   1  21
BRANCH   1  28
HETATM   28  O3  UNL     1     -13.144 -37.919 -11.135  1.00  0.00    -0.375 OA
ATOM     29  H3  UNL     1     -12.768 -38.716 -11.492  1.00  0.00     0.211 HD
ENDBRANCH   1  28
BRANCH  12  30
HETATM   30  C13 UNL     1      -5.527 -37.553 -16.772  1.00  0.00     0.184 C 
HETATM   31  O6  UNL     1      -5.732 -38.104 -17.884  1.00  0.00    -0.647 OA
HETATM   32  O7  UNL     1      -4.513 -38.086 -15.985  1.00  0.00    -0.647 OA
ENDBRANCH  12  30
TORSDOF 5
ENDMDL
MODEL 5
REMARK VINA RESULT: -6.566038637      8.522     10.676
REMARK  5 active torsions:
REMARK  status: ('A' for Active; 'I' for Inactive)
REMARK    1  A    between atoms: C2_2  and  C3_8 
REMARK    2  A    between atoms: N1_3  and  O1_5 
REMARK    3  A    between atoms: O1_5  and  O2_6 
REMARK    4  A    between atoms: C3_8  and  O3_9 
REMARK    5  A    between atoms: C12_21  and  C13_22 
ROOT
HETATM    1  C3  UNL     1     -13.651 -36.145 -12.680  1.00  0.00     0.165 C 
HETATM    2  C4  UNL     1     -13.141 -36.866 -11.488  1.00  0.00     0.168 C 
HETATM    3  O4  UNL     1     -12.951 -36.388 -10.407  1.00  0.00    -0.294 OA
HETATM    4  C5  UNL     1     -12.918 -38.268 -11.890  1.00  0.00     0.088 C 
HETATM    5  C6  UNL     1     -13.377 -38.382 -13.322  1.00  0.00     0.009 C 
HETATM    6  C7  UNL     1     -13.956 -39.718 -13.617  1.00  0.00    -0.004 C 
HETATM    7  C8  UNL     1     -14.270 -40.540 -12.399  1.00  0.00     0.022 C 
HETATM    8  C9  UNL     1     -14.961 -41.750 -13.044  1.00  0.00     0.022 C 
HETATM    9  C10 UNL     1     -13.806 -42.698 -13.408  1.00  0.00     0.024 C 
HETATM   10  C11 UNL     1     -15.797 -42.472 -12.090  1.00  0.00     0.149 C 
HETATM   11  O5  UNL     1     -15.529 -42.519 -10.930  1.00  0.00    -0.296 OA
HETATM   12  C12 UNL     1     -17.007 -43.161 -12.598  1.00  0.00     0.157 C 
HETATM   13  C14 UNL     1     -17.825 -42.099 -13.295  1.00  0.00     0.024 C 
HETATM   14  C15 UNL     1     -17.092 -41.381 -14.367  1.00  0.00     0.007 C 
HETATM   15  C16 UNL     1     -15.653 -41.203 -14.237  1.00  0.00     0.006 C 
HETATM   16  C17 UNL     1     -15.264 -39.717 -14.341  1.00  0.00    -0.005 C 
HETATM   17  C18 UNL     1     -16.232 -38.815 -13.658  1.00  0.00     0.006 C 
HETATM   18  C19 UNL     1     -15.650 -37.627 -12.975  1.00  0.00     0.014 C 
HETATM   19  C20 UNL     1     -14.318 -37.220 -13.496  1.00  0.00     0.004 C 
HETATM   20  C21 UNL     1     -14.445 -36.771 -14.916  1.00  0.00     0.019 C 
ENDROOT
BRANCH   1  21
HETATM   21  C2  UNL     1     -14.497 -35.013 -12.311  1.00  0.00     0.051 C 
HETATM   22  C1  UNL     1     -14.557 -33.771 -13.095  1.00  0.00     0.069 C 
HETATM   23  N1  UNL     1     -15.227 -35.094 -11.257  1.00  0.00    -0.240 N 
ATOM     24  H1  UNL     1     -15.184 -35.956 -10.714  1.00  0.00     0.196 HD
BRANCH  23  25
HETATM   25  O1  UNL     1     -16.056 -34.102 -10.813  1.00  0.00    -0.115 OA
BRANCH  25  26
HETATM   26  O2  UNL     1     -16.057 -33.873  -9.479  1.00  0.00    -0.227 OA
ATOM     27  H2  UNL     1     -15.258 -34.094  -9.014  1.00  0.00     0.256 HD
ENDBRANCH  25  26
ENDBRANCH  23  25
ENDBRANCH   1  21
BRANCH   1  28
HETATM   28  O3  UNL     1     -12.512 -35.748 -13.408  1.00  0.00    -0.375 OA
ATOM     29  H3  UNL     1     -12.110 -36.473 -13.872  1.00  0.00     0.211 HD
ENDBRANCH   1  28
BRANCH  12  30
HETATM   30  C13 UNL     1     -16.702 -44.255 -13.527  1.00  0.00     0.184 C 
HETATM   31  O6  UNL     1     -17.227 -44.329 -14.668  1.00  0.00    -0.647 OA
HETATM   32  O7  UNL     1     -15.811 -45.263 -13.179  1.00  0.00    -0.647 OA
ENDBRANCH  12  30
TORSDOF 5
ENDMDL
