MODEL 1
REMARK VINA RESULT: -7.347217439      0.000      0.000
REMARK  6 active torsions:
REMARK  status: ('A' for Active; 'I' for Inactive)
REMARK    1  A    between atoms: C2_2  and  N1_4 
REMARK       I    between atoms: N1_4  and  C4_6 
REMARK    2  A    between atoms: C4_6  and  O2_8 
REMARK    3  A    between atoms: O2_8  and  C5_9 
REMARK    4  A    between atoms: C9_17  and  O3_18 
REMARK    5  A    between atoms: O3_18  and  C10_19 
REMARK    6  A    between atoms: C10_19  and  C11_21 
ROOT
HETATM    1  C5  UNL     1     -14.695 -46.077  -7.510  1.00  0.00     0.202 C 
HETATM    2  C6  UNL     1     -14.917 -45.003  -8.552  1.00  0.00     0.018 A 
HETATM    3  C7  UNL     1     -15.155 -43.654  -8.516  1.00  0.00     0.119 A 
HETATM    4  N2  UNL     1     -15.260 -43.275  -9.807  1.00  0.00    -0.311 N 
ATOM      5  H2  UNL     1     -15.440 -42.319 -10.115  1.00  0.00     0.186 HD
HETATM    6  N3  UNL     1     -15.100 -44.303 -10.618  1.00  0.00    -0.302 N 
ATOM      7  H3  UNL     1     -15.135 -44.269 -11.637  1.00  0.00     0.186 HD
HETATM    8  C8  UNL     1     -14.883 -45.402  -9.878  1.00  0.00     0.068 A 
HETATM    9  C9  UNL     1     -14.638 -46.809 -10.089  1.00  0.00     0.215 C 
HETATM   10  C15 UNL     1     -15.700 -47.565  -9.299  1.00  0.00     0.192 C 
HETATM   11  O5  UNL     1     -15.491 -48.948  -9.433  1.00  0.00    -0.345 OA
HETATM   12  C16 UNL     1     -15.570 -49.447  -8.135  1.00  0.00     0.158 C 
HETATM   13  C17 UNL     1     -14.894 -50.785  -7.998  1.00  0.00     0.078 C 
HETATM   14  C18 UNL     1     -17.038 -49.541  -7.725  1.00  0.00     0.078 C 
HETATM   15  O6  UNL     1     -14.917 -48.471  -7.390  1.00  0.00    -0.345 OA
HETATM   16  C19 UNL     1     -15.525 -47.291  -7.834  1.00  0.00     0.191 C 
ENDROOT
BRANCH   1  17
HETATM   17  O2  UNL     1     -15.085 -45.555  -6.256  1.00  0.00    -0.291 OA
BRANCH  17  18
HETATM   18  C4  UNL     1     -14.151 -45.131  -5.326  1.00  0.00     0.361 C 
HETATM   19  N1  UNL     1     -14.243 -45.430  -3.943  1.00  0.00    -0.333 N 
ATOM     20  H1  UNL     1     -15.040 -45.984  -3.630  1.00  0.00     0.165 HD
HETATM   21  O1  UNL     1     -13.168 -44.447  -5.711  1.00  0.00    -0.238 OA
BRANCH  19  22
HETATM   22  C2  UNL     1     -13.300 -45.009  -2.958  1.00  0.00     0.078 C 
HETATM   23  C1  UNL     1     -13.114 -46.159  -1.973  1.00  0.00     0.032 C 
HETATM   24  C3  UNL     1     -13.823 -43.837  -2.154  1.00  0.00     0.032 C 
ENDBRANCH  19  22
ENDBRANCH  17  18
ENDBRANCH   1  17
BRANCH   9  25
HETATM   25  O3  UNL     1     -14.364 -47.307 -11.324  1.00  0.00    -0.306 OA
BRANCH  25  26
HETATM   26  C10 UNL     1     -13.198 -47.515 -11.965  1.00  0.00     0.267 C 
HETATM   27  O4  UNL     1     -12.450 -48.276 -11.345  1.00  0.00    -0.264 OA
BRANCH  26  28
HETATM   28  C11 UNL     1     -12.755 -46.956 -13.256  1.00  0.00     0.037 C 
HETATM   29  C12 UNL     1     -12.619 -45.457 -13.082  1.00  0.00     0.025 C 
HETATM   30  C13 UNL     1     -13.813 -47.165 -14.337  1.00  0.00     0.025 C 
HETATM   31  C14 UNL     1     -11.470 -47.524 -13.748  1.00  0.00     0.025 C 
ENDBRANCH  26  28
ENDBRANCH  25  26
ENDBRANCH   9  25
TORSDOF 6
ENDMDL
MODEL 2
REMARK VINA RESULT: -7.148561818      8.425     11.666
REMARK  6 active torsions:
REMARK  status: ('A' for Active; 'I' for Inactive)
REMARK    1  A    between atoms: C2_2  and  N1_4 
REMARK       I    between atoms: N1_4  and  C4_6 
REMARK    2  A    between atoms: C4_6  and  O2_8 
REMARK    3  A    between atoms: O2_8  and  C5_9 
REMARK    4  A    between atoms: C9_17  and  O3_18 
REMARK    5  A    between atoms: O3_18  and  C10_19 
REMARK    6  A    between atoms: C10_19  and  C11_21 
ROOT
HETATM    1  C5  UNL     1     -11.074 -37.202 -13.044  1.00  0.00     0.202 C 
HETATM    2  C6  UNL     1     -11.454 -38.442 -13.824  1.00  0.00     0.018 A 
HETATM    3  C7  UNL     1     -10.872 -39.166 -14.831  1.00  0.00     0.119 A 
HETATM    4  N2  UNL     1     -11.732 -40.175 -15.087  1.00  0.00    -0.311 N 
ATOM      5  H2  UNL     1     -11.583 -40.895 -15.795  1.00  0.00     0.186 HD
HETATM    6  N3  UNL     1     -12.790 -40.108 -14.302  1.00  0.00    -0.302 N 
ATOM      7  H3  UNL     1     -13.577 -40.757 -14.305  1.00  0.00     0.186 HD
HETATM    8  C8  UNL     1     -12.658 -39.041 -13.497  1.00  0.00     0.068 A 
HETATM    9  C9  UNL     1     -13.400 -38.392 -12.442  1.00  0.00     0.215 C 
HETATM   10  C15 UNL     1     -13.588 -36.939 -12.864  1.00  0.00     0.192 C 
HETATM   11  O5  UNL     1     -14.274 -36.241 -11.855  1.00  0.00    -0.345 OA
HETATM   12  C16 UNL     1     -13.541 -35.071 -11.673  1.00  0.00     0.158 C 
HETATM   13  C17 UNL     1     -13.804 -34.439 -10.332  1.00  0.00     0.078 C 
HETATM   14  C18 UNL     1     -13.871 -34.096 -12.802  1.00  0.00     0.078 C 
HETATM   15  O6  UNL     1     -12.226 -35.510 -11.777  1.00  0.00    -0.345 OA
HETATM   16  C19 UNL     1     -12.250 -36.267 -12.955  1.00  0.00     0.191 C 
ENDROOT
BRANCH   1  17
HETATM   17  O2  UNL     1     -10.011 -36.567 -13.725  1.00  0.00    -0.291 OA
BRANCH  17  18
HETATM   18  C4  UNL     1      -8.688 -36.847 -13.425  1.00  0.00     0.361 C 
HETATM   19  N1  UNL     1      -7.687 -37.011 -14.416  1.00  0.00    -0.333 N 
ATOM     20  H1  UNL     1      -7.967 -36.917 -15.392  1.00  0.00     0.165 HD
HETATM   21  O1  UNL     1      -8.343 -36.963 -12.222  1.00  0.00    -0.238 OA
BRANCH  19  22
HETATM   22  C2  UNL     1      -6.317 -37.299 -14.143  1.00  0.00     0.078 C 
HETATM   23  C1  UNL     1      -5.467 -36.351 -14.984  1.00  0.00     0.032 C 
HETATM   24  C3  UNL     1      -5.948 -38.703 -14.576  1.00  0.00     0.032 C 
ENDBRANCH  19  22
ENDBRANCH  17  18
ENDBRANCH   1  17
BRANCH   9  25
HETATM   25  O3  UNL     1     -14.484 -38.979 -11.868  1.00  0.00    -0.306 OA
BRANCH  25  26
HETATM   26  C10 UNL     1     -14.592 -40.012 -11.011  1.00  0.00     0.267 C 
HETATM   27  O4  UNL     1     -13.599 -40.126 -10.286  1.00  0.00    -0.264 OA
BRANCH  26  28
HETATM   28  C11 UNL     1     -15.710 -40.961 -10.862  1.00  0.00     0.037 C 
HETATM   29  C12 UNL     1     -16.053 -41.483 -12.242  1.00  0.00     0.025 C 
HETATM   30  C13 UNL     1     -16.964 -40.255 -10.350  1.00  0.00     0.025 C 
HETATM   31  C14 UNL     1     -15.415 -42.101  -9.951  1.00  0.00     0.025 C 
ENDBRANCH  26  28
ENDBRANCH  25  26
ENDBRANCH   9  25
TORSDOF 6
ENDMDL
MODEL 3
REMARK VINA RESULT: -7.096282497      8.796     11.169
REMARK  6 active torsions:
REMARK  status: ('A' for Active; 'I' for Inactive)
REMARK    1  A    between atoms: C2_2  and  N1_4 
REMARK       I    between atoms: N1_4  and  C4_6 
REMARK    2  A    between atoms: C4_6  and  O2_8 
REMARK    3  A    between atoms: O2_8  and  C5_9 
REMARK    4  A    between atoms: C9_17  and  O3_18 
REMARK    5  A    between atoms: O3_18  and  C10_19 
REMARK    6  A    between atoms: C10_19  and  C11_21 
ROOT
HETATM    1  C5  UNL     1     -11.505 -36.116 -10.953  1.00  0.00     0.202 C 
HETATM    2  C6  UNL     1     -10.824 -37.202 -11.756  1.00  0.00     0.018 A 
HETATM    3  C7  UNL     1      -9.526 -37.602 -11.935  1.00  0.00     0.119 A 
HETATM    4  N2  UNL     1      -9.589 -38.648 -12.787  1.00  0.00    -0.311 N 
ATOM      5  H2  UNL     1      -8.779 -39.170 -13.121  1.00  0.00     0.186 HD
HETATM    6  N3  UNL     1     -10.836 -38.904 -13.131  1.00  0.00    -0.302 N 
ATOM      7  H3  UNL     1     -11.140 -39.646 -13.763  1.00  0.00     0.186 HD
HETATM    8  C8  UNL     1     -11.641 -38.027 -12.511  1.00  0.00     0.068 A 
HETATM    9  C9  UNL     1     -13.052 -37.732 -12.429  1.00  0.00     0.215 C 
HETATM   10  C15 UNL     1     -13.221 -36.267 -12.812  1.00  0.00     0.192 C 
HETATM   11  O5  UNL     1     -14.576 -35.907 -12.714  1.00  0.00    -0.345 OA
HETATM   12  C16 UNL     1     -14.575 -34.709 -12.005  1.00  0.00     0.158 C 
HETATM   13  C17 UNL     1     -15.909 -34.422 -11.371  1.00  0.00     0.078 C 
HETATM   14  C18 UNL     1     -14.171 -33.574 -12.945  1.00  0.00     0.078 C 
HETATM   15  O6  UNL     1     -13.592 -34.919 -11.044  1.00  0.00    -0.345 OA
HETATM   16  C19 UNL     1     -12.521 -35.402 -11.805  1.00  0.00     0.191 C 
ENDROOT
BRANCH   1  17
HETATM   17  O2  UNL     1     -10.514 -35.202 -10.527  1.00  0.00    -0.291 OA
BRANCH  17  18
HETATM   18  C4  UNL     1     -10.615 -34.534  -9.318  1.00  0.00     0.361 C 
HETATM   19  N1  UNL     1     -11.855 -34.217  -8.709  1.00  0.00    -0.333 N 
ATOM     20  H1  UNL     1     -12.707 -34.498  -9.194  1.00  0.00     0.165 HD
HETATM   21  O1  UNL     1      -9.565 -34.187  -8.719  1.00  0.00    -0.238 OA
BRANCH  19  22
HETATM   22  C2  UNL     1     -11.995 -33.532  -7.465  1.00  0.00     0.078 C 
HETATM   23  C1  UNL     1     -11.212 -34.314  -6.414  1.00  0.00     0.032 C 
HETATM   24  C3  UNL     1     -13.437 -33.515  -7.001  1.00  0.00     0.032 C 
ENDBRANCH  19  22
ENDBRANCH  17  18
ENDBRANCH   1  17
BRANCH   9  25
HETATM   25  O3  UNL     1     -13.987 -38.580 -12.936  1.00  0.00    -0.306 OA
BRANCH  25  26
HETATM   26  C10 UNL     1     -14.229 -39.885 -12.706  1.00  0.00     0.267 C 
HETATM   27  O4  UNL     1     -13.566 -40.622 -13.442  1.00  0.00    -0.264 OA
BRANCH  26  28
HETATM   28  C11 UNL     1     -15.151 -40.482 -11.724  1.00  0.00     0.037 C 
HETATM   29  C12 UNL     1     -14.433 -40.527 -10.391  1.00  0.00     0.025 C 
HETATM   30  C13 UNL     1     -15.473 -41.932 -12.083  1.00  0.00     0.025 C 
HETATM   31  C14 UNL     1     -16.436 -39.745 -11.578  1.00  0.00     0.025 C 
ENDBRANCH  26  28
ENDBRANCH  25  26
ENDBRANCH   9  25
TORSDOF 6
ENDMDL
MODEL 4
REMARK VINA RESULT: -7.039163947     10.391     12.881
REMARK  6 active torsions:
REMARK  status: ('A' for Active; 'I' for Inactive)
REMARK    1  A    between atoms: C2_2  and  N1_4 
REMARK       I    between atoms: N1_4  and  C4_6 
REMARK    2  A    between atoms: C4_6  and  O2_8 
REMARK    3  A    between atoms: O2_8  and  C5_9 
REMARK    4  A    between atoms: C9_17  and  O3_18 
REMARK    5  A    between atoms: O3_18  and  C10_19 
REMARK    6  A    between atoms: C10_19  and  C11_21 
ROOT
HETATM    1  C5  UNL     1     -10.968 -36.355 -12.672  1.00  0.00     0.202 C 
HETATM    2  C6  UNL     1     -11.731 -35.767 -11.505  1.00  0.00     0.018 A 
HETATM    3  C7  UNL     1     -11.412 -35.417 -10.219  1.00  0.00     0.119 A 
HETATM    4  N2  UNL     1     -12.558 -34.942  -9.684  1.00  0.00    -0.311 N 
ATOM      5  H2  UNL     1     -12.649 -34.598  -8.729  1.00  0.00     0.186 HD
HETATM    6  N3  UNL     1     -13.543 -34.982 -10.561  1.00  0.00    -0.302 N 
ATOM      7  H3  UNL     1     -14.502 -34.679 -10.394  1.00  0.00     0.186 HD
HETATM    8  C8  UNL     1     -13.072 -35.490 -11.711  1.00  0.00     0.068 A 
HETATM    9  C9  UNL     1     -13.567 -35.806 -13.030  1.00  0.00     0.215 C 
HETATM   10  C15 UNL     1     -13.249 -37.275 -13.282  1.00  0.00     0.192 C 
HETATM   11  O5  UNL     1     -13.674 -37.635 -14.572  1.00  0.00    -0.345 OA
HETATM   12  C16 UNL     1     -12.593 -38.318 -15.125  1.00  0.00     0.158 C 
HETATM   13  C17 UNL     1     -12.648 -38.346 -16.628  1.00  0.00     0.078 C 
HETATM   14  C18 UNL     1     -12.559 -39.737 -14.560  1.00  0.00     0.078 C 
HETATM   15  O6  UNL     1     -11.502 -37.586 -14.670  1.00  0.00    -0.345 OA
HETATM   16  C19 UNL     1     -11.762 -37.470 -13.299  1.00  0.00     0.191 C 
ENDROOT
BRANCH   1  17
HETATM   17  O2  UNL     1      -9.742 -36.861 -12.181  1.00  0.00    -0.291 OA
BRANCH  17  18
HETATM   18  C4  UNL     1      -8.526 -36.370 -12.624  1.00  0.00     0.361 C 
HETATM   19  N1  UNL     1      -7.682 -37.080 -13.515  1.00  0.00    -0.333 N 
ATOM     20  H1  UNL     1      -7.996 -37.996 -13.837  1.00  0.00     0.165 HD
HETATM   21  O1  UNL     1      -8.138 -35.242 -12.226  1.00  0.00    -0.238 OA
BRANCH  19  22
HETATM   22  C2  UNL     1      -6.424 -36.604 -13.991  1.00  0.00     0.078 C 
HETATM   23  C1  UNL     1      -6.655 -35.974 -15.361  1.00  0.00     0.032 C 
HETATM   24  C3  UNL     1      -5.445 -37.741 -14.202  1.00  0.00     0.032 C 
ENDBRANCH  19  22
ENDBRANCH  17  18
ENDBRANCH   1  17
BRANCH   9  25
HETATM   25  O3  UNL     1     -14.794 -35.394 -13.448  1.00  0.00    -0.306 OA
BRANCH  25  26
HETATM   26  C10 UNL     1     -15.181 -34.322 -14.165  1.00  0.00     0.267 C 
HETATM   27  O4  UNL     1     -15.309 -33.312 -13.467  1.00  0.00    -0.264 OA
BRANCH  26  28
HETATM   28  C11 UNL     1     -15.450 -34.241 -15.612  1.00  0.00     0.037 C 
HETATM   29  C12 UNL     1     -15.302 -32.790 -16.024  1.00  0.00     0.025 C 
HETATM   30  C13 UNL     1     -16.895 -34.626 -15.924  1.00  0.00     0.025 C 
HETATM   31  C14 UNL     1     -14.553 -35.093 -16.439  1.00  0.00     0.025 C 
ENDBRANCH  26  28
ENDBRANCH  25  26
ENDBRANCH   9  25
TORSDOF 6
ENDMDL
MODEL 5
REMARK VINA RESULT: -7.009596131      8.891     11.316
REMARK  6 active torsions:
REMARK  status: ('A' for Active; 'I' for Inactive)
REMARK    1  A    between atoms: C2_2  and  N1_4 
REMARK       I    between atoms: N1_4  and  C4_6 
REMARK    2  A    between atoms: C4_6  and  O2_8 
REMARK    3  A    between atoms: O2_8  and  C5_9 
REMARK    4  A    between atoms: C9_17  and  O3_18 
REMARK    5  A    between atoms: O3_18  and  C10_19 
REMARK    6  A    between atoms: C10_19  and  C11_21 
ROOT
HETATM    1  C5  UNL     1     -12.654 -35.614 -10.440  1.00  0.00     0.202 C 
HETATM    2  C6  UNL     1     -11.655 -36.692 -10.798  1.00  0.00     0.018 A 
HETATM    3  C7  UNL     1     -10.371 -36.986 -10.418  1.00  0.00     0.119 A 
HETATM    4  N2  UNL     1     -10.038 -38.094 -11.113  1.00  0.00    -0.311 N 
ATOM      5  H2  UNL     1      -9.135 -38.566 -11.050  1.00  0.00     0.186 HD
HETATM    6  N3  UNL     1     -11.033 -38.488 -11.884  1.00  0.00    -0.302 N 
ATOM      7  H3  UNL     1     -11.023 -39.300 -12.502  1.00  0.00     0.186 HD
HETATM    8  C8  UNL     1     -12.062 -37.642 -11.719  1.00  0.00     0.068 A 
HETATM    9  C9  UNL     1     -13.406 -37.471 -12.221  1.00  0.00     0.215 C 
HETATM   10  C15 UNL     1     -13.488 -36.060 -12.791  1.00  0.00     0.192 C 
HETATM   11  O5  UNL     1     -14.789 -35.818 -13.264  1.00  0.00    -0.345 OA
HETATM   12  C16 UNL     1     -15.132 -34.574 -12.740  1.00  0.00     0.158 C 
HETATM   13  C17 UNL     1     -16.621 -34.363 -12.705  1.00  0.00     0.078 C 
HETATM   14  C18 UNL     1     -14.452 -33.483 -13.564  1.00  0.00     0.078 C 
HETATM   15  O6  UNL     1     -14.597 -34.622 -11.457  1.00  0.00    -0.345 OA
HETATM   16  C19 UNL     1     -13.288 -35.062 -11.689  1.00  0.00     0.191 C 
ENDROOT
BRANCH   1  17
HETATM   17  O2  UNL     1     -11.961 -34.585  -9.763  1.00  0.00    -0.291 OA
BRANCH  17  18
HETATM   18  C4  UNL     1     -12.535 -33.898  -8.707  1.00  0.00     0.361 C 
HETATM   19  N1  UNL     1     -13.928 -33.654  -8.606  1.00  0.00    -0.333 N 
ATOM     20  H1  UNL     1     -14.526 -34.005  -9.354  1.00  0.00     0.165 HD
HETATM   21  O1  UNL     1     -11.799 -33.465  -7.784  1.00  0.00    -0.238 OA
BRANCH  19  22
HETATM   22  C2  UNL     1     -14.552 -32.951  -7.532  1.00  0.00     0.078 C 
HETATM   23  C1  UNL     1     -13.969 -33.486  -6.227  1.00  0.00     0.032 C 
HETATM   24  C3  UNL     1     -16.041 -33.227  -7.481  1.00  0.00     0.032 C 
ENDBRANCH  19  22
ENDBRANCH  17  18
ENDBRANCH   1  17
BRANCH   9  25
HETATM   25  O3  UNL     1     -14.018 -38.436 -12.958  1.00  0.00    -0.306 OA
BRANCH  25  26
HETATM   26  C10 UNL     1     -14.192 -39.753 -12.740  1.00  0.00     0.267 C 
HETATM   27  O4  UNL     1     -13.515 -40.449 -13.503  1.00  0.00    -0.264 OA
BRANCH  26  28
HETATM   28  C11 UNL     1     -15.057 -40.406 -11.740  1.00  0.00     0.037 C 
HETATM   29  C12 UNL     1     -14.314 -40.402 -10.420  1.00  0.00     0.025 C 
HETATM   30  C13 UNL     1     -15.291 -41.874 -12.092  1.00  0.00     0.025 C 
HETATM   31  C14 UNL     1     -16.383 -39.752 -11.574  1.00  0.00     0.025 C 
ENDBRANCH  26  28
ENDBRANCH  25  26
ENDBRANCH   9  25
TORSDOF 6
ENDMDL
