MODEL 1
REMARK VINA RESULT: -6.604066586      0.000      0.000
REMARK  4 active torsions:
REMARK  status: ('A' for Active; 'I' for Inactive)
REMARK    1  A    between atoms: C1_2  and  N1_3 
REMARK    2  A    between atoms: C1_2  and  N2_11 
REMARK    3  A    between atoms: N1_3  and  C2_5 
REMARK    4  A    between atoms: C10_14  and  N3_15 
ROOT
HETATM    1  N2  UNL     1      16.711   6.942  13.110  1.00  0.00    -0.358 N 
HETATM    2  C8  UNL     1      15.575   7.203  13.969  1.00  0.00     0.127 C 
HETATM    3  C9  UNL     1      15.200   5.913  14.672  1.00  0.00     0.055 C 
HETATM    4  C10 UNL     1      16.370   5.470  15.563  1.00  0.00     0.226 C 
HETATM    5  C15 UNL     1      17.651   5.577  14.820  1.00  0.00     0.055 C 
HETATM    6  C16 UNL     1      17.388   5.680  13.314  1.00  0.00     0.127 C 
ENDROOT
BRANCH   1   7
HETATM    7  C1  UNL     1      17.071   7.916  12.158  1.00  0.00     0.170 C 
HETATM    8  S1  UNL     1      17.068   7.520  10.584  1.00  0.00    -0.041 SA
BRANCH   7   9
HETATM    9  N1  UNL     1      17.436   9.219  12.548  1.00  0.00    -0.363 N 
ATOM     10  H1  UNL     1      16.830   9.996  12.287  1.00  0.00     0.162 HD
BRANCH   9  11
HETATM   11  C2  UNL     1      18.636   9.496  13.301  1.00  0.00     0.083 C 
HETATM   12  C3  UNL     1      19.334  10.672  12.711  1.00  0.00     0.025 C 
HETATM   13  C4  UNL     1      19.168  11.845  13.662  1.00  0.00     0.002 C 
HETATM   14  C5  UNL     1      19.920  11.515  14.935  1.00  0.00     0.000 C 
HETATM   15  C6  UNL     1      19.630  10.141  15.455  1.00  0.00     0.002 C 
HETATM   16  C7  UNL     1      18.334   9.681  14.777  1.00  0.00     0.025 C 
ENDBRANCH   9  11
ENDBRANCH   7   9
ENDBRANCH   1   7
BRANCH   4  17
HETATM   17  N3  UNL     1      16.111   4.241  16.210  1.00  0.00     0.097 N 
HETATM   18  C11 UNL     1      16.978   3.154  15.998  1.00  0.00     0.299 C 
HETATM   19  C12 UNL     1      16.217   1.850  15.836  1.00  0.00     0.198 C 
HETATM   20  O1  UNL     1      15.233   1.663  16.782  1.00  0.00    -0.388 OA
HETATM   21  C13 UNL     1      14.393   2.728  16.981  1.00  0.00     0.198 C 
HETATM   22  C14 UNL     1      14.704   3.902  16.076  1.00  0.00     0.299 C 
ENDBRANCH   4  17
TORSDOF 4
ENDMDL
MODEL 2
REMARK VINA RESULT: -6.494211976      2.565      3.843
REMARK  4 active torsions:
REMARK  status: ('A' for Active; 'I' for Inactive)
REMARK    1  A    between atoms: C1_2  and  N1_3 
REMARK    2  A    between atoms: C1_2  and  N2_11 
REMARK    3  A    between atoms: N1_3  and  C2_5 
REMARK    4  A    between atoms: C10_14  and  N3_15 
ROOT
HETATM    1  N2  UNL     1      16.055   7.074  13.334  1.00  0.00    -0.358 N 
HETATM    2  C8  UNL     1      15.152   7.283  14.447  1.00  0.00     0.127 C 
HETATM    3  C9  UNL     1      14.902   5.947  15.119  1.00  0.00     0.055 C 
HETATM    4  C10 UNL     1      16.228   5.416  15.684  1.00  0.00     0.226 C 
HETATM    5  C15 UNL     1      17.311   5.561  14.679  1.00  0.00     0.055 C 
HETATM    6  C16 UNL     1      16.718   5.788  13.285  1.00  0.00     0.127 C 
ENDROOT
BRANCH   1   7
HETATM    7  C1  UNL     1      16.223   8.114  12.400  1.00  0.00     0.170 C 
HETATM    8  S1  UNL     1      17.721   8.639  12.064  1.00  0.00    -0.041 SA
BRANCH   7   9
HETATM    9  N1  UNL     1      15.117   8.708  11.761  1.00  0.00    -0.363 N 
ATOM     10  H1  UNL     1      14.206   8.663  12.215  1.00  0.00     0.162 HD
BRANCH   9  11
HETATM   11  C2  UNL     1      15.226   9.377  10.486  1.00  0.00     0.083 C 
HETATM   12  C3  UNL     1      14.427   8.641   9.467  1.00  0.00     0.025 C 
HETATM   13  C4  UNL     1      13.198   9.473   9.140  1.00  0.00     0.002 C 
HETATM   14  C5  UNL     1      13.670  10.740   8.457  1.00  0.00     0.000 C 
HETATM   15  C6  UNL     1      14.804  11.410   9.169  1.00  0.00     0.002 C 
HETATM   16  C7  UNL     1      14.827  10.838  10.591  1.00  0.00     0.025 C 
ENDBRANCH   9  11
ENDBRANCH   7   9
ENDBRANCH   1   7
BRANCH   4  17
HETATM   17  N3  UNL     1      16.081   4.144  16.280  1.00  0.00     0.097 N 
HETATM   18  C11 UNL     1      16.976   3.115  15.939  1.00  0.00     0.299 C 
HETATM   19  C12 UNL     1      16.266   1.784  15.766  1.00  0.00     0.198 C 
HETATM   20  O1  UNL     1      15.373   1.499  16.777  1.00  0.00    -0.388 OA
HETATM   21  C13 UNL     1      14.504   2.508  17.102  1.00  0.00     0.198 C 
HETATM   22  C14 UNL     1      14.685   3.741  16.242  1.00  0.00     0.299 C 
ENDBRANCH   4  17
TORSDOF 4
ENDMDL
MODEL 3
REMARK VINA RESULT: -6.426348777      0.815      1.306
REMARK  4 active torsions:
REMARK  status: ('A' for Active; 'I' for Inactive)
REMARK    1  A    between atoms: C1_2  and  N1_3 
REMARK    2  A    between atoms: C1_2  and  N2_11 
REMARK    3  A    between atoms: N1_3  and  C2_5 
REMARK    4  A    between atoms: C10_14  and  N3_15 
ROOT
HETATM    1  N2  UNL     1      17.138   7.151  13.155  1.00  0.00    -0.358 N 
HETATM    2  C8  UNL     1      15.852   7.403  13.769  1.00  0.00     0.127 C 
HETATM    3  C9  UNL     1      15.235   6.071  14.152  1.00  0.00     0.055 C 
HETATM    4  C10 UNL     1      16.129   5.389  15.198  1.00  0.00     0.226 C 
HETATM    5  C15 UNL     1      17.554   5.468  14.787  1.00  0.00     0.055 C 
HETATM    6  C16 UNL     1      17.662   5.810  13.298  1.00  0.00     0.127 C 
ENDROOT
BRANCH   1   7
HETATM    7  C1  UNL     1      17.778   8.207  12.478  1.00  0.00     0.170 C 
HETATM    8  S1  UNL     1      16.884   9.233  11.592  1.00  0.00    -0.041 SA
BRANCH   7   9
HETATM    9  N1  UNL     1      19.173   8.385  12.552  1.00  0.00    -0.363 N 
ATOM     10  H1  UNL     1      19.766   7.890  11.886  1.00  0.00     0.162 HD
BRANCH   9  11
HETATM   11  C2  UNL     1      19.795   9.240  13.535  1.00  0.00     0.083 C 
HETATM   12  C3  UNL     1      20.217  10.515  12.889  1.00  0.00     0.025 C 
HETATM   13  C4  UNL     1      19.290  11.618  13.373  1.00  0.00     0.002 C 
HETATM   14  C5  UNL     1      19.534  11.806  14.856  1.00  0.00     0.000 C 
HETATM   15  C6  UNL     1      19.554  10.519  15.621  1.00  0.00     0.002 C 
HETATM   16  C7  UNL     1      18.885   9.468  14.728  1.00  0.00     0.025 C 
ENDBRANCH   9  11
ENDBRANCH   7   9
ENDBRANCH   1   7
BRANCH   4  17
HETATM   17  N3  UNL     1      15.642   4.114  15.564  1.00  0.00     0.097 N 
HETATM   18  C11 UNL     1      14.544   4.019  16.437  1.00  0.00     0.299 C 
HETATM   19  C12 UNL     1      14.731   2.911  17.459  1.00  0.00     0.198 C 
HETATM   20  O1  UNL     1      15.175   1.726  16.914  1.00  0.00    -0.388 OA
HETATM   21  C13 UNL     1      16.245   1.829  16.064  1.00  0.00     0.198 C 
HETATM   22  C14 UNL     1      16.753   3.249  15.924  1.00  0.00     0.299 C 
ENDBRANCH   4  17
TORSDOF 4
ENDMDL
MODEL 4
REMARK VINA RESULT: -6.374267526      1.374      1.886
REMARK  4 active torsions:
REMARK  status: ('A' for Active; 'I' for Inactive)
REMARK    1  A    between atoms: C1_2  and  N1_3 
REMARK    2  A    between atoms: C1_2  and  N2_11 
REMARK    3  A    between atoms: N1_3  and  C2_5 
REMARK    4  A    between atoms: C10_14  and  N3_15 
ROOT
HETATM    1  N2  UNL     1      18.050   6.130  13.316  1.00  0.00    -0.358 N 
HETATM    2  C8  UNL     1      17.268   5.172  12.564  1.00  0.00     0.127 C 
HETATM    3  C9  UNL     1      16.653   4.186  13.539  1.00  0.00     0.055 C 
HETATM    4  C10 UNL     1      15.697   4.939  14.475  1.00  0.00     0.226 C 
HETATM    5  C15 UNL     1      16.336   6.185  14.969  1.00  0.00     0.055 C 
HETATM    6  C16 UNL     1      17.851   6.131  14.750  1.00  0.00     0.127 C 
ENDROOT
BRANCH   1   7
HETATM    7  C1  UNL     1      18.928   6.979  12.615  1.00  0.00     0.170 C 
HETATM    8  S1  UNL     1      20.153   6.325  11.773  1.00  0.00    -0.041 SA
BRANCH   7   9
HETATM    9  N1  UNL     1      18.766   8.378  12.637  1.00  0.00    -0.363 N 
ATOM     10  H1  UNL     1      18.080   8.801  12.012  1.00  0.00     0.162 HD
BRANCH   9  11
HETATM   11  C2  UNL     1      19.534   9.234  13.509  1.00  0.00     0.083 C 
HETATM   12  C3  UNL     1      19.994  10.432  12.752  1.00  0.00     0.025 C 
HETATM   13  C4  UNL     1      19.199  11.632  13.239  1.00  0.00     0.002 C 
HETATM   14  C5  UNL     1      19.584  11.883  14.682  1.00  0.00     0.000 C 
HETATM   15  C6  UNL     1      19.573  10.644  15.523  1.00  0.00     0.002 C 
HETATM   16  C7  UNL     1      18.751   9.602  14.756  1.00  0.00     0.025 C 
ENDBRANCH   9  11
ENDBRANCH   7   9
ENDBRANCH   1   7
BRANCH   4  17
HETATM   17  N3  UNL     1      15.125   4.089  15.448  1.00  0.00     0.097 N 
HETATM   18  C11 UNL     1      14.323   4.643  16.462  1.00  0.00     0.299 C 
HETATM   19  C12 UNL     1      14.603   4.007  17.813  1.00  0.00     0.198 C 
HETATM   20  O1  UNL     1      14.664   2.631  17.773  1.00  0.00    -0.388 OA
HETATM   21  C13 UNL     1      15.448   2.100  16.782  1.00  0.00     0.198 C 
HETATM   22  C14 UNL     1      16.128   3.159  15.938  1.00  0.00     0.299 C 
ENDBRANCH   4  17
TORSDOF 4
ENDMDL
MODEL 5
REMARK VINA RESULT: -6.369395987      3.091      7.500
REMARK  4 active torsions:
REMARK  status: ('A' for Active; 'I' for Inactive)
REMARK    1  A    between atoms: C1_2  and  N1_3 
REMARK    2  A    between atoms: C1_2  and  N2_11 
REMARK    3  A    between atoms: N1_3  and  C2_5 
REMARK    4  A    between atoms: C10_14  and  N3_15 
ROOT
HETATM    1  N2  UNL     1      17.896   6.464  13.987  1.00  0.00    -0.358 N 
HETATM    2  C8  UNL     1      17.046   7.538  14.456  1.00  0.00     0.127 C 
HETATM    3  C9  UNL     1      17.914   8.751  14.732  1.00  0.00     0.055 C 
HETATM    4  C10 UNL     1      18.567   9.208  13.419  1.00  0.00     0.226 C 
HETATM    5  C15 UNL     1      19.117   8.040  12.684  1.00  0.00     0.055 C 
HETATM    6  C16 UNL     1      19.246   6.834  13.619  1.00  0.00     0.127 C 
ENDROOT
BRANCH   1   7
HETATM    7  C1  UNL     1      17.360   5.164  13.921  1.00  0.00     0.170 C 
HETATM    8  S1  UNL     1      17.050   4.510  12.468  1.00  0.00    -0.041 SA
BRANCH   7   9
HETATM    9  N1  UNL     1      17.085   4.427  15.089  1.00  0.00    -0.363 N 
ATOM     10  H1  UNL     1      17.816   4.334  15.794  1.00  0.00     0.162 HD
BRANCH   9  11
HETATM   11  C2  UNL     1      15.807   3.798  15.327  1.00  0.00     0.083 C 
HETATM   12  C3  UNL     1      16.014   2.493  16.015  1.00  0.00     0.025 C 
HETATM   13  C4  UNL     1      15.551   2.640  17.455  1.00  0.00     0.002 C 
HETATM   14  C5  UNL     1      14.052   2.863  17.435  1.00  0.00     0.000 C 
HETATM   15  C6  UNL     1      13.621   3.902  16.447  1.00  0.00     0.002 C 
HETATM   16  C7  UNL     1      14.871   4.715  16.093  1.00  0.00     0.025 C 
ENDBRANCH   9  11
ENDBRANCH   7   9
ENDBRANCH   1   7
BRANCH   4  17
HETATM   17  N3  UNL     1      19.436  10.305  13.611  1.00  0.00     0.097 N 
HETATM   18  C11 UNL     1      20.525  10.483  12.738  1.00  0.00     0.299 C 
HETATM   19  C12 UNL     1      21.780  10.903  13.482  1.00  0.00     0.198 C 
HETATM   20  O1  UNL     1      21.569  11.910  14.398  1.00  0.00    -0.388 OA
HETATM   21  C13 UNL     1      20.506  11.728  15.244  1.00  0.00     0.198 C 
HETATM   22  C14 UNL     1      19.790  10.413  15.016  1.00  0.00     0.299 C 
ENDBRANCH   4  17
TORSDOF 4
ENDMDL
