MODEL 1
REMARK VINA RESULT: -6.943296961      0.000      0.000
REMARK  5 active torsions:
REMARK  status: ('A' for Active; 'I' for Inactive)
REMARK    1  A    between atoms: N1_2  and  C2_3 
REMARK    2  A    between atoms: N1_2  and  C11_17 
REMARK    3  A    between atoms: C2_3  and  N2_5 
REMARK    4  A    between atoms: C5_8  and  O1_9 
REMARK    5  A    between atoms: C6_11  and  N3_12 
ROOT
HETATM    1  N2  UNL     1      16.517   4.846  14.174  1.00  0.00    -0.334 N 
HETATM    2  C3  UNL     1      16.256   4.112  12.987  1.00  0.00     0.130 C 
HETATM    3  C4  UNL     1      16.457   2.641  13.219  1.00  0.00     0.055 C 
HETATM    4  C5  UNL     1      16.928   2.540  14.617  1.00  0.00     0.162 C 
HETATM    5  C6  UNL     1      16.662   3.867  15.265  1.00  0.00     0.216 C 
ENDROOT
BRANCH   1   6
HETATM    6  C2  UNL     1      16.616   6.255  14.353  1.00  0.00     0.173 C 
HETATM    7  S1  UNL     1      15.165   7.034  14.749  1.00  0.00    -0.041 SA
BRANCH   6   8
HETATM    8  N1  UNL     1      17.707   7.102  14.258  1.00  0.00    -0.358 N 
HETATM    9  C1  UNL     1      19.040   6.400  14.429  1.00  0.00     0.152 C 
BRANCH   8  10
HETATM   10  C11 UNL     1      17.779   8.516  14.036  1.00  0.00     0.086 C 
HETATM   11  C12 UNL     1      18.853   8.871  13.012  1.00  0.00     0.025 C 
HETATM   12  C13 UNL     1      18.876  10.387  12.796  1.00  0.00     0.002 C 
HETATM   13  C14 UNL     1      19.296  11.073  14.066  1.00  0.00     0.000 C 
HETATM   14  C15 UNL     1      19.315  10.111  15.237  1.00  0.00     0.002 C 
HETATM   15  C16 UNL     1      18.090   9.259  15.336  1.00  0.00     0.025 C 
ENDBRANCH   8  10
ENDBRANCH   6   8
ENDBRANCH   1   6
BRANCH   5  16
HETATM   16  N3  UNL     1      15.606   3.807  16.144  1.00  0.00    -0.370 N 
HETATM   17  C7  UNL     1      14.274   3.930  15.823  1.00  0.00     0.060 C 
HETATM   18  C8  UNL     1      13.545   2.957  16.723  1.00  0.00     0.046 C 
HETATM   19  C9  UNL     1      14.597   2.532  17.725  1.00  0.00     0.025 C 
HETATM   20  C10 UNL     1      15.753   3.522  17.502  1.00  0.00     0.124 C 
ENDBRANCH   5  16
BRANCH   4  21
HETATM   21  O1  UNL     1      16.212   1.482  15.227  1.00  0.00    -0.392 OA
ATOM     22  H1  UNL     1      16.280   1.601  16.167  1.00  0.00     0.210 HD
ENDBRANCH   4  21
TORSDOF 5
ENDMDL
MODEL 2
REMARK VINA RESULT: -6.805353303      1.759      2.367
REMARK  5 active torsions:
REMARK  status: ('A' for Active; 'I' for Inactive)
REMARK    1  A    between atoms: N1_2  and  C2_3 
REMARK    2  A    between atoms: N1_2  and  C11_17 
REMARK    3  A    between atoms: C2_3  and  N2_5 
REMARK    4  A    between atoms: C5_8  and  O1_9 
REMARK    5  A    between atoms: C6_11  and  N3_12 
ROOT
HETATM    1  N2  UNL     1      16.992   4.813  11.969  1.00  0.00    -0.334 N 
HETATM    2  C3  UNL     1      16.152   3.991  11.172  1.00  0.00     0.130 C 
HETATM    3  C4  UNL     1      16.078   2.601  11.737  1.00  0.00     0.055 C 
HETATM    4  C5  UNL     1      16.991   2.618  12.900  1.00  0.00     0.162 C 
HETATM    5  C6  UNL     1      17.296   4.057  13.196  1.00  0.00     0.216 C 
ENDROOT
BRANCH   1   6
HETATM    6  C2  UNL     1      17.472   6.126  11.705  1.00  0.00     0.173 C 
HETATM    7  S1  UNL     1      16.541   7.027  10.613  1.00  0.00    -0.041 SA
BRANCH   6   8
HETATM    8  N1  UNL     1      18.579   6.798  12.195  1.00  0.00    -0.358 N 
HETATM    9  C1  UNL     1      19.770   6.772  11.258  1.00  0.00     0.152 C 
BRANCH   8  10
HETATM   10  C11 UNL     1      18.781   7.498  13.429  1.00  0.00     0.086 C 
HETATM   11  C12 UNL     1      17.475   8.077  13.968  1.00  0.00     0.025 C 
HETATM   12  C13 UNL     1      17.741   8.795  15.294  1.00  0.00     0.002 C 
HETATM   13  C14 UNL     1      18.634   9.980  15.058  1.00  0.00     0.000 C 
HETATM   14  C15 UNL     1      19.216   9.968  13.659  1.00  0.00     0.002 C 
HETATM   15  C16 UNL     1      19.778   8.644  13.252  1.00  0.00     0.025 C 
ENDBRANCH   8  10
ENDBRANCH   6   8
ENDBRANCH   1   6
BRANCH   5  16
HETATM   16  N3  UNL     1      16.652   4.495  14.330  1.00  0.00    -0.370 N 
HETATM   17  C7  UNL     1      15.363   4.972  14.399  1.00  0.00     0.060 C 
HETATM   18  C8  UNL     1      14.808   4.461  15.710  1.00  0.00     0.046 C 
HETATM   19  C9  UNL     1      16.022   3.915  16.430  1.00  0.00     0.025 C 
HETATM   20  C10 UNL     1      17.214   4.431  15.605  1.00  0.00     0.124 C 
ENDBRANCH   5  16
BRANCH   4  21
HETATM   21  O1  UNL     1      16.326   1.971  13.968  1.00  0.00    -0.392 OA
ATOM     22  H1  UNL     1      16.927   1.946  14.703  1.00  0.00     0.210 HD
ENDBRANCH   4  21
TORSDOF 5
ENDMDL
MODEL 3
REMARK VINA RESULT: -6.647581278      2.851      6.705
REMARK  5 active torsions:
REMARK  status: ('A' for Active; 'I' for Inactive)
REMARK    1  A    between atoms: N1_2  and  C2_3 
REMARK    2  A    between atoms: N1_2  and  C11_17 
REMARK    3  A    between atoms: C2_3  and  N2_5 
REMARK    4  A    between atoms: C5_8  and  O1_9 
REMARK    5  A    between atoms: C6_11  and  N3_12 
ROOT
HETATM    1  N2  UNL     1      17.253   5.799  13.121  1.00  0.00    -0.334 N 
HETATM    2  C3  UNL     1      16.576   7.047  13.135  1.00  0.00     0.130 C 
HETATM    3  C4  UNL     1      17.543   8.173  13.368  1.00  0.00     0.055 C 
HETATM    4  C5  UNL     1      18.851   7.511  13.563  1.00  0.00     0.162 C 
HETATM    5  C6  UNL     1      18.697   6.091  13.105  1.00  0.00     0.216 C 
ENDROOT
BRANCH   1   6
HETATM    6  C2  UNL     1      16.709   4.484  13.107  1.00  0.00     0.173 C 
HETATM    7  S1  UNL     1      16.167   3.946  11.594  1.00  0.00    -0.041 SA
BRANCH   6   8
HETATM    8  N1  UNL     1      16.547   3.563  14.128  1.00  0.00    -0.358 N 
HETATM    9  C1  UNL     1      16.718   2.124  13.682  1.00  0.00     0.152 C 
BRANCH   8  10
HETATM   10  C11 UNL     1      16.239   3.746  15.515  1.00  0.00     0.086 C 
HETATM   11  C12 UNL     1      15.838   2.432  16.181  1.00  0.00     0.025 C 
HETATM   12  C13 UNL     1      15.539   2.678  17.662  1.00  0.00     0.002 C 
HETATM   13  C14 UNL     1      14.340   3.573  17.796  1.00  0.00     0.000 C 
HETATM   14  C15 UNL     1      13.945   4.176  16.462  1.00  0.00     0.002 C 
HETATM   15  C16 UNL     1      15.095   4.745  15.695  1.00  0.00     0.025 C 
ENDBRANCH   8  10
ENDBRANCH   6   8
ENDBRANCH   1   6
BRANCH   5  16
HETATM   16  N3  UNL     1      19.328   5.868  11.903  1.00  0.00    -0.370 N 
HETATM   17  C7  UNL     1      18.893   6.288  10.668  1.00  0.00     0.060 C 
HETATM   18  C8  UNL     1      20.141   6.671   9.904  1.00  0.00     0.046 C 
HETATM   19  C9  UNL     1      21.269   6.143  10.764  1.00  0.00     0.025 C 
HETATM   20  C10 UNL     1      20.568   5.239  11.793  1.00  0.00     0.124 C 
ENDBRANCH   5  16
BRANCH   4  21
HETATM   21  O1  UNL     1      19.804   8.229  12.801  1.00  0.00    -0.392 OA
ATOM     22  H1  UNL     1      20.148   7.634  12.146  1.00  0.00     0.210 HD
ENDBRANCH   4  21
TORSDOF 5
ENDMDL
MODEL 4
REMARK VINA RESULT: -6.632086502      2.702      3.273
REMARK  5 active torsions:
REMARK  status: ('A' for Active; 'I' for Inactive)
REMARK    1  A    between atoms: N1_2  and  C2_3 
REMARK    2  A    between atoms: N1_2  and  C11_17 
REMARK    3  A    between atoms: C2_3  and  N2_5 
REMARK    4  A    between atoms: C5_8  and  O1_9 
REMARK    5  A    between atoms: C6_11  and  N3_12 
ROOT
HETATM    1  N2  UNL     1      17.009   4.797  12.228  1.00  0.00    -0.334 N 
HETATM    2  C3  UNL     1      16.188   4.030  11.360  1.00  0.00     0.130 C 
HETATM    3  C4  UNL     1      16.111   2.604  11.826  1.00  0.00     0.055 C 
HETATM    4  C5  UNL     1      17.002   2.543  13.005  1.00  0.00     0.162 C 
HETATM    5  C6  UNL     1      17.294   3.960  13.406  1.00  0.00     0.216 C 
ENDROOT
BRANCH   1   6
HETATM    6  C2  UNL     1      17.488   6.128  12.065  1.00  0.00     0.173 C 
HETATM    7  S1  UNL     1      18.830   6.531  13.018  1.00  0.00    -0.041 SA
BRANCH   6   8
HETATM    8  N1  UNL     1      17.040   7.155  11.253  1.00  0.00    -0.358 N 
HETATM    9  C1  UNL     1      17.528   7.057   9.822  1.00  0.00     0.152 C 
BRANCH   8  10
HETATM   10  C11 UNL     1      16.208   8.285  11.544  1.00  0.00     0.086 C 
HETATM   11  C12 UNL     1      15.049   8.400  10.558  1.00  0.00     0.025 C 
HETATM   12  C13 UNL     1      14.182   9.608  10.923  1.00  0.00     0.002 C 
HETATM   13  C14 UNL     1      14.976  10.872  10.752  1.00  0.00     0.000 C 
HETATM   14  C15 UNL     1      16.447  10.579  10.531  1.00  0.00     0.002 C 
HETATM   15  C16 UNL     1      17.014   9.585  11.493  1.00  0.00     0.025 C 
ENDBRANCH   8  10
ENDBRANCH   6   8
ENDBRANCH   1   6
BRANCH   5  16
HETATM   16  N3  UNL     1      16.627   4.316  14.555  1.00  0.00    -0.370 N 
HETATM   17  C7  UNL     1      15.333   4.776  14.632  1.00  0.00     0.060 C 
HETATM   18  C8  UNL     1      14.760   4.174  15.897  1.00  0.00     0.046 C 
HETATM   19  C9  UNL     1      15.967   3.592  16.600  1.00  0.00     0.025 C 
HETATM   20  C10 UNL     1      17.168   4.171  15.832  1.00  0.00     0.124 C 
ENDBRANCH   5  16
BRANCH   4  21
HETATM   21  O1  UNL     1      16.319   1.821  14.012  1.00  0.00    -0.392 OA
ATOM     22  H1  UNL     1      16.933   1.194  14.375  1.00  0.00     0.210 HD
ENDBRANCH   4  21
TORSDOF 5
ENDMDL
MODEL 5
REMARK VINA RESULT: -6.629682355      2.772      3.485
REMARK  5 active torsions:
REMARK  status: ('A' for Active; 'I' for Inactive)
REMARK    1  A    between atoms: N1_2  and  C2_3 
REMARK    2  A    between atoms: N1_2  and  C11_17 
REMARK    3  A    between atoms: C2_3  and  N2_5 
REMARK    4  A    between atoms: C5_8  and  O1_9 
REMARK    5  A    between atoms: C6_11  and  N3_12 
ROOT
HETATM    1  N2  UNL     1      17.116   5.134  12.333  1.00  0.00    -0.334 N 
HETATM    2  C3  UNL     1      16.287   4.502  11.368  1.00  0.00     0.130 C 
HETATM    3  C4  UNL     1      16.108   3.046  11.693  1.00  0.00     0.055 C 
HETATM    4  C5  UNL     1      16.947   2.822  12.891  1.00  0.00     0.162 C 
HETATM    5  C6  UNL     1      17.304   4.174  13.435  1.00  0.00     0.216 C 
ENDROOT
BRANCH   1   6
HETATM    6  C2  UNL     1      17.677   6.441  12.313  1.00  0.00     0.173 C 
HETATM    7  S1  UNL     1      19.280   6.528  11.771  1.00  0.00    -0.041 SA
BRANCH   6   8
HETATM    8  N1  UNL     1      17.130   7.664  12.665  1.00  0.00    -0.358 N 
HETATM    9  C1  UNL     1      17.443   8.084  14.087  1.00  0.00     0.152 C 
BRANCH   8  10
HETATM   10  C11 UNL     1      16.322   8.579  11.915  1.00  0.00     0.086 C 
HETATM   11  C12 UNL     1      14.842   8.435  12.261  1.00  0.00     0.025 C 
HETATM   12  C13 UNL     1      14.025   9.445  11.450  1.00  0.00     0.002 C 
HETATM   13  C14 UNL     1      14.125   9.119   9.987  1.00  0.00     0.000 C 
HETATM   14  C15 UNL     1      15.191   8.076   9.721  1.00  0.00     0.002 C 
HETATM   15  C16 UNL     1      16.488   8.351  10.411  1.00  0.00     0.025 C 
ENDBRANCH   8  10
ENDBRANCH   6   8
ENDBRANCH   1   6
BRANCH   5  16
HETATM   16  N3  UNL     1      16.614   4.463  14.588  1.00  0.00    -0.370 N 
HETATM   17  C7  UNL     1      15.336   4.966  14.665  1.00  0.00     0.060 C 
HETATM   18  C8  UNL     1      14.701   4.287  15.859  1.00  0.00     0.046 C 
HETATM   19  C9  UNL     1      15.862   3.603  16.547  1.00  0.00     0.025 C 
HETATM   20  C10 UNL     1      17.108   4.195  15.865  1.00  0.00     0.124 C 
ENDBRANCH   5  16
BRANCH   4  21
HETATM   21  O1  UNL     1      16.184   2.053  13.802  1.00  0.00    -0.392 OA
ATOM     22  H1  UNL     1      16.295   2.441  14.662  1.00  0.00     0.210 HD
ENDBRANCH   4  21
TORSDOF 5
ENDMDL
