MODEL 1
REMARK VINA RESULT: -6.543325663      0.000      0.000
REMARK  4 active torsions:
REMARK  status: ('A' for Active; 'I' for Inactive)
REMARK    1  A    between atoms: C2_2  and  N1_4 
REMARK    2  A    between atoms: N3_12  and  C10_13 
REMARK    3  A    between atoms: C10_13  and  N4_15 
REMARK    4  A    between atoms: N4_15  and  C11_17 
ROOT
HETATM    1  N1  UNL     1      18.471   9.239  12.728  1.00  0.00    -0.405 N 
HETATM    2  C4  UNL     1      17.436   9.597  11.846  1.00  0.00     0.147 C 
HETATM    3  C5  UNL     1      16.315   8.563  12.034  1.00  0.00     0.292 C 
HETATM    4  N2  UNL     1      16.825   7.216  11.899  1.00  0.00     0.097 N 
HETATM    5  C6  UNL     1      17.038   6.963  10.509  1.00  0.00     0.311 C 
HETATM    6  C7  UNL     1      17.957   6.939  12.733  1.00  0.00     0.177 C 
HETATM    7  C8  UNL     1      17.595   7.124  14.186  1.00  0.00     0.063 C 
HETATM    8  C9  UNL     1      17.666   5.816  14.950  1.00  0.00     0.128 C 
HETATM    9  N3  UNL     1      17.007   4.748  14.243  1.00  0.00    -0.358 N 
HETATM   10  C14 UNL     1      17.289   4.596  12.831  1.00  0.00     0.128 C 
HETATM   11  C15 UNL     1      18.436   5.548  12.496  1.00  0.00     0.063 C 
HETATM   12  C16 UNL     1      19.061   7.971  12.454  1.00  0.00     0.159 C 
ENDROOT
BRANCH   1  13
HETATM   13  C2  UNL     1      19.317  10.243  13.225  1.00  0.00     0.071 C 
HETATM   14  C1  UNL     1      20.752   9.913  12.915  1.00  0.00     0.031 C 
HETATM   15  C3  UNL     1      19.196  10.531  14.697  1.00  0.00     0.031 C 
ENDBRANCH   1  13
BRANCH   9  16
HETATM   16  C10 UNL     1      16.095   3.834  14.869  1.00  0.00     0.170 C 
HETATM   17  S1  UNL     1      16.579   2.286  14.955  1.00  0.00    -0.041 SA
BRANCH  16  18
HETATM   18  N4  UNL     1      14.854   4.272  15.356  1.00  0.00    -0.362 N 
ATOM     19  H4  UNL     1      14.231   4.701  14.671  1.00  0.00     0.162 HD
BRANCH  18  20
HETATM   20  C11 UNL     1      14.355   4.193  16.690  1.00  0.00     0.084 A 
HETATM   21  C12 UNL     1      13.702   2.925  17.170  1.00  0.00     0.027 A 
HETATM   22  C13 UNL     1      14.976   3.519  17.817  1.00  0.00     0.027 A 
ENDBRANCH  18  20
ENDBRANCH  16  18
ENDBRANCH   9  16
TORSDOF 4
ENDMDL
MODEL 2
REMARK VINA RESULT: -6.495495629      1.780      2.835
REMARK  4 active torsions:
REMARK  status: ('A' for Active; 'I' for Inactive)
REMARK    1  A    between atoms: C2_2  and  N1_4 
REMARK    2  A    between atoms: N3_12  and  C10_13 
REMARK    3  A    between atoms: C10_13  and  N4_15 
REMARK    4  A    between atoms: N4_15  and  C11_17 
ROOT
HETATM    1  N1  UNL     1      16.733   7.921  11.569  1.00  0.00    -0.405 N 
HETATM    2  C4  UNL     1      17.939   7.653  10.899  1.00  0.00     0.147 C 
HETATM    3  C5  UNL     1      18.402   6.261  11.356  1.00  0.00     0.292 C 
HETATM    4  N2  UNL     1      18.447   6.178  12.800  1.00  0.00     0.097 N 
HETATM    5  C6  UNL     1      19.609   6.880  13.245  1.00  0.00     0.311 C 
HETATM    6  C7  UNL     1      17.229   6.578  13.441  1.00  0.00     0.177 C 
HETATM    7  C8  UNL     1      16.087   5.700  12.991  1.00  0.00     0.063 C 
HETATM    8  C9  UNL     1      15.533   4.875  14.135  1.00  0.00     0.128 C 
HETATM    9  N3  UNL     1      16.580   4.245  14.896  1.00  0.00    -0.358 N 
HETATM   10  C14 UNL     1      17.718   5.053  15.280  1.00  0.00     0.128 C 
HETATM   11  C15 UNL     1      17.384   6.500  14.921  1.00  0.00     0.063 C 
HETATM   12  C16 UNL     1      16.856   7.998  12.987  1.00  0.00     0.159 C 
ENDROOT
BRANCH   1  13
HETATM   13  C2  UNL     1      15.794   8.770  10.962  1.00  0.00     0.071 C 
HETATM   14  C1  UNL     1      16.373  10.149  10.797  1.00  0.00     0.031 C 
HETATM   15  C3  UNL     1      14.467   8.884  11.663  1.00  0.00     0.031 C 
ENDBRANCH   1  13
BRANCH   9  16
HETATM   16  C10 UNL     1      16.546   2.865  15.290  1.00  0.00     0.170 C 
HETATM   17  S1  UNL     1      16.701   1.775  14.096  1.00  0.00    -0.041 SA
BRANCH  16  18
HETATM   18  N4  UNL     1      16.371   2.502  16.635  1.00  0.00    -0.362 N 
ATOM     19  H4  UNL     1      17.213   2.215  17.134  1.00  0.00     0.162 HD
BRANCH  18  20
HETATM   20  C11 UNL     1      15.161   2.484  17.390  1.00  0.00     0.084 A 
HETATM   21  C12 UNL     1      14.657   3.753  18.026  1.00  0.00     0.027 A 
HETATM   22  C13 UNL     1      13.856   2.961  16.964  1.00  0.00     0.027 A 
ENDBRANCH  18  20
ENDBRANCH  16  18
ENDBRANCH   9  16
TORSDOF 4
ENDMDL
MODEL 3
REMARK VINA RESULT: -6.471619208      1.823      3.426
REMARK  4 active torsions:
REMARK  status: ('A' for Active; 'I' for Inactive)
REMARK    1  A    between atoms: C2_2  and  N1_4 
REMARK    2  A    between atoms: N3_12  and  C10_13 
REMARK    3  A    between atoms: C10_13  and  N4_15 
REMARK    4  A    between atoms: N4_15  and  C11_17 
ROOT
HETATM    1  N1  UNL     1      18.429   6.380  10.244  1.00  0.00    -0.405 N 
HETATM    2  C4  UNL     1      19.799   6.484  10.541  1.00  0.00     0.147 C 
HETATM    3  C5  UNL     1      20.038   5.674  11.825  1.00  0.00     0.292 C 
HETATM    4  N2  UNL     1      19.130   6.084  12.873  1.00  0.00     0.097 N 
HETATM    5  C6  UNL     1      19.591   7.334  13.391  1.00  0.00     0.311 C 
HETATM    6  C7  UNL     1      17.752   6.076  12.481  1.00  0.00     0.177 C 
HETATM    7  C8  UNL     1      17.334   4.688  12.062  1.00  0.00     0.063 C 
HETATM    8  C9  UNL     1      16.289   4.113  12.998  1.00  0.00     0.128 C 
HETATM    9  N3  UNL     1      16.648   4.298  14.380  1.00  0.00    -0.358 N 
HETATM   10  C14 UNL     1      17.116   5.606  14.788  1.00  0.00     0.128 C 
HETATM   11  C15 UNL     1      16.899   6.551  13.607  1.00  0.00     0.063 C 
HETATM   12  C16 UNL     1      17.572   6.950  11.230  1.00  0.00     0.159 C 
ENDROOT
BRANCH   1  13
HETATM   13  C2  UNL     1      18.016   6.475   8.906  1.00  0.00     0.071 C 
HETATM   14  C1  UNL     1      19.186   6.252   7.986  1.00  0.00     0.031 C 
HETATM   15  C3  UNL     1      17.339   7.763   8.521  1.00  0.00     0.031 C 
ENDBRANCH   1  13
BRANCH   9  16
HETATM   16  C10 UNL     1      16.561   3.256  15.363  1.00  0.00     0.170 C 
HETATM   17  S1  UNL     1      16.694   1.736  14.807  1.00  0.00    -0.041 SA
BRANCH  16  18
HETATM   18  N4  UNL     1      16.356   3.557  16.719  1.00  0.00    -0.362 N 
ATOM     19  H4  UNL     1      17.194   3.771  17.260  1.00  0.00     0.162 HD
BRANCH  18  20
HETATM   20  C11 UNL     1      15.122   3.600  17.432  1.00  0.00     0.084 A 
HETATM   21  C12 UNL     1      14.014   4.501  16.955  1.00  0.00     0.027 A 
HETATM   22  C13 UNL     1      13.872   2.963  17.058  1.00  0.00     0.027 A 
ENDBRANCH  18  20
ENDBRANCH  16  18
ENDBRANCH   9  16
TORSDOF 4
ENDMDL
MODEL 4
REMARK VINA RESULT: -6.234623129      1.542      3.209
REMARK  4 active torsions:
REMARK  status: ('A' for Active; 'I' for Inactive)
REMARK    1  A    between atoms: C2_2  and  N1_4 
REMARK    2  A    between atoms: N3_12  and  C10_13 
REMARK    3  A    between atoms: C10_13  and  N4_15 
REMARK    4  A    between atoms: N4_15  and  C11_17 
ROOT
HETATM    1  N1  UNL     1      18.533   7.304  10.759  1.00  0.00    -0.405 N 
HETATM    2  C4  UNL     1      19.770   7.667  11.320  1.00  0.00     0.147 C 
HETATM    3  C5  UNL     1      19.958   6.805  12.578  1.00  0.00     0.292 C 
HETATM    4  N2  UNL     1      18.811   6.908  13.453  1.00  0.00     0.097 N 
HETATM    5  C6  UNL     1      18.879   8.170  14.120  1.00  0.00     0.311 C 
HETATM    6  C7  UNL     1      17.561   6.646  12.803  1.00  0.00     0.177 C 
HETATM    7  C8  UNL     1      17.549   5.249  12.234  1.00  0.00     0.063 C 
HETATM    8  C9  UNL     1      16.514   4.377  12.917  1.00  0.00     0.128 C 
HETATM    9  N3  UNL     1      16.574   4.498  14.351  1.00  0.00    -0.358 N 
HETATM   10  C14 UNL     1      16.655   5.829  14.914  1.00  0.00     0.128 C 
HETATM   11  C15 UNL     1      16.439   6.817  13.769  1.00  0.00     0.063 C 
HETATM   12  C16 UNL     1      17.410   7.580  11.592  1.00  0.00     0.159 C 
ENDROOT
BRANCH   1  13
HETATM   13  C2  UNL     1      18.350   7.440   9.374  1.00  0.00     0.071 C 
HETATM   14  C1  UNL     1      16.905   7.723   9.068  1.00  0.00     0.031 C 
HETATM   15  C3  UNL     1      18.800   6.271   8.538  1.00  0.00     0.031 C 
ENDBRANCH   1  13
BRANCH   9  16
HETATM   16  C10 UNL     1      16.555   3.370  15.238  1.00  0.00     0.170 C 
HETATM   17  S1  UNL     1      16.678   1.908  14.540  1.00  0.00    -0.041 SA
BRANCH  16  18
HETATM   18  N4  UNL     1      16.420   3.544  16.624  1.00  0.00    -0.362 N 
ATOM     19  H4  UNL     1      17.279   3.752  17.135  1.00  0.00     0.162 HD
BRANCH  18  20
HETATM   20  C11 UNL     1      15.231   3.466  17.408  1.00  0.00     0.084 A 
HETATM   21  C12 UNL     1      14.049   4.332  17.063  1.00  0.00     0.027 A 
HETATM   22  C13 UNL     1      13.996   2.785  17.059  1.00  0.00     0.027 A 
ENDBRANCH  18  20
ENDBRANCH  16  18
ENDBRANCH   9  16
TORSDOF 4
ENDMDL
MODEL 5
REMARK VINA RESULT: -6.218559612      1.049      1.276
REMARK  4 active torsions:
REMARK  status: ('A' for Active; 'I' for Inactive)
REMARK    1  A    between atoms: C2_2  and  N1_4 
REMARK    2  A    between atoms: N3_12  and  C10_13 
REMARK    3  A    between atoms: C10_13  and  N4_15 
REMARK    4  A    between atoms: N4_15  and  C11_17 
ROOT
HETATM    1  N1  UNL     1      19.071   9.868  13.243  1.00  0.00    -0.405 N 
HETATM    2  C4  UNL     1      18.333  10.313  12.132  1.00  0.00     0.147 C 
HETATM    3  C5  UNL     1      17.249   9.257  11.867  1.00  0.00     0.292 C 
HETATM    4  N2  UNL     1      17.828   7.937  11.754  1.00  0.00     0.097 N 
HETATM    5  C6  UNL     1      18.455   7.839  10.474  1.00  0.00     0.311 C 
HETATM    6  C7  UNL     1      18.670   7.578  12.857  1.00  0.00     0.177 C 
HETATM    7  C8  UNL     1      17.884   7.600  14.145  1.00  0.00     0.063 C 
HETATM    8  C9  UNL     1      17.776   6.216  14.756  1.00  0.00     0.128 C 
HETATM    9  N3  UNL     1      17.401   5.228  13.778  1.00  0.00    -0.358 N 
HETATM   10  C14 UNL     1      18.097   5.234  12.509  1.00  0.00     0.128 C 
HETATM   11  C15 UNL     1      19.253   6.224  12.633  1.00  0.00     0.063 C 
HETATM   12  C16 UNL     1      19.765   8.642  13.030  1.00  0.00     0.159 C 
ENDROOT
BRANCH   1  13
HETATM   13  C2  UNL     1      19.690  10.818  14.071  1.00  0.00     0.071 C 
HETATM   14  C1  UNL     1      19.468  10.467  15.517  1.00  0.00     0.031 C 
HETATM   15  C3  UNL     1      19.271  12.247  13.851  1.00  0.00     0.031 C 
ENDBRANCH   1  13
BRANCH   9  16
HETATM   16  C10 UNL     1      16.381   4.244  14.004  1.00  0.00     0.170 C 
HETATM   17  S1  UNL     1      16.635   2.784  13.341  1.00  0.00    -0.041 SA
BRANCH  16  18
HETATM   18  N4  UNL     1      15.229   4.555  14.744  1.00  0.00    -0.362 N 
ATOM     19  H4  UNL     1      14.443   4.928  14.212  1.00  0.00     0.162 HD
BRANCH  18  20
HETATM   20  C11 UNL     1      15.022   4.414  16.148  1.00  0.00     0.084 A 
HETATM   21  C12 UNL     1      14.077   3.361  16.663  1.00  0.00     0.027 A 
HETATM   22  C13 UNL     1      15.583   3.395  17.018  1.00  0.00     0.027 A 
ENDBRANCH  18  20
ENDBRANCH  16  18
ENDBRANCH   9  16
TORSDOF 4
ENDMDL
