MODEL 1
REMARK VINA RESULT: -8.143709596      0.000      0.000
REMARK  2 active torsions:
REMARK  status: ('A' for Active; 'I' for Inactive)
REMARK    1  A    between atoms: C10_12  and  C11_13 
REMARK    2  A    between atoms: C11_13  and  C12_14 
ROOT
HETATM    1  C12 UNL     1      16.703   1.222  11.533  1.00  0.00     0.126 C 
HETATM    2  C13 UNL     1      17.616   0.100  11.488  1.00  0.00     0.059 C 
HETATM    3  N2  UNL     1      18.355  -0.791  11.467  1.00  0.00    -0.197 NA
ENDROOT
BRANCH   1   4
HETATM    4  C11 UNL     1      17.535   2.480  11.782  1.00  0.00     0.040 C 
BRANCH   4   5
HETATM    5  C10 UNL     1      16.900   3.345  12.843  1.00  0.00     0.096 C 
HETATM    6  C9  UNL     1      17.807   4.459  13.306  1.00  0.00     0.075 C 
HETATM    7  C4  UNL     1      18.461   5.227  12.199  1.00  0.00     0.076 C 
HETATM    8  C16 UNL     1      17.120   5.250  14.353  1.00  0.00    -0.024 C 
HETATM    9  O1  UNL     1      19.582   5.923  12.599  1.00  0.00    -0.353 OA
HETATM   10  C5  UNL     1      17.571   5.884  11.242  1.00  0.00     0.234 C 
HETATM   11  C3  UNL     1      19.475   7.117  13.168  1.00  0.00     0.186 C 
HETATM   12  C2  UNL     1      18.111   7.510  13.677  1.00  0.00     0.003 C 
HETATM   13  C1  UNL     1      18.412   8.807  14.472  1.00  0.00     0.019 C 
HETATM   14  C8  UNL     1      17.139   7.852  12.634  1.00  0.00     0.253 C 
HETATM   15  C18 UNL     1      17.710   6.553  14.721  1.00  0.00     0.023 C 
HETATM   16  N1  UNL     1      17.252   7.238  11.366  1.00  0.00    -0.052 N 
HETATM   17  C6  UNL     1      15.923   7.414  10.736  1.00  0.00     0.278 C 
HETATM   18  C7  UNL     1      18.149   8.053  10.527  1.00  0.00     0.278 C 
HETATM   19  C15 UNL     1      17.225   4.405  15.648  1.00  0.00     0.112 C 
HETATM   20  C17 UNL     1      15.607   5.364  14.177  1.00  0.00     0.016 C 
HETATM   21  C14 UNL     1      16.904   2.985  15.324  1.00  0.00     0.218 C 
HETATM   22  N3  UNL     1      16.568   2.557  14.013  1.00  0.00    -0.356 N 
HETATM   23  O2  UNL     1      16.934   2.148  16.237  1.00  0.00    -0.274 OA
ATOM     24  H3  UNL     1      16.078   1.671  13.892  1.00  0.00     0.162 HD
ENDBRANCH   4   5
ENDBRANCH   1   4
TORSDOF 2
ENDMDL
MODEL 2
REMARK VINA RESULT: -7.527864021      1.103      1.165
REMARK  2 active torsions:
REMARK  status: ('A' for Active; 'I' for Inactive)
REMARK    1  A    between atoms: C10_12  and  C11_13 
REMARK    2  A    between atoms: C11_13  and  C12_14 
ROOT
HETATM    1  C12 UNL     1      16.943   1.981  12.138  1.00  0.00     0.126 C 
HETATM    2  C13 UNL     1      17.441   1.510  10.863  1.00  0.00     0.059 C 
HETATM    3  N2  UNL     1      17.843   1.151   9.838  1.00  0.00    -0.197 NA
ENDROOT
BRANCH   1   4
HETATM    4  C11 UNL     1      16.135   3.251  11.874  1.00  0.00     0.040 C 
BRANCH   4   5
HETATM    5  C10 UNL     1      16.204   4.189  13.054  1.00  0.00     0.096 C 
HETATM    6  C9  UNL     1      17.455   5.034  13.053  1.00  0.00     0.075 C 
HETATM    7  C4  UNL     1      17.768   5.678  11.738  1.00  0.00     0.076 C 
HETATM    8  C16 UNL     1      17.455   5.914  14.245  1.00  0.00    -0.024 C 
HETATM    9  O1  UNL     1      19.084   6.070  11.616  1.00  0.00    -0.353 OA
HETATM   10  C5  UNL     1      16.750   6.572  11.187  1.00  0.00     0.234 C 
HETATM   11  C3  UNL     1      19.500   7.227  12.117  1.00  0.00     0.186 C 
HETATM   12  C2  UNL     1      18.590   7.905  13.110  1.00  0.00     0.003 C 
HETATM   13  C1  UNL     1      19.482   9.055  13.648  1.00  0.00     0.019 C 
HETATM   14  C8  UNL     1      17.391   8.517  12.529  1.00  0.00     0.253 C 
HETATM   15  C18 UNL     1      18.432   7.021  14.275  1.00  0.00     0.023 C 
HETATM   16  N1  UNL     1      16.836   7.955  11.357  1.00  0.00    -0.052 N 
HETATM   17  C6  UNL     1      15.448   8.470  11.307  1.00  0.00     0.278 C 
HETATM   18  C7  UNL     1      17.483   8.575  10.187  1.00  0.00     0.278 C 
HETATM   19  C15 UNL     1      17.871   5.006  15.431  1.00  0.00     0.112 C 
HETATM   20  C17 UNL     1      16.074   6.390  14.687  1.00  0.00     0.016 C 
HETATM   21  C14 UNL     1      17.123   3.719  15.339  1.00  0.00     0.218 C 
HETATM   22  N3  UNL     1      16.197   3.447  14.299  1.00  0.00    -0.356 N 
HETATM   23  O2  UNL     1      17.321   2.856  16.205  1.00  0.00    -0.274 OA
ATOM     24  H3  UNL     1      15.506   2.708  14.431  1.00  0.00     0.162 HD
ENDBRANCH   4   5
ENDBRANCH   1   4
TORSDOF 2
ENDMDL
MODEL 3
REMARK VINA RESULT: -7.200406399      1.971      3.920
REMARK  2 active torsions:
REMARK  status: ('A' for Active; 'I' for Inactive)
REMARK    1  A    between atoms: C10_12  and  C11_13 
REMARK    2  A    between atoms: C11_13  and  C12_14 
ROOT
HETATM    1  C12 UNL     1      16.898   3.361  16.165  1.00  0.00     0.126 C 
HETATM    2  C13 UNL     1      15.790   2.497  16.513  1.00  0.00     0.059 C 
HETATM    3  N2  UNL     1      14.900   1.804  16.772  1.00  0.00    -0.197 NA
ENDROOT
BRANCH   1   4
HETATM    4  C11 UNL     1      16.409   4.320  15.080  1.00  0.00     0.040 C 
BRANCH   4   5
HETATM    5  C10 UNL     1      17.159   4.099  13.789  1.00  0.00     0.096 C 
HETATM    6  C9  UNL     1      16.686   5.006  12.678  1.00  0.00     0.075 C 
HETATM    7  C4  UNL     1      16.547   6.444  13.069  1.00  0.00     0.076 C 
HETATM    8  C16 UNL     1      17.459   4.720  11.447  1.00  0.00    -0.024 C 
HETATM    9  O1  UNL     1      15.729   7.167  12.226  1.00  0.00    -0.353 OA
HETATM   10  C5  UNL     1      17.752   7.109  13.564  1.00  0.00     0.234 C 
HETATM   11  C3  UNL     1      16.196   7.671  11.091  1.00  0.00     0.186 C 
HETATM   12  C2  UNL     1      17.515   7.131  10.597  1.00  0.00     0.003 C 
HETATM   13  C1  UNL     1      17.614   7.744   9.175  1.00  0.00     0.019 C 
HETATM   14  C8  UNL     1      18.687   7.584  11.352  1.00  0.00     0.253 C 
HETATM   15  C18 UNL     1      17.361   5.691  10.339  1.00  0.00     0.023 C 
HETATM   16  N1  UNL     1      18.539   7.897  12.722  1.00  0.00    -0.052 N 
HETATM   17  C6  UNL     1      19.913   7.855  13.275  1.00  0.00     0.278 C 
HETATM   18  C7  UNL     1      18.155   9.315  12.842  1.00  0.00     0.278 C 
HETATM   19  C15 UNL     1      16.848   3.418  10.868  1.00  0.00     0.112 C 
HETATM   20  C17 UNL     1      18.909   4.304  11.685  1.00  0.00     0.016 C 
HETATM   21  C14 UNL     1      16.649   2.443  11.978  1.00  0.00     0.218 C 
HETATM   22  N3  UNL     1      16.989   2.737  13.324  1.00  0.00    -0.356 N 
HETATM   23  O2  UNL     1      16.167   1.332  11.712  1.00  0.00    -0.274 OA
ATOM     24  H3  UNL     1      17.117   1.969  13.983  1.00  0.00     0.162 HD
ENDBRANCH   4   5
ENDBRANCH   1   4
TORSDOF 2
ENDMDL
MODEL 4
REMARK VINA RESULT: -7.048385100      2.735      3.957
REMARK  2 active torsions:
REMARK  status: ('A' for Active; 'I' for Inactive)
REMARK    1  A    between atoms: C10_12  and  C11_13 
REMARK    2  A    between atoms: C11_13  and  C12_14 
ROOT
HETATM    1  C12 UNL     1      21.418   5.577   9.637  1.00  0.00     0.126 C 
HETATM    2  C13 UNL     1      22.846   5.412   9.468  1.00  0.00     0.059 C 
HETATM    3  N2  UNL     1      23.986   5.261   9.334  1.00  0.00    -0.197 NA
ENDROOT
BRANCH   1   4
HETATM    4  C11 UNL     1      20.990   4.692  10.807  1.00  0.00     0.040 C 
BRANCH   4   5
HETATM    5  C10 UNL     1      19.491   4.515  10.828  1.00  0.00     0.096 C 
HETATM    6  C9  UNL     1      18.889   4.806  12.181  1.00  0.00     0.075 C 
HETATM    7  C4  UNL     1      19.364   6.078  12.811  1.00  0.00     0.076 C 
HETATM    8  C16 UNL     1      17.423   4.596  12.123  1.00  0.00    -0.024 C 
HETATM    9  O1  UNL     1      19.167   6.125  14.175  1.00  0.00    -0.353 OA
HETATM   10  C5  UNL     1      19.129   7.310  12.058  1.00  0.00     0.234 C 
HETATM   11  C3  UNL     1      17.994   6.483  14.682  1.00  0.00     0.186 C 
HETATM   12  C2  UNL     1      16.817   6.483  13.740  1.00  0.00     0.003 C 
HETATM   13  C1  UNL     1      15.620   6.699  14.703  1.00  0.00     0.019 C 
HETATM   14  C8  UNL     1      16.803   7.583  12.771  1.00  0.00     0.253 C 
HETATM   15  C18 UNL     1      16.615   5.111  13.246  1.00  0.00     0.023 C 
HETATM   16  N1  UNL     1      18.032   8.128  12.338  1.00  0.00    -0.052 N 
HETATM   17  C6  UNL     1      17.712   8.842  11.079  1.00  0.00     0.278 C 
HETATM   18  C7  UNL     1      18.421   9.206  13.264  1.00  0.00     0.278 C 
HETATM   19  C15 UNL     1      17.222   3.061  12.181  1.00  0.00     0.112 C 
HETATM   20  C17 UNL     1      16.781   4.944  10.782  1.00  0.00     0.016 C 
HETATM   21  C14 UNL     1      18.199   2.410  11.261  1.00  0.00     0.218 C 
HETATM   22  N3  UNL     1      19.133   3.151  10.491  1.00  0.00    -0.356 N 
HETATM   23  O2  UNL     1      18.193   1.175  11.167  1.00  0.00    -0.274 OA
ATOM     24  H3  UNL     1      19.564   2.712   9.677  1.00  0.00     0.162 HD
ENDBRANCH   4   5
ENDBRANCH   1   4
TORSDOF 2
ENDMDL
MODEL 5
REMARK VINA RESULT: -6.756393109      1.276      1.539
REMARK  2 active torsions:
REMARK  status: ('A' for Active; 'I' for Inactive)
REMARK    1  A    between atoms: C10_12  and  C11_13 
REMARK    2  A    between atoms: C11_13  and  C12_14 
ROOT
HETATM    1  C12 UNL     1      16.791   1.745  12.609  1.00  0.00     0.126 C 
HETATM    2  C13 UNL     1      17.363   0.817  11.659  1.00  0.00     0.059 C 
HETATM    3  N2  UNL     1      17.830   0.088  10.890  1.00  0.00    -0.197 NA
ENDROOT
BRANCH   1   4
HETATM    4  C11 UNL     1      16.303   2.963  11.825  1.00  0.00     0.040 C 
BRANCH   4   5
HETATM    5  C10 UNL     1      16.367   4.211  12.671  1.00  0.00     0.096 C 
HETATM    6  C9  UNL     1      17.751   4.813  12.717  1.00  0.00     0.075 C 
HETATM    7  C4  UNL     1      18.416   4.943  11.382  1.00  0.00     0.076 C 
HETATM    8  C16 UNL     1      17.733   6.021  13.575  1.00  0.00    -0.024 C 
HETATM    9  O1  UNL     1      19.786   5.072  11.460  1.00  0.00    -0.353 OA
HETATM   10  C5  UNL     1      17.723   5.752  10.380  1.00  0.00     0.234 C 
HETATM   11  C3  UNL     1      20.347   6.252  11.691  1.00  0.00     0.186 C 
HETATM   12  C2  UNL     1      19.446   7.344  12.212  1.00  0.00     0.003 C 
HETATM   13  C1  UNL     1      20.457   8.458  12.590  1.00  0.00     0.019 C 
HETATM   14  C8  UNL     1      18.524   7.907  11.221  1.00  0.00     0.253 C 
HETATM   15  C18 UNL     1      18.904   6.919  13.512  1.00  0.00     0.023 C 
HETATM   16  N1  UNL     1      18.073   7.086  10.163  1.00  0.00    -0.052 N 
HETATM   17  C6  UNL     1      16.857   7.759   9.650  1.00  0.00     0.278 C 
HETATM   18  C7  UNL     1      19.029   7.189   9.047  1.00  0.00     0.278 C 
HETATM   19  C15 UNL     1      17.735   5.494  15.033  1.00  0.00     0.112 C 
HETATM   20  C17 UNL     1      16.430   6.815  13.532  1.00  0.00     0.016 C 
HETATM   21  C14 UNL     1      16.756   4.374  15.142  1.00  0.00     0.218 C 
HETATM   22  N3  UNL     1      15.986   3.921  14.039  1.00  0.00    -0.356 N 
HETATM   23  O2  UNL     1      16.612   3.818  16.240  1.00  0.00    -0.274 OA
ATOM     24  H3  UNL     1      15.142   3.377  14.214  1.00  0.00     0.162 HD
ENDBRANCH   4   5
ENDBRANCH   1   4
TORSDOF 2
ENDMDL
