MODEL 1
REMARK VINA RESULT: -8.356351039      0.000      0.000
REMARK  2 active torsions:
REMARK  status: ('A' for Active; 'I' for Inactive)
REMARK    1  A    between atoms: C2_2  and  N1_4 
REMARK    2  A    between atoms: N3_14  and  C8_15 
ROOT
HETATM    1  N1  UNL     1      18.243   8.506  13.981  1.00  0.00    -0.369 N 
HETATM    2  C4  UNL     1      17.780   8.740  12.670  1.00  0.00     0.065 C 
HETATM    3  C5  UNL     1      16.651   7.750  12.519  1.00  0.00     0.067 C 
HETATM    4  C6  UNL     1      17.084   6.526  13.333  1.00  0.00     0.046 C 
HETATM    5  C7  UNL     1      17.957   5.731  12.464  1.00  0.00     0.154 C 
HETATM    6  N2  UNL     1      18.152   4.361  12.799  1.00  0.00    -0.301 N 
ATOM      7  H2  UNL     1      19.035   3.878  12.966  1.00  0.00     0.173 HD
HETATM    8  S1  UNL     1      16.536   3.692  12.857  1.00  0.00     0.321 S 
HETATM    9  O1  UNL     1      15.922   4.037  11.505  1.00  0.00    -0.182 OA
HETATM   10  O2  UNL     1      16.552   2.218  12.956  1.00  0.00    -0.182 OA
HETATM   11  N3  UNL     1      15.756   4.546  14.043  1.00  0.00    -0.268 N 
HETATM   12  C14 UNL     1      15.871   5.928  13.905  1.00  0.00     0.095 C 
HETATM   13  C15 UNL     1      17.943   7.198  14.402  1.00  0.00     0.080 C 
ENDROOT
BRANCH  11  14
HETATM   14  C8  UNL     1      15.309   3.964  15.219  1.00  0.00     0.102 C 
HETATM   15  C9  UNL     1      16.502   3.562  16.092  1.00  0.00     0.026 C 
HETATM   16  C10 UNL     1      15.917   2.545  17.082  1.00  0.00     0.002 C 
HETATM   17  C11 UNL     1      15.069   3.368  18.032  1.00  0.00     0.000 C 
HETATM   18  C12 UNL     1      14.015   4.158  17.355  1.00  0.00     0.002 C 
HETATM   19  C13 UNL     1      14.449   4.843  16.090  1.00  0.00     0.026 C 
ENDBRANCH  11  14
BRANCH   1  20
HETATM   20  C2  UNL     1      19.491   9.059  14.332  1.00  0.00     0.080 C 
HETATM   21  C1  UNL     1      19.282  10.132  15.409  1.00  0.00     0.032 C 
HETATM   22  C3  UNL     1      20.248   9.720  13.219  1.00  0.00     0.032 C 
ENDBRANCH   1  20
TORSDOF 2
ENDMDL
MODEL 2
REMARK VINA RESULT: -7.466454733      1.019      1.080
REMARK  2 active torsions:
REMARK  status: ('A' for Active; 'I' for Inactive)
REMARK    1  A    between atoms: C2_2  and  N1_4 
REMARK    2  A    between atoms: N3_14  and  C8_15 
ROOT
HETATM    1  N1  UNL     1      18.660   9.165  13.633  1.00  0.00    -0.369 N 
HETATM    2  C4  UNL     1      18.360   9.387  12.273  1.00  0.00     0.065 C 
HETATM    3  C5  UNL     1      17.347   8.313  11.961  1.00  0.00     0.067 C 
HETATM    4  C6  UNL     1      17.766   7.112  12.815  1.00  0.00     0.046 C 
HETATM    5  C7  UNL     1      18.811   6.407  12.066  1.00  0.00     0.154 C 
HETATM    6  N2  UNL     1      19.072   5.051  12.412  1.00  0.00    -0.301 N 
ATOM      7  H2  UNL     1      19.961   4.638  12.694  1.00  0.00     0.173 HD
HETATM    8  S1  UNL     1      17.524   4.253  12.244  1.00  0.00     0.321 S 
HETATM    9  O1  UNL     1      17.070   4.574  10.825  1.00  0.00    -0.182 OA
HETATM   10  O2  UNL     1      17.648   2.783  12.331  1.00  0.00    -0.182 OA
HETATM   11  N3  UNL     1      16.523   5.018  13.320  1.00  0.00    -0.268 N 
HETATM   12  C14 UNL     1      16.540   6.407  13.212  1.00  0.00     0.095 C 
HETATM   13  C15 UNL     1      18.414   7.830  13.997  1.00  0.00     0.080 C 
ENDROOT
BRANCH  11  14
HETATM   14  C8  UNL     1      15.971   4.378  14.420  1.00  0.00     0.102 C 
HETATM   15  C9  UNL     1      17.051   4.121  15.474  1.00  0.00     0.026 C 
HETATM   16  C10 UNL     1      16.447   3.034  16.375  1.00  0.00     0.002 C 
HETATM   17  C11 UNL     1      15.365   3.740  17.168  1.00  0.00     0.000 C 
HETATM   18  C12 UNL     1      14.342   4.399  16.323  1.00  0.00     0.002 C 
HETATM   19  C13 UNL     1      14.883   5.139  15.132  1.00  0.00     0.026 C 
ENDBRANCH  11  14
BRANCH   1  20
HETATM   20  C2  UNL     1      19.799   9.810  14.155  1.00  0.00     0.080 C 
HETATM   21  C1  UNL     1      19.446  10.437  15.511  1.00  0.00     0.032 C 
HETATM   22  C3  UNL     1      20.367  10.915  13.314  1.00  0.00     0.032 C 
ENDBRANCH   1  20
TORSDOF 2
ENDMDL
MODEL 3
REMARK VINA RESULT: -7.307911145      1.344      1.551
REMARK  2 active torsions:
REMARK  status: ('A' for Active; 'I' for Inactive)
REMARK    1  A    between atoms: C2_2  and  N1_4 
REMARK    2  A    between atoms: N3_14  and  C8_15 
ROOT
HETATM    1  N1  UNL     1      19.225   7.482  12.642  1.00  0.00    -0.369 N 
HETATM    2  C4  UNL     1      18.769   7.573  11.311  1.00  0.00     0.065 C 
HETATM    3  C5  UNL     1      17.491   6.771  11.326  1.00  0.00     0.067 C 
HETATM    4  C6  UNL     1      17.743   5.640  12.330  1.00  0.00     0.046 C 
HETATM    5  C7  UNL     1      18.452   4.583  11.602  1.00  0.00     0.154 C 
HETATM    6  N2  UNL     1      18.433   3.272  12.157  1.00  0.00    -0.301 N 
ATOM      7  H2  UNL     1      19.231   2.685  12.400  1.00  0.00     0.173 HD
HETATM    8  S1  UNL     1      16.733   2.895  12.327  1.00  0.00     0.321 S 
HETATM    9  O1  UNL     1      16.144   3.112  10.938  1.00  0.00    -0.182 OA
HETATM   10  O2  UNL     1      16.514   1.474  12.667  1.00  0.00    -0.182 OA
HETATM   11  N3  UNL     1      16.135   4.046  13.358  1.00  0.00    -0.268 N 
HETATM   12  C14 UNL     1      16.467   5.350  12.994  1.00  0.00     0.095 C 
HETATM   13  C15 UNL     1      18.730   6.327  13.272  1.00  0.00     0.080 C 
ENDROOT
BRANCH  11  14
HETATM   14  C8  UNL     1      15.634   3.743  14.615  1.00  0.00     0.102 C 
HETATM   15  C9  UNL     1      16.781   3.385  15.564  1.00  0.00     0.026 C 
HETATM   16  C10 UNL     1      16.095   2.637  16.717  1.00  0.00     0.002 C 
HETATM   17  C11 UNL     1      15.345   3.707  17.486  1.00  0.00     0.000 C 
HETATM   18  C12 UNL     1      14.379   4.467  16.659  1.00  0.00     0.002 C 
HETATM   19  C13 UNL     1      14.878   4.855  15.295  1.00  0.00     0.026 C 
ENDBRANCH  11  14
BRANCH   1  20
HETATM   20  C2  UNL     1      20.555   7.873  12.895  1.00  0.00     0.080 C 
HETATM   21  C1  UNL     1      20.641   9.405  12.886  1.00  0.00     0.032 C 
HETATM   22  C3  UNL     1      21.577   7.387  11.911  1.00  0.00     0.032 C 
ENDBRANCH   1  20
TORSDOF 2
ENDMDL
MODEL 4
REMARK VINA RESULT: -7.149612613      2.814      5.697
REMARK  2 active torsions:
REMARK  status: ('A' for Active; 'I' for Inactive)
REMARK    1  A    between atoms: C2_2  and  N1_4 
REMARK    2  A    between atoms: N3_14  and  C8_15 
ROOT
HETATM    1  N1  UNL     1      15.082   3.987  16.389  1.00  0.00    -0.369 N 
HETATM    2  C4  UNL     1      14.552   5.293  16.358  1.00  0.00     0.065 C 
HETATM    3  C5  UNL     1      14.740   5.710  14.920  1.00  0.00     0.067 C 
HETATM    4  C6  UNL     1      16.045   5.039  14.478  1.00  0.00     0.046 C 
HETATM    5  C7  UNL     1      17.137   5.912  14.922  1.00  0.00     0.154 C 
HETATM    6  N2  UNL     1      18.403   5.760  14.288  1.00  0.00    -0.301 N 
ATOM      7  H2  UNL     1      19.303   5.568  14.729  1.00  0.00     0.173 HD
HETATM    8  S1  UNL     1      18.068   5.979  12.585  1.00  0.00     0.321 S 
HETATM    9  O1  UNL     1      17.359   7.325  12.495  1.00  0.00    -0.182 OA
HETATM   10  O2  UNL     1      19.307   6.093  11.789  1.00  0.00    -0.182 OA
HETATM   11  N3  UNL     1      16.997   4.775  12.196  1.00  0.00    -0.268 N 
HETATM   12  C14 UNL     1      15.904   4.698  13.058  1.00  0.00     0.095 C 
HETATM   13  C15 UNL     1      16.027   3.796  15.365  1.00  0.00     0.080 C 
ENDROOT
BRANCH  11  14
HETATM   14  C8  UNL     1      17.304   3.752  11.312  1.00  0.00     0.102 C 
HETATM   15  C9  UNL     1      18.533   2.982  11.806  1.00  0.00     0.026 C 
HETATM   16  C10 UNL     1      19.034   2.234  10.562  1.00  0.00     0.002 C 
HETATM   17  C11 UNL     1      18.018   1.133  10.333  1.00  0.00     0.000 C 
HETATM   18  C12 UNL     1      16.631   1.627  10.168  1.00  0.00     0.002 C 
HETATM   19  C13 UNL     1      16.227   2.715  11.123  1.00  0.00     0.026 C 
ENDBRANCH  11  14
BRANCH   1  20
HETATM   20  C2  UNL     1      15.334   3.424  17.656  1.00  0.00     0.080 C 
HETATM   21  C1  UNL     1      14.988   1.929  17.622  1.00  0.00     0.032 C 
HETATM   22  C3  UNL     1      14.558   4.011  18.797  1.00  0.00     0.032 C 
ENDBRANCH   1  20
TORSDOF 2
ENDMDL
MODEL 5
REMARK VINA RESULT: -6.955772170      3.458      4.958
REMARK  2 active torsions:
REMARK  status: ('A' for Active; 'I' for Inactive)
REMARK    1  A    between atoms: C2_2  and  N1_4 
REMARK    2  A    between atoms: N3_14  and  C8_15 
ROOT
HETATM    1  N1  UNL     1      16.044   8.697  10.411  1.00  0.00    -0.369 N 
HETATM    2  C4  UNL     1      17.035   9.498  11.013  1.00  0.00     0.065 C 
HETATM    3  C5  UNL     1      18.018   8.489  11.551  1.00  0.00     0.067 C 
HETATM    4  C6  UNL     1      17.165   7.287  11.973  1.00  0.00     0.046 C 
HETATM    5  C7  UNL     1      16.662   7.582  13.319  1.00  0.00     0.154 C 
HETATM    6  N2  UNL     1      16.209   6.487  14.109  1.00  0.00    -0.301 N 
ATOM      7  H2  UNL     1      15.294   6.366  14.543  1.00  0.00     0.173 HD
HETATM    8  S1  UNL     1      17.576   5.396  14.167  1.00  0.00     0.321 S 
HETATM    9  O1  UNL     1      18.732   6.246  14.683  1.00  0.00    -0.182 OA
HETATM   10  O2  UNL     1      17.374   4.309  15.146  1.00  0.00    -0.182 OA
HETATM   11  N3  UNL     1      17.868   4.983  12.589  1.00  0.00    -0.268 N 
HETATM   12  C14 UNL     1      17.960   6.077  11.731  1.00  0.00     0.095 C 
HETATM   13  C15 UNL     1      16.008   7.413  10.984  1.00  0.00     0.080 C 
ENDROOT
BRANCH  11  14
HETATM   14  C8  UNL     1      17.720   3.690  12.110  1.00  0.00     0.102 C 
HETATM   15  C9  UNL     1      16.525   3.618  11.156  1.00  0.00     0.026 C 
HETATM   16  C10 UNL     1      16.190   2.120  11.085  1.00  0.00     0.002 C 
HETATM   17  C11 UNL     1      17.310   1.508  10.267  1.00  0.00     0.000 C 
HETATM   18  C12 UNL     1      18.659   1.754  10.827  1.00  0.00     0.002 C 
HETATM   19  C13 UNL     1      18.892   3.150  11.332  1.00  0.00     0.026 C 
ENDBRANCH  11  14
BRANCH   1  20
HETATM   20  C2  UNL     1      14.826   9.321  10.075  1.00  0.00     0.080 C 
HETATM   21  C1  UNL     1      13.959   9.446  11.335  1.00  0.00     0.032 C 
HETATM   22  C3  UNL     1      13.988   8.612   9.054  1.00  0.00     0.032 C 
ENDBRANCH   1  20
TORSDOF 2
ENDMDL
