MODEL 1
REMARK VINA RESULT: -7.003469306      0.000      0.000
REMARK  2 active torsions:
REMARK  status: ('A' for Active; 'I' for Inactive)
REMARK       I    between atoms: N1_2  and  C3_4 
REMARK       I    between atoms: C3_4  and  N2_6 
REMARK    1  A    between atoms: N2_6  and  C4_8 
REMARK    2  A    between atoms: C4_8  and  C5_9 
ROOT
HETATM    1  C5  UNL     1      17.532   4.262  12.138  1.00  0.00     0.055 C 
HETATM    2  C6  UNL     1      16.522   4.409  11.017  1.00  0.00     0.041 C 
HETATM    3  C7  UNL     1      17.625   5.468  12.994  1.00  0.00     0.043 C 
HETATM    4  C8  UNL     1      17.961   6.752  12.345  1.00  0.00    -0.023 C 
HETATM    5  C9  UNL     1      18.266   7.709  13.519  1.00  0.00     0.016 C 
HETATM    6  C10 UNL     1      16.765   7.404  11.638  1.00  0.00     0.016 C 
HETATM    7  C11 UNL     1      19.176   6.765  11.493  1.00  0.00     0.082 C 
HETATM    8  C12 UNL     1      19.047   7.741  10.328  1.00  0.00     0.034 C 
HETATM    9  C13 UNL     1      20.411   7.234  12.276  1.00  0.00     0.034 C 
HETATM   10  S1  UNL     1      19.591   5.199  10.792  1.00  0.00     0.237 S 
HETATM   11  O2  UNL     1      21.093   4.946  10.847  1.00  0.00    -0.205 OA
HETATM   12  O3  UNL     1      19.248   5.160   9.308  1.00  0.00    -0.205 OA
HETATM   13  N3  UNL     1      18.795   3.975  11.578  1.00  0.00    -0.303 N 
HETATM   14  C14 UNL     1      19.102   2.655  11.212  1.00  0.00     0.163 C 
ENDROOT
BRANCH   1  15
HETATM   15  C4  UNL     1      17.008   3.118  12.980  1.00  0.00     0.155 C 
BRANCH  15  16
HETATM   16  N2  UNL     1      16.243   3.531  14.103  1.00  0.00    -0.341 N 
HETATM   17  C3  UNL     1      16.036   2.637  15.177  1.00  0.00     0.317 C 
HETATM   18  N1  UNL     1      15.282   2.994  16.321  1.00  0.00    -0.343 N 
HETATM   19  O1  UNL     1      16.532   1.488  15.127  1.00  0.00    -0.247 OA
HETATM   20  C1  UNL     1      15.052   2.110  17.429  1.00  0.00     0.154 C 
HETATM   21  C2  UNL     1      14.707   4.326  16.379  1.00  0.00     0.154 C 
ATOM     22  H2  UNL     1      15.843   4.470  14.133  1.00  0.00     0.164 HD
ENDBRANCH  15  16
ENDBRANCH   1  15
TORSDOF 2
ENDMDL
MODEL 2
REMARK VINA RESULT: -6.703588580      1.679      2.110
REMARK  2 active torsions:
REMARK  status: ('A' for Active; 'I' for Inactive)
REMARK       I    between atoms: N1_2  and  C3_4 
REMARK       I    between atoms: C3_4  and  N2_6 
REMARK    1  A    between atoms: N2_6  and  C4_8 
REMARK    2  A    between atoms: C4_8  and  C5_9 
ROOT
HETATM    1  C5  UNL     1      17.022   5.026  13.048  1.00  0.00     0.055 C 
HETATM    2  C6  UNL     1      15.827   5.793  13.578  1.00  0.00     0.041 C 
HETATM    3  C7  UNL     1      18.311   5.703  13.324  1.00  0.00     0.043 C 
HETATM    4  C8  UNL     1      18.490   7.081  12.821  1.00  0.00    -0.023 C 
HETATM    5  C9  UNL     1      19.997   7.367  13.007  1.00  0.00     0.016 C 
HETATM    6  C10 UNL     1      17.802   8.138  13.695  1.00  0.00     0.016 C 
HETATM    7  C11 UNL     1      18.218   7.300  11.379  1.00  0.00     0.082 C 
HETATM    8  C12 UNL     1      17.672   8.698  11.105  1.00  0.00     0.034 C 
HETATM    9  C13 UNL     1      19.499   7.196  10.538  1.00  0.00     0.034 C 
HETATM   10  S1  UNL     1      17.064   6.164  10.675  1.00  0.00     0.237 S 
HETATM   11  O2  UNL     1      17.508   5.705   9.291  1.00  0.00    -0.205 OA
HETATM   12  O3  UNL     1      15.715   6.833  10.444  1.00  0.00    -0.205 OA
HETATM   13  N3  UNL     1      16.867   4.843  11.658  1.00  0.00    -0.303 N 
HETATM   14  C14 UNL     1      16.063   3.793  11.188  1.00  0.00     0.163 C 
ENDROOT
BRANCH   1  15
HETATM   15  C4  UNL     1      17.002   3.714  13.802  1.00  0.00     0.155 C 
BRANCH  15  16
HETATM   16  N2  UNL     1      15.954   3.610  14.755  1.00  0.00    -0.341 N 
HETATM   17  C3  UNL     1      16.215   3.055  16.027  1.00  0.00     0.317 C 
HETATM   18  N1  UNL     1      15.209   2.928  17.015  1.00  0.00    -0.343 N 
HETATM   19  O1  UNL     1      17.371   2.659  16.301  1.00  0.00    -0.247 OA
HETATM   20  C1  UNL     1      15.441   2.367  18.317  1.00  0.00     0.154 C 
HETATM   21  C2  UNL     1      13.869   3.386  16.698  1.00  0.00     0.154 C 
ATOM     22  H2  UNL     1      15.015   3.936  14.521  1.00  0.00     0.164 HD
ENDBRANCH  15  16
ENDBRANCH   1  15
TORSDOF 2
ENDMDL
MODEL 3
REMARK VINA RESULT: -6.627691274      1.512      2.029
REMARK  2 active torsions:
REMARK  status: ('A' for Active; 'I' for Inactive)
REMARK       I    between atoms: N1_2  and  C3_4 
REMARK       I    between atoms: C3_4  and  N2_6 
REMARK    1  A    between atoms: N2_6  and  C4_8 
REMARK    2  A    between atoms: C4_8  and  C5_9 
ROOT
HETATM    1  C5  UNL     1      17.698   5.777  13.647  1.00  0.00     0.055 C 
HETATM    2  C6  UNL     1      16.328   6.422  13.730  1.00  0.00     0.041 C 
HETATM    3  C7  UNL     1      18.797   6.767  13.550  1.00  0.00     0.043 C 
HETATM    4  C8  UNL     1      18.762   7.731  12.432  1.00  0.00    -0.023 C 
HETATM    5  C9  UNL     1      20.157   8.393  12.450  1.00  0.00     0.016 C 
HETATM    6  C10 UNL     1      17.795   8.899  12.669  1.00  0.00     0.016 C 
HETATM    7  C11 UNL     1      18.608   7.161  11.070  1.00  0.00     0.082 C 
HETATM    8  C12 UNL     1      17.839   8.095  10.142  1.00  0.00     0.034 C 
HETATM    9  C13 UNL     1      19.968   6.948  10.389  1.00  0.00     0.034 C 
HETATM   10  S1  UNL     1      17.775   5.606  11.022  1.00  0.00     0.237 S 
HETATM   11  O2  UNL     1      18.444   4.646  10.044  1.00  0.00    -0.205 OA
HETATM   12  O3  UNL     1      16.355   5.767  10.492  1.00  0.00    -0.205 OA
HETATM   13  N3  UNL     1      17.730   4.917  12.529  1.00  0.00    -0.303 N 
HETATM   14  C14 UNL     1      17.196   3.624  12.641  1.00  0.00     0.163 C 
ENDROOT
BRANCH   1  15
HETATM   15  C4  UNL     1      17.848   5.024  14.951  1.00  0.00     0.155 C 
BRANCH  15  16
HETATM   16  N2  UNL     1      16.615   4.707  15.581  1.00  0.00    -0.341 N 
HETATM   17  C3  UNL     1      16.476   3.484  16.274  1.00  0.00     0.317 C 
HETATM   18  N1  UNL     1      15.271   3.116  16.920  1.00  0.00    -0.343 N 
HETATM   19  O1  UNL     1      17.444   2.690  16.324  1.00  0.00    -0.247 OA
HETATM   20  C1  UNL     1      15.096   1.881  17.631  1.00  0.00     0.154 C 
HETATM   21  C2  UNL     1      14.149   4.036  16.861  1.00  0.00     0.154 C 
ATOM     22  H2  UNL     1      15.833   5.361  15.534  1.00  0.00     0.164 HD
ENDBRANCH  15  16
ENDBRANCH   1  15
TORSDOF 2
ENDMDL
MODEL 4
REMARK VINA RESULT: -6.055918346      2.794      4.065
REMARK  2 active torsions:
REMARK  status: ('A' for Active; 'I' for Inactive)
REMARK       I    between atoms: N1_2  and  C3_4 
REMARK       I    between atoms: C3_4  and  N2_6 
REMARK    1  A    between atoms: N2_6  and  C4_8 
REMARK    2  A    between atoms: C4_8  and  C5_9 
ROOT
HETATM    1  C5  UNL     1      19.815   6.576  11.706  1.00  0.00     0.055 C 
HETATM    2  C6  UNL     1      19.129   6.865  10.385  1.00  0.00     0.041 C 
HETATM    3  C7  UNL     1      18.962   6.877  12.879  1.00  0.00     0.043 C 
HETATM    4  C8  UNL     1      18.436   8.251  13.016  1.00  0.00    -0.023 C 
HETATM    5  C9  UNL     1      17.862   8.302  14.449  1.00  0.00     0.016 C 
HETATM    6  C10 UNL     1      17.220   8.526  12.121  1.00  0.00     0.016 C 
HETATM    7  C11 UNL     1      19.430   9.351  12.945  1.00  0.00     0.082 C 
HETATM    8  C12 UNL     1      18.839  10.617  12.333  1.00  0.00     0.034 C 
HETATM    9  C13 UNL     1      19.915   9.767  14.341  1.00  0.00     0.034 C 
HETATM   10  S1  UNL     1      20.874   8.967  12.007  1.00  0.00     0.237 S 
HETATM   11  O2  UNL     1      22.135   9.486  12.689  1.00  0.00    -0.205 OA
HETATM   12  O3  UNL     1      20.849   9.672  10.656  1.00  0.00    -0.205 OA
HETATM   13  N3  UNL     1      21.006   7.331  11.775  1.00  0.00    -0.303 N 
HETATM   14  C14 UNL     1      22.162   6.851  11.139  1.00  0.00     0.163 C 
ENDROOT
BRANCH   1  15
HETATM   15  C4  UNL     1      20.084   5.086  11.681  1.00  0.00     0.155 C 
BRANCH  15  16
HETATM   16  N2  UNL     1      18.996   4.295  12.137  1.00  0.00    -0.341 N 
HETATM   17  C3  UNL     1      18.546   3.207  11.357  1.00  0.00     0.317 C 
HETATM   18  N1  UNL     1      17.467   2.385  11.761  1.00  0.00    -0.343 N 
HETATM   19  O1  UNL     1      19.112   2.952  10.270  1.00  0.00    -0.247 OA
HETATM   20  C1  UNL     1      16.984   1.273  10.992  1.00  0.00     0.154 C 
HETATM   21  C2  UNL     1      16.809   2.681  13.022  1.00  0.00     0.154 C 
ATOM     22  H2  UNL     1      18.542   4.512  13.025  1.00  0.00     0.164 HD
ENDBRANCH  15  16
ENDBRANCH   1  15
TORSDOF 2
ENDMDL
MODEL 5
REMARK VINA RESULT: -5.873214572      2.864      6.006
REMARK  2 active torsions:
REMARK  status: ('A' for Active; 'I' for Inactive)
REMARK       I    between atoms: N1_2  and  C3_4 
REMARK       I    between atoms: C3_4  and  N2_6 
REMARK    1  A    between atoms: N2_6  and  C4_8 
REMARK    2  A    between atoms: C4_8  and  C5_9 
ROOT
HETATM    1  C5  UNL     1      18.243   5.603  11.517  1.00  0.00     0.055 C 
HETATM    2  C6  UNL     1      19.505   4.857  11.903  1.00  0.00     0.041 C 
HETATM    3  C7  UNL     1      17.989   6.788  12.369  1.00  0.00     0.043 C 
HETATM    4  C8  UNL     1      17.876   6.579  13.827  1.00  0.00    -0.023 C 
HETATM    5  C9  UNL     1      17.326   7.918  14.367  1.00  0.00     0.016 C 
HETATM    6  C10 UNL     1      19.234   6.428  14.524  1.00  0.00     0.016 C 
HETATM    7  C11 UNL     1      16.912   5.543  14.275  1.00  0.00     0.082 C 
HETATM    8  C12 UNL     1      17.364   4.857  15.560  1.00  0.00     0.034 C 
HETATM    9  C13 UNL     1      15.540   6.150  14.605  1.00  0.00     0.034 C 
HETATM   10  S1  UNL     1      16.622   4.261  13.097  1.00  0.00     0.237 S 
HETATM   11  O2  UNL     1      15.144   3.893  13.028  1.00  0.00    -0.205 OA
HETATM   12  O3  UNL     1      17.321   2.972  13.513  1.00  0.00    -0.205 OA
HETATM   13  N3  UNL     1      17.148   4.716  11.592  1.00  0.00    -0.303 N 
HETATM   14  C14 UNL     1      16.890   3.849  10.519  1.00  0.00     0.163 C 
ENDROOT
BRANCH   1  15
HETATM   15  C4  UNL     1      18.495   6.079  10.102  1.00  0.00     0.155 C 
BRANCH  15  16
HETATM   16  N2  UNL     1      17.776   7.253   9.750  1.00  0.00    -0.341 N 
HETATM   17  C3  UNL     1      17.219   7.372   8.457  1.00  0.00     0.317 C 
HETATM   18  N1  UNL     1      16.493   8.518   8.051  1.00  0.00    -0.343 N 
HETATM   19  O1  UNL     1      17.367   6.440   7.634  1.00  0.00    -0.247 OA
HETATM   20  C1  UNL     1      15.916   8.671   6.746  1.00  0.00     0.154 C 
HETATM   21  C2  UNL     1      16.323   9.599   9.005  1.00  0.00     0.154 C 
ATOM     22  H2  UNL     1      17.662   8.006  10.428  1.00  0.00     0.164 HD
ENDBRANCH  15  16
ENDBRANCH   1  15
TORSDOF 2
ENDMDL
