MODEL 1
REMARK VINA RESULT: -6.981210501      0.000      0.000
REMARK  7 active torsions:
REMARK  status: ('A' for Active; 'I' for Inactive)
REMARK    1  A    between atoms: N2_10  and  C8_11 
REMARK    2  A    between atoms: C8_11  and  C9_12 
REMARK    3  A    between atoms: C9_12  and  O1_13 
REMARK    4  A    between atoms: C9_12  and  C10_15 
REMARK    5  A    between atoms: C11_16  and  C12_17 
REMARK    6  A    between atoms: C12_17  and  O2_18 
REMARK    7  A    between atoms: C15_22  and  O3_23 
ROOT
HETATM    1  N1  UNL     1      23.668   5.977  10.243  1.00  0.00    -0.197 NA
HETATM    2  C1  UNL     1      22.601   5.932  10.668  1.00  0.00     0.065 C 
HETATM    3  C2  UNL     1      21.242   5.871  11.182  1.00  0.00     0.114 C 
HETATM    4  C3  UNL     1      20.429   4.782  10.532  1.00  0.00     0.031 C 
HETATM    5  C4  UNL     1      20.352   5.107   9.057  1.00  0.00     0.076 C 
HETATM    6  S1  UNL     1      20.116   6.933   9.128  1.00  0.00    -0.156 SA
HETATM    7  C5  UNL     1      20.537   7.177  10.875  1.00  0.00     0.052 C 
HETATM    8  C6  UNL     1      21.407   8.356  11.140  1.00  0.00     0.054 C 
HETATM    9  C7  UNL     1      21.021   8.721  12.558  1.00  0.00     0.274 C 
HETATM   10  N2  UNL     1      19.594   8.468  12.655  1.00  0.00     0.093 N 
HETATM   11  C18 UNL     1      19.319   7.379  11.734  1.00  0.00     0.294 C 
ENDROOT
BRANCH  10  12
HETATM   12  C8  UNL     1      19.270   7.949  13.989  1.00  0.00     0.316 C 
BRANCH  12  13
HETATM   13  C9  UNL     1      17.873   8.281  14.370  1.00  0.00     0.225 C 
BRANCH  13  14
HETATM   14  O1  UNL     1      17.720   9.056  15.482  1.00  0.00    -0.382 OA
ATOM     15  H1  UNL     1      17.466   9.959  15.332  1.00  0.00     0.211 HD
ENDBRANCH  13  14
BRANCH  13  16
HETATM   16  C10 UNL     1      17.155   7.014  14.593  1.00  0.00    -0.070 C 
HETATM   17  C11 UNL     1      16.587   5.965  14.764  1.00  0.00    -0.066 C 
BRANCH  17  18
HETATM   18  C12 UNL     1      15.906   4.661  14.953  1.00  0.00     0.121 C 
HETATM   19  C13 UNL     1      14.800   4.876  15.925  1.00  0.00     0.054 C 
HETATM   20  C14 UNL     1      14.293   3.656  16.614  1.00  0.00     0.035 C 
HETATM   21  C15 UNL     1      15.386   2.670  16.970  1.00  0.00     0.118 C 
HETATM   22  C16 UNL     1      16.291   2.398  15.789  1.00  0.00     0.035 C 
HETATM   23  C17 UNL     1      16.955   3.686  15.371  1.00  0.00     0.054 C 
BRANCH  18  24
HETATM   24  O2  UNL     1      15.429   4.259  13.695  1.00  0.00    -0.378 OA
ATOM     25  H2  UNL     1      14.530   4.557  13.630  1.00  0.00     0.211 HD
ENDBRANCH  18  24
BRANCH  21  26
HETATM   26  O3  UNL     1      14.750   1.479  17.320  1.00  0.00    -0.396 OA
ATOM     27  H3  UNL     1      14.563   1.535  18.249  1.00  0.00     0.210 HD
ENDBRANCH  21  26
ENDBRANCH  17  18
ENDBRANCH  13  16
ENDBRANCH  12  13
ENDBRANCH  10  12
TORSDOF 7
ENDMDL
MODEL 2
REMARK VINA RESULT: -6.950414291      2.189      3.280
REMARK  7 active torsions:
REMARK  status: ('A' for Active; 'I' for Inactive)
REMARK    1  A    between atoms: N2_10  and  C8_11 
REMARK    2  A    between atoms: C8_11  and  C9_12 
REMARK    3  A    between atoms: C9_12  and  O1_13 
REMARK    4  A    between atoms: C9_12  and  C10_15 
REMARK    5  A    between atoms: C11_16  and  C12_17 
REMARK    6  A    between atoms: C12_17  and  O2_18 
REMARK    7  A    between atoms: C15_22  and  O3_23 
ROOT
HETATM    1  N1  UNL     1      24.081   6.456  11.342  1.00  0.00    -0.197 NA
HETATM    2  C1  UNL     1      23.227   6.010  10.717  1.00  0.00     0.065 C 
HETATM    3  C2  UNL     1      22.146   5.464   9.910  1.00  0.00     0.114 C 
HETATM    4  C3  UNL     1      22.375   5.663   8.433  1.00  0.00     0.031 C 
HETATM    5  C4  UNL     1      22.428   7.154   8.189  1.00  0.00     0.076 C 
HETATM    6  S1  UNL     1      21.078   7.725   9.305  1.00  0.00    -0.156 SA
HETATM    7  C5  UNL     1      20.860   6.191  10.248  1.00  0.00     0.052 C 
HETATM    8  C6  UNL     1      20.700   6.387  11.715  1.00  0.00     0.054 C 
HETATM    9  C7  UNL     1      19.876   5.178  12.107  1.00  0.00     0.274 C 
HETATM   10  N2  UNL     1      18.958   4.953  11.005  1.00  0.00     0.093 N 
HETATM   11  C18 UNL     1      19.644   5.421   9.813  1.00  0.00     0.294 C 
ENDROOT
BRANCH  10  12
HETATM   12  C8  UNL     1      18.760   3.513  10.808  1.00  0.00     0.316 C 
BRANCH  12  13
HETATM   13  C9  UNL     1      17.331   3.139  10.971  1.00  0.00     0.225 C 
BRANCH  13  14
HETATM   14  O1  UNL     1      16.437   3.831  10.206  1.00  0.00    -0.382 OA
ATOM     15  H1  UNL     1      16.346   4.756  10.401  1.00  0.00     0.211 HD
ENDBRANCH  13  14
BRANCH  13  16
HETATM   16  C10 UNL     1      16.973   3.339  12.386  1.00  0.00    -0.070 C 
HETATM   17  C11 UNL     1      16.692   3.525  13.542  1.00  0.00    -0.066 C 
BRANCH  17  18
HETATM   18  C12 UNL     1      16.369   3.775  14.969  1.00  0.00     0.121 C 
HETATM   19  C13 UNL     1      16.246   2.450  15.634  1.00  0.00     0.054 C 
HETATM   20  C14 UNL     1      15.482   2.432  16.913  1.00  0.00     0.035 C 
HETATM   21  C15 UNL     1      14.278   3.350  16.905  1.00  0.00     0.118 C 
HETATM   22  C16 UNL     1      14.638   4.731  16.405  1.00  0.00     0.035 C 
HETATM   23  C17 UNL     1      15.142   4.624  14.986  1.00  0.00     0.054 C 
BRANCH  18  24
HETATM   24  O2  UNL     1      17.421   4.536  15.503  1.00  0.00    -0.378 OA
ATOM     25  H2  UNL     1      17.192   5.450  15.383  1.00  0.00     0.211 HD
ENDBRANCH  18  24
BRANCH  21  26
HETATM   26  O3  UNL     1      13.852   3.460  18.228  1.00  0.00    -0.396 OA
ATOM     27  H3  UNL     1      12.997   3.048  18.272  1.00  0.00     0.210 HD
ENDBRANCH  21  26
ENDBRANCH  17  18
ENDBRANCH  13  16
ENDBRANCH  12  13
ENDBRANCH  10  12
TORSDOF 7
ENDMDL
MODEL 3
REMARK VINA RESULT: -6.895510197      2.087      2.897
REMARK  7 active torsions:
REMARK  status: ('A' for Active; 'I' for Inactive)
REMARK    1  A    between atoms: N2_10  and  C8_11 
REMARK    2  A    between atoms: C8_11  and  C9_12 
REMARK    3  A    between atoms: C9_12  and  O1_13 
REMARK    4  A    between atoms: C9_12  and  C10_15 
REMARK    5  A    between atoms: C11_16  and  C12_17 
REMARK    6  A    between atoms: C12_17  and  O2_18 
REMARK    7  A    between atoms: C15_22  and  O3_23 
ROOT
HETATM    1  N1  UNL     1      17.429   6.355   8.409  1.00  0.00    -0.197 NA
HETATM    2  C1  UNL     1      17.291   6.925   9.397  1.00  0.00     0.065 C 
HETATM    3  C2  UNL     1      17.109   7.667  10.636  1.00  0.00     0.114 C 
HETATM    4  C3  UNL     1      15.829   8.463  10.646  1.00  0.00     0.031 C 
HETATM    5  C4  UNL     1      15.920   9.463   9.516  1.00  0.00     0.076 C 
HETATM    6  S1  UNL     1      17.682   9.979   9.666  1.00  0.00    -0.156 SA
HETATM    7  C5  UNL     1      18.239   8.666  10.786  1.00  0.00     0.052 C 
HETATM    8  C6  UNL     1      19.558   8.072  10.432  1.00  0.00     0.054 C 
HETATM    9  C7  UNL     1      20.067   7.607  11.782  1.00  0.00     0.274 C 
HETATM   10  N2  UNL     1      19.624   8.610  12.735  1.00  0.00     0.093 N 
HETATM   11  C18 UNL     1      18.384   9.147  12.203  1.00  0.00     0.294 C 
ENDROOT
BRANCH  10  12
HETATM   12  C8  UNL     1      19.265   7.965  14.003  1.00  0.00     0.316 C 
BRANCH  12  13
HETATM   13  C9  UNL     1      17.867   8.287  14.392  1.00  0.00     0.225 C 
BRANCH  13  14
HETATM   14  O1  UNL     1      17.714   9.033  15.525  1.00  0.00    -0.382 OA
ATOM     15  H1  UNL     1      17.587   8.548  16.332  1.00  0.00     0.211 HD
ENDBRANCH  13  14
BRANCH  13  16
HETATM   16  C10 UNL     1      17.150   7.014  14.582  1.00  0.00    -0.070 C 
HETATM   17  C11 UNL     1      16.585   5.962  14.743  1.00  0.00    -0.066 C 
BRANCH  17  18
HETATM   18  C12 UNL     1      15.917   4.652  14.940  1.00  0.00     0.121 C 
HETATM   19  C13 UNL     1      14.803   4.863  15.903  1.00  0.00     0.054 C 
HETATM   20  C14 UNL     1      14.305   3.643  16.599  1.00  0.00     0.035 C 
HETATM   21  C15 UNL     1      15.407   2.672  16.970  1.00  0.00     0.118 C 
HETATM   22  C16 UNL     1      16.322   2.401  15.797  1.00  0.00     0.035 C 
HETATM   23  C17 UNL     1      16.974   3.693  15.372  1.00  0.00     0.054 C 
BRANCH  18  24
HETATM   24  O2  UNL     1      15.452   4.235  13.682  1.00  0.00    -0.378 OA
ATOM     25  H2  UNL     1      14.524   4.433  13.648  1.00  0.00     0.211 HD
ENDBRANCH  18  24
BRANCH  21  26
HETATM   26  O3  UNL     1      14.782   1.478  17.326  1.00  0.00    -0.396 OA
ATOM     27  H3  UNL     1      15.251   0.783  16.880  1.00  0.00     0.210 HD
ENDBRANCH  21  26
ENDBRANCH  17  18
ENDBRANCH  13  16
ENDBRANCH  12  13
ENDBRANCH  10  12
TORSDOF 7
ENDMDL
MODEL 4
REMARK VINA RESULT: -6.766478380      2.807      3.871
REMARK  7 active torsions:
REMARK  status: ('A' for Active; 'I' for Inactive)
REMARK    1  A    between atoms: N2_10  and  C8_11 
REMARK    2  A    between atoms: C8_11  and  C9_12 
REMARK    3  A    between atoms: C9_12  and  O1_13 
REMARK    4  A    between atoms: C9_12  and  C10_15 
REMARK    5  A    between atoms: C11_16  and  C12_17 
REMARK    6  A    between atoms: C12_17  and  O2_18 
REMARK    7  A    between atoms: C15_22  and  O3_23 
ROOT
HETATM    1  N1  UNL     1      15.647   7.965   7.981  1.00  0.00    -0.197 NA
HETATM    2  C1  UNL     1      15.787   8.238   9.088  1.00  0.00     0.065 C 
HETATM    3  C2  UNL     1      15.956   8.607  10.486  1.00  0.00     0.114 C 
HETATM    4  C3  UNL     1      14.766   9.355  11.030  1.00  0.00     0.031 C 
HETATM    5  C4  UNL     1      14.638  10.629  10.228  1.00  0.00     0.076 C 
HETATM    6  S1  UNL     1      16.411  11.103  10.065  1.00  0.00    -0.156 SA
HETATM    7  C5  UNL     1      17.145   9.538  10.612  1.00  0.00     0.052 C 
HETATM    8  C6  UNL     1      18.301   9.080   9.793  1.00  0.00     0.054 C 
HETATM    9  C7  UNL     1      19.095   8.266  10.795  1.00  0.00     0.274 C 
HETATM   10  N2  UNL     1      18.958   8.961  12.063  1.00  0.00     0.093 N 
HETATM   11  C18 UNL     1      17.660   9.610  12.024  1.00  0.00     0.294 C 
ENDROOT
BRANCH  10  12
HETATM   12  C8  UNL     1      18.881   7.987  13.158  1.00  0.00     0.316 C 
BRANCH  12  13
HETATM   13  C9  UNL     1      17.734   8.278  14.056  1.00  0.00     0.225 C 
BRANCH  13  14
HETATM   14  O1  UNL     1      18.035   8.889  15.239  1.00  0.00    -0.382 OA
ATOM     15  H1  UNL     1      17.805   8.412  16.028  1.00  0.00     0.211 HD
ENDBRANCH  13  14
BRANCH  13  16
HETATM   16  C10 UNL     1      17.065   7.001  14.358  1.00  0.00    -0.070 C 
HETATM   17  C11 UNL     1      16.531   5.946  14.588  1.00  0.00    -0.066 C 
BRANCH  17  18
HETATM   18  C12 UNL     1      15.884   4.635  14.843  1.00  0.00     0.121 C 
HETATM   19  C13 UNL     1      14.803   4.862  15.839  1.00  0.00     0.054 C 
HETATM   20  C14 UNL     1      14.343   3.656  16.586  1.00  0.00     0.035 C 
HETATM   21  C15 UNL     1      15.468   2.706  16.943  1.00  0.00     0.118 C 
HETATM   22  C16 UNL     1      16.343   2.412  15.746  1.00  0.00     0.035 C 
HETATM   23  C17 UNL     1      16.967   3.698  15.263  1.00  0.00     0.054 C 
BRANCH  18  24
HETATM   24  O2  UNL     1      15.379   4.179  13.615  1.00  0.00    -0.378 OA
ATOM     25  H2  UNL     1      16.114   3.835  13.122  1.00  0.00     0.211 HD
ENDBRANCH  18  24
BRANCH  21  26
HETATM   26  O3  UNL     1      14.869   1.517  17.353  1.00  0.00    -0.396 OA
ATOM     27  H3  UNL     1      15.565   0.964  17.688  1.00  0.00     0.210 HD
ENDBRANCH  21  26
ENDBRANCH  17  18
ENDBRANCH  13  16
ENDBRANCH  12  13
ENDBRANCH  10  12
TORSDOF 7
ENDMDL
MODEL 5
REMARK VINA RESULT: -6.717078541      1.473      1.762
REMARK  7 active torsions:
REMARK  status: ('A' for Active; 'I' for Inactive)
REMARK    1  A    between atoms: N2_10  and  C8_11 
REMARK    2  A    between atoms: C8_11  and  C9_12 
REMARK    3  A    between atoms: C9_12  and  O1_13 
REMARK    4  A    between atoms: C9_12  and  C10_15 
REMARK    5  A    between atoms: C11_16  and  C12_17 
REMARK    6  A    between atoms: C12_17  and  O2_18 
REMARK    7  A    between atoms: C15_22  and  O3_23 
ROOT
HETATM    1  N1  UNL     1      20.182   5.268   8.562  1.00  0.00    -0.197 NA
HETATM    2  C1  UNL     1      19.534   5.796   9.350  1.00  0.00     0.065 C 
HETATM    3  C2  UNL     1      18.703   6.478  10.331  1.00  0.00     0.114 C 
HETATM    4  C3  UNL     1      17.287   6.668   9.852  1.00  0.00     0.031 C 
HETATM    5  C4  UNL     1      17.350   7.535   8.615  1.00  0.00     0.076 C 
HETATM    6  S1  UNL     1      18.643   8.746   9.120  1.00  0.00    -0.156 SA
HETATM    7  C5  UNL     1      19.264   7.864  10.577  1.00  0.00     0.052 C 
HETATM    8  C6  UNL     1      20.748   7.850  10.703  1.00  0.00     0.054 C 
HETATM    9  C7  UNL     1      20.936   7.733  12.202  1.00  0.00     0.274 C 
HETATM   10  N2  UNL     1      19.872   8.524  12.795  1.00  0.00     0.093 N 
HETATM   11  C18 UNL     1      18.760   8.458  11.863  1.00  0.00     0.294 C 
ENDROOT
BRANCH  10  12
HETATM   12  C8  UNL     1      19.398   7.877  14.024  1.00  0.00     0.316 C 
BRANCH  12  13
HETATM   13  C9  UNL     1      17.983   8.234  14.307  1.00  0.00     0.225 C 
BRANCH  13  14
HETATM   14  O1  UNL     1      17.772   9.057  15.375  1.00  0.00    -0.382 OA
ATOM     15  H1  UNL     1      17.268   9.844  15.205  1.00  0.00     0.211 HD
ENDBRANCH  13  14
BRANCH  13  16
HETATM   16  C10 UNL     1      17.243   6.982  14.542  1.00  0.00    -0.070 C 
HETATM   17  C11 UNL     1      16.655   5.946  14.721  1.00  0.00    -0.066 C 
BRANCH  17  18
HETATM   18  C12 UNL     1      15.948   4.657  14.920  1.00  0.00     0.121 C 
HETATM   19  C13 UNL     1      14.872   4.892  15.920  1.00  0.00     0.054 C 
HETATM   20  C14 UNL     1      14.354   3.679  16.615  1.00  0.00     0.035 C 
HETATM   21  C15 UNL     1      15.432   2.665  16.937  1.00  0.00     0.118 C 
HETATM   22  C16 UNL     1      16.301   2.380  15.733  1.00  0.00     0.035 C 
HETATM   23  C17 UNL     1      16.984   3.655  15.306  1.00  0.00     0.054 C 
BRANCH  18  24
HETATM   24  O2  UNL     1      15.430   4.274  13.672  1.00  0.00    -0.378 OA
ATOM     25  H2  UNL     1      14.982   3.447  13.797  1.00  0.00     0.211 HD
ENDBRANCH  18  24
BRANCH  21  26
HETATM   26  O3  UNL     1      14.777   1.488  17.295  1.00  0.00    -0.396 OA
ATOM     27  H3  UNL     1      13.864   1.714  17.421  1.00  0.00     0.210 HD
ENDBRANCH  21  26
ENDBRANCH  17  18
ENDBRANCH  13  16
ENDBRANCH  12  13
ENDBRANCH  10  12
TORSDOF 7
ENDMDL
