MODEL 1
REMARK VINA RESULT: -8.393694849      0.000      0.000
REMARK  4 active torsions:
REMARK  status: ('A' for Active; 'I' for Inactive)
REMARK    1  A    between atoms: O1_2  and  C2_3 
REMARK    2  A    between atoms: C2_3  and  C3_5 
REMARK    3  A    between atoms: C11_13  and  C12_14 
REMARK       I    between atoms: C12_14  and  N1_16 
REMARK       I    between atoms: N1_16  and  C13_18 
REMARK       I    between atoms: C13_18  and  N2_20 
REMARK    4  A    between atoms: N2_20  and  C14_22 
ROOT
HETATM    1  C3  UNL     1      19.163   5.353  11.254  1.00  0.00     0.178 C 
HETATM    2  C4  UNL     1      20.406   6.215  11.269  1.00  0.00     0.040 C 
HETATM    3  C5  UNL     1      20.006   7.574  11.874  1.00  0.00    -0.011 C 
HETATM    4  C6  UNL     1      18.850   8.173  11.166  1.00  0.00     0.009 C 
HETATM    5  C7  UNL     1      17.556   8.205  11.920  1.00  0.00    -0.011 C 
HETATM    6  C8  UNL     1      17.846   8.588  13.382  1.00  0.00     0.012 C 
HETATM    7  C9  UNL     1      18.467   7.283  13.833  1.00  0.00     0.024 C 
HETATM    8  C10 UNL     1      19.904   7.393  13.342  1.00  0.00     0.012 C 
HETATM    9  C11 UNL     1      17.740   6.177  13.072  1.00  0.00     0.112 C 
HETATM   10  C18 UNL     1      16.881   6.891  12.121  1.00  0.00     0.045 C 
HETATM   11  N3  UNL     1      18.628   5.219  12.527  1.00  0.00    -0.392 N 
ATOM     12  H3  UNL     1      18.882   4.406  13.087  1.00  0.00     0.155 HD
ENDROOT
BRANCH   9  13
HETATM   13  C12 UNL     1      16.916   5.457  14.113  1.00  0.00     0.254 C 
HETATM   14  O3  UNL     1      15.695   5.830  14.144  1.00  0.00    -0.270 OA
HETATM   15  N1  UNL     1      17.414   4.485  14.964  1.00  0.00    -0.277 N 
HETATM   16  C13 UNL     1      16.715   3.789  15.926  1.00  0.00     0.323 C 
ATOM     17  H1  UNL     1      18.404   4.261  14.868  1.00  0.00     0.173 HD
HETATM   18  O4  UNL     1      17.368   2.917  16.619  1.00  0.00    -0.247 OA
HETATM   19  N2  UNL     1      15.363   3.926  16.234  1.00  0.00    -0.335 N 
ATOM     20  H2  UNL     1      14.790   4.598  15.724  1.00  0.00     0.165 HD
BRANCH  19  21
HETATM   21  C14 UNL     1      14.762   3.106  17.292  1.00  0.00     0.023 C 
HETATM   22  C15 UNL     1      15.376   1.740  17.381  1.00  0.00     0.037 C 
HETATM   23  C16 UNL     1      13.288   2.952  16.914  1.00  0.00     0.037 C 
HETATM   24  C17 UNL     1      14.866   3.775  18.640  1.00  0.00     0.037 C 
ENDBRANCH  19  21
ENDBRANCH   9  13
BRANCH   1  25
HETATM   25  C2  UNL     1      19.522   4.023  10.694  1.00  0.00     0.281 C 
HETATM   26  O2  UNL     1      19.909   3.955   9.501  1.00  0.00    -0.263 OA
BRANCH  25  27
HETATM   27  O1  UNL     1      19.455   2.849  11.420  1.00  0.00    -0.325 OA
HETATM   28  C1  UNL     1      18.510   1.859  11.053  1.00  0.00     0.213 C 
ENDBRANCH  25  27
ENDBRANCH   1  25
TORSDOF 4
ENDMDL
MODEL 2
REMARK VINA RESULT: -7.838791756      1.646      2.078
REMARK  4 active torsions:
REMARK  status: ('A' for Active; 'I' for Inactive)
REMARK    1  A    between atoms: O1_2  and  C2_3 
REMARK    2  A    between atoms: C2_3  and  C3_5 
REMARK    3  A    between atoms: C11_13  and  C12_14 
REMARK       I    between atoms: C12_14  and  N1_16 
REMARK       I    between atoms: N1_16  and  C13_18 
REMARK       I    between atoms: C13_18  and  N2_20 
REMARK    4  A    between atoms: N2_20  and  C14_22 
ROOT
HETATM    1  C3  UNL     1      18.012   6.761  10.931  1.00  0.00     0.178 C 
HETATM    2  C4  UNL     1      19.482   7.003  10.669  1.00  0.00     0.040 C 
HETATM    3  C5  UNL     1      20.025   7.817  11.859  1.00  0.00    -0.011 C 
HETATM    4  C6  UNL     1      19.231   9.046  12.093  1.00  0.00     0.009 C 
HETATM    5  C7  UNL     1      18.381   9.059  13.327  1.00  0.00    -0.011 C 
HETATM    6  C8  UNL     1      19.177   8.424  14.481  1.00  0.00     0.012 C 
HETATM    7  C9  UNL     1      19.100   6.981  14.034  1.00  0.00     0.024 C 
HETATM    8  C10 UNL     1      20.205   6.879  12.992  1.00  0.00     0.012 C 
HETATM    9  C11 UNL     1      17.738   6.810  13.367  1.00  0.00     0.112 C 
HETATM   10  C18 UNL     1      17.186   8.168  13.311  1.00  0.00     0.045 C 
HETATM   11  N3  UNL     1      17.818   6.109  12.140  1.00  0.00    -0.392 N 
ATOM     12  H3  UNL     1      17.731   5.093  12.145  1.00  0.00     0.155 HD
ENDROOT
BRANCH   9  13
HETATM   13  C12 UNL     1      16.941   5.940  14.310  1.00  0.00     0.254 C 
HETATM   14  O3  UNL     1      15.714   6.280  14.404  1.00  0.00    -0.270 OA
HETATM   15  N1  UNL     1      17.470   4.873  15.016  1.00  0.00    -0.277 N 
HETATM   16  C13 UNL     1      16.798   4.039  15.883  1.00  0.00     0.323 C 
ATOM     17  H1  UNL     1      18.462   4.684  14.881  1.00  0.00     0.173 HD
HETATM   18  O4  UNL     1      17.476   3.095  16.445  1.00  0.00    -0.247 OA
HETATM   19  N2  UNL     1      15.447   4.105  16.222  1.00  0.00    -0.335 N 
ATOM     20  H2  UNL     1      14.855   4.828  15.813  1.00  0.00     0.165 HD
BRANCH  19  21
HETATM   21  C14 UNL     1      14.876   3.138  17.165  1.00  0.00     0.023 C 
HETATM   22  C15 UNL     1      15.502   1.780  17.048  1.00  0.00     0.037 C 
HETATM   23  C16 UNL     1      13.396   3.023  16.801  1.00  0.00     0.037 C 
HETATM   24  C17 UNL     1      15.005   3.611  18.592  1.00  0.00     0.037 C 
ENDBRANCH  19  21
ENDBRANCH   9  13
BRANCH   1  25
HETATM   25  C2  UNL     1      17.462   5.957   9.807  1.00  0.00     0.281 C 
HETATM   26  O2  UNL     1      16.835   4.901  10.070  1.00  0.00    -0.263 OA
BRANCH  25  27
HETATM   27  O1  UNL     1      17.605   6.311   8.479  1.00  0.00    -0.325 OA
HETATM   28  C1  UNL     1      17.105   7.561   8.037  1.00  0.00     0.213 C 
ENDBRANCH  25  27
ENDBRANCH   1  25
TORSDOF 4
ENDMDL
MODEL 3
REMARK VINA RESULT: -7.742111062      0.945      1.430
REMARK  4 active torsions:
REMARK  status: ('A' for Active; 'I' for Inactive)
REMARK    1  A    between atoms: O1_2  and  C2_3 
REMARK    2  A    between atoms: C2_3  and  C3_5 
REMARK    3  A    between atoms: C11_13  and  C12_14 
REMARK       I    between atoms: C12_14  and  N1_16 
REMARK       I    between atoms: N1_16  and  C13_18 
REMARK       I    between atoms: C13_18  and  N2_20 
REMARK    4  A    between atoms: N2_20  and  C14_22 
ROOT
HETATM    1  C3  UNL     1      19.166   5.480  11.274  1.00  0.00     0.178 C 
HETATM    2  C4  UNL     1      20.337   6.437  11.286  1.00  0.00     0.040 C 
HETATM    3  C5  UNL     1      19.854   7.734  11.963  1.00  0.00    -0.011 C 
HETATM    4  C6  UNL     1      18.631   8.268  11.319  1.00  0.00     0.009 C 
HETATM    5  C7  UNL     1      17.366   8.166  12.116  1.00  0.00    -0.011 C 
HETATM    6  C8  UNL     1      17.677   8.510  13.584  1.00  0.00     0.012 C 
HETATM    7  C9  UNL     1      18.414   7.242  13.956  1.00  0.00     0.024 C 
HETATM    8  C10 UNL     1      19.820   7.485  13.424  1.00  0.00     0.012 C 
HETATM    9  C11 UNL     1      17.749   6.114  13.172  1.00  0.00     0.112 C 
HETATM   10  C18 UNL     1      16.803   6.795  12.281  1.00  0.00     0.045 C 
HETATM   11  N3  UNL     1      18.689   5.252  12.556  1.00  0.00    -0.392 N 
ATOM     12  H3  UNL     1      19.026   4.440  13.072  1.00  0.00     0.155 HD
ENDROOT
BRANCH   9  13
HETATM   13  C12 UNL     1      17.021   5.288  14.206  1.00  0.00     0.254 C 
HETATM   14  O3  UNL     1      17.549   4.144  14.409  1.00  0.00    -0.270 OA
HETATM   15  N1  UNL     1      15.887   5.710  14.880  1.00  0.00    -0.277 N 
HETATM   16  C13 UNL     1      15.183   5.011  15.837  1.00  0.00     0.323 C 
ATOM     17  H1  UNL     1      15.536   6.638  14.644  1.00  0.00     0.173 HD
HETATM   18  O4  UNL     1      14.147   5.585  16.349  1.00  0.00    -0.247 OA
HETATM   19  N2  UNL     1      15.475   3.735  16.316  1.00  0.00    -0.335 N 
ATOM     20  H2  UNL     1      16.280   3.226  15.952  1.00  0.00     0.165 HD
BRANCH  19  21
HETATM   21  C14 UNL     1      14.625   3.122  17.343  1.00  0.00     0.023 C 
HETATM   22  C15 UNL     1      14.661   3.870  18.643  1.00  0.00     0.037 C 
HETATM   23  C16 UNL     1      15.192   1.721  17.573  1.00  0.00     0.037 C 
HETATM   24  C17 UNL     1      13.191   3.014  16.884  1.00  0.00     0.037 C 
ENDBRANCH  19  21
ENDBRANCH   9  13
BRANCH   1  25
HETATM   25  C2  UNL     1      19.607   4.208  10.645  1.00  0.00     0.281 C 
HETATM   26  O2  UNL     1      19.937   4.216   9.433  1.00  0.00    -0.263 OA
BRANCH  25  27
HETATM   27  O1  UNL     1      19.676   3.007  11.326  1.00  0.00    -0.325 OA
HETATM   28  C1  UNL     1      18.726   1.995  11.045  1.00  0.00     0.213 C 
ENDBRANCH  25  27
ENDBRANCH   1  25
TORSDOF 4
ENDMDL
MODEL 4
REMARK VINA RESULT: -7.639113349      3.440      6.448
REMARK  4 active torsions:
REMARK  status: ('A' for Active; 'I' for Inactive)
REMARK    1  A    between atoms: O1_2  and  C2_3 
REMARK    2  A    between atoms: C2_3  and  C3_5 
REMARK    3  A    between atoms: C11_13  and  C12_14 
REMARK       I    between atoms: C12_14  and  N1_16 
REMARK       I    between atoms: N1_16  and  C13_18 
REMARK       I    between atoms: C13_18  and  N2_20 
REMARK    4  A    between atoms: N2_20  and  C14_22 
ROOT
HETATM    1  C3  UNL     1      16.991   3.912  12.909  1.00  0.00     0.178 C 
HETATM    2  C4  UNL     1      16.532   3.542  14.302  1.00  0.00     0.040 C 
HETATM    3  C5  UNL     1      16.655   4.809  15.169  1.00  0.00    -0.011 C 
HETATM    4  C6  UNL     1      18.017   5.390  15.105  1.00  0.00     0.009 C 
HETATM    5  C7  UNL     1      18.149   6.686  14.365  1.00  0.00    -0.011 C 
HETATM    6  C8  UNL     1      16.946   7.580  14.717  1.00  0.00     0.012 C 
HETATM    7  C9  UNL     1      15.887   6.846  13.924  1.00  0.00     0.024 C 
HETATM    8  C10 UNL     1      15.508   5.688  14.837  1.00  0.00     0.012 C 
HETATM    9  C11 UNL     1      16.579   6.316  12.671  1.00  0.00     0.112 C 
HETATM   10  C18 UNL     1      17.999   6.615  12.883  1.00  0.00     0.045 C 
HETATM   11  N3  UNL     1      16.250   4.967  12.398  1.00  0.00    -0.392 N 
ATOM     12  H3  UNL     1      15.443   4.765  11.808  1.00  0.00     0.155 HD
ENDROOT
BRANCH   9  13
HETATM   13  C12 UNL     1      16.017   7.135  11.533  1.00  0.00     0.254 C 
HETATM   14  O3  UNL     1      16.187   6.599  10.386  1.00  0.00    -0.270 OA
HETATM   15  N1  UNL     1      15.378   8.353  11.693  1.00  0.00    -0.277 N 
HETATM   16  C13 UNL     1      14.839   9.143  10.700  1.00  0.00     0.323 C 
ATOM     17  H1  UNL     1      15.297   8.702  12.647  1.00  0.00     0.173 HD
HETATM   18  O4  UNL     1      14.281  10.250  11.060  1.00  0.00    -0.247 OA
HETATM   19  N2  UNL     1      14.831   8.871   9.333  1.00  0.00    -0.335 N 
ATOM     20  H2  UNL     1      15.256   8.013   8.983  1.00  0.00     0.165 HD
BRANCH  19  21
HETATM   21  C14 UNL     1      14.214   9.816   8.397  1.00  0.00     0.023 C 
HETATM   22  C15 UNL     1      12.719   9.856   8.521  1.00  0.00     0.037 C 
HETATM   23  C16 UNL     1      14.571   9.314   6.999  1.00  0.00     0.037 C 
HETATM   24  C17 UNL     1      14.754  11.213   8.582  1.00  0.00     0.037 C 
ENDBRANCH  19  21
ENDBRANCH   9  13
BRANCH   1  25
HETATM   25  C2  UNL     1      16.863   2.711  12.040  1.00  0.00     0.281 C 
HETATM   26  O2  UNL     1      16.964   2.853  10.797  1.00  0.00    -0.263 OA
BRANCH  25  27
HETATM   27  O1  UNL     1      16.638   1.439  12.531  1.00  0.00    -0.325 OA
HETATM   28  C1  UNL     1      17.095   0.320  11.792  1.00  0.00     0.213 C 
ENDBRANCH  25  27
ENDBRANCH   1  25
TORSDOF 4
ENDMDL
MODEL 5
REMARK VINA RESULT: -7.626720222      2.023      3.474
REMARK  4 active torsions:
REMARK  status: ('A' for Active; 'I' for Inactive)
REMARK    1  A    between atoms: O1_2  and  C2_3 
REMARK    2  A    between atoms: C2_3  and  C3_5 
REMARK    3  A    between atoms: C11_13  and  C12_14 
REMARK       I    between atoms: C12_14  and  N1_16 
REMARK       I    between atoms: N1_16  and  C13_18 
REMARK       I    between atoms: C13_18  and  N2_20 
REMARK    4  A    between atoms: N2_20  and  C14_22 
ROOT
HETATM    1  C3  UNL     1      16.703   7.620  10.836  1.00  0.00     0.178 C 
HETATM    2  C4  UNL     1      17.486   7.191   9.615  1.00  0.00     0.040 C 
HETATM    3  C5  UNL     1      18.817   6.600  10.116  1.00  0.00    -0.011 C 
HETATM    4  C6  UNL     1      19.536   7.540  11.008  1.00  0.00     0.009 C 
HETATM    5  C7  UNL     1      19.589   7.166  12.458  1.00  0.00    -0.011 C 
HETATM    6  C8  UNL     1      19.843   5.652  12.569  1.00  0.00     0.012 C 
HETATM    7  C9  UNL     1      18.473   5.168  12.146  1.00  0.00     0.024 C 
HETATM    8  C10 UNL     1      18.533   5.237  10.626  1.00  0.00     0.012 C 
HETATM    9  C11 UNL     1      17.473   6.192  12.674  1.00  0.00     0.112 C 
HETATM   10  C18 UNL     1      18.306   7.274  13.211  1.00  0.00     0.045 C 
HETATM   11  N3  UNL     1      16.507   6.558  11.706  1.00  0.00    -0.392 N 
ATOM     12  H3  UNL     1      15.640   6.024  11.647  1.00  0.00     0.155 HD
ENDROOT
BRANCH   9  13
HETATM   13  C12 UNL     1      16.728   5.483  13.780  1.00  0.00     0.254 C 
HETATM   14  O3  UNL     1      15.483   5.765  13.819  1.00  0.00    -0.270 OA
HETATM   15  N1  UNL     1      17.317   4.608  14.678  1.00  0.00    -0.277 N 
HETATM   16  C13 UNL     1      16.693   3.927  15.701  1.00  0.00     0.323 C 
ATOM     17  H1  UNL     1      18.318   4.452  14.571  1.00  0.00     0.173 HD
HETATM   18  O4  UNL     1      17.425   3.153  16.431  1.00  0.00    -0.247 OA
HETATM   19  N2  UNL     1      15.341   3.983  16.035  1.00  0.00    -0.335 N 
ATOM     20  H2  UNL     1      14.709   4.576  15.498  1.00  0.00     0.165 HD
BRANCH  19  21
HETATM   21  C14 UNL     1      14.827   3.192  17.158  1.00  0.00     0.023 C 
HETATM   22  C15 UNL     1      15.528   1.873  17.303  1.00  0.00     0.037 C 
HETATM   23  C16 UNL     1      13.355   2.926  16.842  1.00  0.00     0.037 C 
HETATM   24  C17 UNL     1      14.931   3.945  18.462  1.00  0.00     0.037 C 
ENDBRANCH  19  21
ENDBRANCH   9  13
BRANCH   1  25
HETATM   25  C2  UNL     1      15.401   8.177  10.386  1.00  0.00     0.281 C 
HETATM   26  O2  UNL     1      14.689   7.495   9.608  1.00  0.00    -0.263 OA
BRANCH  25  27
HETATM   27  O1  UNL     1      14.926   9.414  10.780  1.00  0.00    -0.325 OA
HETATM   28  C1  UNL     1      13.641   9.508  11.370  1.00  0.00     0.213 C 
ENDBRANCH  25  27
ENDBRANCH   1  25
TORSDOF 4
ENDMDL
