MODEL 1
REMARK VINA RESULT: -10.113950351      0.000      0.000
REMARK  7 active torsions:
REMARK  status: ('A' for Active; 'I' for Inactive)
REMARK    1  A    between atoms: C2_2  and  O2_4 
REMARK    2  A    between atoms: O2_4  and  C3_5 
REMARK    3  A    between atoms: C3_5  and  C5_7 
REMARK    4  A    between atoms: C6_8  and  C7_9 
REMARK    5  A    between atoms: C15_17  and  C16_18 
REMARK    6  A    between atoms: C21_24  and  O4_25 
REMARK    7  A    between atoms: C29_35  and  O6_36 
ROOT
HETATM    1  C5  UNL     1     -10.631  -7.496  32.353  1.00  0.00     0.028 C 
HETATM    2  C6  UNL     1     -11.941  -8.079  32.720  1.00  0.00    -0.004 C 
HETATM    3  C10 UNL     1     -11.675  -9.562  32.857  1.00  0.00     0.006 C 
HETATM    4  C11 UNL     1     -11.514 -10.038  31.434  1.00  0.00     0.011 C 
HETATM    5  C12 UNL     1     -10.604  -9.259  30.560  1.00  0.00    -0.025 C 
HETATM    6  C13 UNL     1      -9.342 -10.105  30.402  1.00  0.00     0.017 C 
HETATM    7  C14 UNL     1      -9.261 -10.536  28.973  1.00  0.00     0.016 C 
HETATM    8  C15 UNL     1      -8.974 -12.022  28.833  1.00  0.00     0.043 C 
HETATM    9  C17 UNL     1     -10.284 -12.711  29.000  1.00  0.00     0.020 C 
HETATM   10  C18 UNL     1     -11.347 -11.713  28.628  1.00  0.00     0.015 C 
HETATM   11  C19 UNL     1     -10.629 -10.383  28.377  1.00  0.00     0.005 C 
HETATM   12  C20 UNL     1     -11.248  -9.280  29.163  1.00  0.00     0.036 C 
HETATM   13  C21 UNL     1     -11.203  -7.908  28.655  1.00  0.00     0.124 C 
HETATM   14  C22 UNL     1     -11.244  -7.069  29.941  1.00  0.00     0.042 C 
HETATM   15  C23 UNL     1     -10.353  -7.820  30.899  1.00  0.00    -0.027 C 
HETATM   16  C24 UNL     1      -8.934  -7.409  30.492  1.00  0.00     0.016 C 
HETATM   17  C25 UNL     1     -10.649 -10.181  26.901  1.00  0.00     0.092 A 
HETATM   18  C26 UNL     1     -12.002  -9.625  26.411  1.00  0.00     0.049 C 
HETATM   19  O5  UNL     1      -9.484  -9.786  26.314  1.00  0.00    -0.369 OA
HETATM   20  C27 UNL     1      -9.989 -11.042  26.020  1.00  0.00     0.160 A 
HETATM   21  C28 UNL     1      -9.307 -12.287  26.394  1.00  0.00     0.068 C 
HETATM   22  C29 UNL     1      -8.328 -12.252  27.503  1.00  0.00     0.136 C 
ENDROOT
BRANCH   1  23
HETATM   23  C3  UNL     1     -10.314  -6.153  32.851  1.00  0.00     0.133 C 
HETATM   24  C4  UNL     1     -11.560  -5.275  32.496  1.00  0.00     0.040 C 
BRANCH  23  25
HETATM   25  O2  UNL     1     -10.219  -5.965  34.236  1.00  0.00    -0.316 OA
BRANCH  25  26
HETATM   26  C2  UNL     1     -10.017  -4.723  34.826  1.00  0.00     0.255 C 
HETATM   27  C1  UNL     1     -10.649  -4.361  36.132  1.00  0.00     0.126 C 
HETATM   28  O1  UNL     1      -9.274  -3.924  34.197  1.00  0.00    -0.266 OA
ENDBRANCH  25  26
ENDBRANCH  23  25
ENDBRANCH   1  23
BRANCH   2  29
HETATM   29  C7  UNL     1     -12.794  -7.522  33.777  1.00  0.00    -0.018 C 
HETATM   30  C8  UNL     1     -12.658  -8.529  34.964  1.00  0.00     0.010 C 
HETATM   31  C9  UNL     1     -14.296  -7.674  33.462  1.00  0.00     0.010 C 
ENDBRANCH   2  29
BRANCH  13  32
HETATM   32  O4  UNL     1     -10.135  -7.497  27.924  1.00  0.00    -0.395 OA
ATOM     33  H4  UNL     1     -10.069  -7.745  27.009  1.00  0.00     0.210 HD
ENDBRANCH  13  32
BRANCH   8  34
HETATM   34  C16 UNL     1      -7.996 -12.364  29.930  1.00  0.00     0.243 C 
HETATM   35  O3  UNL     1      -7.015 -13.005  29.607  1.00  0.00    -0.306 OA
ENDBRANCH   8  34
BRANCH  22  36
HETATM   36  O6  UNL     1      -7.350 -11.293  27.257  1.00  0.00    -0.394 OA
ATOM     37  H6  UNL     1      -7.251 -11.145  26.324  1.00  0.00     0.210 HD
ENDBRANCH  22  36
TORSDOF 7
ENDMDL
MODEL 2
REMARK VINA RESULT: -9.721327155      0.971      1.216
REMARK  7 active torsions:
REMARK  status: ('A' for Active; 'I' for Inactive)
REMARK    1  A    between atoms: C2_2  and  O2_4 
REMARK    2  A    between atoms: O2_4  and  C3_5 
REMARK    3  A    between atoms: C3_5  and  C5_7 
REMARK    4  A    between atoms: C6_8  and  C7_9 
REMARK    5  A    between atoms: C15_17  and  C16_18 
REMARK    6  A    between atoms: C21_24  and  O4_25 
REMARK    7  A    between atoms: C29_35  and  O6_36 
ROOT
HETATM    1  C5  UNL     1     -10.567  -7.740  32.694  1.00  0.00     0.028 C 
HETATM    2  C6  UNL     1     -11.765  -8.493  33.127  1.00  0.00    -0.004 C 
HETATM    3  C10 UNL     1     -11.341  -9.945  33.080  1.00  0.00     0.006 C 
HETATM    4  C11 UNL     1     -11.293 -10.265  31.605  1.00  0.00     0.011 C 
HETATM    5  C12 UNL     1     -10.566  -9.313  30.732  1.00  0.00    -0.025 C 
HETATM    6  C13 UNL     1      -9.253  -9.998  30.359  1.00  0.00     0.017 C 
HETATM    7  C14 UNL     1      -9.288 -10.282  28.893  1.00  0.00     0.016 C 
HETATM    8  C15 UNL     1      -8.875 -11.707  28.569  1.00  0.00     0.043 C 
HETATM    9  C17 UNL     1     -10.085 -12.548  28.793  1.00  0.00     0.020 C 
HETATM   10  C18 UNL     1     -11.274 -11.639  28.637  1.00  0.00     0.015 C 
HETATM   11  C19 UNL     1     -10.723 -10.222  28.456  1.00  0.00     0.005 C 
HETATM   12  C20 UNL     1     -11.356  -9.271  29.411  1.00  0.00     0.036 C 
HETATM   13  C21 UNL     1     -11.502  -7.861  29.049  1.00  0.00     0.124 C 
HETATM   14  C22 UNL     1     -11.482  -7.156  30.414  1.00  0.00     0.042 C 
HETATM   15  C23 UNL     1     -10.421  -7.894  31.193  1.00  0.00    -0.027 C 
HETATM   16  C24 UNL     1      -9.103  -7.294  30.692  1.00  0.00     0.016 C 
HETATM   17  C25 UNL     1     -10.925  -9.885  27.019  1.00  0.00     0.092 A 
HETATM   18  C26 UNL     1     -12.372  -9.436  26.728  1.00  0.00     0.049 C 
HETATM   19  O5  UNL     1      -9.877  -9.313  26.363  1.00  0.00    -0.369 OA
HETATM   20  C27 UNL     1     -10.286 -10.582  25.991  1.00  0.00     0.160 A 
HETATM   21  C28 UNL     1      -9.448 -11.776  26.161  1.00  0.00     0.068 C 
HETATM   22  C29 UNL     1      -8.360 -11.739  27.163  1.00  0.00     0.136 C 
ENDROOT
BRANCH   1  23
HETATM   23  C3  UNL     1     -10.329  -6.423  33.296  1.00  0.00     0.133 C 
HETATM   24  C4  UNL     1      -8.798  -6.156  33.117  1.00  0.00     0.040 C 
BRANCH  23  25
HETATM   25  O2  UNL     1     -10.888  -5.299  32.672  1.00  0.00    -0.316 OA
BRANCH  25  26
HETATM   26  C2  UNL     1     -12.036  -4.665  33.129  1.00  0.00     0.255 C 
HETATM   27  C1  UNL     1     -12.018  -3.775  34.330  1.00  0.00     0.126 C 
HETATM   28  O1  UNL     1     -13.089  -4.884  32.473  1.00  0.00    -0.266 OA
ENDBRANCH  25  26
ENDBRANCH  23  25
ENDBRANCH   1  23
BRANCH   2  29
HETATM   29  C7  UNL     1     -12.545  -8.135  34.317  1.00  0.00    -0.018 C 
HETATM   30  C8  UNL     1     -12.626  -9.455  35.149  1.00  0.00     0.010 C 
HETATM   31  C9  UNL     1     -14.039  -7.923  33.998  1.00  0.00     0.010 C 
ENDBRANCH   2  29
BRANCH  13  32
HETATM   32  O4  UNL     1     -10.567  -7.270  28.262  1.00  0.00    -0.395 OA
ATOM     33  H4  UNL     1      -9.989  -7.809  27.733  1.00  0.00     0.210 HD
ENDBRANCH  13  32
BRANCH   8  34
HETATM   34  C16 UNL     1      -7.752 -12.043  29.520  1.00  0.00     0.243 C 
HETATM   35  O3  UNL     1      -6.648 -12.189  29.033  1.00  0.00    -0.306 OA
ENDBRANCH   8  34
BRANCH  22  36
HETATM   36  O6  UNL     1      -7.514 -10.662  26.923  1.00  0.00    -0.394 OA
ATOM     37  H6  UNL     1      -6.751 -10.700  27.488  1.00  0.00     0.210 HD
ENDBRANCH  22  36
TORSDOF 7
ENDMDL
MODEL 3
REMARK VINA RESULT: -9.188478572      2.133      7.095
REMARK  7 active torsions:
REMARK  status: ('A' for Active; 'I' for Inactive)
REMARK    1  A    between atoms: C2_2  and  O2_4 
REMARK    2  A    between atoms: O2_4  and  C3_5 
REMARK    3  A    between atoms: C3_5  and  C5_7 
REMARK    4  A    between atoms: C6_8  and  C7_9 
REMARK    5  A    between atoms: C15_17  and  C16_18 
REMARK    6  A    between atoms: C21_24  and  O4_25 
REMARK    7  A    between atoms: C29_35  and  O6_36 
ROOT
HETATM    1  C5  UNL     1      -9.043 -12.912  29.494  1.00  0.00     0.028 C 
HETATM    2  C6  UNL     1     -10.364 -13.396  29.032  1.00  0.00    -0.004 C 
HETATM    3  C10 UNL     1     -10.870 -12.305  28.113  1.00  0.00     0.006 C 
HETATM    4  C11 UNL     1     -11.262 -11.189  29.052  1.00  0.00     0.011 C 
HETATM    5  C12 UNL     1     -10.278 -10.804  30.090  1.00  0.00    -0.025 C 
HETATM    6  C13 UNL     1      -9.686  -9.470  29.638  1.00  0.00     0.017 C 
HETATM    7  C14 UNL     1     -10.122  -8.425  30.613  1.00  0.00     0.016 C 
HETATM    8  C15 UNL     1     -10.668  -7.185  29.925  1.00  0.00     0.043 C 
HETATM    9  C17 UNL     1     -12.083  -7.497  29.577  1.00  0.00     0.020 C 
HETATM   10  C18 UNL     1     -12.536  -8.566  30.534  1.00  0.00     0.015 C 
HETATM   11  C19 UNL     1     -11.308  -8.968  31.356  1.00  0.00     0.005 C 
HETATM   12  C20 UNL     1     -11.106 -10.443  31.337  1.00  0.00     0.036 C 
HETATM   13  C21 UNL     1     -10.469 -11.107  32.475  1.00  0.00     0.124 C 
HETATM   14  C22 UNL     1      -9.819 -12.340  31.828  1.00  0.00     0.042 C 
HETATM   15  C23 UNL     1      -9.266 -11.822  30.524  1.00  0.00    -0.027 C 
HETATM   16  C24 UNL     1      -7.950 -11.143  30.917  1.00  0.00     0.016 C 
HETATM   17  C25 UNL     1     -11.515  -8.387  32.712  1.00  0.00     0.092 A 
HETATM   18  C26 UNL     1     -12.461  -9.250  33.573  1.00  0.00     0.049 C 
HETATM   19  O5  UNL     1     -10.456  -7.744  33.279  1.00  0.00    -0.369 OA
HETATM   20  C27 UNL     1     -11.578  -7.009  32.933  1.00  0.00     0.160 A 
HETATM   21  C28 UNL     1     -11.568  -5.976  31.890  1.00  0.00     0.068 C 
HETATM   22  C29 UNL     1     -10.510  -6.024  30.856  1.00  0.00     0.136 C 
ENDROOT
BRANCH   1  23
HETATM   23  C3  UNL     1      -7.993 -13.908  29.736  1.00  0.00     0.133 C 
HETATM   24  C4  UNL     1      -6.890 -13.615  28.664  1.00  0.00     0.040 C 
BRANCH  23  25
HETATM   25  O2  UNL     1      -7.261 -13.822  30.927  1.00  0.00    -0.316 OA
BRANCH  25  26
HETATM   26  C2  UNL     1      -7.245 -14.827  31.887  1.00  0.00     0.255 C 
HETATM   27  C1  UNL     1      -8.375 -15.795  32.030  1.00  0.00     0.126 C 
HETATM   28  O1  UNL     1      -6.227 -14.871  32.627  1.00  0.00    -0.266 OA
ENDBRANCH  25  26
ENDBRANCH  23  25
ENDBRANCH   1  23
BRANCH   2  29
HETATM   29  C7  UNL     1     -10.582 -14.756  28.527  1.00  0.00    -0.018 C 
HETATM   30  C8  UNL     1     -11.338 -14.557  27.174  1.00  0.00     0.010 C 
HETATM   31  C9  UNL     1     -11.657 -15.516  29.330  1.00  0.00     0.010 C 
ENDBRANCH   2  29
BRANCH  13  32
HETATM   32  O4  UNL     1      -9.512 -10.455  33.183  1.00  0.00    -0.395 OA
ATOM     33  H4  UNL     1      -9.754  -9.966  33.961  1.00  0.00     0.210 HD
ENDBRANCH  13  32
BRANCH   8  34
HETATM   34  C16 UNL     1      -9.806  -6.970  28.706  1.00  0.00     0.243 C 
HETATM   35  O3  UNL     1      -8.984  -6.077  28.768  1.00  0.00    -0.306 OA
ENDBRANCH   8  34
BRANCH  22  36
HETATM   36  O6  UNL     1      -9.252  -6.035  31.449  1.00  0.00    -0.394 OA
ATOM     37  H6  UNL     1      -8.699  -5.357  31.079  1.00  0.00     0.210 HD
ENDBRANCH  22  36
TORSDOF 7
ENDMDL
MODEL 4
REMARK VINA RESULT: -9.039365721      1.260      1.588
REMARK  7 active torsions:
REMARK  status: ('A' for Active; 'I' for Inactive)
REMARK    1  A    between atoms: C2_2  and  O2_4 
REMARK    2  A    between atoms: O2_4  and  C3_5 
REMARK    3  A    between atoms: C3_5  and  C5_7 
REMARK    4  A    between atoms: C6_8  and  C7_9 
REMARK    5  A    between atoms: C15_17  and  C16_18 
REMARK    6  A    between atoms: C21_24  and  O4_25 
REMARK    7  A    between atoms: C29_35  and  O6_36 
ROOT
HETATM    1  C5  UNL     1     -10.730  -7.831  32.878  1.00  0.00     0.028 C 
HETATM    2  C6  UNL     1     -11.923  -8.587  33.320  1.00  0.00    -0.004 C 
HETATM    3  C10 UNL     1     -11.420  -9.995  33.550  1.00  0.00     0.006 C 
HETATM    4  C11 UNL     1     -11.209 -10.540  32.158  1.00  0.00     0.011 C 
HETATM    5  C12 UNL     1     -10.452  -9.691  31.208  1.00  0.00    -0.025 C 
HETATM    6  C13 UNL     1      -9.073 -10.335  31.072  1.00  0.00     0.017 C 
HETATM    7  C14 UNL     1      -8.947 -10.849  29.674  1.00  0.00     0.016 C 
HETATM    8  C15 UNL     1      -8.429 -12.276  29.627  1.00  0.00     0.043 C 
HETATM    9  C17 UNL     1      -9.608 -13.151  29.877  1.00  0.00     0.020 C 
HETATM   10  C18 UNL     1     -10.823 -12.363  29.469  1.00  0.00     0.015 C 
HETATM   11  C19 UNL     1     -10.333 -10.958  29.108  1.00  0.00     0.005 C 
HETATM   12  C20 UNL     1     -11.107  -9.914  29.834  1.00  0.00     0.036 C 
HETATM   13  C21 UNL     1     -11.292  -8.592  29.233  1.00  0.00     0.124 C 
HETATM   14  C22 UNL     1     -11.445  -7.680  30.460  1.00  0.00     0.042 C 
HETATM   15  C23 UNL     1     -10.429  -8.210  31.441  1.00  0.00    -0.027 C 
HETATM   16  C24 UNL     1      -9.102  -7.609  30.967  1.00  0.00     0.016 C 
HETATM   17  C25 UNL     1     -10.410 -10.867  27.622  1.00  0.00     0.092 A 
HETATM   18  C26 UNL     1     -11.843 -10.571  27.134  1.00  0.00     0.049 C 
HETATM   19  O5  UNL     1      -9.334 -10.336  26.978  1.00  0.00    -0.369 OA
HETATM   20  C27 UNL     1      -9.636 -11.673  26.784  1.00  0.00     0.160 A 
HETATM   21  C28 UNL     1      -8.756 -12.764  27.222  1.00  0.00     0.068 C 
HETATM   22  C29 UNL     1      -7.776 -12.495  28.298  1.00  0.00     0.136 C 
ENDROOT
BRANCH   1  23
HETATM   23  C3  UNL     1     -10.624  -6.422  33.273  1.00  0.00     0.133 C 
HETATM   24  C4  UNL     1      -9.107  -6.064  33.128  1.00  0.00     0.040 C 
BRANCH  23  25
HETATM   25  O2  UNL     1     -11.223  -5.457  32.453  1.00  0.00    -0.316 OA
BRANCH  25  26
HETATM   26  C2  UNL     1     -12.476  -4.911  32.705  1.00  0.00     0.255 C 
HETATM   27  C1  UNL     1     -13.606  -5.057  31.737  1.00  0.00     0.126 C 
HETATM   28  O1  UNL     1     -12.601  -4.289  33.792  1.00  0.00    -0.266 OA
ENDBRANCH  25  26
ENDBRANCH  23  25
ENDBRANCH   1  23
BRANCH   2  29
HETATM   29  C7  UNL     1     -12.836  -8.099  34.360  1.00  0.00    -0.018 C 
HETATM   30  C8  UNL     1     -12.992  -9.302  35.344  1.00  0.00     0.010 C 
HETATM   31  C9  UNL     1     -14.288  -7.970  33.856  1.00  0.00     0.010 C 
ENDBRANCH   2  29
BRANCH  13  32
HETATM   32  O4  UNL     1     -10.316  -8.071  28.446  1.00  0.00    -0.395 OA
ATOM     33  H4  UNL     1      -9.987  -8.574  27.711  1.00  0.00     0.210 HD
ENDBRANCH  13  32
BRANCH   8  34
HETATM   34  C16 UNL     1      -7.390 -12.378  30.717  1.00  0.00     0.243 C 
HETATM   35  O3  UNL     1      -7.245 -13.470  31.233  1.00  0.00    -0.306 OA
ENDBRANCH   8  34
BRANCH  22  36
HETATM   36  O6  UNL     1      -6.969 -11.413  27.960  1.00  0.00    -0.394 OA
ATOM     37  H6  UNL     1      -6.193 -11.388  28.507  1.00  0.00     0.210 HD
ENDBRANCH  22  36
TORSDOF 7
ENDMDL
MODEL 5
REMARK VINA RESULT: -8.949437162      2.465      7.231
REMARK  7 active torsions:
REMARK  status: ('A' for Active; 'I' for Inactive)
REMARK    1  A    between atoms: C2_2  and  O2_4 
REMARK    2  A    between atoms: O2_4  and  C3_5 
REMARK    3  A    between atoms: C3_5  and  C5_7 
REMARK    4  A    between atoms: C6_8  and  C7_9 
REMARK    5  A    between atoms: C15_17  and  C16_18 
REMARK    6  A    between atoms: C21_24  and  O4_25 
REMARK    7  A    between atoms: C29_35  and  O6_36 
ROOT
HETATM    1  C5  UNL     1     -10.124 -13.213  30.974  1.00  0.00     0.028 C 
HETATM    2  C6  UNL     1      -9.100 -13.236  32.043  1.00  0.00    -0.004 C 
HETATM    3  C10 UNL     1      -9.758 -12.546  33.218  1.00  0.00     0.006 C 
HETATM    4  C11 UNL     1      -9.764 -11.088  32.829  1.00  0.00     0.011 C 
HETATM    5  C12 UNL     1     -10.263 -10.753  31.474  1.00  0.00    -0.025 C 
HETATM    6  C13 UNL     1     -11.646 -10.136  31.672  1.00  0.00     0.017 C 
HETATM    7  C14 UNL     1     -11.565  -8.699  31.270  1.00  0.00     0.016 C 
HETATM    8  C15 UNL     1     -12.191  -7.774  32.300  1.00  0.00     0.043 C 
HETATM    9  C17 UNL     1     -11.156  -7.571  33.353  1.00  0.00     0.020 C 
HETATM   10  C18 UNL     1      -9.823  -7.819  32.701  1.00  0.00     0.015 C 
HETATM   11  C19 UNL     1     -10.116  -8.309  31.279  1.00  0.00     0.005 C 
HETATM   12  C20 UNL     1      -9.394  -9.579  30.988  1.00  0.00     0.036 C 
HETATM   13  C21 UNL     1      -8.990  -9.890  29.616  1.00  0.00     0.124 C 
HETATM   14  C22 UNL     1      -8.979 -11.426  29.606  1.00  0.00     0.042 C 
HETATM   15  C23 UNL     1     -10.196 -11.808  30.411  1.00  0.00    -0.027 C 
HETATM   16  C24 UNL     1     -11.360 -11.657  29.426  1.00  0.00     0.016 C 
HETATM   17  C25 UNL     1      -9.768  -7.176  30.377  1.00  0.00     0.092 A 
HETATM   18  C26 UNL     1      -8.250  -7.092  30.112  1.00  0.00     0.049 C 
HETATM   19  O5  UNL     1     -10.660  -6.869  29.394  1.00  0.00    -0.369 OA
HETATM   20  C27 UNL     1     -10.447  -5.956  30.413  1.00  0.00     0.160 A 
HETATM   21  C28 UNL     1     -11.484  -5.585  31.385  1.00  0.00     0.068 C 
HETATM   22  C29 UNL     1     -12.612  -6.516  31.607  1.00  0.00     0.136 C 
ENDROOT
BRANCH   1  23
HETATM   23  C3  UNL     1     -10.174 -14.350  30.047  1.00  0.00     0.133 C 
HETATM   24  C4  UNL     1     -10.870 -15.503  30.844  1.00  0.00     0.040 C 
BRANCH  23  25
HETATM   25  O2  UNL     1     -10.998 -14.247  28.918  1.00  0.00    -0.316 OA
BRANCH  25  26
HETATM   26  C2  UNL     1     -10.601 -14.635  27.645  1.00  0.00     0.255 C 
HETATM   27  C1  UNL     1     -11.389 -15.620  26.841  1.00  0.00     0.126 C 
HETATM   28  O1  UNL     1      -9.541 -14.112  27.211  1.00  0.00    -0.266 OA
ENDBRANCH  25  26
ENDBRANCH  23  25
ENDBRANCH   1  23
BRANCH   2  29
HETATM   29  C7  UNL     1      -8.348 -14.445  32.401  1.00  0.00    -0.018 C 
HETATM   30  C8  UNL     1      -8.217 -14.381  33.957  1.00  0.00     0.010 C 
HETATM   31  C9  UNL     1      -6.862 -14.353  31.999  1.00  0.00     0.010 C 
ENDBRANCH   2  29
BRANCH  13  32
HETATM   32  O4  UNL     1      -9.760  -9.473  28.578  1.00  0.00    -0.395 OA
ATOM     33  H4  UNL     1      -9.367  -9.346  27.723  1.00  0.00     0.210 HD
ENDBRANCH  13  32
BRANCH   8  34
HETATM   34  C16 UNL     1     -13.412  -8.492  32.819  1.00  0.00     0.243 C 
HETATM   35  O3  UNL     1     -14.442  -7.849  32.874  1.00  0.00    -0.306 OA
ENDBRANCH   8  34
BRANCH  22  36
HETATM   36  O6  UNL     1     -13.248  -6.805  30.404  1.00  0.00    -0.394 OA
ATOM     37  H6  UNL     1     -13.530  -6.007  29.972  1.00  0.00     0.210 HD
ENDBRANCH  22  36
TORSDOF 7
ENDMDL
