MODEL 1
REMARK VINA RESULT: -9.367345418      0.000      0.000
REMARK  3 active torsions:
REMARK  status: ('A' for Active; 'I' for Inactive)
REMARK    1  A    between atoms: C7_7  and  C8_8 
REMARK       I    between atoms: C8_8  and  N1_10 
REMARK    2  A    between atoms: C14_18  and  C15_19 
REMARK       I    between atoms: C15_19  and  N3_21 
REMARK    3  A    between atoms: N3_21  and  C16_23 
ROOT
HETATM    1  C8  UNL     1     -15.769  -9.066   7.815  1.00  0.00     0.226 C 
HETATM    2  O1  UNL     1     -15.832  -9.377   9.034  1.00  0.00    -0.273 OA
HETATM    3  N1  UNL     1     -16.665  -8.081   7.337  1.00  0.00    -0.333 N 
HETATM    4  C9  UNL     1     -16.701  -7.622   5.940  1.00  0.00     0.147 C 
HETATM    5  C10 UNL     1     -18.124  -7.119   5.780  1.00  0.00     0.103 C 
HETATM    6 CL1  UNL     1     -19.149  -8.517   5.448  1.00  0.00    -0.123 Cl
HETATM    7  C11 UNL     1     -18.375  -6.516   7.127  1.00  0.00     0.062 C 
HETATM    8  C12 UNL     1     -17.669  -7.382   8.098  1.00  0.00     0.196 C 
HETATM    9  C13 UNL     1     -18.572  -8.388   8.662  1.00  0.00     0.085 C 
HETATM   10  N2  UNL     1     -19.296  -9.176   9.094  1.00  0.00    -0.195 NA
ENDROOT
BRANCH   1  11
HETATM   11  C7  UNL     1     -14.814  -9.688   6.917  1.00  0.00     0.096 C 
HETATM   12  C6  UNL     1     -13.413  -9.196   7.005  1.00  0.00     0.004 C 
HETATM   13  C2  UNL     1     -12.716 -10.308   6.202  1.00  0.00    -0.009 C 
HETATM   14  C5  UNL     1     -12.897  -9.501   8.389  1.00  0.00     0.006 C 
HETATM   15  C1  UNL     1     -11.245 -10.151   6.177  1.00  0.00     0.011 C 
HETATM   16  C3  UNL     1     -13.182 -11.449   7.116  1.00  0.00     0.003 C 
HETATM   17  C4  UNL     1     -12.644 -10.994   8.434  1.00  0.00     0.006 C 
HETATM   18  C14 UNL     1     -14.669 -11.180   7.117  1.00  0.00     0.095 C 
BRANCH  18  19
HETATM   19  C15 UNL     1     -15.388 -11.962   6.106  1.00  0.00     0.223 C 
HETATM   20  O2  UNL     1     -15.350 -13.217   6.193  1.00  0.00    -0.273 OA
HETATM   21  N3  UNL     1     -16.122 -11.399   5.037  1.00  0.00    -0.356 N 
ATOM     22  H3  UNL     1     -16.156 -10.383   4.963  1.00  0.00     0.162 HD
BRANCH  21  23
HETATM   23  C16 UNL     1     -16.827 -12.176   4.046  1.00  0.00     0.088 C 
HETATM   24  C17 UNL     1     -17.951 -11.392   3.405  1.00  0.00     0.058 C 
HETATM   25  C18 UNL     1     -18.387 -12.174   2.179  1.00  0.00     0.190 C 
HETATM   26  C19 UNL     1     -17.307 -12.045   1.145  1.00  0.00     0.066 C 
HETATM   27  N4  UNL     1     -18.048 -13.594   2.327  1.00  0.00    -0.066 N 
HETATM   28  C20 UNL     1     -16.723 -13.256   1.836  1.00  0.00     0.190 C 
HETATM   29  C21 UNL     1     -15.907 -12.792   3.030  1.00  0.00     0.058 C 
ATOM     30  H42 UNL     1     -18.176 -14.079   3.216  1.00  0.00     0.278 HD
ATOM     31  H41 UNL     1     -18.608 -14.321   1.881  1.00  0.00     0.278 HD
ENDBRANCH  21  23
ENDBRANCH  18  19
ENDBRANCH   1  11
TORSDOF 3
ENDMDL
MODEL 2
REMARK VINA RESULT: -8.875227422      2.906      6.550
REMARK  3 active torsions:
REMARK  status: ('A' for Active; 'I' for Inactive)
REMARK    1  A    between atoms: C7_7  and  C8_8 
REMARK       I    between atoms: C8_8  and  N1_10 
REMARK    2  A    between atoms: C14_18  and  C15_19 
REMARK       I    between atoms: C15_19  and  N3_21 
REMARK    3  A    between atoms: N3_21  and  C16_23 
ROOT
HETATM    1  C8  UNL     1     -18.478  -9.127   3.381  1.00  0.00     0.226 C 
HETATM    2  O1  UNL     1     -19.279 -10.084   3.554  1.00  0.00    -0.273 OA
HETATM    3  N1  UNL     1     -18.202  -8.727   2.053  1.00  0.00    -0.333 N 
HETATM    4  C9  UNL     1     -17.289  -7.626   1.707  1.00  0.00     0.147 C 
HETATM    5  C10 UNL     1     -16.836  -7.985   0.303  1.00  0.00     0.103 C 
HETATM    6 CL1  UNL     1     -15.524  -9.155   0.449  1.00  0.00    -0.123 Cl
HETATM    7  C11 UNL     1     -18.088  -8.576  -0.267  1.00  0.00     0.062 C 
HETATM    8  C12 UNL     1     -18.736  -9.305   0.846  1.00  0.00     0.196 C 
HETATM    9  C13 UNL     1     -18.365 -10.722   0.837  1.00  0.00     0.085 C 
HETATM   10  N2  UNL     1     -18.059 -11.835   0.816  1.00  0.00    -0.195 NA
ENDROOT
BRANCH   1  11
HETATM   11  C7  UNL     1     -17.851  -8.447   4.499  1.00  0.00     0.096 C 
HETATM   12  C6  UNL     1     -18.659  -7.386   5.159  1.00  0.00     0.004 C 
HETATM   13  C2  UNL     1     -17.818  -7.200   6.433  1.00  0.00    -0.009 C 
HETATM   14  C5  UNL     1     -19.890  -8.032   5.742  1.00  0.00     0.006 C 
HETATM   15  C1  UNL     1     -18.426  -6.237   7.378  1.00  0.00     0.011 C 
HETATM   16  C3  UNL     1     -17.949  -8.657   6.897  1.00  0.00     0.003 C 
HETATM   17  C4  UNL     1     -19.435  -8.800   6.965  1.00  0.00     0.006 C 
HETATM   18  C14 UNL     1     -17.483  -9.362   5.644  1.00  0.00     0.095 C 
BRANCH  18  19
HETATM   19  C15 UNL     1     -16.053  -9.689   5.675  1.00  0.00     0.223 C 
HETATM   20  O2  UNL     1     -15.533 -10.161   4.631  1.00  0.00    -0.273 OA
HETATM   21  N3  UNL     1     -15.219  -9.510   6.802  1.00  0.00    -0.356 N 
ATOM     22  H3  UNL     1     -15.636  -9.128   7.650  1.00  0.00     0.162 HD
BRANCH  21  23
HETATM   23  C16 UNL     1     -13.813  -9.834   6.824  1.00  0.00     0.088 C 
HETATM   24  C17 UNL     1     -12.968  -8.663   7.273  1.00  0.00     0.058 C 
HETATM   25  C18 UNL     1     -11.584  -9.211   7.574  1.00  0.00     0.190 C 
HETATM   26  C19 UNL     1     -11.674 -10.015   8.837  1.00  0.00     0.066 C 
HETATM   27  N4  UNL     1     -11.348 -10.451   6.825  1.00  0.00    -0.066 N 
HETATM   28  C20 UNL     1     -12.032 -11.148   7.902  1.00  0.00     0.190 C 
HETATM   29  C21 UNL     1     -13.519 -11.085   7.604  1.00  0.00     0.058 C 
ATOM     30  H42 UNL     1     -11.650 -10.549   5.855  1.00  0.00     0.278 HD
ATOM     31  H41 UNL     1     -10.409 -10.722   6.532  1.00  0.00     0.278 HD
ENDBRANCH  21  23
ENDBRANCH  18  19
ENDBRANCH   1  11
TORSDOF 3
ENDMDL
MODEL 3
REMARK VINA RESULT: -8.637654055      2.251      5.791
REMARK  3 active torsions:
REMARK  status: ('A' for Active; 'I' for Inactive)
REMARK    1  A    between atoms: C7_7  and  C8_8 
REMARK       I    between atoms: C8_8  and  N1_10 
REMARK    2  A    between atoms: C14_18  and  C15_19 
REMARK       I    between atoms: C15_19  and  N3_21 
REMARK    3  A    between atoms: N3_21  and  C16_23 
ROOT
HETATM    1  C8  UNL     1     -17.757  -9.518   4.081  1.00  0.00     0.226 C 
HETATM    2  O1  UNL     1     -16.989  -8.662   3.566  1.00  0.00    -0.273 OA
HETATM    3  N1  UNL     1     -18.955  -9.058   4.676  1.00  0.00    -0.333 N 
HETATM    4  C9  UNL     1     -19.942  -9.946   5.311  1.00  0.00     0.147 C 
HETATM    5  C10 UNL     1     -20.640  -9.031   6.300  1.00  0.00     0.103 C 
HETATM    6 CL1  UNL     1     -19.638  -8.949   7.750  1.00  0.00    -0.123 Cl
HETATM    7  C11 UNL     1     -20.672  -7.743   5.536  1.00  0.00     0.062 C 
HETATM    8  C12 UNL     1     -19.406  -7.693   4.771  1.00  0.00     0.196 C 
HETATM    9  C13 UNL     1     -18.379  -6.943   5.498  1.00  0.00     0.085 C 
HETATM   10  N2  UNL     1     -17.581  -6.350   6.086  1.00  0.00    -0.195 NA
ENDROOT
BRANCH   1  11
HETATM   11  C7  UNL     1     -17.438 -10.933   4.070  1.00  0.00     0.096 C 
HETATM   12  C6  UNL     1     -18.283 -11.791   3.196  1.00  0.00     0.004 C 
HETATM   13  C2  UNL     1     -17.420 -13.065   3.202  1.00  0.00    -0.009 C 
HETATM   14  C5  UNL     1     -18.086 -11.341   1.771  1.00  0.00     0.006 C 
HETATM   15  C1  UNL     1     -17.964 -14.121   2.319  1.00  0.00     0.011 C 
HETATM   16  C3  UNL     1     -16.171 -12.386   2.625  1.00  0.00     0.003 C 
HETATM   17  C4  UNL     1     -16.714 -11.827   1.351  1.00  0.00     0.006 C 
HETATM   18  C14 UNL     1     -16.034 -11.241   3.601  1.00  0.00     0.095 C 
BRANCH  18  19
HETATM   19  C15 UNL     1     -15.117 -11.542   4.706  1.00  0.00     0.223 C 
HETATM   20  O2  UNL     1     -15.064 -12.728   5.122  1.00  0.00    -0.273 OA
HETATM   21  N3  UNL     1     -14.289 -10.586   5.337  1.00  0.00    -0.356 N 
ATOM     22  H3  UNL     1     -14.329  -9.623   5.003  1.00  0.00     0.162 HD
BRANCH  21  23
HETATM   23  C16 UNL     1     -13.390 -10.890   6.424  1.00  0.00     0.088 C 
HETATM   24  C17 UNL     1     -11.968 -10.472   6.117  1.00  0.00     0.058 C 
HETATM   25  C18 UNL     1     -11.203 -10.530   7.428  1.00  0.00     0.190 C 
HETATM   26  C19 UNL     1     -11.670  -9.390   8.283  1.00  0.00     0.066 C 
HETATM   27  N4  UNL     1     -11.846 -11.466   8.358  1.00  0.00    -0.066 N 
HETATM   28  C20 UNL     1     -12.726 -10.373   8.737  1.00  0.00     0.190 C 
HETATM   29  C21 UNL     1     -13.872 -10.354   7.742  1.00  0.00     0.058 C 
ATOM     30  H42 UNL     1     -12.220 -12.359   8.036  1.00  0.00     0.278 HD
ATOM     31  H41 UNL     1     -11.303 -11.975   9.056  1.00  0.00     0.278 HD
ENDBRANCH  21  23
ENDBRANCH  18  19
ENDBRANCH   1  11
TORSDOF 3
ENDMDL
MODEL 4
REMARK VINA RESULT: -8.636247060      2.514      5.805
REMARK  3 active torsions:
REMARK  status: ('A' for Active; 'I' for Inactive)
REMARK    1  A    between atoms: C7_7  and  C8_8 
REMARK       I    between atoms: C8_8  and  N1_10 
REMARK    2  A    between atoms: C14_18  and  C15_19 
REMARK       I    between atoms: C15_19  and  N3_21 
REMARK    3  A    between atoms: N3_21  and  C16_23 
ROOT
HETATM    1  C8  UNL     1     -18.502 -10.012   3.930  1.00  0.00     0.226 C 
HETATM    2  O1  UNL     1     -18.725  -9.726   2.724  1.00  0.00    -0.273 OA
HETATM    3  N1  UNL     1     -19.257  -9.340   4.919  1.00  0.00    -0.333 N 
HETATM    4  C9  UNL     1     -19.101  -9.577   6.363  1.00  0.00     0.147 C 
HETATM    5  C10 UNL     1     -19.582  -8.276   6.979  1.00  0.00     0.103 C 
HETATM    6 CL1  UNL     1     -18.240  -7.132   6.923  1.00  0.00    -0.123 Cl
HETATM    7  C11 UNL     1     -20.702  -7.911   6.054  1.00  0.00     0.062 C 
HETATM    8  C12 UNL     1     -20.270  -8.339   4.705  1.00  0.00     0.196 C 
HETATM    9  C13 UNL     1     -19.645  -7.233   3.975  1.00  0.00     0.085 C 
HETATM   10  N2  UNL     1     -19.152  -6.351   3.415  1.00  0.00    -0.195 NA
ENDROOT
BRANCH   1  11
HETATM   11  C7  UNL     1     -17.506 -10.997   4.308  1.00  0.00     0.096 C 
HETATM   12  C6  UNL     1     -17.686 -12.362   3.745  1.00  0.00     0.004 C 
HETATM   13  C2  UNL     1     -16.301 -12.944   4.078  1.00  0.00    -0.009 C 
HETATM   14  C5  UNL     1     -17.582 -12.265   2.244  1.00  0.00     0.006 C 
HETATM   15  C1  UNL     1     -16.122 -14.316   3.551  1.00  0.00     0.011 C 
HETATM   16  C3  UNL     1     -15.516 -11.891   3.285  1.00  0.00     0.003 C 
HETATM   17  C4  UNL     1     -16.117 -12.053   1.926  1.00  0.00     0.006 C 
HETATM   18  C14 UNL     1     -16.098 -10.635   3.891  1.00  0.00     0.095 C 
BRANCH  18  19
HETATM   19  C15 UNL     1     -15.293 -10.113   5.000  1.00  0.00     0.223 C 
HETATM   20  O2  UNL     1     -15.706  -9.085   5.597  1.00  0.00    -0.273 OA
HETATM   21  N3  UNL     1     -14.080 -10.688   5.443  1.00  0.00    -0.356 N 
ATOM     22  H3  UNL     1     -13.741 -11.521   4.962  1.00  0.00     0.162 HD
BRANCH  21  23
HETATM   23  C16 UNL     1     -13.293 -10.168   6.535  1.00  0.00     0.088 C 
HETATM   24  C17 UNL     1     -13.690 -10.778   7.862  1.00  0.00     0.058 C 
HETATM   25  C18 UNL     1     -12.598 -10.418   8.853  1.00  0.00     0.190 C 
HETATM   26  C19 UNL     1     -11.381 -11.224   8.509  1.00  0.00     0.066 C 
HETATM   27  N4  UNL     1     -11.893  -9.204   8.425  1.00  0.00    -0.066 N 
HETATM   28  C20 UNL     1     -11.071 -10.064   7.590  1.00  0.00     0.190 C 
HETATM   29  C21 UNL     1     -11.815 -10.264   6.281  1.00  0.00     0.058 C 
ATOM     30  H42 UNL     1     -12.398  -8.410   8.030  1.00  0.00     0.278 HD
ATOM     31  H41 UNL     1     -11.474  -8.568   9.103  1.00  0.00     0.278 HD
ENDBRANCH  21  23
ENDBRANCH  18  19
ENDBRANCH   1  11
TORSDOF 3
ENDMDL
MODEL 5
REMARK VINA RESULT: -8.586328438      2.817      5.333
REMARK  3 active torsions:
REMARK  status: ('A' for Active; 'I' for Inactive)
REMARK    1  A    between atoms: C7_7  and  C8_8 
REMARK       I    between atoms: C8_8  and  N1_10 
REMARK    2  A    between atoms: C14_18  and  C15_19 
REMARK       I    between atoms: C15_19  and  N3_21 
REMARK    3  A    between atoms: N3_21  and  C16_23 
ROOT
HETATM    1  C8  UNL     1     -15.852  -8.741   7.519  1.00  0.00     0.226 C 
HETATM    2  O1  UNL     1     -15.445  -7.673   8.048  1.00  0.00    -0.273 OA
HETATM    3  N1  UNL     1     -14.995  -9.865   7.556  1.00  0.00    -0.333 N 
HETATM    4  C9  UNL     1     -15.342 -11.174   6.979  1.00  0.00     0.147 C 
HETATM    5  C10 UNL     1     -13.987 -11.792   6.689  1.00  0.00     0.103 C 
HETATM    6 CL1  UNL     1     -13.427 -11.150   5.144  1.00  0.00    -0.123 Cl
HETATM    7  C11 UNL     1     -13.185 -11.298   7.853  1.00  0.00     0.062 C 
HETATM    8  C12 UNL     1     -13.678  -9.932   8.136  1.00  0.00     0.196 C 
HETATM    9  C13 UNL     1     -12.853  -8.924   7.465  1.00  0.00     0.085 C 
HETATM   10  N2  UNL     1     -12.194  -8.143   6.927  1.00  0.00    -0.195 NA
ENDROOT
BRANCH   1  11
HETATM   11  C7  UNL     1     -17.155  -8.831   6.888  1.00  0.00     0.096 C 
HETATM   12  C6  UNL     1     -18.331  -8.636   7.778  1.00  0.00     0.004 C 
HETATM   13  C2  UNL     1     -19.418  -8.455   6.705  1.00  0.00    -0.009 C 
HETATM   14  C5  UNL     1     -18.268  -7.236   8.335  1.00  0.00     0.006 C 
HETATM   15  C1  UNL     1     -20.743  -8.143   7.288  1.00  0.00     0.011 C 
HETATM   16  C3  UNL     1     -18.755  -7.240   6.042  1.00  0.00     0.003 C 
HETATM   17  C4  UNL     1     -18.651  -6.305   7.203  1.00  0.00     0.006 C 
HETATM   18  C14 UNL     1     -17.378  -7.810   5.795  1.00  0.00     0.095 C 
BRANCH  18  19
HETATM   19  C15 UNL     1     -17.230  -8.375   4.449  1.00  0.00     0.223 C 
HETATM   20  O2  UNL     1     -16.218  -9.084   4.214  1.00  0.00    -0.273 OA
HETATM   21  N3  UNL     1     -18.150  -8.173   3.396  1.00  0.00    -0.356 N 
ATOM     22  H3  UNL     1     -18.972  -7.599   3.581  1.00  0.00     0.162 HD
BRANCH  21  23
HETATM   23  C16 UNL     1     -17.998  -8.732   2.074  1.00  0.00     0.088 C 
HETATM   24  C17 UNL     1     -18.704 -10.063   1.936  1.00  0.00     0.058 C 
HETATM   25  C18 UNL     1     -18.757 -10.379   0.452  1.00  0.00     0.190 C 
HETATM   26  C19 UNL     1     -19.750  -9.448  -0.180  1.00  0.00     0.066 C 
HETATM   27  N4  UNL     1     -17.680  -9.682  -0.262  1.00  0.00    -0.066 N 
HETATM   28  C20 UNL     1     -18.560  -8.526  -0.314  1.00  0.00     0.190 C 
HETATM   29  C21 UNL     1     -18.380  -7.766   0.988  1.00  0.00     0.058 C 
ATOM     30  H42 UNL     1     -16.741  -9.615   0.132  1.00  0.00     0.278 HD
ATOM     31  H41 UNL     1     -17.268 -10.072  -1.109  1.00  0.00     0.278 HD
ENDBRANCH  21  23
ENDBRANCH  18  19
ENDBRANCH   1  11
TORSDOF 3
ENDMDL
