MODEL 1
REMARK VINA RESULT: -9.837543687      0.000      0.000
REMARK  5 active torsions:
REMARK  status: ('A' for Active; 'I' for Inactive)
REMARK    1  A    between atoms: C8_8  and  C9_9 
REMARK       I    between atoms: C9_9  and  N1_11 
REMARK    2  A    between atoms: N1_11  and  C10_13 
REMARK    3  A    between atoms: N3_16  and  C11_17 
REMARK    4  A    between atoms: C11_17  and  C12_18 
REMARK    5  A    between atoms: C18_25  and  C19_26 
ROOT
HETATM    1  C10 UNL     1     -12.072  -9.869   7.113  1.00  0.00     0.163 A 
HETATM    2  N2  UNL     1     -12.985  -9.831   6.138  1.00  0.00    -0.281 N 
ATOM      3  H2  UNL     1     -12.779  -9.654   5.155  1.00  0.00     0.189 HD
HETATM    4  N3  UNL     1     -14.178 -10.052   6.623  1.00  0.00    -0.298 N 
HETATM    5  C20 UNL     1     -14.058 -10.240   7.940  1.00  0.00     0.156 A 
HETATM    6  C21 UNL     1     -12.729 -10.128   8.275  1.00  0.00     0.178 A 
HETATM    7  F1  UNL     1     -12.219 -10.262   9.545  1.00  0.00    -0.201 F 
ENDROOT
BRANCH   1   8
HETATM    8  N1  UNL     1     -10.793  -9.703   7.051  1.00  0.00    -0.309 N 
HETATM    9  C9  UNL     1     -10.043 -10.466   6.114  1.00  0.00     0.228 C 
HETATM   10  O1  UNL     1     -10.366 -10.349   4.905  1.00  0.00    -0.273 OA
ATOM     11  H1  UNL     1     -10.327  -9.035   7.665  1.00  0.00     0.170 HD
BRANCH   9  12
HETATM   12  C8  UNL     1      -8.946 -11.350   6.507  1.00  0.00     0.087 C 
HETATM   13  C4  UNL     1      -7.600 -10.669   6.453  1.00  0.00    -0.025 A 
HETATM   14  C2  UNL     1      -7.266  -9.747   5.342  1.00  0.00    -0.009 A 
HETATM   15  C3  UNL     1      -6.630 -11.111   5.409  1.00  0.00     0.015 A 
HETATM   16  C5  UNL     1      -7.159 -10.414   7.856  1.00  0.00     0.011 C 
HETATM   17  C1  UNL     1      -6.347  -8.597   5.651  1.00  0.00     0.011 C 
HETATM   18  C6  UNL     1      -8.299 -10.850   8.716  1.00  0.00     0.002 C 
HETATM   19  C7  UNL     1      -9.064 -11.859   7.924  1.00  0.00     0.015 C 
ENDBRANCH   9  12
ENDBRANCH   1   8
BRANCH   4  20
HETATM   20  C11 UNL     1     -15.437 -10.104   5.917  1.00  0.00     0.160 C 
BRANCH  20  21
HETATM   21  C12 UNL     1     -15.597 -11.305   5.050  1.00  0.00     0.012 C 
HETATM   22  C13 UNL     1     -15.414 -12.538   5.952  1.00  0.00     0.020 C 
HETATM   23  C14 UNL     1     -14.665 -11.433   3.905  1.00  0.00     0.180 C 
HETATM   24  O2  UNL     1     -15.384 -11.236   2.717  1.00  0.00    -0.378 OA
HETATM   25  C15 UNL     1     -16.582 -11.898   3.017  1.00  0.00     0.075 A 
HETATM   26  C16 UNL     1     -17.597 -12.189   2.005  1.00  0.00     0.042 A 
HETATM   27  C17 UNL     1     -16.787 -13.319   2.632  1.00  0.00     0.042 A 
HETATM   28  C18 UNL     1     -16.942 -11.442   4.420  1.00  0.00     0.133 C 
BRANCH  28  29
HETATM   29  C19 UNL     1     -17.753 -10.231   4.343  1.00  0.00     0.180 C 
HETATM   30  O3  UNL     1     -18.822 -10.075   5.010  1.00  0.00    -0.648 OA
HETATM   31  O4  UNL     1     -17.391  -9.175   3.525  1.00  0.00    -0.648 OA
ENDBRANCH  28  29
ENDBRANCH  20  21
ENDBRANCH   4  20
TORSDOF 5
ENDMDL
MODEL 2
REMARK VINA RESULT: -9.606467978      2.972      5.163
REMARK  5 active torsions:
REMARK  status: ('A' for Active; 'I' for Inactive)
REMARK    1  A    between atoms: C8_8  and  C9_9 
REMARK       I    between atoms: C9_9  and  N1_11 
REMARK    2  A    between atoms: N1_11  and  C10_13 
REMARK    3  A    between atoms: N3_16  and  C11_17 
REMARK    4  A    between atoms: C11_17  and  C12_18 
REMARK    5  A    between atoms: C18_25  and  C19_26 
ROOT
HETATM    1  C10 UNL     1     -15.587 -11.237   4.578  1.00  0.00     0.163 A 
HETATM    2  N2  UNL     1     -16.628 -10.424   4.379  1.00  0.00    -0.281 N 
ATOM      3  H2  UNL     1     -16.722  -9.491   4.778  1.00  0.00     0.189 HD
HETATM    4  N3  UNL     1     -17.508 -10.995   3.600  1.00  0.00    -0.298 N 
HETATM    5  C20 UNL     1     -17.047 -12.206   3.276  1.00  0.00     0.156 A 
HETATM    6  C21 UNL     1     -15.827 -12.383   3.885  1.00  0.00     0.178 A 
HETATM    7  F1  UNL     1     -15.046 -13.510   3.783  1.00  0.00    -0.201 F 
ENDROOT
BRANCH   1   8
HETATM    8  N1  UNL     1     -14.517 -11.051   5.278  1.00  0.00    -0.309 N 
HETATM    9  C9  UNL     1     -14.486 -11.507   6.624  1.00  0.00     0.228 C 
HETATM   10  O1  UNL     1     -14.691 -12.734   6.809  1.00  0.00    -0.273 OA
ATOM     11  H1  UNL     1     -13.708 -10.583   4.871  1.00  0.00     0.170 HD
BRANCH   9  12
HETATM   12  C8  UNL     1     -14.230 -10.619   7.757  1.00  0.00     0.087 C 
HETATM   13  C4  UNL     1     -12.843 -10.023   7.730  1.00  0.00    -0.025 A 
HETATM   14  C2  UNL     1     -11.677 -10.847   7.331  1.00  0.00    -0.009 A 
HETATM   15  C3  UNL     1     -11.870 -10.459   8.774  1.00  0.00     0.015 A 
HETATM   16  C5  UNL     1     -12.968  -8.587   7.346  1.00  0.00     0.011 C 
HETATM   17  C1  UNL     1     -10.546 -10.148   6.626  1.00  0.00     0.011 C 
HETATM   18  C6  UNL     1     -14.416  -8.381   7.048  1.00  0.00     0.002 C 
HETATM   19  C7  UNL     1     -15.159  -9.429   7.809  1.00  0.00     0.015 C 
ENDBRANCH   9  12
ENDBRANCH   1   8
BRANCH   4  20
HETATM   20  C11 UNL     1     -18.768 -10.465   3.131  1.00  0.00     0.160 C 
BRANCH  20  21
HETATM   21  C12 UNL     1     -18.779 -10.121   1.682  1.00  0.00     0.012 C 
HETATM   22  C13 UNL     1     -20.120 -10.614   1.113  1.00  0.00     0.020 C 
HETATM   23  C14 UNL     1     -17.691 -10.689   0.851  1.00  0.00     0.180 C 
HETATM   24  O2  UNL     1     -16.832  -9.651   0.464  1.00  0.00    -0.378 OA
HETATM   25  C15 UNL     1     -17.750  -8.622   0.214  1.00  0.00     0.075 A 
HETATM   26  C16 UNL     1     -17.375  -7.375  -0.451  1.00  0.00     0.042 A 
HETATM   27  C17 UNL     1     -18.276  -8.385  -1.155  1.00  0.00     0.042 A 
HETATM   28  C18 UNL     1     -18.710  -8.660   1.390  1.00  0.00     0.133 C 
BRANCH  28  29
HETATM   29  C19 UNL     1     -18.202  -7.804   2.458  1.00  0.00     0.180 C 
HETATM   30  O3  UNL     1     -18.948  -7.029   3.133  1.00  0.00    -0.648 OA
HETATM   31  O4  UNL     1     -16.859  -7.794   2.793  1.00  0.00    -0.648 OA
ENDBRANCH  28  29
ENDBRANCH  20  21
ENDBRANCH   4  20
TORSDOF 5
ENDMDL
MODEL 3
REMARK VINA RESULT: -9.502128963      1.918      2.715
REMARK  5 active torsions:
REMARK  status: ('A' for Active; 'I' for Inactive)
REMARK    1  A    between atoms: C8_8  and  C9_9 
REMARK       I    between atoms: C9_9  and  N1_11 
REMARK    2  A    between atoms: N1_11  and  C10_13 
REMARK    3  A    between atoms: N3_16  and  C11_17 
REMARK    4  A    between atoms: C11_17  and  C12_18 
REMARK    5  A    between atoms: C18_25  and  C19_26 
ROOT
HETATM    1  C10 UNL     1     -14.402  -8.976   7.000  1.00  0.00     0.163 A 
HETATM    2  N2  UNL     1     -14.663  -9.331   5.740  1.00  0.00    -0.281 N 
ATOM      3  H2  UNL     1     -14.076  -9.942   5.174  1.00  0.00     0.189 HD
HETATM    4  N3  UNL     1     -15.779  -8.783   5.335  1.00  0.00    -0.298 N 
HETATM    5  C20 UNL     1     -16.267  -8.052   6.341  1.00  0.00     0.156 A 
HETATM    6  C21 UNL     1     -15.410  -8.159   7.410  1.00  0.00     0.178 A 
HETATM    7  F1  UNL     1     -15.582  -7.544   8.628  1.00  0.00    -0.201 F 
ENDROOT
BRANCH   1   8
HETATM    8  N1  UNL     1     -13.408  -9.300   7.759  1.00  0.00    -0.309 N 
HETATM    9  C9  UNL     1     -12.166  -9.641   7.159  1.00  0.00     0.228 C 
HETATM   10  O1  UNL     1     -11.639  -8.772   6.418  1.00  0.00    -0.273 OA
ATOM     11  H1  UNL     1     -13.513  -9.310   8.773  1.00  0.00     0.170 HD
BRANCH   9  12
HETATM   12  C8  UNL     1     -11.509 -10.931   7.372  1.00  0.00     0.087 C 
HETATM   13  C4  UNL     1     -10.021 -10.876   7.123  1.00  0.00    -0.025 A 
HETATM   14  C2  UNL     1      -9.476 -10.100   5.983  1.00  0.00    -0.009 A 
HETATM   15  C3  UNL     1      -9.479 -11.606   5.940  1.00  0.00     0.015 A 
HETATM   16  C5  UNL     1      -9.332 -10.933   8.446  1.00  0.00     0.011 C 
HETATM   17  C1  UNL     1      -8.123  -9.467   6.163  1.00  0.00     0.011 C 
HETATM   18  C6  UNL     1     -10.424 -10.913   9.463  1.00  0.00     0.002 C 
HETATM   19  C7  UNL     1     -11.644 -11.446   8.785  1.00  0.00     0.015 C 
ENDBRANCH   9  12
ENDBRANCH   1   8
BRANCH   4  20
HETATM   20  C11 UNL     1     -16.425  -8.910   4.049  1.00  0.00     0.160 C 
BRANCH  20  21
HETATM   21  C12 UNL     1     -16.948 -10.276   3.765  1.00  0.00     0.012 C 
HETATM   22  C13 UNL     1     -18.305 -10.395   4.481  1.00  0.00     0.020 C 
HETATM   23  C14 UNL     1     -16.104 -11.418   4.190  1.00  0.00     0.180 C 
HETATM   24  O2  UNL     1     -15.587 -12.044   3.047  1.00  0.00    -0.378 OA
HETATM   25  C15 UNL     1     -16.688 -11.975   2.183  1.00  0.00     0.075 A 
HETATM   26  C16 UNL     1     -16.745 -12.707   0.919  1.00  0.00     0.042 A 
HETATM   27  C17 UNL     1     -17.651 -13.102   2.081  1.00  0.00     0.042 A 
HETATM   28  C18 UNL     1     -17.208 -10.555   2.323  1.00  0.00     0.133 C 
BRANCH  28  29
HETATM   29  C19 UNL     1     -16.530  -9.693   1.360  1.00  0.00     0.180 C 
HETATM   30  O3  UNL     1     -15.279  -9.743   1.152  1.00  0.00    -0.648 OA
HETATM   31  O4  UNL     1     -17.231  -8.763   0.612  1.00  0.00    -0.648 OA
ENDBRANCH  28  29
ENDBRANCH  20  21
ENDBRANCH   4  20
TORSDOF 5
ENDMDL
MODEL 4
REMARK VINA RESULT: -9.406336607      3.084      5.154
REMARK  5 active torsions:
REMARK  status: ('A' for Active; 'I' for Inactive)
REMARK    1  A    between atoms: C8_8  and  C9_9 
REMARK       I    between atoms: C9_9  and  N1_11 
REMARK    2  A    between atoms: N1_11  and  C10_13 
REMARK    3  A    between atoms: N3_16  and  C11_17 
REMARK    4  A    between atoms: C11_17  and  C12_18 
REMARK    5  A    between atoms: C18_25  and  C19_26 
ROOT
HETATM    1  C10 UNL     1     -15.307 -11.050   4.590  1.00  0.00     0.163 A 
HETATM    2  N2  UNL     1     -16.234 -10.111   4.382  1.00  0.00    -0.281 N 
ATOM      3  H2  UNL     1     -16.213  -9.173   4.783  1.00  0.00     0.189 HD
HETATM    4  N3  UNL     1     -17.171 -10.563   3.591  1.00  0.00    -0.298 N 
HETATM    5  C20 UNL     1     -16.863 -11.823   3.268  1.00  0.00     0.156 A 
HETATM    6  C21 UNL     1     -15.683 -12.154   3.890  1.00  0.00     0.178 A 
HETATM    7  F1  UNL     1     -15.051 -13.371   3.793  1.00  0.00    -0.201 F 
ENDROOT
BRANCH   1   8
HETATM    8  N1  UNL     1     -14.230 -11.002   5.301  1.00  0.00    -0.309 N 
HETATM    9  C9  UNL     1     -14.273 -11.458   6.647  1.00  0.00     0.228 C 
HETATM   10  O1  UNL     1     -14.637 -12.647   6.829  1.00  0.00    -0.273 OA
ATOM     11  H1  UNL     1     -13.363 -10.643   4.904  1.00  0.00     0.170 HD
BRANCH   9  12
HETATM   12  C8  UNL     1     -13.918 -10.609   7.784  1.00  0.00     0.087 C 
HETATM   13  C4  UNL     1     -12.518 -10.052   7.682  1.00  0.00    -0.025 A 
HETATM   14  C2  UNL     1     -11.406 -10.896   7.185  1.00  0.00    -0.009 A 
HETATM   15  C3  UNL     1     -11.493 -10.544   8.647  1.00  0.00     0.015 A 
HETATM   16  C5  UNL     1     -12.627  -8.602   7.344  1.00  0.00     0.011 C 
HETATM   17  C1  UNL     1     -10.304 -10.209   6.426  1.00  0.00     0.011 C 
HETATM   18  C6  UNL     1     -14.084  -8.348   7.148  1.00  0.00     0.002 C 
HETATM   19  C7  UNL     1     -14.806  -9.396   7.928  1.00  0.00     0.015 C 
ENDBRANCH   9  12
ENDBRANCH   1   8
BRANCH   4  20
HETATM   20  C11 UNL     1     -18.347  -9.876   3.110  1.00  0.00     0.160 C 
BRANCH  20  21
HETATM   21  C12 UNL     1     -18.363  -9.661   1.636  1.00  0.00     0.012 C 
HETATM   22  C13 UNL     1     -16.948  -9.972   1.121  1.00  0.00     0.020 C 
HETATM   23  C14 UNL     1     -18.737  -8.307   1.162  1.00  0.00     0.180 C 
HETATM   24  O2  UNL     1     -19.996  -8.378   0.549  1.00  0.00    -0.378 OA
HETATM   25  C15 UNL     1     -19.899  -9.603  -0.124  1.00  0.00     0.075 A 
HETATM   26  C16 UNL     1     -20.879 -10.037  -1.119  1.00  0.00     0.042 A 
HETATM   27  C17 UNL     1     -19.463  -9.661  -1.543  1.00  0.00     0.042 A 
HETATM   28  C18 UNL     1     -19.290 -10.558   0.888  1.00  0.00     0.133 C 
BRANCH  28  29
HETATM   29  C19 UNL     1     -20.355 -11.188   1.661  1.00  0.00     0.180 C 
HETATM   30  O3  UNL     1     -21.399 -10.566   2.031  1.00  0.00    -0.648 OA
HETATM   31  O4  UNL     1     -20.280 -12.518   2.036  1.00  0.00    -0.648 OA
ENDBRANCH  28  29
ENDBRANCH  20  21
ENDBRANCH   4  20
TORSDOF 5
ENDMDL
MODEL 5
REMARK VINA RESULT: -9.331799847      3.281      5.532
REMARK  5 active torsions:
REMARK  status: ('A' for Active; 'I' for Inactive)
REMARK    1  A    between atoms: C8_8  and  C9_9 
REMARK       I    between atoms: C9_9  and  N1_11 
REMARK    2  A    between atoms: N1_11  and  C10_13 
REMARK    3  A    between atoms: N3_16  and  C11_17 
REMARK    4  A    between atoms: C11_17  and  C12_18 
REMARK    5  A    between atoms: C18_25  and  C19_26 
ROOT
HETATM    1  C10 UNL     1     -14.993 -11.122   4.117  1.00  0.00     0.163 A 
HETATM    2  N2  UNL     1     -15.503 -10.015   3.570  1.00  0.00    -0.281 N 
ATOM      3  H2  UNL     1     -15.320  -9.067   3.897  1.00  0.00     0.189 HD
HETATM    4  N3  UNL     1     -16.268 -10.320   2.555  1.00  0.00    -0.298 N 
HETATM    5  C20 UNL     1     -16.268 -11.650   2.425  1.00  0.00     0.156 A 
HETATM    6  C21 UNL     1     -15.466 -12.181   3.406  1.00  0.00     0.178 A 
HETATM    7  F1  UNL     1     -15.221 -13.522   3.590  1.00  0.00    -0.201 F 
ENDROOT
BRANCH   1   8
HETATM    8  N1  UNL     1     -14.198 -11.251   5.126  1.00  0.00    -0.309 N 
HETATM    9  C9  UNL     1     -14.744 -11.585   6.396  1.00  0.00     0.228 C 
HETATM   10  O1  UNL     1     -15.405 -12.652   6.464  1.00  0.00    -0.273 OA
ATOM     11  H1  UNL     1     -13.194 -11.117   5.014  1.00  0.00     0.170 HD
BRANCH   9  12
HETATM   12  C8  UNL     1     -14.564 -10.748   7.582  1.00  0.00     0.087 C 
HETATM   13  C4  UNL     1     -13.197 -10.111   7.644  1.00  0.00    -0.025 A 
HETATM   14  C2  UNL     1     -11.990 -10.878   7.255  1.00  0.00    -0.009 A 
HETATM   15  C3  UNL     1     -12.254 -10.570   8.705  1.00  0.00     0.015 A 
HETATM   16  C5  UNL     1     -13.352  -8.661   7.326  1.00  0.00     0.011 C 
HETATM   17  C1  UNL     1     -10.854 -10.110   6.634  1.00  0.00     0.011 C 
HETATM   18  C6  UNL     1     -14.792  -8.483   6.977  1.00  0.00     0.002 C 
HETATM   19  C7  UNL     1     -15.532  -9.591   7.652  1.00  0.00     0.015 C 
ENDBRANCH   9  12
ENDBRANCH   1   8
BRANCH   4  20
HETATM   20  C11 UNL     1     -17.002  -9.430   1.686  1.00  0.00     0.160 C 
BRANCH  20  21
HETATM   21  C12 UNL     1     -18.468  -9.397   1.949  1.00  0.00     0.012 C 
HETATM   22  C13 UNL     1     -18.701  -8.370   3.070  1.00  0.00     0.020 C 
HETATM   23  C14 UNL     1     -19.103 -10.673   2.357  1.00  0.00     0.180 C 
HETATM   24  O2  UNL     1     -19.920 -11.122   1.310  1.00  0.00    -0.378 OA
HETATM   25  C15 UNL     1     -20.470  -9.914   0.862  1.00  0.00     0.075 A 
HETATM   26  C16 UNL     1     -21.586  -9.857  -0.082  1.00  0.00     0.042 A 
HETATM   27  C17 UNL     1     -21.782  -9.436   1.371  1.00  0.00     0.042 A 
HETATM   28  C18 UNL     1     -19.297  -8.952   0.792  1.00  0.00     0.133 C 
BRANCH  28  29
HETATM   29  C19 UNL     1     -18.677  -9.038  -0.526  1.00  0.00     0.180 C 
HETATM   30  O3  UNL     1     -18.183  -8.030  -1.121  1.00  0.00    -0.648 OA
HETATM   31  O4  UNL     1     -18.597 -10.241  -1.205  1.00  0.00    -0.648 OA
ENDBRANCH  28  29
ENDBRANCH  20  21
ENDBRANCH   4  20
TORSDOF 5
ENDMDL
