MODEL 1
REMARK VINA RESULT: -10.749570048      0.000      0.000
REMARK  4 active torsions:
REMARK  status: ('A' for Active; 'I' for Inactive)
REMARK    1  A    between atoms: C2_5  and  C3_6 
REMARK    2  A    between atoms: C3_6  and  C4_8 
REMARK       I    between atoms: C4_8  and  N2_10 
REMARK    3  A    between atoms: N2_10  and  C5_12 
REMARK    4  A    between atoms: C5_12  and  C6_13 
REMARK       I    between atoms: C6_13  and  N3_15 
ROOT
HETATM    1  C3  UNL     1     -13.397  -9.806   6.772  1.00  0.00     0.227 C 
HETATM    2  O1  UNL     1     -13.276  -8.557   6.799  1.00  0.00    -0.286 OA
ENDROOT
BRANCH   1   3
HETATM    3  C2  UNL     1     -12.412 -10.662   7.480  1.00  0.00     0.133 C 
HETATM    4  C1  UNL     1     -11.148 -10.624   6.732  1.00  0.00     0.091 C 
HETATM    5  N1  UNL     1     -11.263 -10.397   5.482  1.00  0.00    -0.388 N 
HETATM    6  N4  UNL     1      -9.837 -10.806   7.272  1.00  0.00    -0.302 N 
ATOM      7  H12 UNL     1     -12.198 -10.266   5.097  1.00  0.00     0.157 HD
ATOM      8  H11 UNL     1     -10.385 -10.370   4.963  1.00  0.00     0.157 HD
HETATM    9  C17 UNL     1      -9.481 -11.580   8.397  1.00  0.00     0.094 C 
HETATM   10  C20 UNL     1      -8.676 -10.203   6.725  1.00  0.00     0.225 C 
HETATM   11  C16 UNL     1     -10.200 -11.211   9.666  1.00  0.00     0.026 C 
HETATM   12  C18 UNL     1      -7.983 -11.414   8.584  1.00  0.00     0.035 C 
HETATM   13  C15 UNL     1     -10.931  -9.902   9.375  1.00  0.00     0.003 C 
HETATM   14  C14 UNL     1     -12.302 -10.258   8.905  1.00  0.00     0.020 C 
HETATM   15  C19 UNL     1      -7.473 -10.888   7.257  1.00  0.00     0.105 C 
HETATM   16  O4  UNL     1      -8.677  -9.221   5.900  1.00  0.00    -0.273 OA
ENDBRANCH   1   3
BRANCH   1  17
HETATM   17  C4  UNL     1     -14.522 -10.360   6.031  1.00  0.00     0.288 C 
HETATM   18  O2  UNL     1     -14.816 -11.584   6.132  1.00  0.00    -0.264 OA
HETATM   19  N2  UNL     1     -15.302  -9.545   5.187  1.00  0.00    -0.346 N 
ATOM     20  H2  UNL     1     -15.074  -8.555   5.097  1.00  0.00     0.163 HD
BRANCH  19  21
HETATM   21  C5  UNL     1     -16.420 -10.084   4.448  1.00  0.00     0.226 C 
BRANCH  21  22
HETATM   22  C6  UNL     1     -16.128 -10.164   3.006  1.00  0.00     0.239 C 
HETATM   23  O3  UNL     1     -15.412 -11.113   2.601  1.00  0.00    -0.271 OA
HETATM   24  N3  UNL     1     -16.610  -9.232   2.053  1.00  0.00    -0.320 N 
HETATM   25  C7  UNL     1     -16.180  -9.534   0.698  1.00  0.00     0.129 C 
HETATM   26  C13 UNL     1     -17.426  -8.167   2.577  1.00  0.00     0.273 C 
HETATM   27  C8  UNL     1     -16.974 -10.602   0.044  1.00  0.00     0.020 C 
HETATM   28  C9  UNL     1     -17.982 -10.135  -0.944  1.00  0.00     0.002 C 
HETATM   29  C10 UNL     1     -18.596  -8.797  -0.589  1.00  0.00     0.000 C 
HETATM   30  C11 UNL     1     -19.085  -8.867   0.823  1.00  0.00     0.004 C 
HETATM   31  C12 UNL     1     -18.487  -7.719   1.590  1.00  0.00     0.059 C 
HETATM   32  F1  UNL     1     -16.644  -7.051   2.852  1.00  0.00    -0.227 F 
ENDBRANCH  21  22
ENDBRANCH  19  21
ENDBRANCH   1  17
TORSDOF 4
ENDMDL
MODEL 2
REMARK VINA RESULT: -10.336961049      1.497      2.026
REMARK  4 active torsions:
REMARK  status: ('A' for Active; 'I' for Inactive)
REMARK    1  A    between atoms: C2_5  and  C3_6 
REMARK    2  A    between atoms: C3_6  and  C4_8 
REMARK       I    between atoms: C4_8  and  N2_10 
REMARK    3  A    between atoms: N2_10  and  C5_12 
REMARK    4  A    between atoms: C5_12  and  C6_13 
REMARK       I    between atoms: C6_13  and  N3_15 
ROOT
HETATM    1  C3  UNL     1     -13.456 -10.284   6.668  1.00  0.00     0.227 C 
HETATM    2  O1  UNL     1     -13.453  -9.032   6.574  1.00  0.00    -0.286 OA
ENDROOT
BRANCH   1   3
HETATM    3  C2  UNL     1     -12.401 -10.971   7.453  1.00  0.00     0.133 C 
HETATM    4  C1  UNL     1     -11.131 -10.850   6.723  1.00  0.00     0.091 C 
HETATM    5  N1  UNL     1     -11.242 -10.730   5.458  1.00  0.00    -0.388 N 
HETATM    6  N4  UNL     1      -9.821 -10.847   7.294  1.00  0.00    -0.302 N 
ATOM      7  H12 UNL     1     -12.176 -10.732   5.051  1.00  0.00     0.157 HD
ATOM      8  H11 UNL     1     -10.360 -10.646   4.952  1.00  0.00     0.157 HD
HETATM    9  C17 UNL     1      -9.409 -11.492   8.481  1.00  0.00     0.094 C 
HETATM   10  C20 UNL     1      -8.721 -10.163   6.721  1.00  0.00     0.225 C 
HETATM   11  C16 UNL     1     -10.194 -11.111   9.707  1.00  0.00     0.026 C 
HETATM   12  C18 UNL     1      -7.944 -11.149   8.677  1.00  0.00     0.035 C 
HETATM   13  C15 UNL     1     -11.055  -9.916   9.307  1.00  0.00     0.003 C 
HETATM   14  C14 UNL     1     -12.368 -10.454   8.845  1.00  0.00     0.020 C 
HETATM   15  C19 UNL     1      -7.463 -10.669   7.321  1.00  0.00     0.105 C 
HETATM   16  O4  UNL     1      -8.809  -9.250   5.824  1.00  0.00    -0.273 OA
ENDBRANCH   1   3
BRANCH   1  17
HETATM   17  C4  UNL     1     -14.519 -11.009   5.984  1.00  0.00     0.288 C 
HETATM   18  O2  UNL     1     -15.206 -11.872   6.601  1.00  0.00    -0.264 OA
HETATM   19  N2  UNL     1     -14.801 -10.766   4.626  1.00  0.00    -0.346 N 
ATOM     20  H2  UNL     1     -14.253 -10.073   4.117  1.00  0.00     0.163 HD
BRANCH  19  21
HETATM   21  C5  UNL     1     -15.853 -11.480   3.939  1.00  0.00     0.226 C 
BRANCH  21  22
HETATM   22  C6  UNL     1     -17.005 -10.606   3.658  1.00  0.00     0.239 C 
HETATM   23  O3  UNL     1     -17.386  -9.822   4.562  1.00  0.00    -0.271 OA
HETATM   24  N3  UNL     1     -17.708 -10.602   2.427  1.00  0.00    -0.320 N 
HETATM   25  C7  UNL     1     -18.805  -9.650   2.404  1.00  0.00     0.129 C 
HETATM   26  C13 UNL     1     -17.225 -11.522   1.429  1.00  0.00     0.273 C 
HETATM   27  C8  UNL     1     -18.376  -8.251   2.156  1.00  0.00     0.020 C 
HETATM   28  C9  UNL     1     -18.607  -7.747   0.776  1.00  0.00     0.002 C 
HETATM   29  C10 UNL     1     -18.467  -8.818  -0.285  1.00  0.00     0.000 C 
HETATM   30  C11 UNL     1     -17.157  -9.512  -0.079  1.00  0.00     0.004 C 
HETATM   31  C12 UNL     1     -17.415 -10.991   0.021  1.00  0.00     0.059 C 
HETATM   32  F1  UNL     1     -17.926 -12.720   1.498  1.00  0.00    -0.227 F 
ENDBRANCH  21  22
ENDBRANCH  19  21
ENDBRANCH   1  17
TORSDOF 4
ENDMDL
MODEL 3
REMARK VINA RESULT: -10.279989315      1.397      1.727
REMARK  4 active torsions:
REMARK  status: ('A' for Active; 'I' for Inactive)
REMARK    1  A    between atoms: C2_5  and  C3_6 
REMARK    2  A    between atoms: C3_6  and  C4_8 
REMARK       I    between atoms: C4_8  and  N2_10 
REMARK    3  A    between atoms: N2_10  and  C5_12 
REMARK    4  A    between atoms: C5_12  and  C6_13 
REMARK       I    between atoms: C6_13  and  N3_15 
ROOT
HETATM    1  C3  UNL     1     -13.471  -9.757   6.787  1.00  0.00     0.227 C 
HETATM    2  O1  UNL     1     -13.336  -8.510   6.817  1.00  0.00    -0.286 OA
ENDROOT
BRANCH   1   3
HETATM    3  C2  UNL     1     -12.492 -10.626   7.486  1.00  0.00     0.133 C 
HETATM    4  C1  UNL     1     -11.231 -10.599   6.732  1.00  0.00     0.091 C 
HETATM    5  N1  UNL     1     -11.350 -10.365   5.483  1.00  0.00    -0.388 N 
HETATM    6  N4  UNL     1      -9.919 -10.797   7.263  1.00  0.00    -0.302 N 
ATOM      7  H12 UNL     1     -12.286 -10.223   5.103  1.00  0.00     0.157 HD
ATOM      8  H11 UNL     1     -10.475 -10.346   4.959  1.00  0.00     0.157 HD
HETATM    9  C17 UNL     1      -9.566 -11.580   8.384  1.00  0.00     0.094 C 
HETATM   10  C20 UNL     1      -8.755 -10.205   6.713  1.00  0.00     0.225 C 
HETATM   11  C16 UNL     1     -10.274 -11.208   9.658  1.00  0.00     0.026 C 
HETATM   12  C18 UNL     1      -8.066 -11.430   8.563  1.00  0.00     0.035 C 
HETATM   13  C15 UNL     1     -10.992  -9.891   9.376  1.00  0.00     0.003 C 
HETATM   14  C14 UNL     1     -12.370 -10.230   8.912  1.00  0.00     0.020 C 
HETATM   15  C19 UNL     1      -7.557 -10.904   7.236  1.00  0.00     0.105 C 
HETATM   16  O4  UNL     1      -8.750  -9.219   5.892  1.00  0.00    -0.273 OA
ENDBRANCH   1   3
BRANCH   1  17
HETATM   17  C4  UNL     1     -14.607 -10.296   6.050  1.00  0.00     0.288 C 
HETATM   18  O2  UNL     1     -14.938 -11.508   6.179  1.00  0.00    -0.264 OA
HETATM   19  N2  UNL     1     -15.356  -9.480   5.180  1.00  0.00    -0.346 N 
ATOM     20  H2  UNL     1     -15.097  -8.500   5.067  1.00  0.00     0.163 HD
BRANCH  19  21
HETATM   21  C5  UNL     1     -16.484 -10.004   4.445  1.00  0.00     0.226 C 
BRANCH  21  22
HETATM   22  C6  UNL     1     -17.062  -8.991   3.546  1.00  0.00     0.239 C 
HETATM   23  O3  UNL     1     -16.595  -7.826   3.591  1.00  0.00    -0.271 OA
HETATM   24  N3  UNL     1     -18.114  -9.257   2.633  1.00  0.00    -0.320 N 
HETATM   25  C7  UNL     1     -18.503  -8.090   1.861  1.00  0.00     0.129 C 
HETATM   26  C13 UNL     1     -18.608 -10.610   2.627  1.00  0.00     0.273 C 
HETATM   27  C8  UNL     1     -17.599  -7.799   0.722  1.00  0.00     0.020 C 
HETATM   28  C9  UNL     1     -18.109  -8.200  -0.617  1.00  0.00     0.002 C 
HETATM   29  C10 UNL     1     -18.965  -9.448  -0.583  1.00  0.00     0.000 C 
HETATM   30  C11 UNL     1     -18.211 -10.513   0.147  1.00  0.00     0.004 C 
HETATM   31  C12 UNL     1     -19.085 -11.040   1.253  1.00  0.00     0.059 C 
HETATM   32  F1  UNL     1     -19.699 -10.729   3.481  1.00  0.00    -0.227 F 
ENDBRANCH  21  22
ENDBRANCH  19  21
ENDBRANCH   1  17
TORSDOF 4
ENDMDL
MODEL 4
REMARK VINA RESULT: -10.187345867      1.318      1.451
REMARK  4 active torsions:
REMARK  status: ('A' for Active; 'I' for Inactive)
REMARK    1  A    between atoms: C2_5  and  C3_6 
REMARK    2  A    between atoms: C3_6  and  C4_8 
REMARK       I    between atoms: C4_8  and  N2_10 
REMARK    3  A    between atoms: N2_10  and  C5_12 
REMARK    4  A    between atoms: C5_12  and  C6_13 
REMARK       I    between atoms: C6_13  and  N3_15 
ROOT
HETATM    1  C3  UNL     1     -13.498 -10.162   6.763  1.00  0.00     0.227 C 
HETATM    2  O1  UNL     1     -13.495  -8.907   6.753  1.00  0.00    -0.286 OA
ENDROOT
BRANCH   1   3
HETATM    3  C2  UNL     1     -12.446 -10.900   7.505  1.00  0.00     0.133 C 
HETATM    4  C1  UNL     1     -11.189 -10.790   6.753  1.00  0.00     0.091 C 
HETATM    5  N1  UNL     1     -11.321 -10.629   5.494  1.00  0.00    -0.388 N 
HETATM    6  N4  UNL     1      -9.868 -10.839   7.296  1.00  0.00    -0.302 N 
ATOM      7  H12 UNL     1     -12.264 -10.594   5.106  1.00  0.00     0.157 HD
ATOM      8  H11 UNL     1     -10.448 -10.552   4.972  1.00  0.00     0.157 HD
HETATM    9  C17 UNL     1      -9.449 -11.530   8.454  1.00  0.00     0.094 C 
HETATM   10  C20 UNL     1      -8.761 -10.166   6.720  1.00  0.00     0.225 C 
HETATM   11  C16 UNL     1     -10.198 -11.166   9.707  1.00  0.00     0.026 C 
HETATM   12  C18 UNL     1      -7.972 -11.231   8.629  1.00  0.00     0.035 C 
HETATM   13  C15 UNL     1     -11.035  -9.937   9.361  1.00  0.00     0.003 C 
HETATM   14  C14 UNL     1     -12.371 -10.426   8.911  1.00  0.00     0.020 C 
HETATM   15  C19 UNL     1      -7.506 -10.724   7.279  1.00  0.00     0.105 C 
HETATM   16  O4  UNL     1      -8.843  -9.225   5.853  1.00  0.00    -0.273 OA
ENDBRANCH   1   3
BRANCH   1  17
HETATM   17  C4  UNL     1     -14.558 -10.840   6.028  1.00  0.00     0.288 C 
HETATM   18  O2  UNL     1     -15.246 -11.742   6.583  1.00  0.00    -0.264 OA
HETATM   19  N2  UNL     1     -14.835 -10.506   4.688  1.00  0.00    -0.346 N 
ATOM     20  H2  UNL     1     -14.286  -9.780   4.229  1.00  0.00     0.163 HD
BRANCH  19  21
HETATM   21  C5  UNL     1     -15.884 -11.172   3.951  1.00  0.00     0.226 C 
BRANCH  21  22
HETATM   22  C6  UNL     1     -16.340 -10.363   2.807  1.00  0.00     0.239 C 
HETATM   23  O3  UNL     1     -15.503 -10.078   1.915  1.00  0.00    -0.271 OA
HETATM   24  N3  UNL     1     -17.668  -9.889   2.658  1.00  0.00    -0.320 N 
HETATM   25  C7  UNL     1     -17.860  -9.115   1.444  1.00  0.00     0.129 C 
HETATM   26  C13 UNL     1     -18.582 -10.248   3.712  1.00  0.00     0.273 C 
HETATM   27  C8  UNL     1     -18.027  -9.945   0.226  1.00  0.00     0.020 C 
HETATM   28  C9  UNL     1     -19.423 -10.080  -0.269  1.00  0.00     0.002 C 
HETATM   29  C10 UNL     1     -20.454 -10.083   0.839  1.00  0.00     0.000 C 
HETATM   30  C11 UNL     1     -20.046 -11.102   1.856  1.00  0.00     0.004 C 
HETATM   31  C12 UNL     1     -19.998 -10.434   3.203  1.00  0.00     0.059 C 
HETATM   32  F1  UNL     1     -18.633  -9.242   4.670  1.00  0.00    -0.227 F 
ENDBRANCH  21  22
ENDBRANCH  19  21
ENDBRANCH   1  17
TORSDOF 4
ENDMDL
MODEL 5
REMARK VINA RESULT: -10.166191270      1.503      2.243
REMARK  4 active torsions:
REMARK  status: ('A' for Active; 'I' for Inactive)
REMARK    1  A    between atoms: C2_5  and  C3_6 
REMARK    2  A    between atoms: C3_6  and  C4_8 
REMARK       I    between atoms: C4_8  and  N2_10 
REMARK    3  A    between atoms: N2_10  and  C5_12 
REMARK    4  A    between atoms: C5_12  and  C6_13 
REMARK       I    between atoms: C6_13  and  N3_15 
ROOT
HETATM    1  C3  UNL     1     -12.655 -10.486   6.859  1.00  0.00     0.227 C 
HETATM    2  O1  UNL     1     -12.777 -11.462   7.638  1.00  0.00    -0.286 OA
ENDROOT
BRANCH   1   3
HETATM    3  C2  UNL     1     -11.304 -10.011   6.471  1.00  0.00     0.133 C 
HETATM    4  C1  UNL     1     -10.423 -10.122   7.642  1.00  0.00     0.091 C 
HETATM    5  N1  UNL     1     -11.009 -10.041   8.772  1.00  0.00    -0.388 N 
HETATM    6  N4  UNL     1      -9.007 -10.316   7.623  1.00  0.00    -0.302 N 
ATOM      7  H12 UNL     1     -12.019  -9.903   8.785  1.00  0.00     0.157 HD
ATOM      8  H11 UNL     1     -10.397 -10.119   9.585  1.00  0.00     0.157 HD
HETATM    9  C17 UNL     1      -8.104  -9.891   6.625  1.00  0.00     0.094 C 
HETATM   10  C20 UNL     1      -8.298 -10.992   8.647  1.00  0.00     0.225 C 
HETATM   11  C16 UNL     1      -8.420 -10.389   5.241  1.00  0.00     0.026 C 
HETATM   12  C18 UNL     1      -6.729 -10.377   7.047  1.00  0.00     0.035 C 
HETATM   13  C15 UNL     1      -9.517 -11.437   5.405  1.00  0.00     0.003 C 
HETATM   14  C14 UNL     1     -10.825 -10.733   5.264  1.00  0.00     0.020 C 
HETATM   15  C19 UNL     1      -6.852 -10.684   8.526  1.00  0.00     0.105 C 
HETATM   16  O4  UNL     1      -8.832 -11.750   9.535  1.00  0.00    -0.273 OA
ENDBRANCH   1   3
BRANCH   1  17
HETATM   17  C4  UNL     1     -13.875  -9.858   6.367  1.00  0.00     0.288 C 
HETATM   18  O2  UNL     1     -14.273  -8.763   6.854  1.00  0.00    -0.264 OA
HETATM   19  N2  UNL     1     -14.633 -10.458   5.343  1.00  0.00    -0.346 N 
ATOM     20  H2  UNL     1     -14.322 -11.343   4.943  1.00  0.00     0.163 HD
BRANCH  19  21
HETATM   21  C5  UNL     1     -15.843  -9.844   4.848  1.00  0.00     0.226 C 
BRANCH  21  22
HETATM   22  C6  UNL     1     -15.981 -10.016   3.391  1.00  0.00     0.239 C 
HETATM   23  O3  UNL     1     -15.413 -11.000   2.857  1.00  0.00    -0.271 OA
HETATM   24  N3  UNL     1     -16.718  -9.135   2.561  1.00  0.00    -0.320 N 
HETATM   25  C7  UNL     1     -16.699  -9.526   1.162  1.00  0.00     0.129 C 
HETATM   26  C13 UNL     1     -17.348  -8.026   3.231  1.00  0.00     0.273 C 
HETATM   27  C8  UNL     1     -17.648 -10.617   0.834  1.00  0.00     0.020 C 
HETATM   28  C9  UNL     1     -18.900 -10.192   0.151  1.00  0.00     0.002 C 
HETATM   29  C10 UNL     1     -19.384  -8.824   0.584  1.00  0.00     0.000 C 
HETATM   30  C11 UNL     1     -19.444  -8.801   2.079  1.00  0.00     0.004 C 
HETATM   31  C12 UNL     1     -18.649  -7.619   2.566  1.00  0.00     0.059 C 
HETATM   32  F1  UNL     1     -16.520  -6.909   3.197  1.00  0.00    -0.227 F 
ENDBRANCH  21  22
ENDBRANCH  19  21
ENDBRANCH   1  17
TORSDOF 4
ENDMDL
