MODEL 1
REMARK VINA RESULT: -9.248377643      0.000      0.000
REMARK  5 active torsions:
REMARK  status: ('A' for Active; 'I' for Inactive)
REMARK    1  A    between atoms: C2_2  and  C4_5 
REMARK       I    between atoms: C4_5  and  N1_7 
REMARK    2  A    between atoms: C5_9  and  N2_10 
REMARK    3  A    between atoms: C5_9  and  C16_22 
REMARK    4  A    between atoms: N2_10  and  C6_12 
REMARK       I    between atoms: C16_22  and  N3_24 
REMARK    5  A    between atoms: N3_24  and  N4_26 
ROOT
HETATM    1  C4  UNL     1     -14.296 -10.973   6.557  1.00  0.00     0.253 C 
HETATM    2  O1  UNL     1     -14.834 -11.979   7.170  1.00  0.00    -0.268 OA
HETATM    3  N1  UNL     1     -14.728 -10.601   5.299  1.00  0.00    -0.305 N 
ATOM      4  H1  UNL     1     -14.171 -11.029   4.559  1.00  0.00     0.171 HD
HETATM    5  C5  UNL     1     -15.633  -9.870   4.842  1.00  0.00     0.175 C 
ENDROOT
BRANCH   5   6
HETATM    6  N2  UNL     1     -15.672  -9.810   3.382  1.00  0.00    -0.362 N 
ATOM      7  H2  UNL     1     -15.068  -9.130   2.921  1.00  0.00     0.162 HD
BRANCH   6   8
HETATM    8  C6  UNL     1     -16.488 -10.628   2.557  1.00  0.00     0.033 C 
HETATM    9  C7  UNL     1     -16.272 -10.156   1.124  1.00  0.00     0.035 C 
HETATM   10  C8  UNL     1     -17.039 -10.940   0.114  1.00  0.00    -0.012 C 
HETATM   11  C9  UNL     1     -18.523 -10.761   0.415  1.00  0.00     0.009 C 
HETATM   12  C13 UNL     1     -16.693 -12.399   0.191  1.00  0.00     0.009 C 
HETATM   13  C10 UNL     1     -18.767 -11.250   1.825  1.00  0.00    -0.012 C 
HETATM   14  C11 UNL     1     -18.441 -12.729   1.888  1.00  0.00     0.009 C 
HETATM   15  C15 UNL     1     -17.980 -10.454   2.815  1.00  0.00     0.035 C 
HETATM   16  C12 UNL     1     -16.964 -12.863   1.618  1.00  0.00    -0.012 C 
HETATM   17  C14 UNL     1     -16.129 -12.079   2.598  1.00  0.00     0.035 C 
ENDBRANCH   6   8
ENDBRANCH   5   6
BRANCH   5  18
HETATM   18  C16 UNL     1     -16.641  -9.090   5.496  1.00  0.00     0.304 C 
HETATM   19  O2  UNL     1     -16.726  -7.847   5.211  1.00  0.00    -0.263 OA
HETATM   20  N3  UNL     1     -17.572  -9.569   6.444  1.00  0.00    -0.258 N 
ATOM     21  H3  UNL     1     -17.540 -10.556   6.699  1.00  0.00     0.191 HD
BRANCH  20  22
HETATM   22  N4  UNL     1     -18.518  -8.771   7.039  1.00  0.00    -0.279 N 
HETATM   23  C17 UNL     1     -19.812  -8.737   6.524  1.00  0.00     0.114 C 
HETATM   24  C18 UNL     1     -20.862  -8.118   7.375  1.00  0.00     0.214 C 
HETATM   25  O3  UNL     1     -20.390  -7.518   8.528  1.00  0.00    -0.381 OA
HETATM   26  C19 UNL     1     -19.176  -6.874   8.347  1.00  0.00     0.214 C 
HETATM   27  C20 UNL     1     -18.129  -7.927   8.087  1.00  0.00     0.114 C 
ENDBRANCH  20  22
ENDBRANCH   5  18
BRANCH   1  28
HETATM   28  C2  UNL     1     -13.247 -10.314   7.284  1.00  0.00     0.017 C 
HETATM   29  C1  UNL     1     -13.099  -8.845   7.189  1.00  0.00     0.055 C 
HETATM   30  C3  UNL     1     -12.398 -10.980   8.052  1.00  0.00     0.096 C 
HETATM   31 CL1  UNL     1     -11.119 -10.199   8.950  1.00  0.00    -0.096 Cl
ENDBRANCH   1  28
TORSDOF 5
ENDMDL
MODEL 2
REMARK VINA RESULT: -9.092042071      3.306      7.085
REMARK  5 active torsions:
REMARK  status: ('A' for Active; 'I' for Inactive)
REMARK    1  A    between atoms: C2_2  and  C4_5 
REMARK       I    between atoms: C4_5  and  N1_7 
REMARK    2  A    between atoms: C5_9  and  N2_10 
REMARK    3  A    between atoms: C5_9  and  C16_22 
REMARK    4  A    between atoms: N2_10  and  C6_12 
REMARK       I    between atoms: C16_22  and  N3_24 
REMARK    5  A    between atoms: N3_24  and  N4_26 
ROOT
HETATM    1  C4  UNL     1     -15.605 -12.436   5.697  1.00  0.00     0.253 C 
HETATM    2  O1  UNL     1     -15.299 -13.612   6.144  1.00  0.00    -0.268 OA
HETATM    3  N1  UNL     1     -15.843 -11.390   6.567  1.00  0.00    -0.305 N 
ATOM      4  H1  UNL     1     -16.834 -11.290   6.786  1.00  0.00     0.171 HD
HETATM    5  C5  UNL     1     -15.143 -10.535   7.153  1.00  0.00     0.175 C 
ENDROOT
BRANCH   5   6
HETATM    6  N2  UNL     1     -15.906  -9.617   7.998  1.00  0.00    -0.362 N 
ATOM      7  H2  UNL     1     -15.670  -9.582   8.990  1.00  0.00     0.162 HD
BRANCH   6   8
HETATM    8  C6  UNL     1     -16.949  -8.771   7.541  1.00  0.00     0.033 C 
HETATM    9  C7  UNL     1     -18.044  -8.818   8.601  1.00  0.00     0.035 C 
HETATM   10  C8  UNL     1     -19.214  -7.948   8.290  1.00  0.00    -0.012 C 
HETATM   11  C9  UNL     1     -19.838  -8.452   6.993  1.00  0.00     0.009 C 
HETATM   12  C13 UNL     1     -18.789  -6.519   8.109  1.00  0.00     0.009 C 
HETATM   13  C10 UNL     1     -18.775  -8.388   5.919  1.00  0.00    -0.012 C 
HETATM   14  C11 UNL     1     -18.371  -6.940   5.724  1.00  0.00     0.009 C 
HETATM   15  C15 UNL     1     -17.611  -9.260   6.259  1.00  0.00     0.035 C 
HETATM   16  C12 UNL     1     -17.732  -6.488   7.012  1.00  0.00    -0.012 C 
HETATM   17  C14 UNL     1     -16.546  -7.338   7.393  1.00  0.00     0.035 C 
ENDBRANCH   6   8
ENDBRANCH   5   6
BRANCH   5  18
HETATM   18  C16 UNL     1     -13.730 -10.304   7.149  1.00  0.00     0.304 C 
HETATM   19  O2  UNL     1     -13.306  -9.144   6.817  1.00  0.00    -0.263 OA
HETATM   20  N3  UNL     1     -12.736 -11.250   7.483  1.00  0.00    -0.258 N 
ATOM     21  H3  UNL     1     -13.030 -12.188   7.755  1.00  0.00     0.191 HD
BRANCH  20  22
HETATM   22  N4  UNL     1     -11.391 -10.969   7.460  1.00  0.00    -0.279 N 
HETATM   23  C17 UNL     1     -10.689 -10.868   8.659  1.00  0.00     0.114 C 
HETATM   24  C18 UNL     1      -9.205 -10.878   8.576  1.00  0.00     0.214 C 
HETATM   25  O3  UNL     1      -8.700 -10.845   7.290  1.00  0.00    -0.381 OA
HETATM   26  C19 UNL     1      -9.435 -10.035   6.439  1.00  0.00     0.214 C 
HETATM   27  C20 UNL     1     -10.781 -10.684   6.233  1.00  0.00     0.114 C 
ENDBRANCH  20  22
ENDBRANCH   5  18
BRANCH   1  28
HETATM   28  C2  UNL     1     -15.674 -12.334   4.266  1.00  0.00     0.017 C 
HETATM   29  C1  UNL     1     -15.065 -11.171   3.582  1.00  0.00     0.055 C 
HETATM   30  C3  UNL     1     -16.265 -13.258   3.523  1.00  0.00     0.096 C 
HETATM   31 CL1  UNL     1     -16.356 -13.158   1.780  1.00  0.00    -0.096 Cl
ENDBRANCH   1  28
TORSDOF 5
ENDMDL
MODEL 3
REMARK VINA RESULT: -9.072689782      0.310      1.458
REMARK  5 active torsions:
REMARK  status: ('A' for Active; 'I' for Inactive)
REMARK    1  A    between atoms: C2_2  and  C4_5 
REMARK       I    between atoms: C4_5  and  N1_7 
REMARK    2  A    between atoms: C5_9  and  N2_10 
REMARK    3  A    between atoms: C5_9  and  C16_22 
REMARK    4  A    between atoms: N2_10  and  C6_12 
REMARK       I    between atoms: C16_22  and  N3_24 
REMARK    5  A    between atoms: N3_24  and  N4_26 
ROOT
HETATM    1  C4  UNL     1     -14.523 -10.987   6.355  1.00  0.00     0.253 C 
HETATM    2  O1  UNL     1     -15.079 -12.047   6.850  1.00  0.00    -0.268 OA
HETATM    3  N1  UNL     1     -14.916 -10.492   5.127  1.00  0.00    -0.305 N 
ATOM      4  H1  UNL     1     -14.336 -10.847   4.367  1.00  0.00     0.171 HD
HETATM    5  C5  UNL     1     -15.807  -9.718   4.717  1.00  0.00     0.175 C 
ENDROOT
BRANCH   5   6
HETATM    6  N2  UNL     1     -15.801  -9.514   3.269  1.00  0.00    -0.362 N 
ATOM      7  H2  UNL     1     -15.177  -8.799   2.895  1.00  0.00     0.162 HD
BRANCH   6   8
HETATM    8  C6  UNL     1     -16.599 -10.238   2.344  1.00  0.00     0.033 C 
HETATM    9  C7  UNL     1     -16.293 -11.715   2.568  1.00  0.00     0.035 C 
HETATM   10  C8  UNL     1     -17.081 -12.627   1.691  1.00  0.00    -0.012 C 
HETATM   11  C9  UNL     1     -16.710 -12.317   0.244  1.00  0.00     0.009 C 
HETATM   12  C13 UNL     1     -18.556 -12.413   1.878  1.00  0.00     0.009 C 
HETATM   13  C10 UNL     1     -17.031 -10.861  -0.009  1.00  0.00    -0.012 C 
HETATM   14  C11 UNL     1     -18.524 -10.659   0.156  1.00  0.00     0.009 C 
HETATM   15  C15 UNL     1     -16.237  -9.970   0.889  1.00  0.00     0.035 C 
HETATM   16  C12 UNL     1     -18.847 -10.943   1.601  1.00  0.00    -0.012 C 
HETATM   17  C14 UNL     1     -18.071 -10.061   2.545  1.00  0.00     0.035 C 
ENDBRANCH   6   8
ENDBRANCH   5   6
BRANCH   5  18
HETATM   18  C16 UNL     1     -16.835  -9.004   5.412  1.00  0.00     0.304 C 
HETATM   19  O2  UNL     1     -16.948  -7.748   5.205  1.00  0.00    -0.263 OA
HETATM   20  N3  UNL     1     -17.758  -9.562   6.325  1.00  0.00    -0.258 N 
ATOM     21  H3  UNL     1     -17.703 -10.562   6.519  1.00  0.00     0.191 HD
BRANCH  20  22
HETATM   22  N4  UNL     1     -18.725  -8.824   6.964  1.00  0.00    -0.279 N 
HETATM   23  C17 UNL     1     -20.018  -8.793   6.449  1.00  0.00     0.114 C 
HETATM   24  C18 UNL     1     -21.085  -8.252   7.333  1.00  0.00     0.214 C 
HETATM   25  O3  UNL     1     -20.629  -7.709   8.519  1.00  0.00    -0.381 OA
HETATM   26  C19 UNL     1     -19.432  -7.025   8.379  1.00  0.00     0.214 C 
HETATM   27  C20 UNL     1     -18.357  -8.033   8.060  1.00  0.00     0.114 C 
ENDBRANCH  20  22
ENDBRANCH   5  18
BRANCH   1  28
HETATM   28  C2  UNL     1     -13.497 -10.405   7.176  1.00  0.00     0.017 C 
HETATM   29  C1  UNL     1     -13.332  -8.935   7.213  1.00  0.00     0.055 C 
HETATM   30  C3  UNL     1     -12.685 -11.145   7.916  1.00  0.00     0.096 C 
HETATM   31 CL1  UNL     1     -11.435 -10.458   8.926  1.00  0.00    -0.096 Cl
ENDBRANCH   1  28
TORSDOF 5
ENDMDL
MODEL 4
REMARK VINA RESULT: -9.065653145      2.698      5.181
REMARK  5 active torsions:
REMARK  status: ('A' for Active; 'I' for Inactive)
REMARK    1  A    between atoms: C2_2  and  C4_5 
REMARK       I    between atoms: C4_5  and  N1_7 
REMARK    2  A    between atoms: C5_9  and  N2_10 
REMARK    3  A    between atoms: C5_9  and  C16_22 
REMARK    4  A    between atoms: N2_10  and  C6_12 
REMARK       I    between atoms: C16_22  and  N3_24 
REMARK    5  A    between atoms: N3_24  and  N4_26 
ROOT
HETATM    1  C4  UNL     1     -18.720  -7.202   6.200  1.00  0.00     0.253 C 
HETATM    2  O1  UNL     1     -18.379  -6.216   6.968  1.00  0.00    -0.268 OA
HETATM    3  N1  UNL     1     -18.106  -7.385   4.975  1.00  0.00    -0.305 N 
ATOM      4  H1  UNL     1     -18.625  -6.942   4.216  1.00  0.00     0.171 HD
HETATM    5  C5  UNL     1     -17.074  -7.960   4.567  1.00  0.00     0.175 C 
ENDROOT
BRANCH   5   6
HETATM    6  N2  UNL     1     -16.864  -7.856   3.124  1.00  0.00    -0.362 N 
ATOM      7  H2  UNL     1     -16.121  -7.238   2.799  1.00  0.00     0.162 HD
BRANCH   6   8
HETATM    8  C6  UNL     1     -17.616  -8.551   2.142  1.00  0.00     0.033 C 
HETATM    9  C7  UNL     1     -16.641  -8.928   1.032  1.00  0.00     0.035 C 
HETATM   10  C8  UNL     1     -17.268  -9.703  -0.076  1.00  0.00    -0.012 C 
HETATM   11  C9  UNL     1     -18.338  -8.822  -0.714  1.00  0.00     0.009 C 
HETATM   12  C13 UNL     1     -17.908 -10.960   0.441  1.00  0.00     0.009 C 
HETATM   13  C10 UNL     1     -19.333  -8.458   0.366  1.00  0.00    -0.012 C 
HETATM   14  C11 UNL     1     -19.994  -9.729   0.864  1.00  0.00     0.009 C 
HETATM   15  C15 UNL     1     -18.678  -7.692   1.468  1.00  0.00     0.035 C 
HETATM   16  C12 UNL     1     -18.915 -10.557   1.512  1.00  0.00    -0.012 C 
HETATM   17  C14 UNL     1     -18.228  -9.824   2.637  1.00  0.00     0.035 C 
ENDBRANCH   6   8
ENDBRANCH   5   6
BRANCH   5  18
HETATM   18  C16 UNL     1     -16.060  -8.692   5.264  1.00  0.00     0.304 C 
HETATM   19  O2  UNL     1     -15.741  -9.851   4.829  1.00  0.00    -0.263 OA
HETATM   20  N3  UNL     1     -15.360  -8.251   6.409  1.00  0.00    -0.258 N 
ATOM     21  H3  UNL     1     -15.582  -7.331   6.789  1.00  0.00     0.191 HD
BRANCH  20  22
HETATM   22  N4  UNL     1     -14.394  -9.000   7.036  1.00  0.00    -0.279 N 
HETATM   23  C17 UNL     1     -13.067  -8.579   7.003  1.00  0.00     0.114 C 
HETATM   24  C18 UNL     1     -12.125  -9.238   7.946  1.00  0.00     0.214 C 
HETATM   25  O3  UNL     1     -12.662 -10.300   8.649  1.00  0.00    -0.381 OA
HETATM   26  C19 UNL     1     -13.534 -11.066   7.892  1.00  0.00     0.214 C 
HETATM   27  C20 UNL     1     -14.755 -10.229   7.603  1.00  0.00     0.114 C 
ENDBRANCH  20  22
ENDBRANCH   5  18
BRANCH   1  28
HETATM   28  C2  UNL     1     -19.756  -8.046   6.724  1.00  0.00     0.017 C 
HETATM   29  C1  UNL     1     -20.276  -9.165   5.908  1.00  0.00     0.055 C 
HETATM   30  C3  UNL     1     -20.268  -7.862   7.932  1.00  0.00     0.096 C 
HETATM   31 CL1  UNL     1     -21.525  -8.881   8.594  1.00  0.00    -0.096 Cl
ENDBRANCH   1  28
TORSDOF 5
ENDMDL
MODEL 5
REMARK VINA RESULT: -9.037332528      3.315      7.002
REMARK  5 active torsions:
REMARK  status: ('A' for Active; 'I' for Inactive)
REMARK    1  A    between atoms: C2_2  and  C4_5 
REMARK       I    between atoms: C4_5  and  N1_7 
REMARK    2  A    between atoms: C5_9  and  N2_10 
REMARK    3  A    between atoms: C5_9  and  C16_22 
REMARK    4  A    between atoms: N2_10  and  C6_12 
REMARK       I    between atoms: C16_22  and  N3_24 
REMARK    5  A    between atoms: N3_24  and  N4_26 
ROOT
HETATM    1  C4  UNL     1     -15.590 -12.438   5.742  1.00  0.00     0.253 C 
HETATM    2  O1  UNL     1     -15.262 -13.624   6.146  1.00  0.00    -0.268 OA
HETATM    3  N1  UNL     1     -15.817 -11.421   6.651  1.00  0.00    -0.305 N 
ATOM      4  H1  UNL     1     -16.803 -11.339   6.895  1.00  0.00     0.171 HD
HETATM    5  C5  UNL     1     -15.112 -10.579   7.247  1.00  0.00     0.175 C 
ENDROOT
BRANCH   5   6
HETATM    6  N2  UNL     1     -15.863  -9.695   8.138  1.00  0.00    -0.362 N 
ATOM      7  H2  UNL     1     -15.635  -9.723   9.132  1.00  0.00     0.162 HD
BRANCH   6   8
HETATM    8  C6  UNL     1     -16.885  -8.803   7.723  1.00  0.00     0.033 C 
HETATM    9  C7  UNL     1     -17.310  -9.246   6.327  1.00  0.00     0.035 C 
HETATM   10  C8  UNL     1     -18.413  -8.426   5.750  1.00  0.00    -0.012 C 
HETATM   11  C9  UNL     1     -17.908  -6.992   5.619  1.00  0.00     0.009 C 
HETATM   12  C13 UNL     1     -19.620  -8.443   6.643  1.00  0.00     0.009 C 
HETATM   13  C10 UNL     1     -17.505  -6.521   6.998  1.00  0.00    -0.012 C 
HETATM   14  C11 UNL     1     -18.734  -6.516   7.886  1.00  0.00     0.009 C 
HETATM   15  C15 UNL     1     -16.407  -7.366   7.558  1.00  0.00     0.035 C 
HETATM   16  C12 UNL     1     -19.185  -7.949   8.017  1.00  0.00    -0.012 C 
HETATM   17  C14 UNL     1     -18.107  -8.838   8.584  1.00  0.00     0.035 C 
ENDBRANCH   6   8
ENDBRANCH   5   6
BRANCH   5  18
HETATM   18  C16 UNL     1     -13.701 -10.334   7.219  1.00  0.00     0.304 C 
HETATM   19  O2  UNL     1     -13.294  -9.176   6.861  1.00  0.00    -0.263 OA
HETATM   20  N3  UNL     1     -12.692 -11.264   7.554  1.00  0.00    -0.258 N 
ATOM     21  H3  UNL     1     -12.974 -12.200   7.845  1.00  0.00     0.191 HD
BRANCH  20  22
HETATM   22  N4  UNL     1     -11.351 -10.970   7.507  1.00  0.00    -0.279 N 
HETATM   23  C17 UNL     1     -10.626 -10.874   8.692  1.00  0.00     0.114 C 
HETATM   24  C18 UNL     1      -9.144 -10.870   8.578  1.00  0.00     0.214 C 
HETATM   25  O3  UNL     1      -8.665 -10.819   7.283  1.00  0.00    -0.381 OA
HETATM   26  C19 UNL     1      -9.425 -10.009   6.455  1.00  0.00     0.214 C 
HETATM   27  C20 UNL     1     -10.769 -10.667   6.269  1.00  0.00     0.114 C 
ENDBRANCH  20  22
ENDBRANCH   5  18
BRANCH   1  28
HETATM   28  C2  UNL     1     -15.692 -12.291   4.317  1.00  0.00     0.017 C 
HETATM   29  C1  UNL     1     -15.125 -11.094   3.659  1.00  0.00     0.055 C 
HETATM   30  C3  UNL     1     -16.279 -13.204   3.558  1.00  0.00     0.096 C 
HETATM   31 CL1  UNL     1     -16.411 -13.050   1.822  1.00  0.00    -0.096 Cl
ENDBRANCH   1  28
TORSDOF 5
ENDMDL
