MODEL 1
REMARK VINA RESULT: -8.636651612      0.000      0.000
REMARK  7 active torsions:
REMARK  status: ('A' for Active; 'I' for Inactive)
REMARK    1  A    between atoms: O1_2  and  C2_3 
REMARK    2  A    between atoms: C5_7  and  C6_8 
REMARK    3  A    between atoms: C6_8  and  O2_9 
REMARK    4  A    between atoms: C6_8  and  N1_11 
REMARK    5  A    between atoms: C9_14  and  N2_15 
REMARK    6  A    between atoms: N2_15  and  C10_17 
REMARK    7  A    between atoms: C10_17  and  N3_19 
REMARK       I    between atoms: C11_21  and  N4_22 
REMARK       I    between atoms: C11_21  and  N6_26 
ROOT
HETATM    1  N3  UNL     1     -15.476  -9.166   5.508  1.00  0.00    -0.165 N 
ATOM      2  H3  UNL     1     -14.757  -9.530   4.882  1.00  0.00     0.186 HD
HETATM    3  C11 UNL     1     -15.067  -9.040   6.667  1.00  0.00     0.691 C 
HETATM    4  N4  UNL     1     -15.729  -8.576   7.831  1.00  0.00    -0.126 N 
ATOM      5  H4  UNL     1     -15.937  -7.582   7.928  1.00  0.00     0.197 HD
HETATM    6  C12 UNL     1     -16.102  -9.457   8.849  1.00  0.00     0.196 C 
HETATM    7  N5  UNL     1     -16.408 -10.208   9.684  1.00  0.00    -0.171 NA
HETATM    8  N6  UNL     1     -13.688  -9.420   6.905  1.00  0.00    -0.213 N 
HETATM    9  C13 UNL     1     -12.654  -8.485   7.245  1.00  0.00     0.167 C 
HETATM   10  C14 UNL     1     -11.720  -9.055   8.311  1.00  0.00     0.188 C 
HETATM   11  O3  UNL     1     -11.372 -10.365   7.957  1.00  0.00    -0.388 OA
HETATM   12  C15 UNL     1     -12.493 -11.168   7.993  1.00  0.00     0.188 C 
HETATM   13  C16 UNL     1     -13.372 -10.817   6.786  1.00  0.00     0.167 C 
ENDROOT
BRANCH   1  14
HETATM   14  C10 UNL     1     -16.688  -8.932   4.845  1.00  0.00     0.191 C 
HETATM   15  S1  UNL     1     -17.109  -7.324   4.810  1.00  0.00    -0.040 SA
BRANCH  14  16
HETATM   16  N2  UNL     1     -17.464  -9.890   4.209  1.00  0.00    -0.332 N 
ATOM     17  H2  UNL     1     -18.134 -10.397   4.786  1.00  0.00     0.168 HD
BRANCH  16  18
HETATM   18  C9  UNL     1     -17.416 -10.230   2.844  1.00  0.00     0.054 A 
HETATM   19  C5  UNL     1     -16.739 -11.422   2.416  1.00  0.00     0.080 A 
HETATM   20  C4  UNL     1     -16.842 -11.854   1.115  1.00  0.00     0.135 A 
HETATM   21  C3  UNL     1     -17.611 -11.116   0.212  1.00  0.00     0.080 A 
HETATM   22  F1  UNL     1     -16.188 -12.942   0.607  1.00  0.00    -0.205 F 
HETATM   23  C2  UNL     1     -18.266  -9.980   0.574  1.00  0.00     0.073 A 
HETATM   24  C17 UNL     1     -18.150  -9.561   1.897  1.00  0.00     0.067 A 
BRANCH  19  25
HETATM   25  C6  UNL     1     -15.826 -11.998   3.347  1.00  0.00     0.153 C 
BRANCH  25  26
HETATM   26  O2  UNL     1     -14.700 -11.289   3.467  1.00  0.00    -0.345 OA
ATOM     27  H2  UNL     1     -14.760 -10.619   4.137  1.00  0.00     0.219 HD
ENDBRANCH  25  26
BRANCH  25  28
HETATM   28  N1  UNL     1     -15.792 -13.110   4.180  1.00  0.00    -0.370 N 
HETATM   29  C7  UNL     1     -15.879 -14.479   3.503  1.00  0.00     0.151 C 
HETATM   30  C8  UNL     1     -15.601 -13.268   5.589  1.00  0.00     0.151 C 
ENDBRANCH  25  28
ENDBRANCH  19  25
BRANCH  23  31
HETATM   31  O1  UNL     1     -19.015  -9.270  -0.331  1.00  0.00    -0.356 OA
HETATM   32  C1  UNL     1     -19.085  -9.610  -1.698  1.00  0.00     0.210 C 
ENDBRANCH  23  31
ENDBRANCH  16  18
ENDBRANCH  14  16
ENDBRANCH   1  14
TORSDOF 7
ENDMDL
MODEL 2
REMARK VINA RESULT: -8.412420688      2.984      7.613
REMARK  7 active torsions:
REMARK  status: ('A' for Active; 'I' for Inactive)
REMARK    1  A    between atoms: O1_2  and  C2_3 
REMARK    2  A    between atoms: C5_7  and  C6_8 
REMARK    3  A    between atoms: C6_8  and  O2_9 
REMARK    4  A    between atoms: C6_8  and  N1_11 
REMARK    5  A    between atoms: C9_14  and  N2_15 
REMARK    6  A    between atoms: N2_15  and  C10_17 
REMARK    7  A    between atoms: C10_17  and  N3_19 
REMARK       I    between atoms: C11_21  and  N4_22 
REMARK       I    between atoms: C11_21  and  N6_26 
ROOT
HETATM    1  N3  UNL     1     -16.847 -11.242   2.735  1.00  0.00    -0.165 N 
ATOM      2  H3  UNL     1     -16.151 -10.539   2.488  1.00  0.00     0.186 HD
HETATM    3  C11 UNL     1     -17.796 -11.260   1.945  1.00  0.00     0.691 C 
HETATM    4  N4  UNL     1     -18.958 -12.071   1.921  1.00  0.00    -0.126 N 
ATOM      5  H4  UNL     1     -18.880 -13.053   1.657  1.00  0.00     0.197 HD
HETATM    6  C12 UNL     1     -20.210 -11.547   2.254  1.00  0.00     0.196 C 
HETATM    7  N5  UNL     1     -21.243 -11.094   2.539  1.00  0.00    -0.171 NA
HETATM    8  N6  UNL     1     -17.738 -10.308   0.853  1.00  0.00    -0.213 N 
HETATM    9  C13 UNL     1     -17.572 -10.686  -0.521  1.00  0.00     0.167 C 
HETATM   10  C14 UNL     1     -18.452  -9.838  -1.439  1.00  0.00     0.188 C 
HETATM   11  O3  UNL     1     -18.323  -8.492  -1.077  1.00  0.00    -0.388 OA
HETATM   12  C15 UNL     1     -18.835  -8.302   0.190  1.00  0.00     0.188 C 
HETATM   13  C16 UNL     1     -17.858  -8.918   1.199  1.00  0.00     0.167 C 
ENDROOT
BRANCH   1  14
HETATM   14  C10 UNL     1     -16.493 -11.954   3.890  1.00  0.00     0.191 C 
HETATM   15  S1  UNL     1     -15.882 -13.464   3.560  1.00  0.00    -0.040 SA
BRANCH  14  16
HETATM   16  N2  UNL     1     -16.563 -11.477   5.191  1.00  0.00    -0.332 N 
ATOM     17  H2  UNL     1     -17.276 -11.886   5.794  1.00  0.00     0.168 HD
BRANCH  16  18
HETATM   18  C9  UNL     1     -15.743 -10.483   5.759  1.00  0.00     0.054 A 
HETATM   19  C5  UNL     1     -16.315  -9.251   6.226  1.00  0.00     0.080 A 
HETATM   20  C4  UNL     1     -15.554  -8.357   6.941  1.00  0.00     0.135 A 
HETATM   21  C3  UNL     1     -14.217  -8.660   7.208  1.00  0.00     0.080 A 
HETATM   22  F1  UNL     1     -15.998  -7.137   7.374  1.00  0.00    -0.205 F 
HETATM   23  C2  UNL     1     -13.636  -9.814   6.782  1.00  0.00     0.073 A 
HETATM   24  C17 UNL     1     -14.423 -10.707   6.060  1.00  0.00     0.067 A 
BRANCH  19  25
HETATM   25  C6  UNL     1     -17.620  -8.937   5.743  1.00  0.00     0.153 C 
BRANCH  25  26
HETATM   26  O2  UNL     1     -18.577  -9.635   6.362  1.00  0.00    -0.345 OA
ATOM     27  H2  UNL     1     -18.570  -9.509   7.303  1.00  0.00     0.219 HD
ENDBRANCH  25  26
BRANCH  25  28
HETATM   28  N1  UNL     1     -18.173  -8.085   4.795  1.00  0.00    -0.370 N 
HETATM   29  C7  UNL     1     -19.613  -8.375   4.369  1.00  0.00     0.151 C 
HETATM   30  C8  UNL     1     -17.701  -6.893   4.161  1.00  0.00     0.151 C 
ENDBRANCH  25  28
ENDBRANCH  19  25
BRANCH  23  31
HETATM   31  O1  UNL     1     -12.319 -10.090   7.053  1.00  0.00    -0.356 OA
HETATM   32  C1  UNL     1     -11.920 -11.044   8.013  1.00  0.00     0.210 C 
ENDBRANCH  23  31
ENDBRANCH  16  18
ENDBRANCH  14  16
ENDBRANCH   1  14
TORSDOF 7
ENDMDL
MODEL 3
REMARK VINA RESULT: -8.380858350      2.885      7.654
REMARK  7 active torsions:
REMARK  status: ('A' for Active; 'I' for Inactive)
REMARK    1  A    between atoms: O1_2  and  C2_3 
REMARK    2  A    between atoms: C5_7  and  C6_8 
REMARK    3  A    between atoms: C6_8  and  O2_9 
REMARK    4  A    between atoms: C6_8  and  N1_11 
REMARK    5  A    between atoms: C9_14  and  N2_15 
REMARK    6  A    between atoms: N2_15  and  C10_17 
REMARK    7  A    between atoms: C10_17  and  N3_19 
REMARK       I    between atoms: C11_21  and  N4_22 
REMARK       I    between atoms: C11_21  and  N6_26 
ROOT
HETATM    1  N3  UNL     1     -16.851 -11.246   2.753  1.00  0.00    -0.165 N 
ATOM      2  H3  UNL     1     -16.154 -10.539   2.521  1.00  0.00     0.186 HD
HETATM    3  C11 UNL     1     -17.801 -11.244   1.964  1.00  0.00     0.691 C 
HETATM    4  N4  UNL     1     -18.966 -12.051   1.923  1.00  0.00    -0.126 N 
ATOM      5  H4  UNL     1     -18.891 -13.026   1.637  1.00  0.00     0.197 HD
HETATM    6  C12 UNL     1     -20.216 -11.530   2.269  1.00  0.00     0.196 C 
HETATM    7  N5  UNL     1     -21.248 -11.081   2.566  1.00  0.00    -0.171 NA
HETATM    8  N6  UNL     1     -17.742 -10.267   0.894  1.00  0.00    -0.213 N 
HETATM    9  C13 UNL     1     -17.579 -10.614  -0.489  1.00  0.00     0.167 C 
HETATM   10  C14 UNL     1     -18.457  -9.744  -1.387  1.00  0.00     0.188 C 
HETATM   11  O3  UNL     1     -18.324  -8.406  -0.994  1.00  0.00    -0.388 OA
HETATM   12  C15 UNL     1     -18.834  -8.243   0.277  1.00  0.00     0.188 C 
HETATM   13  C16 UNL     1     -17.858  -8.885   1.271  1.00  0.00     0.167 C 
ENDROOT
BRANCH   1  14
HETATM   14  C10 UNL     1     -16.498 -11.985   3.891  1.00  0.00     0.191 C 
HETATM   15  S1  UNL     1     -15.856 -13.474   3.526  1.00  0.00    -0.040 SA
BRANCH  14  16
HETATM   16  N2  UNL     1     -16.591 -11.546   5.204  1.00  0.00    -0.332 N 
ATOM     17  H2  UNL     1     -17.463 -11.743   5.695  1.00  0.00     0.168 HD
BRANCH  16  18
HETATM   18  C9  UNL     1     -15.598 -10.856   5.925  1.00  0.00     0.054 A 
HETATM   19  C5  UNL     1     -15.751  -9.458   6.214  1.00  0.00     0.080 A 
HETATM   20  C4  UNL     1     -14.879  -8.823   7.067  1.00  0.00     0.135 A 
HETATM   21  C3  UNL     1     -13.840  -9.554   7.647  1.00  0.00     0.080 A 
HETATM   22  F1  UNL     1     -14.914  -7.486   7.354  1.00  0.00    -0.205 F 
HETATM   23  C2  UNL     1     -13.657 -10.879   7.398  1.00  0.00     0.073 A 
HETATM   24  C17 UNL     1     -14.552 -11.504   6.533  1.00  0.00     0.067 A 
BRANCH  19  25
HETATM   25  C6  UNL     1     -16.712  -8.752   5.432  1.00  0.00     0.153 C 
BRANCH  25  26
HETATM   26  O2  UNL     1     -16.265  -8.468   4.205  1.00  0.00    -0.345 OA
ATOM     27  H2  UNL     1     -16.839  -8.797   3.523  1.00  0.00     0.219 HD
ENDBRANCH  25  26
BRANCH  25  28
HETATM   28  N1  UNL     1     -18.008  -8.279   5.601  1.00  0.00    -0.370 N 
HETATM   29  C7  UNL     1     -19.110  -9.006   4.829  1.00  0.00     0.151 C 
HETATM   30  C8  UNL     1     -18.576  -7.269   6.439  1.00  0.00     0.151 C 
ENDBRANCH  25  28
ENDBRANCH  19  25
BRANCH  23  31
HETATM   31  O1  UNL     1     -12.627 -11.578   7.977  1.00  0.00    -0.356 OA
HETATM   32  C1  UNL     1     -11.603 -10.953   8.719  1.00  0.00     0.210 C 
ENDBRANCH  23  31
ENDBRANCH  16  18
ENDBRANCH  14  16
ENDBRANCH   1  14
TORSDOF 7
ENDMDL
MODEL 4
REMARK VINA RESULT: -8.357599229      2.556      3.938
REMARK  7 active torsions:
REMARK  status: ('A' for Active; 'I' for Inactive)
REMARK    1  A    between atoms: O1_2  and  C2_3 
REMARK    2  A    between atoms: C5_7  and  C6_8 
REMARK    3  A    between atoms: C6_8  and  O2_9 
REMARK    4  A    between atoms: C6_8  and  N1_11 
REMARK    5  A    between atoms: C9_14  and  N2_15 
REMARK    6  A    between atoms: N2_15  and  C10_17 
REMARK    7  A    between atoms: C10_17  and  N3_19 
REMARK       I    between atoms: C11_21  and  N4_22 
REMARK       I    between atoms: C11_21  and  N6_26 
ROOT
HETATM    1  N3  UNL     1     -14.463 -10.526   5.142  1.00  0.00    -0.165 N 
ATOM      2  H3  UNL     1     -13.580 -10.947   4.856  1.00  0.00     0.186 HD
HETATM    3  C11 UNL     1     -14.370  -9.931   6.221  1.00  0.00     0.691 C 
HETATM    4  N4  UNL     1     -15.343  -9.218   6.966  1.00  0.00    -0.126 N 
ATOM      5  H4  UNL     1     -15.664  -8.310   6.633  1.00  0.00     0.197 HD
HETATM    6  C12 UNL     1     -15.869  -9.741   8.150  1.00  0.00     0.196 C 
HETATM    7  N5  UNL     1     -16.300 -10.195   9.131  1.00  0.00    -0.171 NA
HETATM    8  N6  UNL     1     -13.063  -9.945   6.849  1.00  0.00    -0.213 N 
HETATM    9  C13 UNL     1     -12.242  -8.777   7.000  1.00  0.00     0.167 C 
HETATM   10  C14 UNL     1     -11.552  -8.759   8.364  1.00  0.00     0.188 C 
HETATM   11  O3  UNL     1     -11.001 -10.022   8.612  1.00  0.00    -0.388 OA
HETATM   12  C15 UNL     1     -12.013 -10.953   8.733  1.00  0.00     0.188 C 
HETATM   13  C16 UNL     1     -12.594 -11.212   7.337  1.00  0.00     0.167 C 
ENDROOT
BRANCH   1  14
HETATM   14  C10 UNL     1     -15.489 -10.764   4.217  1.00  0.00     0.191 C 
HETATM   15  S1  UNL     1     -16.428 -12.078   4.611  1.00  0.00    -0.040 SA
BRANCH  14  16
HETATM   16  N2  UNL     1     -15.779  -9.982   3.108  1.00  0.00    -0.332 N 
ATOM     17  H2  UNL     1     -15.253 -10.177   2.257  1.00  0.00     0.168 HD
BRANCH  16  18
HETATM   18  C9  UNL     1     -16.730  -8.946   3.044  1.00  0.00     0.054 A 
HETATM   19  C5  UNL     1     -17.449  -8.695   1.827  1.00  0.00     0.080 A 
HETATM   20  C4  UNL     1     -18.501  -7.810   1.808  1.00  0.00     0.135 A 
HETATM   21  C3  UNL     1     -18.861  -7.155   2.988  1.00  0.00     0.080 A 
HETATM   22  F1  UNL     1     -19.203  -7.467   0.685  1.00  0.00    -0.205 F 
HETATM   23  C2  UNL     1     -18.205  -7.362   4.162  1.00  0.00     0.073 A 
HETATM   24  C17 UNL     1     -17.144  -8.263   4.160  1.00  0.00     0.067 A 
BRANCH  19  25
HETATM   25  C6  UNL     1     -16.893  -9.253   0.638  1.00  0.00     0.153 C 
BRANCH  25  26
HETATM   26  O2  UNL     1     -15.754  -8.655   0.274  1.00  0.00    -0.345 OA
ATOM     27  H2  UNL     1     -15.466  -8.916  -0.592  1.00  0.00     0.219 HD
ENDBRANCH  25  26
BRANCH  25  28
HETATM   28  N1  UNL     1     -17.216 -10.269  -0.253  1.00  0.00    -0.370 N 
HETATM   29  C7  UNL     1     -18.370  -9.995  -1.218  1.00  0.00     0.151 C 
HETATM   30  C8  UNL     1     -16.626 -11.542  -0.536  1.00  0.00     0.151 C 
ENDBRANCH  25  28
ENDBRANCH  19  25
BRANCH  23  31
HETATM   31  O1  UNL     1     -18.575  -6.706   5.310  1.00  0.00    -0.356 OA
HETATM   32  C1  UNL     1     -17.753  -6.644   6.454  1.00  0.00     0.210 C 
ENDBRANCH  23  31
ENDBRANCH  16  18
ENDBRANCH  14  16
ENDBRANCH   1  14
TORSDOF 7
ENDMDL
MODEL 5
REMARK VINA RESULT: -8.163901243      3.433      7.384
REMARK  7 active torsions:
REMARK  status: ('A' for Active; 'I' for Inactive)
REMARK    1  A    between atoms: O1_2  and  C2_3 
REMARK    2  A    between atoms: C5_7  and  C6_8 
REMARK    3  A    between atoms: C6_8  and  O2_9 
REMARK    4  A    between atoms: C6_8  and  N1_11 
REMARK    5  A    between atoms: C9_14  and  N2_15 
REMARK    6  A    between atoms: N2_15  and  C10_17 
REMARK    7  A    between atoms: C10_17  and  N3_19 
REMARK       I    between atoms: C11_21  and  N4_22 
REMARK       I    between atoms: C11_21  and  N6_26 
ROOT
HETATM    1  N3  UNL     1     -17.011 -10.588   5.242  1.00  0.00    -0.165 N 
ATOM      2  H3  UNL     1     -17.787 -11.127   5.627  1.00  0.00     0.186 HD
HETATM    3  C11 UNL     1     -17.377  -9.497   4.792  1.00  0.00     0.691 C 
HETATM    4  N4  UNL     1     -16.632  -8.459   4.179  1.00  0.00    -0.126 N 
ATOM      5  H4  UNL     1     -16.017  -7.879   4.748  1.00  0.00     0.197 HD
HETATM    6  C12 UNL     1     -16.729  -8.217   2.806  1.00  0.00     0.196 C 
HETATM    7  N5  UNL     1     -16.818  -8.033   1.660  1.00  0.00    -0.171 NA
HETATM    8  N6  UNL     1     -18.793  -9.203   4.897  1.00  0.00    -0.213 N 
HETATM    9  C13 UNL     1     -19.330  -8.177   5.745  1.00  0.00     0.167 C 
HETATM   10  C14 UNL     1     -20.467  -7.426   5.053  1.00  0.00     0.188 C 
HETATM   11  O3  UNL     1     -21.334  -8.356   4.466  1.00  0.00    -0.388 OA
HETATM   12  C15 UNL     1     -20.679  -9.027   3.455  1.00  0.00     0.188 C 
HETATM   13  C16 UNL     1     -19.680 -10.000   4.095  1.00  0.00     0.167 C 
ENDROOT
BRANCH   1  14
HETATM   14  C10 UNL     1     -15.789 -11.266   5.351  1.00  0.00     0.191 C 
HETATM   15  S1  UNL     1     -15.424 -12.168   4.003  1.00  0.00    -0.040 SA
BRANCH  14  16
HETATM   16  N2  UNL     1     -14.906 -11.180   6.417  1.00  0.00    -0.332 N 
ATOM     17  H2  UNL     1     -15.165 -11.673   7.271  1.00  0.00     0.168 HD
BRANCH  16  18
HETATM   18  C9  UNL     1     -13.685 -10.479   6.433  1.00  0.00     0.054 A 
HETATM   19  C5  UNL     1     -13.581  -9.218   7.112  1.00  0.00     0.080 A 
HETATM   20  C4  UNL     1     -12.356  -8.619   7.286  1.00  0.00     0.135 A 
HETATM   21  C3  UNL     1     -11.213  -9.250   6.792  1.00  0.00     0.080 A 
HETATM   22  F1  UNL     1     -12.170  -7.394   7.868  1.00  0.00    -0.205 F 
HETATM   23  C2  UNL     1     -11.266 -10.443   6.140  1.00  0.00     0.073 A 
HETATM   24  C17 UNL     1     -12.516 -11.034   5.976  1.00  0.00     0.067 A 
BRANCH  19  25
HETATM   25  C6  UNL     1     -14.810  -8.557   7.407  1.00  0.00     0.153 C 
BRANCH  25  26
HETATM   26  O2  UNL     1     -15.062  -7.546   6.571  1.00  0.00    -0.345 OA
ATOM     27  H2  UNL     1     -14.552  -7.598   5.771  1.00  0.00     0.219 HD
ENDBRANCH  25  26
BRANCH  25  28
HETATM   28  N1  UNL     1     -15.833  -8.686   8.339  1.00  0.00    -0.370 N 
HETATM   29  C7  UNL     1     -16.836  -7.534   8.421  1.00  0.00     0.151 C 
HETATM   30  C8  UNL     1     -16.221  -9.743   9.222  1.00  0.00     0.151 C 
ENDBRANCH  25  28
ENDBRANCH  19  25
BRANCH  23  31
HETATM   31  O1  UNL     1     -10.130 -11.045   5.661  1.00  0.00    -0.356 OA
HETATM   32  C1  UNL     1      -8.833 -10.576   5.959  1.00  0.00     0.210 C 
ENDBRANCH  23  31
ENDBRANCH  16  18
ENDBRANCH  14  16
ENDBRANCH   1  14
TORSDOF 7
ENDMDL
