MODEL 1
REMARK VINA RESULT: -7.996783514      0.000      0.000
REMARK  7 active torsions:
REMARK  status: ('A' for Active; 'I' for Inactive)
REMARK    1  A    between atoms: C3_3  and  C4_4 
REMARK    2  A    between atoms: C5_6  and  N1_7 
REMARK    3  A    between atoms: C5_6  and  C12_18 
REMARK    4  A    between atoms: N1_7  and  C6_9 
REMARK    5  A    between atoms: C6_9  and  N2_11 
REMARK    6  A    between atoms: C12_18  and  N5_26 
REMARK    7  A    between atoms: N4_19  and  C13_21 
REMARK       I    between atoms: N5_26  and  C18_28 
ROOT
HETATM    1  C1  UNL     1     -22.822  -9.355   1.194  1.00  0.00     0.112 C 
HETATM    2  C2  UNL     1     -21.777  -9.518   2.172  1.00  0.00    -0.105 C 
HETATM    3  C3  UNL     1     -20.887  -9.670   2.985  1.00  0.00    -0.052 C 
ENDROOT
BRANCH   3   4
HETATM    4  C4  UNL     1     -19.819  -9.814   3.888  1.00  0.00     0.117 C 
HETATM    5 CL1  UNL     1     -20.271  -8.991   5.507  1.00  0.00    -0.072 Cl
HETATM    6  C5  UNL     1     -18.681 -10.305   3.906  1.00  0.00     0.109 C 
BRANCH   6   7
HETATM    7  N1  UNL     1     -18.073 -10.073   5.294  1.00  0.00    -0.328 N 
ATOM      8  H1  UNL     1     -18.493 -10.497   6.121  1.00  0.00     0.168 HD
BRANCH   7   9
HETATM    9  C6  UNL     1     -16.939  -9.275   5.407  1.00  0.00     0.174 C 
HETATM   10  S1  UNL     1     -16.913  -7.795   4.725  1.00  0.00    -0.041 SA
BRANCH   9  11
HETATM   11  N2  UNL     1     -15.799  -9.706   6.117  1.00  0.00    -0.355 N 
HETATM   12  C7  UNL     1     -15.391 -11.092   6.158  1.00  0.00     0.155 C 
HETATM   13  C8  UNL     1     -13.869 -11.195   6.115  1.00  0.00     0.291 C 
HETATM   14  N3  UNL     1     -13.254 -10.486   7.215  1.00  0.00     0.087 N 
HETATM   15  C9  UNL     1     -12.062  -9.775   6.793  1.00  0.00     0.310 C 
HETATM   16  C10 UNL     1     -14.192  -9.606   7.883  1.00  0.00     0.291 C 
HETATM   17  C11 UNL     1     -14.951  -8.769   6.863  1.00  0.00     0.155 C 
ENDBRANCH   9  11
ENDBRANCH   7   9
ENDBRANCH   6   7
BRANCH   6  18
HETATM   18  C12 UNL     1     -17.754 -11.026   3.118  1.00  0.00     0.133 C 
HETATM   19  N4  UNL     1     -17.490 -10.591   1.906  1.00  0.00    -0.370 N 
ATOM     20  H4  UNL     1     -16.815 -11.291   1.599  1.00  0.00     0.161 HD
BRANCH  19  21
HETATM   21  C13 UNL     1     -17.543  -9.845   0.864  1.00  0.00     0.083 C 
HETATM   22  C14 UNL     1     -17.827  -8.311   1.173  1.00  0.00     0.025 C 
HETATM   23  C15 UNL     1     -17.839  -7.799  -0.249  1.00  0.00     0.002 C 
HETATM   24  C16 UNL     1     -18.606  -8.846  -1.012  1.00  0.00     0.002 C 
HETATM   25  C17 UNL     1     -18.790 -10.013  -0.071  1.00  0.00     0.025 C 
ENDBRANCH  19  21
BRANCH  18  26
HETATM   26  N5  UNL     1     -17.008 -12.195   3.412  1.00  0.00    -0.312 N 
HETATM   27  C18 UNL     1     -16.944 -13.547   3.379  1.00  0.00     0.219 C 
HETATM   28  C19 UNL     1     -15.625 -14.178   3.961  1.00  0.00     0.117 C 
HETATM   29  O1  UNL     1     -17.694 -14.452   2.991  1.00  0.00    -0.274 OA
ATOM     30  H5  UNL     1     -16.136 -11.878   3.834  1.00  0.00     0.170 HD
ENDBRANCH  18  26
ENDBRANCH   6  18
ENDBRANCH   3   4
TORSDOF 7
ENDMDL
MODEL 2
REMARK VINA RESULT: -7.961390780      2.463      4.675
REMARK  7 active torsions:
REMARK  status: ('A' for Active; 'I' for Inactive)
REMARK    1  A    between atoms: C3_3  and  C4_4 
REMARK    2  A    between atoms: C5_6  and  N1_7 
REMARK    3  A    between atoms: C5_6  and  C12_18 
REMARK    4  A    between atoms: N1_7  and  C6_9 
REMARK    5  A    between atoms: C6_9  and  N2_11 
REMARK    6  A    between atoms: C12_18  and  N5_26 
REMARK    7  A    between atoms: N4_19  and  C13_21 
REMARK       I    between atoms: N5_26  and  C18_28 
ROOT
HETATM    1  C1  UNL     1     -19.281 -10.085  -2.914  1.00  0.00     0.112 C 
HETATM    2  C2  UNL     1     -18.765  -9.697  -1.626  1.00  0.00    -0.105 C 
HETATM    3  C3  UNL     1     -18.338  -9.388  -0.532  1.00  0.00    -0.052 C 
ENDROOT
BRANCH   3   4
HETATM    4  C4  UNL     1     -17.798  -9.073   0.728  1.00  0.00     0.117 C 
HETATM    5 CL1  UNL     1     -16.566  -7.678   0.533  1.00  0.00    -0.072 Cl
HETATM    6  C5  UNL     1     -17.893  -9.462   1.900  1.00  0.00     0.109 C 
BRANCH   6   7
HETATM    7  N1  UNL     1     -16.964  -8.610   2.773  1.00  0.00    -0.328 N 
ATOM      8  H1  UNL     1     -15.960  -8.592   2.597  1.00  0.00     0.168 HD
BRANCH   7   9
HETATM    9  C6  UNL     1     -17.514  -7.862   3.809  1.00  0.00     0.174 C 
HETATM   10  S1  UNL     1     -18.821  -6.927   3.536  1.00  0.00    -0.041 SA
BRANCH   9  11
HETATM   11  N2  UNL     1     -16.979  -7.900   5.114  1.00  0.00    -0.355 N 
HETATM   12  C7  UNL     1     -17.372  -6.960   6.139  1.00  0.00     0.155 C 
HETATM   13  C8  UNL     1     -17.452  -7.661   7.493  1.00  0.00     0.291 C 
HETATM   14  N3  UNL     1     -16.190  -8.263   7.859  1.00  0.00     0.087 N 
HETATM   15  C9  UNL     1     -16.378  -9.562   8.476  1.00  0.00     0.310 C 
HETATM   16  C10 UNL     1     -15.277  -8.331   6.735  1.00  0.00     0.291 C 
HETATM   17  C11 UNL     1     -15.983  -8.902   5.514  1.00  0.00     0.155 C 
ENDBRANCH   9  11
ENDBRANCH   7   9
ENDBRANCH   6   7
BRANCH   6  18
HETATM   18  C12 UNL     1     -18.570 -10.390   2.727  1.00  0.00     0.133 C 
HETATM   19  N4  UNL     1     -17.922 -11.461   3.128  1.00  0.00    -0.370 N 
ATOM     20  H4  UNL     1     -18.643 -11.918   3.685  1.00  0.00     0.161 HD
BRANCH  19  21
HETATM   21  C13 UNL     1     -16.958 -12.297   3.263  1.00  0.00     0.083 C 
HETATM   22  C14 UNL     1     -17.390 -13.820   3.114  1.00  0.00     0.025 C 
HETATM   23  C15 UNL     1     -16.039 -14.456   3.354  1.00  0.00     0.002 C 
HETATM   24  C16 UNL     1     -15.458 -13.666   4.497  1.00  0.00     0.002 C 
HETATM   25  C17 UNL     1     -16.368 -12.478   4.703  1.00  0.00     0.025 C 
ENDBRANCH  19  21
BRANCH  18  26
HETATM   26  N5  UNL     1     -19.891 -10.374   3.238  1.00  0.00    -0.312 N 
HETATM   27  C18 UNL     1     -21.218 -10.412   2.973  1.00  0.00     0.219 C 
HETATM   28  C19 UNL     1     -22.163 -10.343   4.230  1.00  0.00     0.117 C 
HETATM   29  O1  UNL     1     -21.906 -10.490   1.948  1.00  0.00    -0.274 OA
ATOM     30  H5  UNL     1     -19.804 -10.303   4.252  1.00  0.00     0.170 HD
ENDBRANCH  18  26
ENDBRANCH   6  18
ENDBRANCH   3   4
TORSDOF 7
ENDMDL
MODEL 3
REMARK VINA RESULT: -7.927731492      3.300      5.031
REMARK  7 active torsions:
REMARK  status: ('A' for Active; 'I' for Inactive)
REMARK    1  A    between atoms: C3_3  and  C4_4 
REMARK    2  A    between atoms: C5_6  and  N1_7 
REMARK    3  A    between atoms: C5_6  and  C12_18 
REMARK    4  A    between atoms: N1_7  and  C6_9 
REMARK    5  A    between atoms: C6_9  and  N2_11 
REMARK    6  A    between atoms: C12_18  and  N5_26 
REMARK    7  A    between atoms: N4_19  and  C13_21 
REMARK       I    between atoms: N5_26  and  C18_28 
ROOT
HETATM    1  C1  UNL     1     -19.171 -10.368  -2.929  1.00  0.00     0.112 C 
HETATM    2  C2  UNL     1     -19.170  -9.760  -1.624  1.00  0.00    -0.105 C 
HETATM    3  C3  UNL     1     -19.181  -9.264  -0.514  1.00  0.00    -0.052 C 
ENDROOT
BRANCH   3   4
HETATM    4  C4  UNL     1     -19.150  -8.731   0.786  1.00  0.00     0.117 C 
HETATM    5 CL1  UNL     1     -18.436  -7.002   0.723  1.00  0.00    -0.072 Cl
HETATM    6  C5  UNL     1     -19.438  -9.084   1.939  1.00  0.00     0.109 C 
BRANCH   6   7
HETATM    7  N1  UNL     1     -19.122  -7.928   2.895  1.00  0.00    -0.328 N 
ATOM      8  H1  UNL     1     -19.520  -7.002   2.738  1.00  0.00     0.168 HD
BRANCH   7   9
HETATM    9  C6  UNL     1     -18.284  -8.163   3.980  1.00  0.00     0.174 C 
HETATM   10  S1  UNL     1     -16.782  -8.751   3.739  1.00  0.00    -0.041 SA
BRANCH   9  11
HETATM   11  N2  UNL     1     -18.691  -7.890   5.303  1.00  0.00    -0.355 N 
HETATM   12  C7  UNL     1     -20.056  -7.549   5.637  1.00  0.00     0.155 C 
HETATM   13  C8  UNL     1     -20.445  -8.182   6.971  1.00  0.00     0.291 C 
HETATM   14  N3  UNL     1     -19.573  -7.753   8.041  1.00  0.00     0.087 N 
HETATM   15  C9  UNL     1     -19.248  -8.847   8.936  1.00  0.00     0.310 C 
HETATM   16  C10 UNL     1     -18.379  -7.103   7.537  1.00  0.00     0.291 C 
HETATM   17  C11 UNL     1     -17.750  -7.935   6.429  1.00  0.00     0.155 C 
ENDBRANCH   9  11
ENDBRANCH   7   9
ENDBRANCH   6   7
BRANCH   6  18
HETATM   18  C12 UNL     1     -19.980 -10.157   2.686  1.00  0.00     0.133 C 
HETATM   19  N4  UNL     1     -19.367 -11.319   2.647  1.00  0.00    -0.370 N 
ATOM     20  H4  UNL     1     -19.970 -11.868   3.259  1.00  0.00     0.161 HD
BRANCH  19  21
HETATM   21  C13 UNL     1     -18.492 -12.201   2.328  1.00  0.00     0.083 C 
HETATM   22  C14 UNL     1     -17.310 -12.356   3.381  1.00  0.00     0.025 C 
HETATM   23  C15 UNL     1     -16.514 -13.422   2.661  1.00  0.00     0.002 C 
HETATM   24  C16 UNL     1     -16.547 -12.996   1.217  1.00  0.00     0.002 C 
HETATM   25  C17 UNL     1     -17.543 -11.863   1.128  1.00  0.00     0.025 C 
ENDBRANCH  19  21
BRANCH  18  26
HETATM   26  N5  UNL     1     -21.123 -10.213   3.521  1.00  0.00    -0.312 N 
HETATM   27  C18 UNL     1     -22.357  -9.730   3.801  1.00  0.00     0.219 C 
HETATM   28  C19 UNL     1     -23.078 -10.388   5.036  1.00  0.00     0.117 C 
HETATM   29  O1  UNL     1     -23.093  -8.865   3.310  1.00  0.00    -0.274 OA
ATOM     30  H5  UNL     1     -20.932 -10.932   4.218  1.00  0.00     0.170 HD
ENDBRANCH  18  26
ENDBRANCH   6  18
ENDBRANCH   3   4
TORSDOF 7
ENDMDL
MODEL 4
REMARK VINA RESULT: -7.914795435      3.160      4.982
REMARK  7 active torsions:
REMARK  status: ('A' for Active; 'I' for Inactive)
REMARK    1  A    between atoms: C3_3  and  C4_4 
REMARK    2  A    between atoms: C5_6  and  N1_7 
REMARK    3  A    between atoms: C5_6  and  C12_18 
REMARK    4  A    between atoms: N1_7  and  C6_9 
REMARK    5  A    between atoms: C6_9  and  N2_11 
REMARK    6  A    between atoms: C12_18  and  N5_26 
REMARK    7  A    between atoms: N4_19  and  C13_21 
REMARK       I    between atoms: N5_26  and  C18_28 
ROOT
HETATM    1  C1  UNL     1     -16.170 -12.993  -0.541  1.00  0.00     0.112 C 
HETATM    2  C2  UNL     1     -16.632 -12.420   0.698  1.00  0.00    -0.105 C 
HETATM    3  C3  UNL     1     -17.003 -11.941   1.751  1.00  0.00    -0.052 C 
ENDROOT
BRANCH   3   4
HETATM    4  C4  UNL     1     -17.395 -11.337   2.959  1.00  0.00     0.117 C 
HETATM    5 CL1  UNL     1     -16.080 -11.645   4.253  1.00  0.00    -0.072 Cl
HETATM    6  C5  UNL     1     -18.354 -10.688   3.401  1.00  0.00     0.109 C 
BRANCH   6   7
HETATM    7  N1  UNL     1     -18.076 -10.349   4.870  1.00  0.00    -0.328 N 
ATOM      8  H1  UNL     1     -17.970 -11.091   5.561  1.00  0.00     0.168 HD
BRANCH   7   9
HETATM    9  C6  UNL     1     -17.973  -9.013   5.243  1.00  0.00     0.174 C 
HETATM   10  S1  UNL     1     -16.920  -8.031   4.478  1.00  0.00    -0.041 SA
BRANCH   9  11
HETATM   11  N2  UNL     1     -18.774  -8.467   6.268  1.00  0.00    -0.355 N 
HETATM   12  C7  UNL     1     -20.022  -7.790   5.998  1.00  0.00     0.155 C 
HETATM   13  C8  UNL     1     -21.046  -8.121   7.081  1.00  0.00     0.291 C 
HETATM   14  N3  UNL     1     -20.576  -7.743   8.394  1.00  0.00     0.087 N 
HETATM   15  C9  UNL     1     -20.919  -8.739   9.391  1.00  0.00     0.310 C 
HETATM   16  C10 UNL     1     -19.156  -7.451   8.397  1.00  0.00     0.291 C 
HETATM   17  C11 UNL     1     -18.388  -8.553   7.682  1.00  0.00     0.155 C 
ENDBRANCH   9  11
ENDBRANCH   7   9
ENDBRANCH   6   7
BRANCH   6  18
HETATM   18  C12 UNL     1     -19.599 -10.125   3.031  1.00  0.00     0.133 C 
HETATM   19  N4  UNL     1     -19.663  -9.424   1.921  1.00  0.00    -0.370 N 
ATOM     20  H4  UNL     1     -20.648  -9.160   1.925  1.00  0.00     0.161 HD
BRANCH  19  21
HETATM   21  C13 UNL     1     -19.275  -8.861   0.836  1.00  0.00     0.083 C 
HETATM   22  C14 UNL     1     -18.980  -9.874  -0.354  1.00  0.00     0.025 C 
HETATM   23  C15 UNL     1     -18.542  -8.868  -1.395  1.00  0.00     0.002 C 
HETATM   24  C16 UNL     1     -17.671  -7.905  -0.634  1.00  0.00     0.002 C 
HETATM   25  C17 UNL     1     -17.835  -8.243   0.829  1.00  0.00     0.025 C 
ENDBRANCH  19  21
BRANCH  18  26
HETATM   26  N5  UNL     1     -20.862 -10.185   3.669  1.00  0.00    -0.312 N 
HETATM   27  C18 UNL     1     -22.131  -9.717   3.735  1.00  0.00     0.219 C 
HETATM   28  C19 UNL     1     -23.037 -10.368   4.845  1.00  0.00     0.117 C 
HETATM   29  O1  UNL     1     -22.787  -8.868   3.118  1.00  0.00    -0.274 OA
ATOM     30  H5  UNL     1     -20.781 -10.893   4.398  1.00  0.00     0.170 HD
ENDBRANCH  18  26
ENDBRANCH   6  18
ENDBRANCH   3   4
TORSDOF 7
ENDMDL
MODEL 5
REMARK VINA RESULT: -7.845650748      1.225      1.398
REMARK  7 active torsions:
REMARK  status: ('A' for Active; 'I' for Inactive)
REMARK    1  A    between atoms: C3_3  and  C4_4 
REMARK    2  A    between atoms: C5_6  and  N1_7 
REMARK    3  A    between atoms: C5_6  and  C12_18 
REMARK    4  A    between atoms: N1_7  and  C6_9 
REMARK    5  A    between atoms: C6_9  and  N2_11 
REMARK    6  A    between atoms: C12_18  and  N5_26 
REMARK    7  A    between atoms: N4_19  and  C13_21 
REMARK       I    between atoms: N5_26  and  C18_28 
ROOT
HETATM    1  C1  UNL     1     -22.941  -9.610   1.243  1.00  0.00     0.112 C 
HETATM    2  C2  UNL     1     -21.997  -9.533   2.328  1.00  0.00    -0.105 C 
HETATM    3  C3  UNL     1     -21.207  -9.487   3.250  1.00  0.00    -0.052 C 
ENDROOT
BRANCH   3   4
HETATM    4  C4  UNL     1     -20.259  -9.477   4.288  1.00  0.00     0.117 C 
HETATM    5 CL1  UNL     1     -20.989  -8.609   5.776  1.00  0.00    -0.072 Cl
HETATM    6  C5  UNL     1     -19.095  -9.856   4.483  1.00  0.00     0.109 C 
BRANCH   6   7
HETATM    7  N1  UNL     1     -18.697  -9.488   5.917  1.00  0.00    -0.328 N 
ATOM      8  H1  UNL     1     -19.165  -9.923   6.712  1.00  0.00     0.168 HD
BRANCH   7   9
HETATM    9  C6  UNL     1     -17.689  -8.551   6.116  1.00  0.00     0.174 C 
HETATM   10  S1  UNL     1     -17.873  -7.026   5.570  1.00  0.00    -0.041 SA
BRANCH   9  11
HETATM   11  N2  UNL     1     -16.499  -8.878   6.800  1.00  0.00    -0.355 N 
HETATM   12  C7  UNL     1     -16.470  -9.135   8.222  1.00  0.00     0.155 C 
HETATM   13  C8  UNL     1     -15.488 -10.262   8.534  1.00  0.00     0.291 C 
HETATM   14  N3  UNL     1     -14.152  -9.947   8.080  1.00  0.00     0.087 N 
HETATM   15  C9  UNL     1     -13.501 -11.104   7.495  1.00  0.00     0.310 C 
HETATM   16  C10 UNL     1     -14.140  -8.814   7.177  1.00  0.00     0.291 C 
HETATM   17  C11 UNL     1     -15.209  -8.979   6.106  1.00  0.00     0.155 C 
ENDBRANCH   9  11
ENDBRANCH   7   9
ENDBRANCH   6   7
BRANCH   6  18
HETATM   18  C12 UNL     1     -18.013 -10.530   3.869  1.00  0.00     0.133 C 
HETATM   19  N4  UNL     1     -17.679 -10.192   2.643  1.00  0.00    -0.370 N 
ATOM     20  H4  UNL     1     -16.898 -10.828   2.481  1.00  0.00     0.161 HD
BRANCH  19  21
HETATM   21  C13 UNL     1     -17.712  -9.572   1.522  1.00  0.00     0.083 C 
HETATM   22  C14 UNL     1     -18.163  -8.050   1.631  1.00  0.00     0.025 C 
HETATM   23  C15 UNL     1     -18.101  -7.696   0.162  1.00  0.00     0.002 C 
HETATM   24  C16 UNL     1     -18.699  -8.892  -0.531  1.00  0.00     0.002 C 
HETATM   25  C17 UNL     1     -18.852  -9.965   0.522  1.00  0.00     0.025 C 
ENDBRANCH  19  21
BRANCH  18  26
HETATM   26  N5  UNL     1     -17.169 -11.556   4.362  1.00  0.00    -0.312 N 
HETATM   27  C18 UNL     1     -16.179 -12.443   4.102  1.00  0.00     0.219 C 
HETATM   28  C19 UNL     1     -15.735 -13.338   5.318  1.00  0.00     0.117 C 
HETATM   29  O1  UNL     1     -15.506 -12.741   3.108  1.00  0.00    -0.274 OA
ATOM     30  H5  UNL     1     -17.415 -11.682   5.343  1.00  0.00     0.170 HD
ENDBRANCH  18  26
ENDBRANCH   6  18
ENDBRANCH   3   4
TORSDOF 7
ENDMDL
