MODEL 1
REMARK VINA RESULT: -9.238959557      0.000      0.000
REMARK  6 active torsions:
REMARK  status: ('A' for Active; 'I' for Inactive)
REMARK    1  A    between atoms: C2_2  and  C5_5 
REMARK    2  A    between atoms: C7_7  and  O1_8 
REMARK    3  A    between atoms: C7_7  and  C8_10 
REMARK       I    between atoms: C8_10  and  N1_12 
REMARK    4  A    between atoms: C11_15  and  C12_16 
REMARK    5  A    between atoms: C17_22  and  C18_23 
REMARK       I    between atoms: C18_23  and  N2_25 
REMARK    6  A    between atoms: C20_27  and  O4_28 
ROOT
HETATM    1  C5  UNL     1     -15.388 -10.844   6.142  1.00  0.00     0.009 C 
HETATM    2  C6  UNL     1     -14.124 -11.373   6.757  1.00  0.00     0.054 C 
HETATM    3  C7  UNL     1     -12.924 -10.470   6.725  1.00  0.00     0.139 C 
HETATM    4  C15 UNL     1     -13.217  -9.070   7.185  1.00  0.00     0.049 C 
HETATM    5  C16 UNL     1     -14.693  -8.768   7.167  1.00  0.00     0.018 C 
HETATM    6  C17 UNL     1     -15.287  -9.410   5.896  1.00  0.00     0.083 C 
ENDROOT
BRANCH   3   7
HETATM    7  O1  UNL     1     -12.410 -10.402   5.453  1.00  0.00    -0.380 OA
ATOM      8  H1  UNL     1     -11.462 -10.363   5.480  1.00  0.00     0.211 HD
ENDBRANCH   3   7
BRANCH   3   9
HETATM    9  C8  UNL     1     -11.932 -11.027   7.656  1.00  0.00     0.254 C 
HETATM   10  O2  UNL     1     -12.334 -11.506   8.786  1.00  0.00    -0.270 OA
HETATM   11  N1  UNL     1     -10.559 -11.077   7.405  1.00  0.00    -0.350 N 
HETATM   12  C9  UNL     1      -9.939 -10.599   6.202  1.00  0.00     0.126 C 
HETATM   13  C14 UNL     1      -9.628 -11.645   8.396  1.00  0.00     0.126 C 
HETATM   14  C10 UNL     1      -8.430 -10.878   6.258  1.00  0.00     0.027 C 
HETATM   15  C11 UNL     1      -7.802 -10.227   7.449  1.00  0.00     0.017 C 
HETATM   16  C13 UNL     1      -8.582 -10.595   8.696  1.00  0.00     0.027 C 
BRANCH  15  17
HETATM   17  C12 UNL     1      -6.385 -10.699   7.596  1.00  0.00     0.227 C 
HETATM   18  F1  UNL     1      -6.275 -11.399   8.783  1.00  0.00    -0.255 F 
ENDBRANCH  15  17
ENDBRANCH   3   9
BRANCH   1  19
HETATM   19  C2  UNL     1     -15.816 -11.731   5.020  1.00  0.00    -0.047 C 
HETATM   20  C1  UNL     1     -15.586 -13.185   5.428  1.00  0.00     0.015 C 
HETATM   21  C3  UNL     1     -17.242 -11.638   4.610  1.00  0.00     0.015 C 
HETATM   22  C4  UNL     1     -14.996 -11.555   3.754  1.00  0.00     0.015 C 
ENDBRANCH   1  19
BRANCH   6  23
HETATM   23  C18 UNL     1     -16.521  -8.636   5.683  1.00  0.00     0.224 C 
HETATM   24  O3  UNL     1     -17.168  -8.286   6.700  1.00  0.00    -0.273 OA
HETATM   25  N2  UNL     1     -17.026  -8.263   4.422  1.00  0.00    -0.347 N 
HETATM   26  C19 UNL     1     -18.208  -7.508   4.055  1.00  0.00     0.159 C 
HETATM   27  C21 UNL     1     -16.755  -8.372   3.004  1.00  0.00     0.159 C 
HETATM   28  C20 UNL     1     -17.505  -7.044   2.824  1.00  0.00     0.154 C 
BRANCH  28  29
HETATM   29  O4  UNL     1     -18.254  -7.025   1.654  1.00  0.00    -0.392 OA
ATOM     30  H4  UNL     1     -17.928  -6.474   0.953  1.00  0.00     0.210 HD
ENDBRANCH  28  29
ENDBRANCH   6  23
TORSDOF 6
ENDMDL
MODEL 2
REMARK VINA RESULT: -9.170950582      4.257      8.787
REMARK  6 active torsions:
REMARK  status: ('A' for Active; 'I' for Inactive)
REMARK    1  A    between atoms: C2_2  and  C5_5 
REMARK    2  A    between atoms: C7_7  and  O1_8 
REMARK    3  A    between atoms: C7_7  and  C8_10 
REMARK       I    between atoms: C8_10  and  N1_12 
REMARK    4  A    between atoms: C11_15  and  C12_16 
REMARK    5  A    between atoms: C17_22  and  C18_23 
REMARK       I    between atoms: C18_23  and  N2_25 
REMARK    6  A    between atoms: C20_27  and  O4_28 
ROOT
HETATM    1  C5  UNL     1     -16.926  -9.364   6.494  1.00  0.00     0.009 C 
HETATM    2  C6  UNL     1     -17.879  -8.823   5.468  1.00  0.00     0.054 C 
HETATM    3  C7  UNL     1     -17.321  -8.549   4.101  1.00  0.00     0.139 C 
HETATM    4  C15 UNL     1     -16.504  -9.684   3.550  1.00  0.00     0.049 C 
HETATM    5  C16 UNL     1     -16.074 -10.644   4.628  1.00  0.00     0.018 C 
HETATM    6  C17 UNL     1     -15.686  -9.812   5.869  1.00  0.00     0.083 C 
ENDROOT
BRANCH   3   7
HETATM    7  O1  UNL     1     -16.530  -7.426   4.123  1.00  0.00    -0.380 OA
ATOM      8  H1  UNL     1     -16.161  -7.264   3.263  1.00  0.00     0.211 HD
ENDBRANCH   3   7
BRANCH   3   9
HETATM    9  C8  UNL     1     -18.461  -8.363   3.191  1.00  0.00     0.254 C 
HETATM   10  O2  UNL     1     -19.604  -8.015   3.683  1.00  0.00    -0.270 OA
HETATM   11  N1  UNL     1     -18.400  -8.540   1.807  1.00  0.00    -0.350 N 
HETATM   12  C9  UNL     1     -17.215  -8.917   1.092  1.00  0.00     0.126 C 
HETATM   13  C14 UNL     1     -19.593  -8.341   0.965  1.00  0.00     0.126 C 
HETATM   14  C10 UNL     1     -17.514  -8.951  -0.414  1.00  0.00     0.027 C 
HETATM   15  C11 UNL     1     -18.624  -9.905  -0.724  1.00  0.00     0.017 C 
HETATM   16  C13 UNL     1     -19.810  -9.611   0.173  1.00  0.00     0.027 C 
BRANCH  15  17
HETATM   17  C12 UNL     1     -19.038  -9.751  -2.158  1.00  0.00     0.227 C 
HETATM   18  F1  UNL     1     -20.356 -10.150  -2.281  1.00  0.00    -0.255 F 
ENDBRANCH  15  17
ENDBRANCH   3   9
BRANCH   1  19
HETATM   19  C2  UNL     1     -16.840  -8.425   7.652  1.00  0.00    -0.047 C 
HETATM   20  C1  UNL     1     -18.128  -7.607   7.716  1.00  0.00     0.015 C 
HETATM   21  C3  UNL     1     -16.676  -9.043   8.994  1.00  0.00     0.015 C 
HETATM   22  C4  UNL     1     -15.736  -7.391   7.522  1.00  0.00     0.015 C 
ENDBRANCH   1  19
BRANCH   6  23
HETATM   23  C18 UNL     1     -14.803 -10.725   6.613  1.00  0.00     0.224 C 
HETATM   24  O3  UNL     1     -15.239 -11.875   6.865  1.00  0.00    -0.273 OA
HETATM   25  N2  UNL     1     -13.508 -10.399   7.062  1.00  0.00    -0.347 N 
HETATM   26  C19 UNL     1     -12.529 -11.179   7.793  1.00  0.00     0.159 C 
HETATM   27  C21 UNL     1     -12.544  -9.320   7.084  1.00  0.00     0.159 C 
HETATM   28  C20 UNL     1     -11.444 -10.389   7.142  1.00  0.00     0.154 C 
BRANCH  28  29
HETATM   29  O4  UNL     1     -10.387 -10.004   7.957  1.00  0.00    -0.392 OA
ATOM     30  H4  UNL     1     -10.433  -9.128   8.322  1.00  0.00     0.210 HD
ENDBRANCH  28  29
ENDBRANCH   6  23
TORSDOF 6
ENDMDL
MODEL 3
REMARK VINA RESULT: -9.097002613      3.074      5.032
REMARK  6 active torsions:
REMARK  status: ('A' for Active; 'I' for Inactive)
REMARK    1  A    between atoms: C2_2  and  C5_5 
REMARK    2  A    between atoms: C7_7  and  O1_8 
REMARK    3  A    between atoms: C7_7  and  C8_10 
REMARK       I    between atoms: C8_10  and  N1_12 
REMARK    4  A    between atoms: C11_15  and  C12_16 
REMARK    5  A    between atoms: C17_22  and  C18_23 
REMARK       I    between atoms: C18_23  and  N2_25 
REMARK    6  A    between atoms: C20_27  and  O4_28 
ROOT
HETATM    1  C5  UNL     1     -18.125 -11.058   2.924  1.00  0.00     0.009 C 
HETATM    2  C6  UNL     1     -17.314 -10.643   4.118  1.00  0.00     0.054 C 
HETATM    3  C7  UNL     1     -16.367  -9.493   3.930  1.00  0.00     0.139 C 
HETATM    4  C15 UNL     1     -16.995  -8.308   3.251  1.00  0.00     0.049 C 
HETATM    5  C16 UNL     1     -18.271  -8.676   2.541  1.00  0.00     0.018 C 
HETATM    6  C17 UNL     1     -18.055 -10.050   1.872  1.00  0.00     0.083 C 
ENDROOT
BRANCH   3   7
HETATM    7  O1  UNL     1     -15.281  -9.884   3.186  1.00  0.00    -0.380 OA
ATOM      8  H1  UNL     1     -14.623  -9.199   3.176  1.00  0.00     0.211 HD
ENDBRANCH   3   7
BRANCH   3   9
HETATM    9  C8  UNL     1     -15.948  -9.047   5.266  1.00  0.00     0.254 C 
HETATM   10  O2  UNL     1     -16.383  -7.916   5.714  1.00  0.00    -0.270 OA
HETATM   11  N1  UNL     1     -15.097  -9.770   6.105  1.00  0.00    -0.350 N 
HETATM   12  C9  UNL     1     -14.528 -11.045   5.775  1.00  0.00     0.126 C 
HETATM   13  C14 UNL     1     -14.718  -9.248   7.431  1.00  0.00     0.126 C 
HETATM   14  C10 UNL     1     -13.701 -11.560   6.963  1.00  0.00     0.027 C 
HETATM   15  C11 UNL     1     -12.616 -10.595   7.326  1.00  0.00     0.017 C 
HETATM   16  C13 UNL     1     -13.208  -9.209   7.492  1.00  0.00     0.027 C 
BRANCH  15  17
HETATM   17  C12 UNL     1     -11.975 -11.016   8.616  1.00  0.00     0.227 C 
HETATM   18  F1  UNL     1     -10.808 -11.698   8.325  1.00  0.00    -0.255 F 
ENDBRANCH  15  17
ENDBRANCH   3   9
BRANCH   1  19
HETATM   19  C2  UNL     1     -17.821 -12.477   2.571  1.00  0.00    -0.047 C 
HETATM   20  C1  UNL     1     -17.115 -13.136   3.755  1.00  0.00     0.015 C 
HETATM   21  C3  UNL     1     -18.985 -13.344   2.250  1.00  0.00     0.015 C 
HETATM   22  C4  UNL     1     -16.847 -12.625   1.415  1.00  0.00     0.015 C 
ENDBRANCH   1  19
BRANCH   6  23
HETATM   23  C18 UNL     1     -19.073 -10.060   0.808  1.00  0.00     0.224 C 
HETATM   24  O3  UNL     1     -18.698 -10.373  -0.349  1.00  0.00    -0.273 OA
HETATM   25  N2  UNL     1     -20.432  -9.742   0.995  1.00  0.00    -0.347 N 
HETATM   26  C19 UNL     1     -21.540  -9.710   0.061  1.00  0.00     0.159 C 
HETATM   27  C21 UNL     1     -21.381  -9.330   2.008  1.00  0.00     0.159 C 
HETATM   28  C20 UNL     1     -22.469 -10.032   1.184  1.00  0.00     0.154 C 
BRANCH  28  29
HETATM   29  O4  UNL     1     -23.670  -9.336   1.210  1.00  0.00    -0.392 OA
ATOM     30  H4  UNL     1     -23.871  -8.870   2.013  1.00  0.00     0.210 HD
ENDBRANCH  28  29
ENDBRANCH   6  23
TORSDOF 6
ENDMDL
MODEL 4
REMARK VINA RESULT: -9.074488701      1.295      2.067
REMARK  6 active torsions:
REMARK  status: ('A' for Active; 'I' for Inactive)
REMARK    1  A    between atoms: C2_2  and  C5_5 
REMARK    2  A    between atoms: C7_7  and  O1_8 
REMARK    3  A    between atoms: C7_7  and  C8_10 
REMARK       I    between atoms: C8_10  and  N1_12 
REMARK    4  A    between atoms: C11_15  and  C12_16 
REMARK    5  A    between atoms: C17_22  and  C18_23 
REMARK       I    between atoms: C18_23  and  N2_25 
REMARK    6  A    between atoms: C20_27  and  O4_28 
ROOT
HETATM    1  C5  UNL     1     -15.424 -10.687   6.121  1.00  0.00     0.009 C 
HETATM    2  C6  UNL     1     -14.182 -11.259   6.744  1.00  0.00     0.054 C 
HETATM    3  C7  UNL     1     -12.947 -10.406   6.700  1.00  0.00     0.139 C 
HETATM    4  C15 UNL     1     -13.182  -8.989   7.141  1.00  0.00     0.049 C 
HETATM    5  C16 UNL     1     -14.644  -8.628   7.119  1.00  0.00     0.018 C 
HETATM    6  C17 UNL     1     -15.264  -9.262   5.856  1.00  0.00     0.083 C 
ENDROOT
BRANCH   3   7
HETATM    7  O1  UNL     1     -12.431 -10.376   5.428  1.00  0.00    -0.380 OA
ATOM      8  H1  UNL     1     -12.939 -10.933   4.850  1.00  0.00     0.211 HD
ENDBRANCH   3   7
BRANCH   3   9
HETATM    9  C8  UNL     1     -11.978 -10.991   7.639  1.00  0.00     0.254 C 
HETATM   10  O2  UNL     1     -12.406 -11.479   8.756  1.00  0.00    -0.270 OA
HETATM   11  N1  UNL     1     -10.602 -11.058   7.409  1.00  0.00    -0.350 N 
HETATM   12  C9  UNL     1      -9.956 -10.574   6.223  1.00  0.00     0.126 C 
HETATM   13  C14 UNL     1      -9.696 -11.654   8.407  1.00  0.00     0.126 C 
HETATM   14  C10 UNL     1      -8.452 -10.877   6.298  1.00  0.00     0.027 C 
HETATM   15  C11 UNL     1      -7.834 -10.252   7.509  1.00  0.00     0.017 C 
HETATM   16  C13 UNL     1      -8.640 -10.624   8.738  1.00  0.00     0.027 C 
BRANCH  15  17
HETATM   17  C12 UNL     1      -6.427 -10.747   7.671  1.00  0.00     0.227 C 
HETATM   18  F1  UNL     1      -6.317 -11.366   8.903  1.00  0.00    -0.255 F 
ENDBRANCH  15  17
ENDBRANCH   3   9
BRANCH   1  19
HETATM   19  C2  UNL     1     -15.888 -11.570   5.010  1.00  0.00    -0.047 C 
HETATM   20  C1  UNL     1     -15.735 -13.027   5.445  1.00  0.00     0.015 C 
HETATM   21  C3  UNL     1     -17.304 -11.412   4.586  1.00  0.00     0.015 C 
HETATM   22  C4  UNL     1     -15.051 -11.459   3.749  1.00  0.00     0.015 C 
ENDBRANCH   1  19
BRANCH   6  23
HETATM   23  C18 UNL     1     -16.466  -8.440   5.632  1.00  0.00     0.224 C 
HETATM   24  O3  UNL     1     -16.574  -7.863   4.523  1.00  0.00    -0.273 OA
HETATM   25  N2  UNL     1     -17.497  -8.256   6.573  1.00  0.00    -0.347 N 
HETATM   26  C19 UNL     1     -18.726  -7.491   6.501  1.00  0.00     0.159 C 
HETATM   27  C21 UNL     1     -17.900  -8.621   7.915  1.00  0.00     0.159 C 
HETATM   28  C20 UNL     1     -19.354  -8.449   7.457  1.00  0.00     0.154 C 
BRANCH  28  29
HETATM   29  O4  UNL     1     -20.151  -7.897   8.452  1.00  0.00    -0.392 OA
ATOM     30  H4  UNL     1     -19.874  -8.051   9.348  1.00  0.00     0.210 HD
ENDBRANCH  28  29
ENDBRANCH   6  23
TORSDOF 6
ENDMDL
MODEL 5
REMARK VINA RESULT: -9.029294938      2.707      3.522
REMARK  6 active torsions:
REMARK  status: ('A' for Active; 'I' for Inactive)
REMARK    1  A    between atoms: C2_2  and  C5_5 
REMARK    2  A    between atoms: C7_7  and  O1_8 
REMARK    3  A    between atoms: C7_7  and  C8_10 
REMARK       I    between atoms: C8_10  and  N1_12 
REMARK    4  A    between atoms: C11_15  and  C12_16 
REMARK    5  A    between atoms: C17_22  and  C18_23 
REMARK       I    between atoms: C18_23  and  N2_25 
REMARK    6  A    between atoms: C20_27  and  O4_28 
ROOT
HETATM    1  C5  UNL     1     -17.303 -12.108   3.700  1.00  0.00     0.009 C 
HETATM    2  C6  UNL     1     -16.255 -12.146   4.775  1.00  0.00     0.054 C 
HETATM    3  C7  UNL     1     -15.310 -10.981   4.842  1.00  0.00     0.139 C 
HETATM    4  C15 UNL     1     -16.001  -9.647   4.793  1.00  0.00     0.049 C 
HETATM    5  C16 UNL     1     -17.408  -9.760   4.267  1.00  0.00     0.018 C 
HETATM    6  C17 UNL     1     -17.394 -10.779   3.107  1.00  0.00     0.083 C 
ENDROOT
BRANCH   3   7
HETATM    7  O1  UNL     1     -14.411 -11.033   3.806  1.00  0.00    -0.380 OA
ATOM      8  H1  UNL     1     -13.626 -11.499   4.071  1.00  0.00     0.211 HD
ENDBRANCH   3   7
BRANCH   3   9
HETATM    9  C8  UNL     1     -14.616 -11.055   6.136  1.00  0.00     0.254 C 
HETATM   10  O2  UNL     1     -15.316 -11.170   7.216  1.00  0.00    -0.270 OA
HETATM   11  N1  UNL     1     -13.229 -11.008   6.288  1.00  0.00    -0.350 N 
HETATM   12  C9  UNL     1     -12.300 -10.889   5.201  1.00  0.00     0.126 C 
HETATM   13  C14 UNL     1     -12.611 -11.080   7.624  1.00  0.00     0.126 C 
HETATM   14  C10 UNL     1     -10.864 -10.935   5.746  1.00  0.00     0.027 C 
HETATM   15  C11 UNL     1     -10.629  -9.842   6.741  1.00  0.00     0.017 C 
HETATM   16  C13 UNL     1     -11.727  -9.864   7.786  1.00  0.00     0.027 C 
BRANCH  15  17
HETATM   17  C12 UNL     1      -9.303 -10.048   7.413  1.00  0.00     0.227 C 
HETATM   18  F1  UNL     1      -9.168 -11.389   7.720  1.00  0.00    -0.255 F 
ENDBRANCH  15  17
ENDBRANCH   3   9
BRANCH   1  19
HETATM   19  C2  UNL     1     -17.142 -13.282   2.791  1.00  0.00    -0.047 C 
HETATM   20  C1  UNL     1     -16.179 -14.275   3.440  1.00  0.00     0.015 C 
HETATM   21  C3  UNL     1     -18.376 -14.050   2.476  1.00  0.00     0.015 C 
HETATM   22  C4  UNL     1     -16.500 -12.942   1.459  1.00  0.00     0.015 C 
ENDBRANCH   1  19
BRANCH   6  23
HETATM   23  C18 UNL     1     -18.600 -10.420   2.342  1.00  0.00     0.224 C 
HETATM   24  O3  UNL     1     -19.677 -10.309   2.977  1.00  0.00    -0.273 OA
HETATM   25  N2  UNL     1     -18.629 -10.197   0.951  1.00  0.00    -0.347 N 
HETATM   26  C19 UNL     1     -19.721  -9.839   0.067  1.00  0.00     0.159 C 
HETATM   27  C21 UNL     1     -17.784 -10.188  -0.224  1.00  0.00     0.159 C 
HETATM   28  C20 UNL     1     -18.745  -9.155  -0.829  1.00  0.00     0.154 C 
BRANCH  28  29
HETATM   29  O4  UNL     1     -18.920  -9.346  -2.193  1.00  0.00    -0.392 OA
ATOM     30  H4  UNL     1     -19.335  -8.636  -2.669  1.00  0.00     0.210 HD
ENDBRANCH  28  29
ENDBRANCH   6  23
TORSDOF 6
ENDMDL
