MODEL 1
REMARK VINA RESULT: -8.254696584      0.000      0.000
REMARK  3 active torsions:
REMARK  status: ('A' for Active; 'I' for Inactive)
REMARK    1  A    between atoms: C13_15  and  N3_16 
REMARK       I    between atoms: N3_16  and  C14_18 
REMARK       I    between atoms: C14_18  and  N4_20 
REMARK    2  A    between atoms: N4_20  and  C15_22 
REMARK    3  A    between atoms: C15_22  and  C16_23 
ROOT
HETATM    1  C1  UNL     1     -22.713  -0.667  19.944  1.00  0.00     0.309 C 
HETATM    2  N1  UNL     1     -23.368  -1.901  19.570  1.00  0.00     0.085 N 
HETATM    3  C2  UNL     1     -22.440  -2.676  18.775  1.00  0.00     0.273 C 
HETATM    4  C3  UNL     1     -23.432  -3.649  18.118  1.00  0.00     0.044 C 
HETATM    5  C4  UNL     1     -24.516  -2.742  17.653  1.00  0.00     0.019 C 
HETATM    6  C5  UNL     1     -24.497  -1.635  18.660  1.00  0.00     0.284 C 
HETATM    7  C6  UNL     1     -24.002  -2.230  16.292  1.00  0.00     0.001 C 
HETATM    8  C7  UNL     1     -24.575  -0.966  15.830  1.00  0.00     0.010 C 
HETATM    9  C8  UNL     1     -25.129  -0.993  14.419  1.00  0.00     0.044 C 
HETATM   10  C9  UNL     1     -26.313  -1.846  14.202  1.00  0.00     0.058 C 
HETATM   11  N2  UNL     1     -26.651  -2.837  15.078  1.00  0.00    -0.386 N 
HETATM   12  C10 UNL     1     -27.998  -3.064  15.440  1.00  0.00     0.122 C 
HETATM   13  C11 UNL     1     -28.204  -2.557  16.826  1.00  0.00     0.022 C 
HETATM   14  C12 UNL     1     -27.018  -2.493  17.708  1.00  0.00     0.035 C 
HETATM   15  C13 UNL     1     -25.836  -3.349  17.346  1.00  0.00     0.065 C 
HETATM   16  C17 UNL     1     -25.785  -3.601  15.825  1.00  0.00     0.113 C 
HETATM   17  C18 UNL     1     -24.371  -3.374  15.411  1.00  0.00     0.033 C 
ENDROOT
BRANCH  15  18
HETATM   18  N3  UNL     1     -25.958  -4.624  18.004  1.00  0.00    -0.331 N 
HETATM   19  C14 UNL     1     -26.193  -4.916  19.356  1.00  0.00     0.316 C 
HETATM   20  O1  UNL     1     -26.360  -4.097  20.290  1.00  0.00    -0.247 OA
HETATM   21  N4  UNL     1     -26.252  -6.287  19.727  1.00  0.00    -0.342 N 
ATOM     22  H4  UNL     1     -26.126  -7.018  19.026  1.00  0.00     0.164 HD
ATOM     23  H3  UNL     1     -25.857  -5.436  17.396  1.00  0.00     0.165 HD
BRANCH  21  24
HETATM   24  C15 UNL     1     -26.492  -6.632  21.104  1.00  0.00     0.139 C 
BRANCH  24  25
HETATM   25  C16 UNL     1     -25.795  -7.919  21.492  1.00  0.00     0.134 C 
HETATM   26 CL1  UNL     1     -26.556  -8.616  22.940  1.00  0.00    -0.129 Cl
ENDBRANCH  24  25
ENDBRANCH  21  24
ENDBRANCH  15  18
TORSDOF 3
ENDMDL
MODEL 2
REMARK VINA RESULT: -8.231546438      1.165      1.315
REMARK  3 active torsions:
REMARK  status: ('A' for Active; 'I' for Inactive)
REMARK    1  A    between atoms: C13_15  and  N3_16 
REMARK       I    between atoms: N3_16  and  C14_18 
REMARK       I    between atoms: C14_18  and  N4_20 
REMARK    2  A    between atoms: N4_20  and  C15_22 
REMARK    3  A    between atoms: C15_22  and  C16_23 
ROOT
HETATM    1  C1  UNL     1     -24.656   0.959  19.478  1.00  0.00     0.309 C 
HETATM    2  N1  UNL     1     -24.744  -0.446  19.143  1.00  0.00     0.085 N 
HETATM    3  C2  UNL     1     -23.457  -0.866  18.635  1.00  0.00     0.273 C 
HETATM    4  C3  UNL     1     -23.882  -2.164  17.930  1.00  0.00     0.044 C 
HETATM    5  C4  UNL     1     -25.085  -1.738  17.165  1.00  0.00     0.019 C 
HETATM    6  C5  UNL     1     -25.669  -0.653  18.014  1.00  0.00     0.284 C 
HETATM    7  C6  UNL     1     -24.499  -1.139  15.870  1.00  0.00     0.001 C 
HETATM    8  C7  UNL     1     -25.359  -0.194  15.159  1.00  0.00     0.010 C 
HETATM    9  C8  UNL     1     -25.550  -0.488  13.684  1.00  0.00     0.044 C 
HETATM   10  C9  UNL     1     -26.288  -1.724  13.358  1.00  0.00     0.058 C 
HETATM   11  N2  UNL     1     -26.443  -2.727  14.271  1.00  0.00    -0.386 N 
HETATM   12  C10 UNL     1     -27.671  -3.412  14.402  1.00  0.00     0.122 C 
HETATM   13  C11 UNL     1     -28.336  -2.949  15.653  1.00  0.00     0.022 C 
HETATM   14  C12 UNL     1     -27.466  -2.415  16.726  1.00  0.00     0.035 C 
HETATM   15  C13 UNL     1     -26.013  -2.798  16.695  1.00  0.00     0.065 C 
HETATM   16  C17 UNL     1     -25.549  -3.086  15.253  1.00  0.00     0.113 C 
HETATM   17  C18 UNL     1     -24.248  -2.379  15.083  1.00  0.00     0.033 C 
ENDROOT
BRANCH  15  18
HETATM   18  N3  UNL     1     -25.824  -3.996  17.471  1.00  0.00    -0.331 N 
HETATM   19  C14 UNL     1     -26.438  -4.396  18.668  1.00  0.00     0.316 C 
HETATM   20  O1  UNL     1     -27.310  -3.772  19.317  1.00  0.00    -0.247 OA
HETATM   21  N4  UNL     1     -26.040  -5.644  19.221  1.00  0.00    -0.342 N 
ATOM     22  H4  UNL     1     -25.335  -6.214  18.754  1.00  0.00     0.164 HD
ATOM     23  H3  UNL     1     -25.142  -4.653  17.093  1.00  0.00     0.165 HD
BRANCH  21  24
HETATM   24  C15 UNL     1     -26.645  -6.092  20.448  1.00  0.00     0.139 C 
BRANCH  24  25
HETATM   25  C16 UNL     1     -25.624  -6.689  21.394  1.00  0.00     0.134 C 
HETATM   26 CL1  UNL     1     -26.429  -7.738  22.582  1.00  0.00    -0.129 Cl
ENDBRANCH  24  25
ENDBRANCH  21  24
ENDBRANCH  15  18
TORSDOF 3
ENDMDL
MODEL 3
REMARK VINA RESULT: -8.114855649      2.161      3.252
REMARK  3 active torsions:
REMARK  status: ('A' for Active; 'I' for Inactive)
REMARK    1  A    between atoms: C13_15  and  N3_16 
REMARK       I    between atoms: N3_16  and  C14_18 
REMARK       I    between atoms: C14_18  and  N4_20 
REMARK    2  A    between atoms: N4_20  and  C15_22 
REMARK    3  A    between atoms: C15_22  and  C16_23 
ROOT
HETATM    1  C1  UNL     1     -23.596  -0.561  23.673  1.00  0.00     0.309 C 
HETATM    2  N1  UNL     1     -23.473  -1.863  23.055  1.00  0.00     0.085 N 
HETATM    3  C2  UNL     1     -22.096  -2.035  22.645  1.00  0.00     0.273 C 
HETATM    4  C3  UNL     1     -22.280  -3.188  21.645  1.00  0.00     0.044 C 
HETATM    5  C4  UNL     1     -23.439  -2.731  20.832  1.00  0.00     0.019 C 
HETATM    6  C5  UNL     1     -24.240  -1.916  21.798  1.00  0.00     0.284 C 
HETATM    7  C6  UNL     1     -22.797  -1.814  19.770  1.00  0.00     0.001 C 
HETATM    8  C7  UNL     1     -23.688  -0.830  19.156  1.00  0.00     0.010 C 
HETATM    9  C8  UNL     1     -23.683  -0.820  17.640  1.00  0.00     0.044 C 
HETATM   10  C9  UNL     1     -24.223  -2.025  16.981  1.00  0.00     0.058 C 
HETATM   11  N2  UNL     1     -24.347  -3.210  17.647  1.00  0.00    -0.386 N 
HETATM   12  C10 UNL     1     -25.488  -4.026  17.478  1.00  0.00     0.122 C 
HETATM   13  C11 UNL     1     -26.334  -3.910  18.700  1.00  0.00     0.022 C 
HETATM   14  C12 UNL     1     -25.657  -3.533  19.961  1.00  0.00     0.035 C 
HETATM   15  C13 UNL     1     -24.172  -3.753  20.043  1.00  0.00     0.065 C 
HETATM   16  C17 UNL     1     -23.526  -3.679  18.645  1.00  0.00     0.113 C 
HETATM   17  C18 UNL     1     -22.312  -2.826  18.790  1.00  0.00     0.033 C 
ENDROOT
BRANCH  15  18
HETATM   18  N3  UNL     1     -23.919  -5.065  20.581  1.00  0.00    -0.331 N 
HETATM   19  C14 UNL     1     -24.583  -5.758  21.604  1.00  0.00     0.316 C 
HETATM   20  O1  UNL     1     -25.569  -5.363  22.271  1.00  0.00    -0.247 OA
HETATM   21  N4  UNL     1     -24.099  -7.052  21.937  1.00  0.00    -0.342 N 
ATOM     22  H4  UNL     1     -23.299  -7.448  21.443  1.00  0.00     0.164 HD
ATOM     23  H3  UNL     1     -23.140  -5.565  20.154  1.00  0.00     0.165 HD
BRANCH  21  24
HETATM   24  C15 UNL     1     -24.752  -7.798  22.982  1.00  0.00     0.139 C 
BRANCH  24  25
HETATM   25  C16 UNL     1     -25.689  -8.848  22.423  1.00  0.00     0.134 C 
HETATM   26 CL1  UNL     1     -26.839  -9.371  23.672  1.00  0.00    -0.129 Cl
ENDBRANCH  24  25
ENDBRANCH  21  24
ENDBRANCH  15  18
TORSDOF 3
ENDMDL
MODEL 4
REMARK VINA RESULT: -7.831505030      2.180      4.171
REMARK  3 active torsions:
REMARK  status: ('A' for Active; 'I' for Inactive)
REMARK    1  A    between atoms: C13_15  and  N3_16 
REMARK       I    between atoms: N3_16  and  C14_18 
REMARK       I    between atoms: C14_18  and  N4_20 
REMARK    2  A    between atoms: N4_20  and  C15_22 
REMARK    3  A    between atoms: C15_22  and  C16_23 
ROOT
HETATM    1  C1  UNL     1     -22.881  -3.639  14.764  1.00  0.00     0.309 C 
HETATM    2  N1  UNL     1     -23.359  -4.178  16.018  1.00  0.00     0.085 N 
HETATM    3  C2  UNL     1     -24.805  -4.199  15.973  1.00  0.00     0.273 C 
HETATM    4  C3  UNL     1     -25.096  -4.331  17.476  1.00  0.00     0.044 C 
HETATM    5  C4  UNL     1     -24.203  -3.301  18.071  1.00  0.00     0.019 C 
HETATM    6  C5  UNL     1     -23.040  -3.265  17.131  1.00  0.00     0.284 C 
HETATM    7  C6  UNL     1     -25.022  -1.998  17.952  1.00  0.00     0.001 C 
HETATM    8  C7  UNL     1     -24.249  -0.757  17.973  1.00  0.00     0.010 C 
HETATM    9  C8  UNL     1     -24.730   0.279  18.971  1.00  0.00     0.044 C 
HETATM   10  C9  UNL     1     -24.586  -0.077  20.396  1.00  0.00     0.058 C 
HETATM   11  N2  UNL     1     -24.412  -1.370  20.797  1.00  0.00    -0.386 N 
HETATM   12  C10 UNL     1     -23.499  -1.701  21.822  1.00  0.00     0.122 C 
HETATM   13  C11 UNL     1     -22.304  -2.337  21.199  1.00  0.00     0.022 C 
HETATM   14  C12 UNL     1     -22.495  -3.007  19.893  1.00  0.00     0.035 C 
HETATM   15  C13 UNL     1     -23.894  -3.412  19.520  1.00  0.00     0.065 C 
HETATM   16  C17 UNL     1     -24.932  -2.491  20.194  1.00  0.00     0.113 C 
HETATM   17  C18 UNL     1     -25.918  -2.127  19.136  1.00  0.00     0.033 C 
ENDROOT
BRANCH  15  18
HETATM   18  N3  UNL     1     -24.133  -4.757  19.972  1.00  0.00    -0.331 N 
HETATM   19  C14 UNL     1     -24.577  -5.218  21.221  1.00  0.00     0.316 C 
HETATM   20  O1  UNL     1     -24.874  -4.525  22.223  1.00  0.00    -0.247 OA
HETATM   21  N4  UNL     1     -24.711  -6.623  21.389  1.00  0.00    -0.342 N 
ATOM     22  H4  UNL     1     -24.489  -7.258  20.622  1.00  0.00     0.164 HD
ATOM     23  H3  UNL     1     -23.951  -5.485  19.281  1.00  0.00     0.165 HD
BRANCH  21  24
HETATM   24  C15 UNL     1     -25.164  -7.139  22.655  1.00  0.00     0.139 C 
BRANCH  24  25
HETATM   25  C16 UNL     1     -26.580  -7.672  22.571  1.00  0.00     0.134 C 
HETATM   26 CL1  UNL     1     -26.785  -9.042  23.684  1.00  0.00    -0.129 Cl
ENDBRANCH  24  25
ENDBRANCH  21  24
ENDBRANCH  15  18
TORSDOF 3
ENDMDL
MODEL 5
REMARK VINA RESULT: -7.691763805      2.048      2.683
REMARK  3 active torsions:
REMARK  status: ('A' for Active; 'I' for Inactive)
REMARK    1  A    between atoms: C13_15  and  N3_16 
REMARK       I    between atoms: N3_16  and  C14_18 
REMARK       I    between atoms: C14_18  and  N4_20 
REMARK    2  A    between atoms: N4_20  and  C15_22 
REMARK    3  A    between atoms: C15_22  and  C16_23 
ROOT
HETATM    1  C1  UNL     1     -25.584   0.637  21.471  1.00  0.00     0.309 C 
HETATM    2  N1  UNL     1     -24.864  -0.601  21.267  1.00  0.00     0.085 N 
HETATM    3  C2  UNL     1     -23.466  -0.279  21.080  1.00  0.00     0.273 C 
HETATM    4  C3  UNL     1     -22.996  -1.593  20.435  1.00  0.00     0.044 C 
HETATM    5  C4  UNL     1     -24.036  -1.836  19.400  1.00  0.00     0.019 C 
HETATM    6  C5  UNL     1     -25.268  -1.233  19.998  1.00  0.00     0.284 C 
HETATM    7  C6  UNL     1     -23.561  -0.990  18.200  1.00  0.00     0.001 C 
HETATM    8  C7  UNL     1     -24.594  -0.614  17.237  1.00  0.00     0.010 C 
HETATM    9  C8  UNL     1     -24.266  -0.931  15.790  1.00  0.00     0.044 C 
HETATM   10  C9  UNL     1     -24.173  -2.363  15.444  1.00  0.00     0.058 C 
HETATM   11  N2  UNL     1     -23.997  -3.320  16.401  1.00  0.00    -0.386 N 
HETATM   12  C10 UNL     1     -24.696  -4.547  16.343  1.00  0.00     0.122 C 
HETATM   13  C11 UNL     1     -25.768  -4.526  17.378  1.00  0.00     0.022 C 
HETATM   14  C12 UNL     1     -25.565  -3.642  18.548  1.00  0.00     0.035 C 
HETATM   15  C13 UNL     1     -24.157  -3.213  18.856  1.00  0.00     0.065 C 
HETATM   16  C17 UNL     1     -23.297  -3.185  17.577  1.00  0.00     0.113 C 
HETATM   17  C18 UNL     1     -22.540  -1.901  17.609  1.00  0.00     0.033 C 
ENDROOT
BRANCH  15  18
HETATM   18  N3  UNL     1     -23.566  -4.156  19.769  1.00  0.00    -0.331 N 
HETATM   19  C14 UNL     1     -24.149  -4.863  20.832  1.00  0.00     0.316 C 
HETATM   20  O1  UNL     1     -25.346  -4.819  21.205  1.00  0.00    -0.247 OA
HETATM   21  N4  UNL     1     -23.307  -5.729  21.581  1.00  0.00    -0.342 N 
ATOM     22  H4  UNL     1     -22.320  -5.823  21.343  1.00  0.00     0.164 HD
ATOM     23  H3  UNL     1     -22.573  -4.338  19.621  1.00  0.00     0.165 HD
BRANCH  21  24
HETATM   24  C15 UNL     1     -23.866  -6.473  22.680  1.00  0.00     0.139 C 
BRANCH  24  25
HETATM   25  C16 UNL     1     -24.019  -7.943  22.346  1.00  0.00     0.134 C 
HETATM   26 CL1  UNL     1     -25.582  -8.231  21.551  1.00  0.00    -0.129 Cl
ENDBRANCH  24  25
ENDBRANCH  21  24
ENDBRANCH  15  18
TORSDOF 3
ENDMDL
