MODEL 1
REMARK VINA RESULT: -8.273445174      0.000      0.000
REMARK  3 active torsions:
REMARK  status: ('A' for Active; 'I' for Inactive)
REMARK       I    between atoms: C2_2  and  N1_4 
REMARK       I    between atoms: N3_15  and  C10_16 
REMARK       I    between atoms: C10_16  and  N4_18 
REMARK    1  A    between atoms: N4_18  and  C11_20 
REMARK    2  A    between atoms: C11_20  and  C13_22 
REMARK    3  A    between atoms: C13_22  and  C14_23 
ROOT
HETATM    1  C1  UNL     1     -26.283   0.273  14.730  1.00  0.00     0.117 C 
HETATM    2  C2  UNL     1     -26.450  -0.551  15.943  1.00  0.00     0.215 C 
HETATM    3  O1  UNL     1     -27.605  -0.704  16.413  1.00  0.00    -0.274 OA
HETATM    4  N1  UNL     1     -25.374  -1.184  16.612  1.00  0.00    -0.350 N 
HETATM    5  C3  UNL     1     -24.077  -0.965  16.016  1.00  0.00     0.145 C 
HETATM    6  C4  UNL     1     -23.008  -1.800  16.675  1.00  0.00     0.136 C 
HETATM    7  N2  UNL     1     -23.182  -3.176  16.411  1.00  0.00    -0.391 N 
ATOM      8  H2  UNL     1     -22.380  -3.792  16.276  1.00  0.00     0.156 HD
HETATM    9  C5  UNL     1     -24.498  -3.671  16.341  1.00  0.00     0.276 C 
HETATM   10  F1  UNL     1     -25.123  -3.276  15.170  1.00  0.00    -0.226 F 
HETATM   11  C6  UNL     1     -25.349  -3.410  17.562  1.00  0.00     0.041 C 
HETATM   12  C7  UNL     1     -26.678  -4.119  17.284  1.00  0.00     0.019 C 
HETATM   13  C8  UNL     1     -27.611  -4.053  18.441  1.00  0.00     0.021 C 
HETATM   14  C9  UNL     1     -27.016  -4.279  19.782  1.00  0.00     0.127 C 
HETATM   15  N3  UNL     1     -25.583  -4.378  19.827  1.00  0.00    -0.333 N 
HETATM   16  C10 UNL     1     -25.008  -4.824  21.050  1.00  0.00     0.318 C 
HETATM   17  O2  UNL     1     -23.746  -4.920  21.109  1.00  0.00    -0.247 OA
HETATM   18  N4  UNL     1     -25.780  -5.156  22.176  1.00  0.00    -0.339 N 
ATOM     19  H4  UNL     1     -26.797  -5.083  22.140  1.00  0.00     0.164 HD
HETATM   20  C17 UNL     1     -24.694  -4.060  18.731  1.00  0.00     0.143 C 
HETATM   21  C18 UNL     1     -25.650  -1.968  17.791  1.00  0.00     0.141 C 
ENDROOT
BRANCH  18  22
HETATM   22  C11 UNL     1     -25.131  -5.602  23.385  1.00  0.00     0.082 C 
HETATM   23  C12 UNL     1     -25.240  -4.474  24.398  1.00  0.00     0.032 C 
BRANCH  22  24
HETATM   24  C13 UNL     1     -25.808  -6.842  23.943  1.00  0.00     0.028 C 
BRANCH  24  25
HETATM   25  C14 UNL     1     -25.753  -7.920  22.883  1.00  0.00    -0.021 C 
HETATM   26  C15 UNL     1     -24.333  -8.354  22.613  1.00  0.00     0.009 C 
HETATM   27  C16 UNL     1     -26.592  -9.118  23.274  1.00  0.00     0.009 C 
ENDBRANCH  24  25
ENDBRANCH  22  24
ENDBRANCH  18  22
TORSDOF 3
ENDMDL
MODEL 2
REMARK VINA RESULT: -8.144361611      2.871      3.633
REMARK  3 active torsions:
REMARK  status: ('A' for Active; 'I' for Inactive)
REMARK       I    between atoms: C2_2  and  N1_4 
REMARK       I    between atoms: N3_15  and  C10_16 
REMARK       I    between atoms: C10_16  and  N4_18 
REMARK    1  A    between atoms: N4_18  and  C11_20 
REMARK    2  A    between atoms: C11_20  and  C13_22 
REMARK    3  A    between atoms: C13_22  and  C14_23 
ROOT
HETATM    1  C1  UNL     1     -24.813   1.606  19.254  1.00  0.00     0.117 C 
HETATM    2  C2  UNL     1     -25.146   0.175  19.397  1.00  0.00     0.215 C 
HETATM    3  O1  UNL     1     -25.990  -0.328  18.613  1.00  0.00    -0.274 OA
HETATM    4  N1  UNL     1     -24.566  -0.670  20.374  1.00  0.00    -0.350 N 
HETATM    5  C3  UNL     1     -23.606  -0.024  21.239  1.00  0.00     0.145 C 
HETATM    6  C4  UNL     1     -22.907  -1.014  22.138  1.00  0.00     0.136 C 
HETATM    7  N2  UNL     1     -22.057  -1.874  21.410  1.00  0.00    -0.391 N 
ATOM      8  H2  UNL     1     -21.168  -2.189  21.798  1.00  0.00     0.156 HD
HETATM    9  C5  UNL     1     -22.477  -2.282  20.130  1.00  0.00     0.276 C 
HETATM   10  F1  UNL     1     -22.369  -1.252  19.211  1.00  0.00    -0.226 F 
HETATM   11  C6  UNL     1     -23.828  -2.956  20.080  1.00  0.00     0.041 C 
HETATM   12  C7  UNL     1     -24.010  -3.387  18.622  1.00  0.00     0.019 C 
HETATM   13  C8  UNL     1     -25.257  -4.169  18.410  1.00  0.00     0.021 C 
HETATM   14  C9  UNL     1     -25.580  -5.189  19.439  1.00  0.00     0.127 C 
HETATM   15  N3  UNL     1     -24.737  -5.198  20.603  1.00  0.00    -0.333 N 
HETATM   16  C10 UNL     1     -24.874  -6.304  21.487  1.00  0.00     0.318 C 
HETATM   17  O2  UNL     1     -24.138  -6.331  22.519  1.00  0.00    -0.247 OA
HETATM   18  N4  UNL     1     -25.783  -7.351  21.260  1.00  0.00    -0.339 N 
ATOM     19  H4  UNL     1     -26.380  -7.339  20.432  1.00  0.00     0.164 HD
HETATM   20  C17 UNL     1     -23.771  -4.174  20.936  1.00  0.00     0.143 C 
HETATM   21  C18 UNL     1     -24.964  -2.055  20.426  1.00  0.00     0.141 C 
ENDROOT
BRANCH  18  22
HETATM   22  C11 UNL     1     -25.870  -8.443  22.198  1.00  0.00     0.082 C 
HETATM   23  C12 UNL     1     -26.894  -8.053  23.251  1.00  0.00     0.032 C 
BRANCH  22  24
HETATM   24  C13 UNL     1     -26.323  -9.720  21.510  1.00  0.00     0.028 C 
BRANCH  24  25
HETATM   25  C14 UNL     1     -25.627 -10.883  22.183  1.00  0.00    -0.021 C 
HETATM   26  C15 UNL     1     -26.456 -11.438  23.317  1.00  0.00     0.009 C 
HETATM   27  C16 UNL     1     -25.312 -11.982  21.191  1.00  0.00     0.009 C 
ENDBRANCH  24  25
ENDBRANCH  22  24
ENDBRANCH  18  22
TORSDOF 3
ENDMDL
MODEL 3
REMARK VINA RESULT: -7.940333253      3.456      7.815
REMARK  3 active torsions:
REMARK  status: ('A' for Active; 'I' for Inactive)
REMARK       I    between atoms: C2_2  and  N1_4 
REMARK       I    between atoms: N3_15  and  C10_16 
REMARK       I    between atoms: C10_16  and  N4_18 
REMARK    1  A    between atoms: N4_18  and  C11_20 
REMARK    2  A    between atoms: C11_20  and  C13_22 
REMARK    3  A    between atoms: C13_22  and  C14_23 
ROOT
HETATM    1  C1  UNL     1     -24.518  -1.203  25.274  1.00  0.00     0.117 C 
HETATM    2  C2  UNL     1     -24.667  -1.118  23.808  1.00  0.00     0.215 C 
HETATM    3  O1  UNL     1     -25.115  -0.056  23.308  1.00  0.00    -0.274 OA
HETATM    4  N1  UNL     1     -24.331  -2.174  22.926  1.00  0.00    -0.350 N 
HETATM    5  C3  UNL     1     -23.823  -3.362  23.569  1.00  0.00     0.145 C 
HETATM    6  C4  UNL     1     -23.329  -4.376  22.567  1.00  0.00     0.136 C 
HETATM    7  N2  UNL     1     -22.168  -3.930  21.900  1.00  0.00    -0.391 N 
ATOM      8  H2  UNL     1     -21.424  -4.579  21.644  1.00  0.00     0.156 HD
HETATM    9  C5  UNL     1     -22.069  -2.558  21.599  1.00  0.00     0.276 C 
HETATM   10  F1  UNL     1     -21.811  -1.810  22.736  1.00  0.00    -0.226 F 
HETATM   11  C6  UNL     1     -23.211  -1.993  20.787  1.00  0.00     0.041 C 
HETATM   12  C7  UNL     1     -22.827  -0.536  20.513  1.00  0.00     0.019 C 
HETATM   13  C8  UNL     1     -23.803   0.151  19.625  1.00  0.00     0.021 C 
HETATM   14  C9  UNL     1     -24.299  -0.625  18.461  1.00  0.00     0.127 C 
HETATM   15  N3  UNL     1     -23.903  -2.007  18.412  1.00  0.00    -0.333 N 
HETATM   16  C10 UNL     1     -24.166  -2.707  17.201  1.00  0.00     0.318 C 
HETATM   17  O2  UNL     1     -23.823  -3.925  17.137  1.00  0.00    -0.247 OA
HETATM   18  N4  UNL     1     -24.782  -2.103  16.092  1.00  0.00    -0.339 N 
ATOM     19  H4  UNL     1     -25.062  -1.123  16.133  1.00  0.00     0.164 HD
HETATM   20  C17 UNL     1     -23.266  -2.727  19.492  1.00  0.00     0.143 C 
HETATM   21  C18 UNL     1     -24.516  -1.985  21.507  1.00  0.00     0.141 C 
ENDROOT
BRANCH  18  22
HETATM   22  C11 UNL     1     -25.018  -2.872  14.895  1.00  0.00     0.082 C 
HETATM   23  C12 UNL     1     -26.475  -3.304  14.915  1.00  0.00     0.032 C 
BRANCH  22  24
HETATM   24  C13 UNL     1     -24.762  -2.039  13.651  1.00  0.00     0.028 C 
BRANCH  24  25
HETATM   25  C14 UNL     1     -26.046  -1.318  13.300  1.00  0.00    -0.021 C 
HETATM   26  C15 UNL     1     -25.936   0.163  13.570  1.00  0.00     0.009 C 
HETATM   27  C16 UNL     1     -26.430  -1.551  11.855  1.00  0.00     0.009 C 
ENDBRANCH  24  25
ENDBRANCH  22  24
ENDBRANCH  18  22
TORSDOF 3
ENDMDL
MODEL 4
REMARK VINA RESULT: -7.840913343      2.139      3.023
REMARK  3 active torsions:
REMARK  status: ('A' for Active; 'I' for Inactive)
REMARK       I    between atoms: C2_2  and  N1_4 
REMARK       I    between atoms: N3_15  and  C10_16 
REMARK       I    between atoms: C10_16  and  N4_18 
REMARK    1  A    between atoms: N4_18  and  C11_20 
REMARK    2  A    between atoms: C11_20  and  C13_22 
REMARK    3  A    between atoms: C13_22  and  C14_23 
ROOT
HETATM    1  C1  UNL     1     -25.370  -1.624  13.021  1.00  0.00     0.117 C 
HETATM    2  C2  UNL     1     -24.982  -2.311  14.268  1.00  0.00     0.215 C 
HETATM    3  O1  UNL     1     -23.760  -2.449  14.526  1.00  0.00    -0.274 OA
HETATM    4  N1  UNL     1     -25.917  -2.829  15.198  1.00  0.00    -0.350 N 
HETATM    5  C3  UNL     1     -27.302  -2.635  14.837  1.00  0.00     0.145 C 
HETATM    6  C4  UNL     1     -28.235  -3.056  15.945  1.00  0.00     0.136 C 
HETATM    7  N2  UNL     1     -28.140  -2.200  17.063  1.00  0.00    -0.391 N 
ATOM      8  H2  UNL     1     -28.963  -1.963  17.617  1.00  0.00     0.156 HD
HETATM    9  C5  UNL     1     -26.871  -1.683  17.389  1.00  0.00     0.276 C 
HETATM   10  F1  UNL     1     -26.481  -0.702  16.492  1.00  0.00    -0.226 F 
HETATM   11  C6  UNL     1     -25.793  -2.717  17.613  1.00  0.00     0.041 C 
HETATM   12  C7  UNL     1     -24.557  -1.922  18.043  1.00  0.00     0.019 C 
HETATM   13  C8  UNL     1     -23.415  -2.801  18.410  1.00  0.00     0.021 C 
HETATM   14  C9  UNL     1     -23.738  -3.999  19.224  1.00  0.00     0.127 C 
HETATM   15  N3  UNL     1     -25.137  -4.261  19.432  1.00  0.00    -0.333 N 
HETATM   16  C10 UNL     1     -25.468  -5.256  20.393  1.00  0.00     0.318 C 
HETATM   17  O2  UNL     1     -26.696  -5.500  20.592  1.00  0.00    -0.247 OA
HETATM   18  N4  UNL     1     -24.497  -5.967  21.118  1.00  0.00    -0.339 N 
ATOM     19  H4  UNL     1     -23.505  -5.779  20.966  1.00  0.00     0.164 HD
HETATM   20  C17 UNL     1     -26.217  -3.592  18.741  1.00  0.00     0.143 C 
HETATM   21  C18 UNL     1     -25.429  -3.484  16.388  1.00  0.00     0.141 C 
ENDROOT
BRANCH  18  22
HETATM   22  C11 UNL     1     -24.904  -6.963  22.078  1.00  0.00     0.082 C 
HETATM   23  C12 UNL     1     -25.531  -6.230  23.252  1.00  0.00     0.032 C 
BRANCH  22  24
HETATM   24  C13 UNL     1     -25.927  -7.913  21.480  1.00  0.00     0.028 C 
BRANCH  24  25
HETATM   25  C14 UNL     1     -25.398  -9.324  21.632  1.00  0.00    -0.021 C 
HETATM   26  C15 UNL     1     -25.926  -9.974  22.888  1.00  0.00     0.009 C 
HETATM   27  C16 UNL     1     -25.744 -10.173  20.428  1.00  0.00     0.009 C 
ENDBRANCH  24  25
ENDBRANCH  22  24
ENDBRANCH  18  22
TORSDOF 3
ENDMDL
MODEL 5
REMARK VINA RESULT: -7.640935258      2.438      3.007
REMARK  3 active torsions:
REMARK  status: ('A' for Active; 'I' for Inactive)
REMARK       I    between atoms: C2_2  and  N1_4 
REMARK       I    between atoms: N3_15  and  C10_16 
REMARK       I    between atoms: C10_16  and  N4_18 
REMARK    1  A    between atoms: N4_18  and  C11_20 
REMARK    2  A    between atoms: C11_20  and  C13_22 
REMARK    3  A    between atoms: C13_22  and  C14_23 
ROOT
HETATM    1  C1  UNL     1     -27.502  -3.212  13.195  1.00  0.00     0.117 C 
HETATM    2  C2  UNL     1     -27.294  -3.090  14.651  1.00  0.00     0.215 C 
HETATM    3  O1  UNL     1     -28.233  -3.409  15.423  1.00  0.00    -0.274 OA
HETATM    4  N1  UNL     1     -26.088  -2.629  15.232  1.00  0.00    -0.350 N 
HETATM    5  C3  UNL     1     -25.054  -2.280  14.286  1.00  0.00     0.145 C 
HETATM    6  C4  UNL     1     -23.749  -1.962  14.973  1.00  0.00     0.136 C 
HETATM    7  N2  UNL     1     -23.177  -3.108  15.566  1.00  0.00    -0.391 N 
ATOM      8  H2  UNL     1     -22.166  -3.246  15.577  1.00  0.00     0.156 HD
HETATM    9  C5  UNL     1     -24.046  -4.053  16.142  1.00  0.00     0.276 C 
HETATM   10  F1  UNL     1     -24.715  -4.780  15.172  1.00  0.00    -0.226 F 
HETATM   11  C6  UNL     1     -24.981  -3.508  17.197  1.00  0.00     0.041 C 
HETATM   12  C7  UNL     1     -25.739  -4.727  17.730  1.00  0.00     0.019 C 
HETATM   13  C8  UNL     1     -26.640  -4.387  18.863  1.00  0.00     0.021 C 
HETATM   14  C9  UNL     1     -26.094  -3.458  19.884  1.00  0.00     0.127 C 
HETATM   15  N3  UNL     1     -24.818  -2.868  19.582  1.00  0.00    -0.333 N 
HETATM   16  C10 UNL     1     -24.170  -2.165  20.635  1.00  0.00     0.318 C 
HETATM   17  O2  UNL     1     -23.043  -1.640  20.389  1.00  0.00    -0.247 OA
HETATM   18  N4  UNL     1     -24.727  -2.035  21.918  1.00  0.00    -0.339 N 
ATOM     19  H4  UNL     1     -25.633  -2.454  22.128  1.00  0.00     0.164 HD
HETATM   20  C17 UNL     1     -24.155  -2.938  18.298  1.00  0.00     0.143 C 
HETATM   21  C18 UNL     1     -25.991  -2.548  16.670  1.00  0.00     0.141 C 
ENDROOT
BRANCH  18  22
HETATM   22  C11 UNL     1     -24.014  -1.308  22.940  1.00  0.00     0.082 C 
HETATM   23  C12 UNL     1     -24.940  -0.214  23.446  1.00  0.00     0.032 C 
BRANCH  22  24
HETATM   24  C13 UNL     1     -23.639  -2.218  24.097  1.00  0.00     0.028 C 
BRANCH  24  25
HETATM   25  C14 UNL     1     -23.998  -3.637  23.711  1.00  0.00    -0.021 C 
HETATM   26  C15 UNL     1     -22.769  -4.508  23.617  1.00  0.00     0.009 C 
HETATM   27  C16 UNL     1     -24.984  -4.240  24.688  1.00  0.00     0.009 C 
ENDBRANCH  24  25
ENDBRANCH  22  24
ENDBRANCH  18  22
TORSDOF 3
ENDMDL
