MODEL 1
REMARK VINA RESULT: -9.706475926      0.000      0.000
REMARK  4 active torsions:
REMARK  status: ('A' for Active; 'I' for Inactive)
REMARK    1  A    between atoms: C1_2  and  C2_3 
REMARK       I    between atoms: C1_2  and  N2_19 
REMARK    2  A    between atoms: C2_3  and  N1_4 
REMARK       I    between atoms: N1_4  and  C3_6 
REMARK    3  A    between atoms: C3_6  and  C4_8 
REMARK    4  A    between atoms: C17_23  and  O3_24 
ROOT
HETATM    1  N1  UNL     1     -24.938  -6.877  23.217  1.00  0.00    -0.352 N 
ATOM      2  H1  UNL     1     -23.945  -6.972  23.430  1.00  0.00     0.162 HD
HETATM    3  C3  UNL     1     -25.414  -5.641  22.749  1.00  0.00     0.227 C 
HETATM    4  O2  UNL     1     -26.660  -5.534  22.487  1.00  0.00    -0.273 OA
ENDROOT
BRANCH   1   5
HETATM    5  C2  UNL     1     -25.808  -8.026  23.412  1.00  0.00     0.225 C 
BRANCH   5   6
HETATM    6  C1  UNL     1     -25.694  -8.988  22.286  1.00  0.00     0.238 C 
HETATM    7  O1  UNL     1     -25.298  -8.524  21.175  1.00  0.00    -0.272 OA
HETATM    8  N2  UNL     1     -26.014 -10.326  22.473  1.00  0.00    -0.341 N 
HETATM    9  C14 UNL     1     -26.464 -10.744  23.814  1.00  0.00     0.206 C 
HETATM   10  C19 UNL     1     -25.885 -11.208  21.339  1.00  0.00     0.129 C 
HETATM   11  C15 UNL     1     -26.511 -12.172  23.838  1.00  0.00    -0.161 C 
HETATM   12  C16 UNL     1     -26.457 -13.544  23.548  1.00  0.00     0.113 C 
HETATM   13  C17 UNL     1     -26.015 -13.710  22.056  1.00  0.00     0.130 C 
HETATM   14  C18 UNL     1     -25.288 -12.534  21.508  1.00  0.00     0.052 C 
BRANCH  13  15
HETATM   15  O3  UNL     1     -25.132 -14.788  22.021  1.00  0.00    -0.395 OA
ATOM     16  H3  UNL     1     -24.478 -14.622  22.690  1.00  0.00     0.210 HD
ENDBRANCH  13  15
ENDBRANCH   5   6
ENDBRANCH   1   5
BRANCH   3  17
HETATM   17  C4  UNL     1     -24.491  -4.516  22.571  1.00  0.00     0.044 C 
HETATM   18  C5  UNL     1     -24.693  -3.561  23.730  1.00  0.00     0.024 C 
HETATM   19  C6  UNL     1     -23.841  -2.335  23.517  1.00  0.00    -0.010 C 
HETATM   20  C7  UNL     1     -22.397  -2.753  23.456  1.00  0.00     0.009 C 
HETATM   21  C11 UNL     1     -24.250  -1.632  22.237  1.00  0.00     0.048 C 
HETATM   22  C8  UNL     1     -22.220  -3.682  22.295  1.00  0.00    -0.010 C 
HETATM   23  C9  UNL     1     -22.570  -3.008  21.006  1.00  0.00     0.048 C 
HETATM   24  C13 UNL     1     -23.051  -4.915  22.521  1.00  0.00     0.024 C 
HETATM   25  C10 UNL     1     -24.009  -2.561  21.083  1.00  0.00     0.105 C 
HETATM   26  F1  UNL     1     -24.406  -1.966  19.908  1.00  0.00    -0.243 F 
HETATM   27  C12 UNL     1     -24.874  -3.790  21.282  1.00  0.00     0.062 C 
ENDBRANCH   3  17
TORSDOF 4
ENDMDL
MODEL 2
REMARK VINA RESULT: -9.687919240      0.945      1.745
REMARK  4 active torsions:
REMARK  status: ('A' for Active; 'I' for Inactive)
REMARK    1  A    between atoms: C1_2  and  C2_3 
REMARK       I    between atoms: C1_2  and  N2_19 
REMARK    2  A    between atoms: C2_3  and  N1_4 
REMARK       I    between atoms: N1_4  and  C3_6 
REMARK    3  A    between atoms: C3_6  and  C4_8 
REMARK    4  A    between atoms: C17_23  and  O3_24 
ROOT
HETATM    1  N1  UNL     1     -24.920  -6.837  23.182  1.00  0.00    -0.352 N 
ATOM      2  H1  UNL     1     -23.919  -6.881  23.378  1.00  0.00     0.162 HD
HETATM    3  C3  UNL     1     -25.459  -5.638  22.687  1.00  0.00     0.227 C 
HETATM    4  O2  UNL     1     -26.713  -5.593  22.447  1.00  0.00    -0.273 OA
ENDROOT
BRANCH   1   5
HETATM    5  C2  UNL     1     -25.733  -8.017  23.427  1.00  0.00     0.225 C 
BRANCH   5   6
HETATM    6  C1  UNL     1     -25.647  -8.977  22.297  1.00  0.00     0.238 C 
HETATM    7  O1  UNL     1     -25.259  -8.516  21.182  1.00  0.00    -0.272 OA
HETATM    8  N2  UNL     1     -25.982 -10.312  22.485  1.00  0.00    -0.341 N 
HETATM    9  C14 UNL     1     -26.419 -10.727  23.831  1.00  0.00     0.206 C 
HETATM   10  C19 UNL     1     -25.879 -11.193  21.347  1.00  0.00     0.129 C 
HETATM   11  C15 UNL     1     -26.484 -12.155  23.853  1.00  0.00    -0.161 C 
HETATM   12  C16 UNL     1     -26.452 -13.527  23.559  1.00  0.00     0.113 C 
HETATM   13  C17 UNL     1     -26.032 -13.694  22.060  1.00  0.00     0.130 C 
HETATM   14  C18 UNL     1     -25.297 -12.527  21.505  1.00  0.00     0.052 C 
BRANCH  13  15
HETATM   15  O3  UNL     1     -25.164 -14.784  22.012  1.00  0.00    -0.395 OA
ATOM     16  H3  UNL     1     -25.687 -15.554  22.200  1.00  0.00     0.210 HD
ENDBRANCH  13  15
ENDBRANCH   5   6
ENDBRANCH   1   5
BRANCH   3  17
HETATM   17  C4  UNL     1     -24.590  -4.478  22.459  1.00  0.00     0.044 C 
HETATM   18  C5  UNL     1     -23.156  -4.966  22.459  1.00  0.00     0.024 C 
HETATM   19  C6  UNL     1     -22.230  -3.780  22.343  1.00  0.00    -0.010 C 
HETATM   20  C7  UNL     1     -22.517  -3.066  21.051  1.00  0.00     0.009 C 
HETATM   21  C11 UNL     1     -22.422  -2.850  23.525  1.00  0.00     0.048 C 
HETATM   22  C8  UNL     1     -23.933  -2.581  21.081  1.00  0.00    -0.010 C 
HETATM   23  C9  UNL     1     -24.153  -1.622  22.209  1.00  0.00     0.048 C 
HETATM   24  C13 UNL     1     -24.857  -3.766  21.172  1.00  0.00     0.024 C 
HETATM   25  C10 UNL     1     -23.832  -2.332  23.501  1.00  0.00     0.105 C 
HETATM   26  F1  UNL     1     -24.051  -1.513  24.583  1.00  0.00    -0.243 F 
HETATM   27  C12 UNL     1     -24.768  -3.517  23.633  1.00  0.00     0.062 C 
ENDBRANCH   3  17
TORSDOF 4
ENDMDL
MODEL 3
REMARK VINA RESULT: -9.613707925      5.264      8.135
REMARK  4 active torsions:
REMARK  status: ('A' for Active; 'I' for Inactive)
REMARK    1  A    between atoms: C1_2  and  C2_3 
REMARK       I    between atoms: C1_2  and  N2_19 
REMARK    2  A    between atoms: C2_3  and  N1_4 
REMARK       I    between atoms: N1_4  and  C3_6 
REMARK    3  A    between atoms: C3_6  and  C4_8 
REMARK    4  A    between atoms: C17_23  and  O3_24 
ROOT
HETATM    1  N1  UNL     1     -23.592  -2.569  18.207  1.00  0.00    -0.352 N 
ATOM      2  H1  UNL     1     -24.245  -1.882  18.585  1.00  0.00     0.162 HD
HETATM    3  C3  UNL     1     -23.716  -2.951  16.861  1.00  0.00     0.227 C 
HETATM    4  O2  UNL     1     -22.893  -3.811  16.399  1.00  0.00    -0.273 OA
ENDROOT
BRANCH   1   5
HETATM    5  C2  UNL     1     -22.567  -3.114  19.082  1.00  0.00     0.225 C 
BRANCH   5   6
HETATM    6  C1  UNL     1     -22.620  -2.493  20.431  1.00  0.00     0.238 C 
HETATM    7  O1  UNL     1     -22.116  -1.337  20.548  1.00  0.00    -0.272 OA
HETATM    8  N2  UNL     1     -23.202  -3.173  21.492  1.00  0.00    -0.341 N 
HETATM    9  C14 UNL     1     -23.755  -4.515  21.228  1.00  0.00     0.206 C 
HETATM   10  C19 UNL     1     -23.220  -2.516  22.777  1.00  0.00     0.129 C 
HETATM   11  C15 UNL     1     -24.498  -4.920  22.380  1.00  0.00    -0.161 C 
HETATM   12  C16 UNL     1     -25.130  -5.025  23.629  1.00  0.00     0.113 C 
HETATM   13  C17 UNL     1     -24.810  -3.729  24.447  1.00  0.00     0.130 C 
HETATM   14  C18 UNL     1     -24.425  -2.564  23.606  1.00  0.00     0.052 C 
BRANCH  13  15
HETATM   15  O3  UNL     1     -25.985  -3.381  25.113  1.00  0.00    -0.395 OA
ATOM     16  H3  UNL     1     -25.723  -3.039  25.959  1.00  0.00     0.210 HD
ENDBRANCH  13  15
ENDBRANCH   5   6
ENDBRANCH   1   5
BRANCH   3  17
HETATM   17  C4  UNL     1     -24.770  -2.367  16.024  1.00  0.00     0.044 C 
HETATM   18  C5  UNL     1     -24.929  -0.914  16.424  1.00  0.00     0.024 C 
HETATM   19  C6  UNL     1     -26.085  -0.314  15.663  1.00  0.00    -0.010 C 
HETATM   20  C7  UNL     1     -25.791  -0.400  14.190  1.00  0.00     0.009 C 
HETATM   21  C11 UNL     1     -27.368  -1.049  15.999  1.00  0.00     0.048 C 
HETATM   22  C8  UNL     1     -25.655  -1.844  13.817  1.00  0.00    -0.010 C 
HETATM   23  C9  UNL     1     -26.919  -2.596  14.090  1.00  0.00     0.048 C 
HETATM   24  C13 UNL     1     -24.486  -2.435  14.558  1.00  0.00     0.024 C 
HETATM   25  C10 UNL     1     -27.228  -2.480  15.563  1.00  0.00     0.105 C 
HETATM   26  F1  UNL     1     -28.363  -3.184  15.887  1.00  0.00    -0.243 F 
HETATM   27  C12 UNL     1     -26.077  -3.094  16.335  1.00  0.00     0.062 C 
ENDBRANCH   3  17
TORSDOF 4
ENDMDL
MODEL 4
REMARK VINA RESULT: -9.580635375      5.261      8.111
REMARK  4 active torsions:
REMARK  status: ('A' for Active; 'I' for Inactive)
REMARK    1  A    between atoms: C1_2  and  C2_3 
REMARK       I    between atoms: C1_2  and  N2_19 
REMARK    2  A    between atoms: C2_3  and  N1_4 
REMARK       I    between atoms: N1_4  and  C3_6 
REMARK    3  A    between atoms: C3_6  and  C4_8 
REMARK    4  A    between atoms: C17_23  and  O3_24 
ROOT
HETATM    1  N1  UNL     1     -23.609  -2.567  18.345  1.00  0.00    -0.352 N 
ATOM      2  H1  UNL     1     -24.209  -1.860  18.770  1.00  0.00     0.162 HD
HETATM    3  C3  UNL     1     -23.807  -2.897  16.994  1.00  0.00     0.227 C 
HETATM    4  O2  UNL     1     -23.051  -3.785  16.473  1.00  0.00    -0.273 OA
ENDROOT
BRANCH   1   5
HETATM    5  C2  UNL     1     -22.583  -3.196  19.161  1.00  0.00     0.225 C 
BRANCH   5   6
HETATM    6  C1  UNL     1     -22.582  -2.652  20.544  1.00  0.00     0.238 C 
HETATM    7  O1  UNL     1     -21.980  -1.552  20.725  1.00  0.00    -0.272 OA
HETATM    8  N2  UNL     1     -23.220  -3.341  21.567  1.00  0.00    -0.341 N 
HETATM    9  C14 UNL     1     -23.886  -4.612  21.229  1.00  0.00     0.206 C 
HETATM   10  C19 UNL     1     -23.180  -2.760  22.888  1.00  0.00     0.129 C 
HETATM   11  C15 UNL     1     -24.660  -5.019  22.360  1.00  0.00    -0.161 C 
HETATM   12  C16 UNL     1     -25.298  -5.142  23.604  1.00  0.00     0.113 C 
HETATM   13  C17 UNL     1     -24.867  -3.928  24.494  1.00  0.00     0.130 C 
HETATM   14  C18 UNL     1     -24.385  -2.753  23.720  1.00  0.00     0.052 C 
BRANCH  13  15
HETATM   15  O3  UNL     1     -26.007  -3.520  25.185  1.00  0.00    -0.395 OA
ATOM     16  H3  UNL     1     -26.748  -3.916  24.741  1.00  0.00     0.210 HD
ENDBRANCH  13  15
ENDBRANCH   5   6
ENDBRANCH   1   5
BRANCH   3  17
HETATM   17  C4  UNL     1     -24.858  -2.230  16.219  1.00  0.00     0.044 C 
HETATM   18  C5  UNL     1     -26.130  -3.038  16.370  1.00  0.00     0.024 C 
HETATM   19  C6  UNL     1     -27.202  -2.443  15.490  1.00  0.00    -0.010 C 
HETATM   20  C7  UNL     1     -27.453  -1.025  15.925  1.00  0.00     0.009 C 
HETATM   21  C11 UNL     1     -26.771  -2.491  14.038  1.00  0.00     0.048 C 
HETATM   22  C8  UNL     1     -26.187  -0.244  15.752  1.00  0.00    -0.010 C 
HETATM   23  C9  UNL     1     -25.753  -0.228  14.320  1.00  0.00     0.048 C 
HETATM   24  C13 UNL     1     -25.126  -0.823  16.648  1.00  0.00     0.024 C 
HETATM   25  C10 UNL     1     -25.534  -1.654  13.878  1.00  0.00     0.105 C 
HETATM   26  F1  UNL     1     -25.094  -1.706  12.577  1.00  0.00    -0.243 F 
HETATM   27  C12 UNL     1     -24.447  -2.255  14.748  1.00  0.00     0.062 C 
ENDBRANCH   3  17
TORSDOF 4
ENDMDL
MODEL 5
REMARK VINA RESULT: -9.190558761      5.247      8.121
REMARK  4 active torsions:
REMARK  status: ('A' for Active; 'I' for Inactive)
REMARK    1  A    between atoms: C1_2  and  C2_3 
REMARK       I    between atoms: C1_2  and  N2_19 
REMARK    2  A    between atoms: C2_3  and  N1_4 
REMARK       I    between atoms: N1_4  and  C3_6 
REMARK    3  A    between atoms: C3_6  and  C4_8 
REMARK    4  A    between atoms: C17_23  and  O3_24 
ROOT
HETATM    1  N1  UNL     1     -23.659  -2.647  18.405  1.00  0.00    -0.352 N 
ATOM      2  H1  UNL     1     -24.353  -2.033  18.831  1.00  0.00     0.162 HD
HETATM    3  C3  UNL     1     -23.813  -3.009  17.057  1.00  0.00     0.227 C 
HETATM    4  O2  UNL     1     -22.938  -3.779  16.534  1.00  0.00    -0.273 OA
ENDROOT
BRANCH   1   5
HETATM    5  C2  UNL     1     -22.547  -3.114  19.217  1.00  0.00     0.225 C 
BRANCH   5   6
HETATM    6  C1  UNL     1     -22.594  -2.536  20.584  1.00  0.00     0.238 C 
HETATM    7  O1  UNL     1     -22.048  -1.404  20.745  1.00  0.00    -0.272 OA
HETATM    8  N2  UNL     1     -23.214  -3.227  21.616  1.00  0.00    -0.341 N 
HETATM    9  C14 UNL     1     -23.814  -4.538  21.302  1.00  0.00     0.206 C 
HETATM   10  C19 UNL     1     -23.223  -2.611  22.921  1.00  0.00     0.129 C 
HETATM   11  C15 UNL     1     -24.585  -4.951  22.432  1.00  0.00    -0.161 C 
HETATM   12  C16 UNL     1     -25.236  -5.072  23.670  1.00  0.00     0.113 C 
HETATM   13  C17 UNL     1     -24.879  -3.816  24.533  1.00  0.00     0.130 C 
HETATM   14  C18 UNL     1     -24.440  -2.640  23.735  1.00  0.00     0.052 C 
BRANCH  13  15
HETATM   15  O3  UNL     1     -26.047  -3.446  25.196  1.00  0.00    -0.395 OA
ATOM     16  H3  UNL     1     -26.374  -4.228  25.625  1.00  0.00     0.210 HD
ENDBRANCH  13  15
ENDBRANCH   5   6
ENDBRANCH   1   5
BRANCH   3  17
HETATM   17  C4  UNL     1     -24.955  -2.507  16.285  1.00  0.00     0.044 C 
HETATM   18  C5  UNL     1     -25.107  -3.382  15.058  1.00  0.00     0.024 C 
HETATM   19  C6  UNL     1     -26.201  -2.821  14.182  1.00  0.00    -0.010 C 
HETATM   20  C7  UNL     1     -27.489  -2.817  14.959  1.00  0.00     0.009 C 
HETATM   21  C11 UNL     1     -25.841  -1.419  13.732  1.00  0.00     0.048 C 
HETATM   22  C8  UNL     1     -27.318  -1.934  16.157  1.00  0.00    -0.010 C 
HETATM   23  C9  UNL     1     -27.008  -0.528  15.752  1.00  0.00     0.048 C 
HETATM   24  C13 UNL     1     -26.245  -2.508  17.041  1.00  0.00     0.024 C 
HETATM   25  C10 UNL     1     -25.732  -0.540  14.945  1.00  0.00     0.105 C 
HETATM   26  F1  UNL     1     -25.370   0.733  14.573  1.00  0.00    -0.243 F 
HETATM   27  C12 UNL     1     -24.625  -1.088  15.823  1.00  0.00     0.062 C 
ENDBRANCH   3  17
TORSDOF 4
ENDMDL
