MODEL 1
REMARK VINA RESULT: -8.887860416      0.000      0.000
REMARK  5 active torsions:
REMARK  status: ('A' for Active; 'I' for Inactive)
REMARK       I    between atoms: C1_2  and  N1_3 
REMARK    1  A    between atoms: C1_2  and  C10_15 
REMARK    2  A    between atoms: N1_3  and  C2_5 
REMARK    3  A    between atoms: C5_9  and  N2_10 
REMARK    4  A    between atoms: C13_18  and  N3_19 
REMARK    5  A    between atoms: N3_19  and  C14_21 
ROOT
HETATM    1  C10 UNL     1      20.590  -2.855   6.245  1.00  0.00     0.032 A 
HETATM    2  C11 UNL     1      19.841  -3.432   5.260  1.00  0.00     0.019 A 
HETATM    3  C12 UNL     1      18.603  -3.996   5.602  1.00  0.00     0.030 A 
HETATM    4  C13 UNL     1      18.135  -3.979   6.890  1.00  0.00     0.034 A 
HETATM    5  C21 UNL     1      18.911  -3.391   7.852  1.00  0.00     0.030 A 
HETATM    6  C22 UNL     1      20.123  -2.836   7.531  1.00  0.00     0.019 A 
ENDROOT
BRANCH   1   7
HETATM    7  C1  UNL     1      21.942  -2.243   5.932  1.00  0.00     0.256 C 
HETATM    8  O1  UNL     1      22.878  -2.979   6.256  1.00  0.00    -0.267 OA
HETATM    9  N1  UNL     1      21.996  -1.017   5.360  1.00  0.00    -0.315 N 
ATOM     10  H1  UNL     1      21.066  -0.631   5.197  1.00  0.00     0.170 HD
BRANCH   9  11
HETATM   11  C2  UNL     1      23.007  -0.142   4.934  1.00  0.00     0.104 A 
HETATM   12  S1  UNL     1      24.118  -0.598   3.616  1.00  0.00    -0.082 SA
HETATM   13  C3  UNL     1      25.071   0.792   3.553  1.00  0.00     0.054 A 
HETATM   14  C4  UNL     1      24.533   1.566   4.521  1.00  0.00     0.040 A 
HETATM   15  C5  UNL     1      23.475   1.084   5.228  1.00  0.00     0.073 A 
BRANCH  15  16
HETATM   16  N2  UNL     1      22.928   1.959   6.263  1.00  0.00    -0.330 N 
HETATM   17  C6  UNL     1      23.362   2.142   7.517  1.00  0.00     0.097 A 
HETATM   18  C7  UNL     1      22.504   2.996   8.188  1.00  0.00     0.019 A 
HETATM   19  C8  UNL     1      21.514   3.338   7.295  1.00  0.00     0.019 A 
HETATM   20  C9  UNL     1      21.810   2.674   6.106  1.00  0.00     0.097 A 
ENDBRANCH  15  16
ENDBRANCH   9  11
ENDBRANCH   1   7
BRANCH   4  21
HETATM   21  N3  UNL     1      16.865  -4.556   7.244  1.00  0.00    -0.337 N 
ATOM     22  H3  UNL     1      16.637  -4.837   8.197  1.00  0.00     0.168 HD
BRANCH  21  23
HETATM   23  C14 UNL     1      16.021  -4.693   6.242  1.00  0.00     0.150 A 
HETATM   24  N4  UNL     1      15.549  -3.733   5.449  1.00  0.00    -0.335 N 
HETATM   25  C15 UNL     1      14.705  -4.066   4.492  1.00  0.00     0.051 A 
ATOM     26  H4  UNL     1      15.833  -2.762   5.579  1.00  0.00     0.168 HD
HETATM   27  C16 UNL     1      14.107  -3.187   3.562  1.00  0.00     0.031 A 
HETATM   28  C20 UNL     1      14.370  -5.384   4.376  1.00  0.00     0.035 A 
HETATM   29  C17 UNL     1      13.252  -3.657   2.620  1.00  0.00     0.002 A 
HETATM   30  C18 UNL     1      12.906  -4.982   2.494  1.00  0.00     0.002 A 
HETATM   31  C19 UNL     1      13.479  -5.857   3.392  1.00  0.00     0.021 A 
HETATM   32  S2  UNL     1      15.271  -6.098   5.638  1.00  0.00    -0.052 SA
ENDBRANCH  21  23
ENDBRANCH   4  21
TORSDOF 5
ENDMDL
MODEL 2
REMARK VINA RESULT: -8.872258585      0.232      1.128
REMARK  5 active torsions:
REMARK  status: ('A' for Active; 'I' for Inactive)
REMARK       I    between atoms: C1_2  and  N1_3 
REMARK    1  A    between atoms: C1_2  and  C10_15 
REMARK    2  A    between atoms: N1_3  and  C2_5 
REMARK    3  A    between atoms: C5_9  and  N2_10 
REMARK    4  A    between atoms: C13_18  and  N3_19 
REMARK    5  A    between atoms: N3_19  and  C14_21 
ROOT
HETATM    1  C10 UNL     1      20.438  -2.931   6.488  1.00  0.00     0.032 A 
HETATM    2  C11 UNL     1      19.974  -2.946   7.772  1.00  0.00     0.019 A 
HETATM    3  C12 UNL     1      18.725  -3.529   8.027  1.00  0.00     0.030 A 
HETATM    4  C13 UNL     1      17.968  -4.078   7.025  1.00  0.00     0.034 A 
HETATM    5  C21 UNL     1      18.463  -4.047   5.749  1.00  0.00     0.030 A 
HETATM    6  C22 UNL     1      19.683  -3.480   5.486  1.00  0.00     0.019 A 
ENDROOT
BRANCH   1   7
HETATM    7  C1  UNL     1      21.777  -2.301   6.155  1.00  0.00     0.256 C 
HETATM    8  O1  UNL     1      22.728  -2.997   6.519  1.00  0.00    -0.267 OA
HETATM    9  N1  UNL     1      21.804  -1.102   5.525  1.00  0.00    -0.315 N 
ATOM     10  H1  UNL     1      20.866  -0.749   5.338  1.00  0.00     0.170 HD
BRANCH   9  11
HETATM   11  C2  UNL     1      22.797  -0.223   5.064  1.00  0.00     0.104 A 
HETATM   12  S1  UNL     1      23.892  -0.693   3.737  1.00  0.00    -0.082 SA
HETATM   13  C3  UNL     1      24.824   0.708   3.629  1.00  0.00     0.054 A 
HETATM   14  C4  UNL     1      24.293   1.496   4.590  1.00  0.00     0.040 A 
HETATM   15  C5  UNL     1      23.252   1.014   5.324  1.00  0.00     0.073 A 
BRANCH  15  16
HETATM   16  N2  UNL     1      22.711   1.903   6.350  1.00  0.00    -0.330 N 
HETATM   17  C6  UNL     1      21.650   2.716   6.275  1.00  0.00     0.097 A 
HETATM   18  C7  UNL     1      21.535   3.444   7.448  1.00  0.00     0.019 A 
HETATM   19  C8  UNL     1      22.574   3.047   8.258  1.00  0.00     0.019 A 
HETATM   20  C9  UNL     1      23.286   2.085   7.542  1.00  0.00     0.097 A 
ENDBRANCH  15  16
ENDBRANCH   9  11
ENDBRANCH   1   7
BRANCH   4  21
HETATM   21  N3  UNL     1      16.686  -4.678   7.283  1.00  0.00    -0.337 N 
ATOM     22  H3  UNL     1      16.418  -5.027   8.203  1.00  0.00     0.168 HD
BRANCH  21  23
HETATM   23  C14 UNL     1      15.883  -4.740   6.240  1.00  0.00     0.150 A 
HETATM   24  N4  UNL     1      15.498  -3.734   5.458  1.00  0.00    -0.335 N 
HETATM   25  C15 UNL     1      14.684  -3.994   4.453  1.00  0.00     0.051 A 
ATOM     26  H4  UNL     1      15.825  -2.783   5.632  1.00  0.00     0.168 HD
HETATM   27  C16 UNL     1      14.176  -3.057   3.527  1.00  0.00     0.031 A 
HETATM   28  C20 UNL     1      14.289  -5.288   4.280  1.00  0.00     0.035 A 
HETATM   29  C17 UNL     1      13.343  -3.453   2.532  1.00  0.00     0.002 A 
HETATM   30  C18 UNL     1      12.936  -4.754   2.348  1.00  0.00     0.002 A 
HETATM   31  C19 UNL     1      13.421  -5.684   3.242  1.00  0.00     0.021 A 
HETATM   32  S2  UNL     1      15.092  -6.086   5.558  1.00  0.00    -0.052 SA
ENDBRANCH  21  23
ENDBRANCH   4  21
TORSDOF 5
ENDMDL
MODEL 3
REMARK VINA RESULT: -8.584878789      0.957      1.713
REMARK  5 active torsions:
REMARK  status: ('A' for Active; 'I' for Inactive)
REMARK       I    between atoms: C1_2  and  N1_3 
REMARK    1  A    between atoms: C1_2  and  C10_15 
REMARK    2  A    between atoms: N1_3  and  C2_5 
REMARK    3  A    between atoms: C5_9  and  N2_10 
REMARK    4  A    between atoms: C13_18  and  N3_19 
REMARK    5  A    between atoms: N3_19  and  C14_21 
ROOT
HETATM    1  C10 UNL     1      20.187  -2.886   7.099  1.00  0.00     0.032 A 
HETATM    2  C11 UNL     1      19.679  -3.090   8.349  1.00  0.00     0.019 A 
HETATM    3  C12 UNL     1      18.490  -3.821   8.479  1.00  0.00     0.030 A 
HETATM    4  C13 UNL     1      17.834  -4.330   7.388  1.00  0.00     0.034 A 
HETATM    5  C21 UNL     1      18.372  -4.107   6.149  1.00  0.00     0.030 A 
HETATM    6  C22 UNL     1      19.534  -3.394   6.009  1.00  0.00     0.019 A 
ENDROOT
BRANCH   1   7
HETATM    7  C1  UNL     1      21.463  -2.090   6.902  1.00  0.00     0.256 C 
HETATM    8  O1  UNL     1      22.242  -2.206   7.852  1.00  0.00    -0.267 OA
HETATM    9  N1  UNL     1      21.622  -1.367   5.767  1.00  0.00    -0.315 N 
ATOM     10  H1  UNL     1      20.819  -1.453   5.146  1.00  0.00     0.170 HD
BRANCH   9  11
HETATM   11  C2  UNL     1      22.614  -0.531   5.231  1.00  0.00     0.104 A 
HETATM   12  S1  UNL     1      23.653  -1.085   3.891  1.00  0.00    -0.082 SA
HETATM   13  C3  UNL     1      24.606   0.291   3.683  1.00  0.00     0.054 A 
HETATM   14  C4  UNL     1      24.122   1.134   4.622  1.00  0.00     0.040 A 
HETATM   15  C5  UNL     1      23.100   0.708   5.414  1.00  0.00     0.073 A 
BRANCH  15  16
HETATM   16  N2  UNL     1      22.611   1.656   6.415  1.00  0.00    -0.330 N 
HETATM   17  C6  UNL     1      21.619   2.548   6.304  1.00  0.00     0.097 A 
HETATM   18  C7  UNL     1      21.541   3.304   7.462  1.00  0.00     0.019 A 
HETATM   19  C8  UNL     1      22.529   2.841   8.300  1.00  0.00     0.019 A 
HETATM   20  C9  UNL     1      23.176   1.813   7.615  1.00  0.00     0.097 A 
ENDBRANCH  15  16
ENDBRANCH   9  11
ENDBRANCH   1   7
BRANCH   4  21
HETATM   21  N3  UNL     1      16.614  -5.081   7.517  1.00  0.00    -0.337 N 
ATOM     22  H3  UNL     1      16.393  -5.630   8.348  1.00  0.00     0.168 HD
BRANCH  21  23
HETATM   23  C14 UNL     1      15.805  -5.006   6.481  1.00  0.00     0.150 A 
HETATM   24  N4  UNL     1      15.386  -6.008   5.710  1.00  0.00    -0.335 N 
HETATM   25  C15 UNL     1      14.571  -5.734   4.710  1.00  0.00     0.051 A 
ATOM     26  H4  UNL     1      15.689  -6.965   5.889  1.00  0.00     0.168 HD
HETATM   27  C16 UNL     1      14.028  -6.664   3.796  1.00  0.00     0.031 A 
HETATM   28  C20 UNL     1      14.206  -4.431   4.531  1.00  0.00     0.035 A 
HETATM   29  C17 UNL     1      13.196  -6.253   2.806  1.00  0.00     0.002 A 
HETATM   30  C18 UNL     1      12.824  -4.944   2.615  1.00  0.00     0.002 A 
HETATM   31  C19 UNL     1      13.342  -4.020   3.497  1.00  0.00     0.021 A 
HETATM   32  S2  UNL     1      15.043  -3.645   5.795  1.00  0.00    -0.052 SA
ENDBRANCH  21  23
ENDBRANCH   4  21
TORSDOF 5
ENDMDL
MODEL 4
REMARK VINA RESULT: -8.479076976      1.051      1.274
REMARK  5 active torsions:
REMARK  status: ('A' for Active; 'I' for Inactive)
REMARK       I    between atoms: C1_2  and  N1_3 
REMARK    1  A    between atoms: C1_2  and  C10_15 
REMARK    2  A    between atoms: N1_3  and  C2_5 
REMARK    3  A    between atoms: C5_9  and  N2_10 
REMARK    4  A    between atoms: C13_18  and  N3_19 
REMARK    5  A    between atoms: N3_19  and  C14_21 
ROOT
HETATM    1  C10 UNL     1      20.214  -3.212   7.290  1.00  0.00     0.032 A 
HETATM    2  C11 UNL     1      19.596  -3.512   6.111  1.00  0.00     0.019 A 
HETATM    3  C12 UNL     1      18.321  -4.094   6.151  1.00  0.00     0.030 A 
HETATM    4  C13 UNL     1      17.689  -4.364   7.338  1.00  0.00     0.034 A 
HETATM    5  C21 UNL     1      18.338  -4.050   8.502  1.00  0.00     0.030 A 
HETATM    6  C22 UNL     1      19.585  -3.481   8.475  1.00  0.00     0.019 A 
ENDROOT
BRANCH   1   7
HETATM    7  C1  UNL     1      21.599  -2.594   7.304  1.00  0.00     0.256 C 
HETATM    8  O1  UNL     1      22.225  -2.864   8.333  1.00  0.00    -0.267 OA
HETATM    9  N1  UNL     1      22.000  -1.847   6.247  1.00  0.00    -0.315 N 
ATOM     10  H1  UNL     1      21.280  -1.789   5.527  1.00  0.00     0.170 HD
BRANCH   9  11
HETATM   11  C2  UNL     1      23.155  -1.133   5.892  1.00  0.00     0.104 A 
HETATM   12  S1  UNL     1      24.552  -1.960   5.154  1.00  0.00    -0.082 SA
HETATM   13  C3  UNL     1      25.589  -0.645   4.957  1.00  0.00     0.054 A 
HETATM   14  C4  UNL     1      24.864   0.384   5.449  1.00  0.00     0.040 A 
HETATM   15  C5  UNL     1      23.615   0.129   5.928  1.00  0.00     0.073 A 
BRANCH  15  16
HETATM   16  N2  UNL     1      22.869   1.274   6.448  1.00  0.00    -0.330 N 
HETATM   17  C6  UNL     1      21.944   2.018   5.829  1.00  0.00     0.097 A 
HETATM   18  C7  UNL     1      21.550   3.056   6.658  1.00  0.00     0.019 A 
HETATM   19  C8  UNL     1      22.272   2.924   7.821  1.00  0.00     0.019 A 
HETATM   20  C9  UNL     1      23.084   1.802   7.656  1.00  0.00     0.097 A 
ENDBRANCH  15  16
ENDBRANCH   9  11
ENDBRANCH   1   7
BRANCH   4  21
HETATM   21  N3  UNL     1      16.381  -4.961   7.383  1.00  0.00    -0.337 N 
ATOM     22  H3  UNL     1      16.030  -5.453   8.204  1.00  0.00     0.168 HD
BRANCH  21  23
HETATM   23  C14 UNL     1      15.671  -4.822   6.282  1.00  0.00     0.150 A 
HETATM   24  N4  UNL     1      15.535  -3.722   5.544  1.00  0.00    -0.335 N 
HETATM   25  C15 UNL     1      14.777  -3.777   4.466  1.00  0.00     0.051 A 
ATOM     26  H4  UNL     1      16.007  -2.856   5.806  1.00  0.00     0.168 HD
HETATM   27  C16 UNL     1      14.520  -2.716   3.570  1.00  0.00     0.031 A 
HETATM   28  C20 UNL     1      14.177  -4.968   4.176  1.00  0.00     0.035 A 
HETATM   29  C17 UNL     1      13.717  -2.902   2.492  1.00  0.00     0.002 A 
HETATM   30  C18 UNL     1      13.107  -4.097   2.191  1.00  0.00     0.002 A 
HETATM   31  C19 UNL     1      13.345  -5.145   3.053  1.00  0.00     0.021 A 
HETATM   32  S2  UNL     1      14.717  -5.965   5.454  1.00  0.00    -0.052 SA
ENDBRANCH  21  23
ENDBRANCH   4  21
TORSDOF 5
ENDMDL
MODEL 5
REMARK VINA RESULT: -8.437355195      1.411      1.622
REMARK  5 active torsions:
REMARK  status: ('A' for Active; 'I' for Inactive)
REMARK       I    between atoms: C1_2  and  N1_3 
REMARK    1  A    between atoms: C1_2  and  C10_15 
REMARK    2  A    between atoms: N1_3  and  C2_5 
REMARK    3  A    between atoms: C5_9  and  N2_10 
REMARK    4  A    between atoms: C13_18  and  N3_19 
REMARK    5  A    between atoms: N3_19  and  C14_21 
ROOT
HETATM    1  C10 UNL     1      20.464  -3.191   6.708  1.00  0.00     0.032 A 
HETATM    2  C11 UNL     1      19.746  -3.600   5.622  1.00  0.00     0.019 A 
HETATM    3  C12 UNL     1      18.445  -4.086   5.821  1.00  0.00     0.030 A 
HETATM    4  C13 UNL     1      17.887  -4.157   7.072  1.00  0.00     0.034 A 
HETATM    5  C21 UNL     1      18.636  -3.738   8.139  1.00  0.00     0.030 A 
HETATM    6  C22 UNL     1      19.908  -3.262   7.956  1.00  0.00     0.019 A 
ENDROOT
BRANCH   1   7
HETATM    7  C1  UNL     1      21.880  -2.671   6.550  1.00  0.00     0.256 C 
HETATM    8  O1  UNL     1      22.535  -3.330   5.737  1.00  0.00    -0.267 OA
HETATM    9  N1  UNL     1      22.273  -1.594   7.271  1.00  0.00    -0.315 N 
ATOM     10  H1  UNL     1      21.524  -1.241   7.867  1.00  0.00     0.170 HD
BRANCH   9  11
HETATM   11  C2  UNL     1      23.449  -0.840   7.406  1.00  0.00     0.104 A 
HETATM   12  S1  UNL     1      25.007  -1.631   7.764  1.00  0.00    -0.082 SA
HETATM   13  C3  UNL     1      26.010  -0.275   7.806  1.00  0.00     0.054 A 
HETATM   14  C4  UNL     1      25.154   0.738   7.550  1.00  0.00     0.040 A 
HETATM   15  C5  UNL     1      23.840   0.445   7.345  1.00  0.00     0.073 A 
BRANCH  15  16
HETATM   16  N2  UNL     1      22.953   1.574   7.071  1.00  0.00    -0.330 N 
HETATM   17  C6  UNL     1      22.553   2.543   7.904  1.00  0.00     0.097 A 
HETATM   18  C7  UNL     1      21.647   3.368   7.259  1.00  0.00     0.019 A 
HETATM   19  C8  UNL     1      21.501   2.869   5.985  1.00  0.00     0.019 A 
HETATM   20  C9  UNL     1      22.330   1.751   5.903  1.00  0.00     0.097 A 
ENDBRANCH  15  16
ENDBRANCH   9  11
ENDBRANCH   1   7
BRANCH   4  21
HETATM   21  N3  UNL     1      16.553  -4.654   7.280  1.00  0.00    -0.337 N 
ATOM     22  H3  UNL     1      16.227  -4.987   8.187  1.00  0.00     0.168 HD
BRANCH  21  23
HETATM   23  C14 UNL     1      15.786  -4.646   6.209  1.00  0.00     0.150 A 
HETATM   24  N4  UNL     1      15.520  -3.610   5.416  1.00  0.00    -0.335 N 
HETATM   25  C15 UNL     1      14.723  -3.798   4.382  1.00  0.00     0.051 A 
ATOM     26  H4  UNL     1      15.924  -2.693   5.603  1.00  0.00     0.168 HD
HETATM   27  C16 UNL     1      14.333  -2.821   3.440  1.00  0.00     0.031 A 
HETATM   28  C20 UNL     1      14.219  -5.052   4.192  1.00  0.00     0.035 A 
HETATM   29  C17 UNL     1      13.504  -3.143   2.416  1.00  0.00     0.002 A 
HETATM   30  C18 UNL     1      12.989  -4.402   2.215  1.00  0.00     0.002 A 
HETATM   31  C19 UNL     1      13.357  -5.370   3.124  1.00  0.00     0.021 A 
HETATM   32  S2  UNL     1      14.902  -5.916   5.497  1.00  0.00    -0.052 SA
ENDBRANCH  21  23
ENDBRANCH   4  21
TORSDOF 5
ENDMDL
