MODEL 1
REMARK VINA RESULT: -8.760956526      0.000      0.000
REMARK  5 active torsions:
REMARK  status: ('A' for Active; 'I' for Inactive)
REMARK    1  A    between atoms: C3_3  and  C5_5 
REMARK    2  A    between atoms: C6_6  and  C7_7 
REMARK    3  A    between atoms: C7_7  and  N1_8 
REMARK    4  A    between atoms: N2_12  and  C11_13 
REMARK    5  A    between atoms: C14_16  and  O1_17 
ROOT
HETATM    1  N1  UNL     1      16.702  -6.391   7.077  1.00  0.00     0.094 N 
HETATM    2  C8  UNL     1      17.302  -5.940   5.807  1.00  0.00     0.274 C 
HETATM    3  C9  UNL     1      17.254  -4.432   5.813  1.00  0.00     0.050 C 
HETATM    4  C10 UNL     1      15.917  -3.990   6.367  1.00  0.00     0.125 C 
HETATM    5  N2  UNL     1      14.921  -4.926   5.857  1.00  0.00    -0.379 N 
HETATM    6  C17 UNL     1      14.395  -6.123   6.502  1.00  0.00     0.153 C 
HETATM    7  C18 UNL     1      15.484  -7.129   6.718  1.00  0.00     0.292 C 
ENDROOT
BRANCH   1   8
HETATM    8  C7  UNL     1      17.661  -7.290   7.715  1.00  0.00     0.319 C 
BRANCH   8   9
HETATM    9  C6  UNL     1      17.694  -6.951   9.190  1.00  0.00     0.022 A 
HETATM   10  C5  UNL     1      18.254  -7.703  10.229  1.00  0.00    -0.008 A 
HETATM   11  C20 UNL     1      18.175  -7.156  11.456  1.00  0.00    -0.033 A 
HETATM   12  C19 UNL     1      17.549  -5.903  11.545  1.00  0.00    -0.010 A 
HETATM   13  C21 UNL     1      18.610  -7.848  12.750  1.00  0.00     0.040 C 
HETATM   14  S1  UNL     1      17.111  -5.560   9.970  1.00  0.00    -0.096 SA
HETATM   15  C25 UNL     1      17.287  -5.014  12.705  1.00  0.00     0.046 C 
HETATM   16  C24 UNL     1      18.422  -4.911  13.661  1.00  0.00     0.005 C 
HETATM   17  C23 UNL     1      19.641  -5.595  13.116  1.00  0.00     0.001 C 
HETATM   18  C22 UNL     1      19.571  -7.045  13.529  1.00  0.00     0.005 C 
BRANCH  10  19
HETATM   19  C3  UNL     1      18.789  -9.055   9.866  1.00  0.00    -0.054 C 
HETATM   20  C2  UNL     1      18.141 -10.138   9.631  1.00  0.00    -0.023 C 
HETATM   21  C1  UNL     1      16.723 -10.486   9.778  1.00  0.00     0.036 C 
HETATM   22  C4  UNL     1      20.288  -9.123   9.582  1.00  0.00     0.049 C 
ENDBRANCH  10  19
ENDBRANCH   8   9
ENDBRANCH   1   8
BRANCH   5  23
HETATM   23  C11 UNL     1      14.388  -4.648   4.582  1.00  0.00     0.030 A 
HETATM   24  C12 UNL     1      13.733  -5.644   3.846  1.00  0.00     0.032 A 
HETATM   25  C13 UNL     1      13.187  -5.392   2.608  1.00  0.00     0.039 A 
HETATM   26  C14 UNL     1      13.264  -4.140   2.037  1.00  0.00     0.065 A 
HETATM   27  C15 UNL     1      13.910  -3.172   2.770  1.00  0.00     0.039 A 
HETATM   28  C16 UNL     1      14.460  -3.392   3.998  1.00  0.00     0.032 A 
BRANCH  26  29
HETATM   29  O1  UNL     1      12.718  -3.869   0.789  1.00  0.00    -0.361 OA
ATOM     30  H1  UNL     1      13.006  -4.325   0.006  1.00  0.00     0.217 HD
ENDBRANCH  26  29
ENDBRANCH   5  23
TORSDOF 5
ENDMDL
MODEL 2
REMARK VINA RESULT: -8.738912437      0.307      1.067
REMARK  5 active torsions:
REMARK  status: ('A' for Active; 'I' for Inactive)
REMARK    1  A    between atoms: C3_3  and  C5_5 
REMARK    2  A    between atoms: C6_6  and  C7_7 
REMARK    3  A    between atoms: C7_7  and  N1_8 
REMARK    4  A    between atoms: N2_12  and  C11_13 
REMARK    5  A    between atoms: C14_16  and  O1_17 
ROOT
HETATM    1  N1  UNL     1      16.677  -6.367   7.070  1.00  0.00     0.094 N 
HETATM    2  C8  UNL     1      17.278  -5.932   5.794  1.00  0.00     0.274 C 
HETATM    3  C9  UNL     1      17.246  -4.423   5.788  1.00  0.00     0.050 C 
HETATM    4  C10 UNL     1      15.915  -3.963   6.341  1.00  0.00     0.125 C 
HETATM    5  N2  UNL     1      14.908  -4.893   5.841  1.00  0.00    -0.379 N 
HETATM    6  C17 UNL     1      14.371  -6.079   6.497  1.00  0.00     0.153 C 
HETATM    7  C18 UNL     1      15.450  -7.095   6.718  1.00  0.00     0.292 C 
ENDROOT
BRANCH   1   8
HETATM    8  C7  UNL     1      17.628  -7.269   7.712  1.00  0.00     0.319 C 
BRANCH   8   9
HETATM    9  C6  UNL     1      17.713  -6.880   9.173  1.00  0.00     0.022 A 
HETATM   10  C5  UNL     1      18.139  -7.669  10.247  1.00  0.00    -0.008 A 
HETATM   11  C20 UNL     1      18.148  -7.066  11.450  1.00  0.00    -0.033 A 
HETATM   12  C19 UNL     1      17.737  -5.725  11.481  1.00  0.00    -0.010 A 
HETATM   13  C21 UNL     1      18.460  -7.766  12.774  1.00  0.00     0.040 C 
HETATM   14  S1  UNL     1      17.365  -5.380   9.891  1.00  0.00    -0.096 SA
HETATM   15  C25 UNL     1      17.621  -4.757  12.602  1.00  0.00     0.046 C 
HETATM   16  C24 UNL     1      18.756  -4.802  13.564  1.00  0.00     0.005 C 
HETATM   17  C23 UNL     1      19.847  -5.699  13.058  1.00  0.00     0.001 C 
HETATM   18  C22 UNL     1      19.539  -7.100  13.529  1.00  0.00     0.005 C 
BRANCH  10  19
HETATM   19  C3  UNL     1      18.445  -9.105   9.944  1.00  0.00    -0.054 C 
HETATM   20  C2  UNL     1      19.588  -9.687   9.891  1.00  0.00    -0.023 C 
HETATM   21  C1  UNL     1      20.959  -9.168   9.942  1.00  0.00     0.036 C 
HETATM   22  C4  UNL     1      17.238 -10.035   9.841  1.00  0.00     0.049 C 
ENDBRANCH  10  19
ENDBRANCH   8   9
ENDBRANCH   1   8
BRANCH   5  23
HETATM   23  C11 UNL     1      14.375  -4.620   4.564  1.00  0.00     0.030 A 
HETATM   24  C12 UNL     1      13.704  -5.614   3.840  1.00  0.00     0.032 A 
HETATM   25  C13 UNL     1      13.159  -5.366   2.601  1.00  0.00     0.039 A 
HETATM   26  C14 UNL     1      13.251  -4.121   2.017  1.00  0.00     0.065 A 
HETATM   27  C15 UNL     1      13.913  -3.155   2.739  1.00  0.00     0.039 A 
HETATM   28  C16 UNL     1      14.464  -3.371   3.968  1.00  0.00     0.032 A 
BRANCH  26  29
HETATM   29  O1  UNL     1      12.706  -3.855   0.769  1.00  0.00    -0.361 OA
ATOM     30  H1  UNL     1      12.189  -3.074   0.603  1.00  0.00     0.217 HD
ENDBRANCH  26  29
ENDBRANCH   5  23
TORSDOF 5
ENDMDL
MODEL 3
REMARK VINA RESULT: -7.670937001      1.160      1.546
REMARK  5 active torsions:
REMARK  status: ('A' for Active; 'I' for Inactive)
REMARK    1  A    between atoms: C3_3  and  C5_5 
REMARK    2  A    between atoms: C6_6  and  C7_7 
REMARK    3  A    between atoms: C7_7  and  N1_8 
REMARK    4  A    between atoms: N2_12  and  C11_13 
REMARK    5  A    between atoms: C14_16  and  O1_17 
ROOT
HETATM    1  N1  UNL     1      17.418  -6.627   7.389  1.00  0.00     0.094 N 
HETATM    2  C8  UNL     1      17.754  -6.233   6.007  1.00  0.00     0.274 C 
HETATM    3  C9  UNL     1      17.549  -4.740   5.918  1.00  0.00     0.050 C 
HETATM    4  C10 UNL     1      16.280  -4.378   6.659  1.00  0.00     0.125 C 
HETATM    5  N2  UNL     1      15.319  -5.442   6.390  1.00  0.00    -0.379 N 
HETATM    6  C17 UNL     1      15.033  -6.623   7.196  1.00  0.00     0.153 C 
HETATM    7  C18 UNL     1      16.243  -7.503   7.293  1.00  0.00     0.292 C 
ENDROOT
BRANCH   1   8
HETATM    8  C7  UNL     1      18.557  -7.375   7.915  1.00  0.00     0.319 C 
BRANCH   8   9
HETATM    9  C6  UNL     1      18.864  -6.831   9.294  1.00  0.00     0.022 A 
HETATM   10  C5  UNL     1      19.441  -7.509  10.373  1.00  0.00    -0.008 A 
HETATM   11  C20 UNL     1      19.637  -6.779  11.487  1.00  0.00    -0.033 A 
HETATM   12  C19 UNL     1      19.246  -5.432  11.430  1.00  0.00    -0.010 A 
HETATM   13  C21 UNL     1      20.140  -7.338  12.820  1.00  0.00     0.040 C 
HETATM   14  S1  UNL     1      18.641  -5.254   9.884  1.00  0.00    -0.096 SA
HETATM   15  C25 UNL     1      19.308  -4.346  12.440  1.00  0.00     0.046 C 
HETATM   16  C24 UNL     1      20.575  -4.314  13.221  1.00  0.00     0.005 C 
HETATM   17  C23 UNL     1      21.570  -5.287  12.662  1.00  0.00     0.001 C 
HETATM   18  C22 UNL     1      21.325  -6.620  13.326  1.00  0.00     0.005 C 
BRANCH  10  19
HETATM   19  C3  UNL     1      19.687  -8.977  10.190  1.00  0.00    -0.054 C 
HETATM   20  C2  UNL     1      18.831  -9.925  10.075  1.00  0.00    -0.023 C 
HETATM   21  C1  UNL     1      17.371  -9.957  10.232  1.00  0.00     0.036 C 
HETATM   22  C4  UNL     1      21.139  -9.382   9.950  1.00  0.00     0.049 C 
ENDBRANCH  10  19
ENDBRANCH   8   9
ENDBRANCH   1   8
BRANCH   5  23
HETATM   23  C11 UNL     1      14.560  -5.325   5.208  1.00  0.00     0.030 A 
HETATM   24  C12 UNL     1      14.132  -4.071   4.753  1.00  0.00     0.032 A 
HETATM   25  C13 UNL     1      13.407  -3.929   3.591  1.00  0.00     0.039 A 
HETATM   26  C14 UNL     1      13.071  -5.022   2.823  1.00  0.00     0.065 A 
HETATM   27  C15 UNL     1      13.498  -6.247   3.282  1.00  0.00     0.039 A 
HETATM   28  C16 UNL     1      14.216  -6.419   4.428  1.00  0.00     0.032 A 
BRANCH  26  29
HETATM   29  O1  UNL     1      12.341  -4.896   1.648  1.00  0.00    -0.361 OA
ATOM     30  H1  UNL     1      11.660  -5.515   1.412  1.00  0.00     0.217 HD
ENDBRANCH  26  29
ENDBRANCH   5  23
TORSDOF 5
ENDMDL
MODEL 4
REMARK VINA RESULT: -7.665096547      5.870      7.997
REMARK  5 active torsions:
REMARK  status: ('A' for Active; 'I' for Inactive)
REMARK    1  A    between atoms: C3_3  and  C5_5 
REMARK    2  A    between atoms: C6_6  and  C7_7 
REMARK    3  A    between atoms: C7_7  and  N1_8 
REMARK    4  A    between atoms: N2_12  and  C11_13 
REMARK    5  A    between atoms: C14_16  and  O1_17 
ROOT
HETATM    1  N1  UNL     1      20.466  -2.064   6.664  1.00  0.00     0.094 N 
HETATM    2  C8  UNL     1      20.546  -0.609   6.430  1.00  0.00     0.274 C 
HETATM    3  C9  UNL     1      20.326  -0.392   4.953  1.00  0.00     0.050 C 
HETATM    4  C10 UNL     1      21.082  -1.455   4.186  1.00  0.00     0.125 C 
HETATM    5  N2  UNL     1      22.341  -1.667   4.893  1.00  0.00    -0.379 N 
HETATM    6  C17 UNL     1      22.651  -2.673   5.901  1.00  0.00     0.153 C 
HETATM    7  C18 UNL     1      21.799  -2.481   7.119  1.00  0.00     0.292 C 
ENDROOT
BRANCH   1   8
HETATM    8  C7  UNL     1      19.485  -2.279   7.724  1.00  0.00     0.319 C 
BRANCH   8   9
HETATM    9  C6  UNL     1      18.852  -3.635   7.493  1.00  0.00     0.022 A 
HETATM   10  C5  UNL     1      18.582  -4.627   8.442  1.00  0.00    -0.008 A 
HETATM   11  C20 UNL     1      17.979  -5.736   7.975  1.00  0.00    -0.033 A 
HETATM   12  C19 UNL     1      17.691  -5.761   6.602  1.00  0.00    -0.010 A 
HETATM   13  C21 UNL     1      17.698  -6.991   8.804  1.00  0.00     0.040 C 
HETATM   14  S1  UNL     1      18.257  -4.293   6.045  1.00  0.00    -0.096 SA
HETATM   15  C25 UNL     1      17.044  -6.792   5.751  1.00  0.00     0.046 C 
HETATM   16  C24 UNL     1      15.856  -7.438   6.374  1.00  0.00     0.005 C 
HETATM   17  C23 UNL     1      15.486  -6.748   7.653  1.00  0.00     0.001 C 
HETATM   18  C22 UNL     1      16.280  -7.394   8.764  1.00  0.00     0.005 C 
BRANCH  10  19
HETATM   19  C3  UNL     1      19.073  -4.374   9.836  1.00  0.00    -0.054 C 
HETATM   20  C2  UNL     1      18.393  -4.101  10.889  1.00  0.00    -0.023 C 
HETATM   21  C1  UNL     1      16.973  -3.788  11.089  1.00  0.00     0.036 C 
HETATM   22  C4  UNL     1      20.560  -4.631  10.073  1.00  0.00     0.049 C 
ENDBRANCH  10  19
ENDBRANCH   8   9
ENDBRANCH   1   8
BRANCH   5  23
HETATM   23  C11 UNL     1      23.402  -0.798   4.566  1.00  0.00     0.030 A 
HETATM   24  C12 UNL     1      23.921  -0.757   3.266  1.00  0.00     0.032 A 
HETATM   25  C13 UNL     1      24.943   0.097   2.919  1.00  0.00     0.039 A 
HETATM   26  C14 UNL     1      25.502   0.953   3.843  1.00  0.00     0.065 A 
HETATM   27  C15 UNL     1      24.983   0.902   5.115  1.00  0.00     0.039 A 
HETATM   28  C16 UNL     1      23.972   0.067   5.489  1.00  0.00     0.032 A 
BRANCH  26  29
HETATM   29  O1  UNL     1      26.533   1.821   3.508  1.00  0.00    -0.361 OA
ATOM     30  H1  UNL     1      26.544   2.724   3.804  1.00  0.00     0.217 HD
ENDBRANCH  26  29
ENDBRANCH   5  23
TORSDOF 5
ENDMDL
MODEL 5
REMARK VINA RESULT: -7.439877651      5.647      7.461
REMARK  5 active torsions:
REMARK  status: ('A' for Active; 'I' for Inactive)
REMARK    1  A    between atoms: C3_3  and  C5_5 
REMARK    2  A    between atoms: C6_6  and  C7_7 
REMARK    3  A    between atoms: C7_7  and  N1_8 
REMARK    4  A    between atoms: N2_12  and  C11_13 
REMARK    5  A    between atoms: C14_16  and  O1_17 
ROOT
HETATM    1  N1  UNL     1      20.217  -2.732   5.402  1.00  0.00     0.094 N 
HETATM    2  C8  UNL     1      21.347  -3.478   4.815  1.00  0.00     0.274 C 
HETATM    3  C9  UNL     1      22.494  -3.370   5.790  1.00  0.00     0.050 C 
HETATM    4  C10 UNL     1      22.549  -1.954   6.321  1.00  0.00     0.125 C 
HETATM    5  N2  UNL     1      22.222  -1.073   5.204  1.00  0.00    -0.379 N 
HETATM    6  C17 UNL     1      20.924  -0.514   4.848  1.00  0.00     0.153 C 
HETATM    7  C18 UNL     1      19.957  -1.603   4.498  1.00  0.00     0.292 C 
ENDROOT
BRANCH   1   8
HETATM    8  C7  UNL     1      19.067  -3.632   5.423  1.00  0.00     0.319 C 
BRANCH   8   9
HETATM    9  C6  UNL     1      18.765  -3.955   6.870  1.00  0.00     0.022 A 
HETATM   10  C5  UNL     1      17.808  -4.846   7.368  1.00  0.00    -0.008 A 
HETATM   11  C20 UNL     1      17.765  -4.973   8.707  1.00  0.00    -0.033 A 
HETATM   12  C19 UNL     1      18.685  -4.206   9.439  1.00  0.00    -0.010 A 
HETATM   13  C21 UNL     1      16.726  -5.794   9.473  1.00  0.00     0.040 C 
HETATM   14  S1  UNL     1      19.532  -3.369   8.268  1.00  0.00    -0.096 SA
HETATM   15  C25 UNL     1      18.929  -4.090  10.899  1.00  0.00     0.046 C 
HETATM   16  C24 UNL     1      18.893  -5.389  11.626  1.00  0.00     0.005 C 
HETATM   17  C23 UNL     1      18.802  -6.535  10.663  1.00  0.00     0.001 C 
HETATM   18  C22 UNL     1      17.338  -6.780  10.384  1.00  0.00     0.005 C 
BRANCH  10  19
HETATM   19  C3  UNL     1      16.892  -5.477   6.362  1.00  0.00    -0.054 C 
HETATM   20  C2  UNL     1      15.869  -4.968   5.779  1.00  0.00    -0.023 C 
HETATM   21  C1  UNL     1      15.148  -3.706   5.981  1.00  0.00     0.036 C 
HETATM   22  C4  UNL     1      17.320  -6.847   5.842  1.00  0.00     0.049 C 
ENDBRANCH  10  19
ENDBRANCH   8   9
ENDBRANCH   1   8
BRANCH   5  23
HETATM   23  C11 UNL     1      23.287  -0.706   4.357  1.00  0.00     0.030 A 
HETATM   24  C12 UNL     1      23.457  -1.322   3.111  1.00  0.00     0.032 A 
HETATM   25  C13 UNL     1      24.478  -0.966   2.259  1.00  0.00     0.039 A 
HETATM   26  C14 UNL     1      25.381   0.018   2.599  1.00  0.00     0.065 A 
HETATM   27  C15 UNL     1      25.202   0.614   3.826  1.00  0.00     0.039 A 
HETATM   28  C16 UNL     1      24.202   0.283   4.691  1.00  0.00     0.032 A 
BRANCH  26  29
HETATM   29  O1  UNL     1      26.415   0.389   1.750  1.00  0.00    -0.361 OA
ATOM     30  H1  UNL     1      26.289   0.469   0.812  1.00  0.00     0.217 HD
ENDBRANCH  26  29
ENDBRANCH   5  23
TORSDOF 5
ENDMDL
