MODEL 1
REMARK VINA RESULT: -8.651920899      0.000      0.000
REMARK  8 active torsions:
REMARK  status: ('A' for Active; 'I' for Inactive)
REMARK    1  A    between atoms: C4_5  and  C5_6 
REMARK    2  A    between atoms: C5_6  and  C6_7 
REMARK    3  A    between atoms: C6_7  and  O1_8 
REMARK    4  A    between atoms: C6_7  and  C7_10 
REMARK    5  A    between atoms: C10_15  and  N3_16 
REMARK    6  A    between atoms: N3_16  and  C11_18 
REMARK    7  A    between atoms: C14_21  and  O2_22 
REMARK    8  A    between atoms: O2_22  and  C15_23 
ROOT
HETATM    1  C7  UNL     1     -12.778 -36.589 -11.223  1.00  0.00     0.056 A 
HETATM    2  C8  UNL     1     -11.501 -36.967 -10.822  1.00  0.00     0.046 A 
HETATM    3  C9  UNL     1     -11.031 -38.241 -11.033  1.00  0.00     0.108 A 
HETATM    4  N2  UNL     1     -11.824 -39.129 -11.636  1.00  0.00    -0.202 N 
ATOM      5  H2  UNL     1     -11.491 -40.078 -11.799  1.00  0.00     0.183 HD
HETATM    6  C10 UNL     1     -13.052 -38.778 -12.026  1.00  0.00     0.682 A 
HETATM    7  N4  UNL     1     -13.503 -37.537 -11.818  1.00  0.00    -0.193 N 
ATOM      8  H4  UNL     1     -14.445 -37.304 -12.129  1.00  0.00     0.184 HD
ENDROOT
BRANCH   6   9
HETATM    9  N3  UNL     1     -13.754 -39.698 -12.602  1.00  0.00    -0.192 N 
ATOM     10  H3  UNL     1     -13.957 -39.640 -13.599  1.00  0.00     0.184 HD
BRANCH   9  11
HETATM   11  C11 UNL     1     -14.244 -40.794 -11.833  1.00  0.00     0.050 A 
HETATM   12  C12 UNL     1     -14.282 -40.783 -10.462  1.00  0.00     0.033 A 
HETATM   13  C13 UNL     1     -14.766 -41.873  -9.739  1.00  0.00     0.040 A 
HETATM   14  C14 UNL     1     -15.229 -43.012 -10.348  1.00  0.00     0.086 A 
HETATM   15  C20 UNL     1     -15.182 -43.005 -11.746  1.00  0.00     0.046 A 
HETATM   16 BR1  UNL     1     -15.817 -44.573 -12.642  1.00  0.00    -0.048 Br
HETATM   17  C21 UNL     1     -14.704 -41.929 -12.464  1.00  0.00     0.052 A 
BRANCH  14  18
HETATM   18  O2  UNL     1     -15.722 -44.132  -9.741  1.00  0.00    -0.344 OA
BRANCH  18  19
HETATM   19  C15 UNL     1     -14.945 -45.024  -9.037  1.00  0.00     0.129 C 
HETATM   20  C16 UNL     1     -14.948 -44.772  -7.540  1.00  0.00     0.032 C 
HETATM   21  C17 UNL     1     -15.369 -46.081  -6.913  1.00  0.00     0.002 C 
HETATM   22  C18 UNL     1     -14.980 -47.098  -7.965  1.00  0.00     0.002 C 
HETATM   23  C19 UNL     1     -15.541 -46.413  -9.217  1.00  0.00     0.032 C 
ENDBRANCH  18  19
ENDBRANCH  14  18
ENDBRANCH   9  11
ENDBRANCH   6   9
BRANCH   1  24
HETATM   24  C6  UNL     1     -13.277 -35.191 -10.983  1.00  0.00     0.168 C 
BRANCH  24  25
HETATM   25  C5  UNL     1     -14.488 -35.017 -11.850  1.00  0.00     0.043 C 
BRANCH  25  26
HETATM   26  C4  UNL     1     -14.221 -34.326 -13.160  1.00  0.00    -0.007 C 
HETATM   27  C3  UNL     1     -15.461 -33.479 -13.450  1.00  0.00     0.035 C 
HETATM   28  C2  UNL     1     -15.297 -32.980 -14.857  1.00  0.00     0.274 C 
HETATM   29  N1  UNL     1     -15.488 -34.052 -15.795  1.00  0.00     0.102 N 
HETATM   30  C1  UNL     1     -16.913 -34.182 -16.039  1.00  0.00     0.311 C 
HETATM   31  C23 UNL     1     -14.994 -35.322 -15.340  1.00  0.00     0.318 C 
HETATM   32  C22 UNL     1     -13.924 -35.228 -14.295  1.00  0.00     0.056 C 
HETATM   33 CL1  UNL     1     -16.282 -36.388 -14.732  1.00  0.00    -0.092 Cl
ENDBRANCH  25  26
ENDBRANCH  24  25
BRANCH  24  34
HETATM   34  O1  UNL     1     -13.601 -35.127  -9.627  1.00  0.00    -0.389 OA
ATOM     35  H1  UNL     1     -13.059 -34.497  -9.167  1.00  0.00     0.210 HD
ENDBRANCH  24  34
ENDBRANCH   1  24
TORSDOF 8
ENDMDL
MODEL 2
REMARK VINA RESULT: -8.315508696      2.354      4.207
REMARK  8 active torsions:
REMARK  status: ('A' for Active; 'I' for Inactive)
REMARK    1  A    between atoms: C4_5  and  C5_6 
REMARK    2  A    between atoms: C5_6  and  C6_7 
REMARK    3  A    between atoms: C6_7  and  O1_8 
REMARK    4  A    between atoms: C6_7  and  C7_10 
REMARK    5  A    between atoms: C10_15  and  N3_16 
REMARK    6  A    between atoms: N3_16  and  C11_18 
REMARK    7  A    between atoms: C14_21  and  O2_22 
REMARK    8  A    between atoms: O2_22  and  C15_23 
ROOT
HETATM    1  C7  UNL     1     -15.916 -37.070 -13.335  1.00  0.00     0.056 A 
HETATM    2  C8  UNL     1     -15.938 -37.234 -14.716  1.00  0.00     0.046 A 
HETATM    3  C9  UNL     1     -16.619 -38.273 -15.303  1.00  0.00     0.108 A 
HETATM    4  N2  UNL     1     -17.271 -39.139 -14.525  1.00  0.00    -0.202 N 
ATOM      5  H2  UNL     1     -17.781 -39.915 -14.945  1.00  0.00     0.183 HD
HETATM    6  C10 UNL     1     -17.258 -38.991 -13.197  1.00  0.00     0.682 A 
HETATM    7  N4  UNL     1     -16.594 -37.979 -12.632  1.00  0.00    -0.193 N 
ATOM      8  H4  UNL     1     -16.605 -37.898 -11.616  1.00  0.00     0.184 HD
ENDROOT
BRANCH   6   9
HETATM    9  N3  UNL     1     -17.914 -39.874 -12.518  1.00  0.00    -0.192 N 
ATOM     10  H3  UNL     1     -18.930 -39.816 -12.448  1.00  0.00     0.184 HD
BRANCH   9  11
HETATM   11  C11 UNL     1     -17.210 -40.927 -11.865  1.00  0.00     0.050 A 
HETATM   12  C12 UNL     1     -16.690 -40.803 -10.602  1.00  0.00     0.033 A 
HETATM   13  C13 UNL     1     -16.004 -41.853  -9.992  1.00  0.00     0.040 A 
HETATM   14  C14 UNL     1     -15.809 -43.062 -10.611  1.00  0.00     0.086 A 
HETATM   15  C20 UNL     1     -16.345 -43.169 -11.898  1.00  0.00     0.046 A 
HETATM   16 BR1  UNL     1     -16.098 -44.837 -12.804  1.00  0.00    -0.048 Br
HETATM   17  C21 UNL     1     -17.024 -42.133 -12.505  1.00  0.00     0.052 A 
BRANCH  14  18
HETATM   18  O2  UNL     1     -15.156 -44.152 -10.109  1.00  0.00    -0.344 OA
BRANCH  18  19
HETATM   19  C15 UNL     1     -15.572 -44.848  -8.997  1.00  0.00     0.129 C 
HETATM   20  C16 UNL     1     -15.245 -46.328  -9.057  1.00  0.00     0.032 C 
HETATM   21  C17 UNL     1     -14.466 -46.619  -7.794  1.00  0.00     0.002 C 
HETATM   22  C18 UNL     1     -14.923 -45.521  -6.858  1.00  0.00     0.002 C 
HETATM   23  C19 UNL     1     -14.812 -44.311  -7.792  1.00  0.00     0.032 C 
ENDBRANCH  18  19
ENDBRANCH  14  18
ENDBRANCH   9  11
ENDBRANCH   6   9
BRANCH   1  24
HETATM   24  C6  UNL     1     -15.163 -35.930 -12.707  1.00  0.00     0.168 C 
BRANCH  24  25
HETATM   25  C5  UNL     1     -13.807 -35.912 -13.346  1.00  0.00     0.043 C 
BRANCH  25  26
HETATM   26  C4  UNL     1     -12.671 -35.674 -12.390  1.00  0.00    -0.007 C 
HETATM   27  C3  UNL     1     -11.493 -36.490 -12.922  1.00  0.00     0.035 C 
HETATM   28  C2  UNL     1     -10.441 -36.442 -11.850  1.00  0.00     0.274 C 
HETATM   29  N1  UNL     1     -10.833 -37.251 -10.728  1.00  0.00     0.102 N 
HETATM   30  C1  UNL     1     -10.443 -38.621 -11.007  1.00  0.00     0.311 C 
HETATM   31  C23 UNL     1     -12.244 -37.234 -10.459  1.00  0.00     0.318 C 
HETATM   32  C22 UNL     1     -12.956 -36.022 -10.980  1.00  0.00     0.056 C 
HETATM   33 CL1  UNL     1     -13.082 -38.681 -11.064  1.00  0.00    -0.092 Cl
ENDBRANCH  25  26
ENDBRANCH  24  25
BRANCH  24  34
HETATM   34  O1  UNL     1     -15.890 -34.778 -13.009  1.00  0.00    -0.389 OA
ATOM     35  H1  UNL     1     -16.683 -34.980 -13.489  1.00  0.00     0.210 HD
ENDBRANCH  24  34
ENDBRANCH   1  24
TORSDOF 8
ENDMDL
MODEL 3
REMARK VINA RESULT: -8.271950691      3.304      4.916
REMARK  8 active torsions:
REMARK  status: ('A' for Active; 'I' for Inactive)
REMARK    1  A    between atoms: C4_5  and  C5_6 
REMARK    2  A    between atoms: C5_6  and  C6_7 
REMARK    3  A    between atoms: C6_7  and  O1_8 
REMARK    4  A    between atoms: C6_7  and  C7_10 
REMARK    5  A    between atoms: C10_15  and  N3_16 
REMARK    6  A    between atoms: N3_16  and  C11_18 
REMARK    7  A    between atoms: C14_21  and  O2_22 
REMARK    8  A    between atoms: O2_22  and  C15_23 
ROOT
HETATM    1  C7  UNL     1     -11.537 -38.055 -11.984  1.00  0.00     0.056 A 
HETATM    2  C8  UNL     1     -12.221 -36.858 -11.801  1.00  0.00     0.046 A 
HETATM    3  C9  UNL     1     -13.565 -36.753 -12.067  1.00  0.00     0.108 A 
HETATM    4  N2  UNL     1     -14.221 -37.827 -12.510  1.00  0.00    -0.202 N 
ATOM      5  H2  UNL     1     -15.219 -37.766 -12.712  1.00  0.00     0.183 HD
HETATM    6  C10 UNL     1     -13.575 -38.982 -12.689  1.00  0.00     0.682 A 
HETATM    7  N4  UNL     1     -12.268 -39.078 -12.429  1.00  0.00    -0.193 N 
ATOM      8  H4  UNL     1     -11.808 -39.976 -12.578  1.00  0.00     0.184 HD
ENDROOT
BRANCH   6   9
HETATM    9  N3  UNL     1     -14.285 -39.973 -13.121  1.00  0.00    -0.192 N 
ATOM     10  H3  UNL     1     -14.575 -40.009 -14.098  1.00  0.00     0.184 HD
BRANCH   9  11
HETATM   11  C11 UNL     1     -14.660 -41.015 -12.224  1.00  0.00     0.050 A 
HETATM   12  C12 UNL     1     -14.585 -40.884 -10.860  1.00  0.00     0.033 A 
HETATM   13  C13 UNL     1     -14.958 -41.924 -10.009  1.00  0.00     0.040 A 
HETATM   14  C14 UNL     1     -15.418 -43.129 -10.478  1.00  0.00     0.086 A 
HETATM   15  C20 UNL     1     -15.486 -43.244 -11.869  1.00  0.00     0.046 A 
HETATM   16 BR1  UNL     1     -16.121 -44.907 -12.572  1.00  0.00    -0.048 Br
HETATM   17  C21 UNL     1     -15.118 -42.218 -12.715  1.00  0.00     0.052 A 
BRANCH  14  18
HETATM   18  O2  UNL     1     -15.807 -44.209  -9.737  1.00  0.00    -0.344 OA
BRANCH  18  19
HETATM   19  C15 UNL     1     -14.942 -44.978  -8.992  1.00  0.00     0.129 C 
HETATM   20  C16 UNL     1     -14.877 -44.567  -7.533  1.00  0.00     0.032 C 
HETATM   21  C17 UNL     1     -15.185 -45.821  -6.748  1.00  0.00     0.002 C 
HETATM   22  C18 UNL     1     -14.795 -46.923  -7.711  1.00  0.00     0.002 C 
HETATM   23  C19 UNL     1     -15.463 -46.408  -8.990  1.00  0.00     0.032 C 
ENDBRANCH  18  19
ENDBRANCH  14  18
ENDBRANCH   9  11
ENDBRANCH   6   9
BRANCH   1  24
HETATM   24  C6  UNL     1     -10.066 -38.152 -11.692  1.00  0.00     0.168 C 
BRANCH  24  25
HETATM   25  C5  UNL     1      -9.392 -37.123 -12.549  1.00  0.00     0.043 C 
BRANCH  25  26
HETATM   26  C4  UNL     1      -9.240 -37.518 -13.992  1.00  0.00    -0.007 C 
HETATM   27  C3  UNL     1      -8.907 -39.011 -13.988  1.00  0.00     0.035 C 
HETATM   28  C2  UNL     1      -8.525 -39.351 -15.400  1.00  0.00     0.274 C 
HETATM   29  N1  UNL     1      -7.237 -38.797 -15.718  1.00  0.00     0.102 N 
HETATM   30  C1  UNL     1      -6.224 -39.727 -15.253  1.00  0.00     0.311 C 
HETATM   31  C23 UNL     1      -6.984 -37.519 -15.113  1.00  0.00     0.318 C 
HETATM   32  C22 UNL     1      -8.220 -36.755 -14.746  1.00  0.00     0.056 C 
HETATM   33 CL1  UNL     1      -5.945 -37.629 -13.673  1.00  0.00    -0.092 Cl
ENDBRANCH  25  26
ENDBRANCH  24  25
BRANCH  24  34
HETATM   34  O1  UNL     1      -9.924 -37.865 -10.334  1.00  0.00    -0.389 OA
ATOM     35  H1  UNL     1     -10.711 -38.078  -9.847  1.00  0.00     0.210 HD
ENDBRANCH  24  34
ENDBRANCH   1  24
TORSDOF 8
ENDMDL
MODEL 4
REMARK VINA RESULT: -8.174053301      3.748      4.980
REMARK  8 active torsions:
REMARK  status: ('A' for Active; 'I' for Inactive)
REMARK    1  A    between atoms: C4_5  and  C5_6 
REMARK    2  A    between atoms: C5_6  and  C6_7 
REMARK    3  A    between atoms: C6_7  and  O1_8 
REMARK    4  A    between atoms: C6_7  and  C7_10 
REMARK    5  A    between atoms: C10_15  and  N3_16 
REMARK    6  A    between atoms: N3_16  and  C11_18 
REMARK    7  A    between atoms: C14_21  and  O2_22 
REMARK    8  A    between atoms: O2_22  and  C15_23 
ROOT
HETATM    1  C7  UNL     1     -13.741 -39.473 -11.521  1.00  0.00     0.056 A 
HETATM    2  C8  UNL     1     -14.235 -39.334 -12.814  1.00  0.00     0.046 A 
HETATM    3  C9  UNL     1     -15.389 -39.963 -13.212  1.00  0.00     0.108 A 
HETATM    4  N2  UNL     1     -16.045 -40.724 -12.333  1.00  0.00    -0.202 N 
ATOM      5  H2  UNL     1     -16.903 -41.199 -12.612  1.00  0.00     0.183 HD
HETATM    6  C10 UNL     1     -15.581 -40.866 -11.089  1.00  0.00     0.682 A 
HETATM    7  N4  UNL     1     -14.458 -40.250 -10.708  1.00  0.00    -0.193 N 
ATOM      8  H4  UNL     1     -14.133 -40.381  -9.750  1.00  0.00     0.184 HD
ENDROOT
BRANCH   6   9
HETATM    9  N3  UNL     1     -16.276 -41.620 -10.301  1.00  0.00    -0.192 N 
ATOM     10  H3  UNL     1     -17.118 -41.257  -9.855  1.00  0.00     0.184 HD
BRANCH   9  11
HETATM   11  C11 UNL     1     -15.858 -42.961 -10.061  1.00  0.00     0.050 A 
HETATM   12  C12 UNL     1     -15.866 -43.928 -11.034  1.00  0.00     0.033 A 
HETATM   13  C13 UNL     1     -15.452 -45.233 -10.766  1.00  0.00     0.040 A 
HETATM   14  C14 UNL     1     -15.016 -45.625  -9.525  1.00  0.00     0.086 A 
HETATM   15  C20 UNL     1     -15.016 -44.627  -8.547  1.00  0.00     0.046 A 
HETATM   16 BR1  UNL     1     -14.417 -45.127  -6.799  1.00  0.00    -0.048 Br
HETATM   17  C21 UNL     1     -15.425 -43.336  -8.808  1.00  0.00     0.052 A 
BRANCH  14  18
HETATM   18  O2  UNL     1     -14.591 -46.870  -9.155  1.00  0.00    -0.344 OA
BRANCH  18  19
HETATM   19  C15 UNL     1     -15.335 -48.015  -9.330  1.00  0.00     0.129 C 
HETATM   20  C16 UNL     1     -14.504 -49.284  -9.280  1.00  0.00     0.032 C 
HETATM   21  C17 UNL     1     -15.150 -50.147  -8.220  1.00  0.00     0.002 C 
HETATM   22  C18 UNL     1     -16.575 -49.634  -8.193  1.00  0.00     0.002 C 
HETATM   23  C19 UNL     1     -16.314 -48.124  -8.169  1.00  0.00     0.032 C 
ENDBRANCH  18  19
ENDBRANCH  14  18
ENDBRANCH   9  11
ENDBRANCH   6   9
BRANCH   1  24
HETATM   24  C6  UNL     1     -12.474 -38.780 -11.102  1.00  0.00     0.168 C 
BRANCH  24  25
HETATM   25  C5  UNL     1     -11.768 -38.384 -12.365  1.00  0.00     0.043 C 
BRANCH  25  26
HETATM   26  C4  UNL     1     -10.271 -38.310 -12.243  1.00  0.00    -0.007 C 
HETATM   27  C3  UNL     1      -9.886 -36.884 -12.639  1.00  0.00     0.035 C 
HETATM   28  C2  UNL     1      -8.388 -36.877 -12.746  1.00  0.00     0.274 C 
HETATM   29  N1  UNL     1      -7.966 -37.595 -13.917  1.00  0.00     0.102 N 
HETATM   30  C1  UNL     1      -8.020 -36.682 -15.044  1.00  0.00     0.311 C 
HETATM   31  C23 UNL     1      -8.780 -38.738 -14.227  1.00  0.00     0.318 C 
HETATM   32  C22 UNL     1      -9.527 -39.298 -13.055  1.00  0.00     0.056 C 
HETATM   33 CL1  UNL     1      -9.942 -38.425 -15.537  1.00  0.00    -0.092 Cl
ENDBRANCH  25  26
ENDBRANCH  24  25
BRANCH  24  34
HETATM   34  O1  UNL     1     -12.873 -37.665 -10.364  1.00  0.00    -0.389 OA
ATOM     35  H1  UNL     1     -12.132 -37.227  -9.963  1.00  0.00     0.210 HD
ENDBRANCH  24  34
ENDBRANCH   1  24
TORSDOF 8
ENDMDL
MODEL 5
REMARK VINA RESULT: -8.151855063      2.338      4.228
REMARK  8 active torsions:
REMARK  status: ('A' for Active; 'I' for Inactive)
REMARK    1  A    between atoms: C4_5  and  C5_6 
REMARK    2  A    between atoms: C5_6  and  C6_7 
REMARK    3  A    between atoms: C6_7  and  O1_8 
REMARK    4  A    between atoms: C6_7  and  C7_10 
REMARK    5  A    between atoms: C10_15  and  N3_16 
REMARK    6  A    between atoms: N3_16  and  C11_18 
REMARK    7  A    between atoms: C14_21  and  O2_22 
REMARK    8  A    between atoms: O2_22  and  C15_23 
ROOT
HETATM    1  C7  UNL     1     -13.409 -36.810 -12.107  1.00  0.00     0.056 A 
HETATM    2  C8  UNL     1     -13.433 -35.806 -13.069  1.00  0.00     0.046 A 
HETATM    3  C9  UNL     1     -14.388 -35.782 -14.056  1.00  0.00     0.108 A 
HETATM    4  N2  UNL     1     -15.310 -36.746 -14.085  1.00  0.00    -0.202 N 
ATOM      5  H2  UNL     1     -16.026 -36.742 -14.811  1.00  0.00     0.183 HD
HETATM    6  C10 UNL     1     -15.299 -37.715 -13.166  1.00  0.00     0.682 A 
HETATM    7  N4  UNL     1     -14.367 -37.733 -12.209  1.00  0.00    -0.193 N 
ATOM      8  H4  UNL     1     -14.388 -38.488 -11.524  1.00  0.00     0.184 HD
ENDROOT
BRANCH   6   9
HETATM    9  N3  UNL     1     -16.227 -38.610 -13.266  1.00  0.00    -0.192 N 
ATOM     10  H3  UNL     1     -17.095 -38.396 -13.756  1.00  0.00     0.184 HD
BRANCH   9  11
HETATM   11  C11 UNL     1     -16.029 -39.897 -12.687  1.00  0.00     0.050 A 
HETATM   12  C12 UNL     1     -16.587 -40.267 -11.490  1.00  0.00     0.033 A 
HETATM   13  C13 UNL     1     -16.374 -41.535 -10.949  1.00  0.00     0.040 A 
HETATM   14  C14 UNL     1     -15.600 -42.480 -11.575  1.00  0.00     0.086 A 
HETATM   15  C20 UNL     1     -15.040 -42.085 -12.793  1.00  0.00     0.046 A 
HETATM   16 BR1  UNL     1     -13.951 -43.369 -13.704  1.00  0.00    -0.048 Br
HETATM   17  C21 UNL     1     -15.249 -40.831 -13.331  1.00  0.00     0.052 A 
BRANCH  14  18
HETATM   18  O2  UNL     1     -15.325 -43.744 -11.137  1.00  0.00    -0.344 OA
BRANCH  18  19
HETATM   19  C15 UNL     1     -15.737 -44.238  -9.920  1.00  0.00     0.129 C 
HETATM   20  C16 UNL     1     -15.423 -45.711  -9.731  1.00  0.00     0.032 C 
HETATM   21  C17 UNL     1     -14.635 -45.792  -8.444  1.00  0.00     0.002 C 
HETATM   22  C18 UNL     1     -15.074 -44.547  -7.703  1.00  0.00     0.002 C 
HETATM   23  C19 UNL     1     -14.961 -43.514  -8.829  1.00  0.00     0.032 C 
ENDBRANCH  18  19
ENDBRANCH  14  18
ENDBRANCH   9  11
ENDBRANCH   6   9
BRANCH   1  24
HETATM   24  C6  UNL     1     -12.355 -36.824 -11.035  1.00  0.00     0.168 C 
BRANCH  24  25
HETATM   25  C5  UNL     1     -11.156 -36.128 -11.608  1.00  0.00     0.043 C 
BRANCH  25  26
HETATM   26  C4  UNL     1      -9.953 -37.011 -11.791  1.00  0.00    -0.007 C 
HETATM   27  C3  UNL     1      -9.159 -36.407 -12.950  1.00  0.00     0.035 C 
HETATM   28  C2  UNL     1      -8.093 -37.411 -13.285  1.00  0.00     0.274 C 
HETATM   29  N1  UNL     1      -8.670 -38.557 -13.934  1.00  0.00     0.102 N 
HETATM   30  C1  UNL     1      -8.789 -38.256 -15.349  1.00  0.00     0.311 C 
HETATM   31  C23 UNL     1      -9.971 -38.914 -13.441  1.00  0.00     0.318 C 
HETATM   32  C22 UNL     1     -10.255 -38.437 -12.049  1.00  0.00     0.056 C 
HETATM   33 CL1  UNL     1     -11.288 -38.365 -14.503  1.00  0.00    -0.092 Cl
ENDBRANCH  25  26
ENDBRANCH  24  25
BRANCH  24  34
HETATM   34  O1  UNL     1     -12.893 -36.120  -9.957  1.00  0.00    -0.389 OA
ATOM     35  H1  UNL     1     -13.233 -35.275 -10.226  1.00  0.00     0.210 HD
ENDBRANCH  24  34
ENDBRANCH   1  24
TORSDOF 8
ENDMDL
