MODEL 1
REMARK VINA RESULT: -9.786285527      0.000      0.000
REMARK  6 active torsions:
REMARK  status: ('A' for Active; 'I' for Inactive)
REMARK    1  A    between atoms: C2_5  and  C3_7 
REMARK    2  A    between atoms: C8_12  and  C9_13 
REMARK    3  A    between atoms: C9_13  and  O1_14 
REMARK    4  A    between atoms: O1_14  and  C10_15 
REMARK    5  A    between atoms: C13_20  and  C14_21 
REMARK    6  A    between atoms: C14_21  and  C15_23 
ROOT
HETATM    1  N1  UNL     1      -7.620 -37.130 -12.937  1.00  0.00    -0.172 NA
HETATM    2  C1  UNL     1      -8.568 -36.684 -12.443  1.00  0.00     0.182 C 
HETATM    3  N2  UNL     1      -9.695 -36.137 -11.826  1.00  0.00    -0.285 N 
ATOM      4  H2  UNL     1      -9.817 -35.125 -11.856  1.00  0.00     0.179 HD
HETATM    5  C2  UNL     1     -10.584 -36.839 -11.224  1.00  0.00     0.106 C 
HETATM    6  N3  UNL     1     -10.427 -38.249 -11.173  1.00  0.00    -0.086 NA
ENDROOT
BRANCH   5   7
HETATM    7  C3  UNL     1     -11.738 -36.190 -10.627  1.00  0.00     0.057 C 
HETATM    8  C4  UNL     1     -11.287 -35.082  -9.643  1.00  0.00     0.012 C 
HETATM    9  C5  UNL     1     -12.476 -34.673  -8.869  1.00  0.00     0.001 C 
HETATM   10  C6  UNL     1     -13.690 -34.275  -9.640  1.00  0.00     0.001 C 
HETATM   11  C7  UNL     1     -13.916 -35.003 -10.913  1.00  0.00     0.007 C 
HETATM   12  C8  UNL     1     -12.654 -35.524 -11.561  1.00  0.00     0.021 C 
BRANCH  12  13
HETATM   13  C9  UNL     1     -13.007 -36.315 -12.782  1.00  0.00     0.181 C 
BRANCH  13  14
HETATM   14  O1  UNL     1     -14.355 -36.599 -12.945  1.00  0.00    -0.345 OA
BRANCH  14  15
HETATM   15  C10 UNL     1     -14.892 -37.915 -13.019  1.00  0.00     0.142 A 
HETATM   16  C11 UNL     1     -15.838 -38.167 -13.984  1.00  0.00     0.193 A 
HETATM   17  F1  UNL     1     -16.345 -37.275 -14.907  1.00  0.00    -0.195 F 
HETATM   18  S1  UNL     1     -16.205 -39.812 -13.739  1.00  0.00    -0.054 SA
HETATM   19  C12 UNL     1     -15.164 -40.144 -12.434  1.00  0.00     0.053 A 
HETATM   20  C13 UNL     1     -14.707 -41.130 -11.533  1.00  0.00     0.050 A 
HETATM   21  C22 UNL     1     -14.547 -38.948 -12.216  1.00  0.00     0.087 A 
HETATM   22  C21 UNL     1     -13.799 -40.479 -10.772  1.00  0.00     0.105 A 
HETATM   23  N4  UNL     1     -13.692 -39.185 -11.161  1.00  0.00    -0.361 N 
ATOM     24  H4  UNL     1     -13.074 -38.492 -10.738  1.00  0.00     0.165 HD
BRANCH  20  25
HETATM   25  C14 UNL     1     -15.236 -42.468 -11.583  1.00  0.00     0.195 C 
HETATM   26  O2  UNL     1     -15.769 -42.863 -12.694  1.00  0.00    -0.287 OA
BRANCH  25  27
HETATM   27  C15 UNL     1     -15.239 -43.445 -10.520  1.00  0.00     0.015 A 
HETATM   28  C16 UNL     1     -15.212 -43.084  -9.204  1.00  0.00     0.017 A 
HETATM   29  C17 UNL     1     -15.204 -44.028  -8.169  1.00  0.00     0.020 A 
HETATM   30  C18 UNL     1     -15.221 -45.360  -8.448  1.00  0.00     0.011 A 
HETATM   31 BR1  UNL     1     -15.201 -46.624  -7.017  1.00  0.00    -0.051 Br
HETATM   32  C19 UNL     1     -15.248 -45.741  -9.771  1.00  0.00     0.020 A 
HETATM   33  C20 UNL     1     -15.257 -44.804 -10.785  1.00  0.00     0.017 A 
ENDBRANCH  25  27
ENDBRANCH  20  25
ENDBRANCH  14  15
ENDBRANCH  13  14
ENDBRANCH  12  13
ENDBRANCH   5   7
TORSDOF 6
ENDMDL
MODEL 2
REMARK VINA RESULT: -9.558065525      2.240      3.486
REMARK  6 active torsions:
REMARK  status: ('A' for Active; 'I' for Inactive)
REMARK    1  A    between atoms: C2_5  and  C3_7 
REMARK    2  A    between atoms: C8_12  and  C9_13 
REMARK    3  A    between atoms: C9_13  and  O1_14 
REMARK    4  A    between atoms: O1_14  and  C10_15 
REMARK    5  A    between atoms: C13_20  and  C14_21 
REMARK    6  A    between atoms: C14_21  and  C15_23 
ROOT
HETATM    1  N1  UNL     1     -17.692 -35.050 -14.392  1.00  0.00    -0.172 NA
HETATM    2  C1  UNL     1     -16.767 -35.173 -13.706  1.00  0.00     0.182 C 
HETATM    3  N2  UNL     1     -15.668 -35.316 -12.857  1.00  0.00    -0.285 N 
ATOM      4  H2  UNL     1     -15.624 -36.143 -12.260  1.00  0.00     0.179 HD
HETATM    5  C2  UNL     1     -14.712 -34.465 -12.788  1.00  0.00     0.106 C 
HETATM    6  N3  UNL     1     -14.759 -33.309 -13.611  1.00  0.00    -0.086 NA
ENDROOT
BRANCH   5   7
HETATM    7  C3  UNL     1     -13.594 -34.702 -11.890  1.00  0.00     0.057 C 
HETATM    8  C4  UNL     1     -14.057 -34.621 -10.415  1.00  0.00     0.012 C 
HETATM    9  C5  UNL     1     -12.842 -34.580  -9.577  1.00  0.00     0.001 C 
HETATM   10  C6  UNL     1     -11.830 -35.657  -9.786  1.00  0.00     0.001 C 
HETATM   11  C7  UNL     1     -11.687 -36.149 -11.178  1.00  0.00     0.007 C 
HETATM   12  C8  UNL     1     -12.937 -36.010 -12.015  1.00  0.00     0.021 C 
BRANCH  12  13
HETATM   13  C9  UNL     1     -12.654 -36.450 -13.418  1.00  0.00     0.181 C 
BRANCH  13  14
HETATM   14  O1  UNL     1     -12.306 -37.784 -13.570  1.00  0.00    -0.345 OA
BRANCH  14  15
HETATM   15  C10 UNL     1     -13.227 -38.867 -13.484  1.00  0.00     0.142 A 
HETATM   16  C11 UNL     1     -13.839 -39.279 -14.643  1.00  0.00     0.193 A 
HETATM   17  F1  UNL     1     -13.668 -38.755 -15.909  1.00  0.00    -0.195 F 
HETATM   18  S1  UNL     1     -14.830 -40.561 -14.117  1.00  0.00    -0.054 SA
HETATM   19  C12 UNL     1     -14.452 -40.548 -12.458  1.00  0.00     0.053 A 
HETATM   20  C13 UNL     1     -14.693 -41.155 -11.206  1.00  0.00     0.050 A 
HETATM   21  C22 UNL     1     -13.551 -39.531 -12.351  1.00  0.00     0.087 A 
HETATM   22  C21 UNL     1     -13.905 -40.462 -10.352  1.00  0.00     0.105 A 
HETATM   23  N4  UNL     1     -13.223 -39.495 -11.012  1.00  0.00    -0.361 N 
ATOM     24  H4  UNL     1     -12.567 -38.842 -10.585  1.00  0.00     0.165 HD
BRANCH  20  25
HETATM   25  C14 UNL     1     -15.622 -42.248 -11.089  1.00  0.00     0.195 C 
HETATM   26  O2  UNL     1     -16.706 -42.194 -11.795  1.00  0.00    -0.287 OA
BRANCH  25  27
HETATM   27  C15 UNL     1     -15.484 -43.427 -10.267  1.00  0.00     0.015 A 
HETATM   28  C16 UNL     1     -15.507 -44.685 -10.796  1.00  0.00     0.017 A 
HETATM   29  C17 UNL     1     -15.385 -45.833 -10.001  1.00  0.00     0.020 A 
HETATM   30  C18 UNL     1     -15.239 -45.727  -8.653  1.00  0.00     0.011 A 
HETATM   31 BR1  UNL     1     -15.082 -47.309  -7.595  1.00  0.00    -0.051 Br
HETATM   32  C19 UNL     1     -15.213 -44.465  -8.103  1.00  0.00     0.020 A 
HETATM   33  C20 UNL     1     -15.334 -43.339  -8.893  1.00  0.00     0.017 A 
ENDBRANCH  25  27
ENDBRANCH  20  25
ENDBRANCH  14  15
ENDBRANCH  13  14
ENDBRANCH  12  13
ENDBRANCH   5   7
TORSDOF 6
ENDMDL
MODEL 3
REMARK VINA RESULT: -9.447999698      1.942      2.738
REMARK  6 active torsions:
REMARK  status: ('A' for Active; 'I' for Inactive)
REMARK    1  A    between atoms: C2_5  and  C3_7 
REMARK    2  A    between atoms: C8_12  and  C9_13 
REMARK    3  A    between atoms: C9_13  and  O1_14 
REMARK    4  A    between atoms: O1_14  and  C10_15 
REMARK    5  A    between atoms: C13_20  and  C14_21 
REMARK    6  A    between atoms: C14_21  and  C15_23 
ROOT
HETATM    1  N1  UNL     1     -10.814 -34.978  -8.172  1.00  0.00    -0.172 NA
HETATM    2  C1  UNL     1     -11.479 -34.913  -9.118  1.00  0.00     0.182 C 
HETATM    3  N2  UNL     1     -12.302 -34.825 -10.243  1.00  0.00    -0.285 N 
ATOM      4  H2  UNL     1     -12.521 -33.898 -10.610  1.00  0.00     0.179 HD
HETATM    5  C2  UNL     1     -12.798 -35.847 -10.839  1.00  0.00     0.106 C 
HETATM    6  N3  UNL     1     -12.506 -37.143 -10.340  1.00  0.00    -0.086 NA
ENDROOT
BRANCH   5   7
HETATM    7  C3  UNL     1     -13.629 -35.666 -12.018  1.00  0.00     0.057 C 
HETATM    8  C4  UNL     1     -14.101 -34.194 -12.127  1.00  0.00     0.012 C 
HETATM    9  C5  UNL     1     -15.156 -34.148 -13.158  1.00  0.00     0.001 C 
HETATM   10  C6  UNL     1     -14.833 -34.732 -14.493  1.00  0.00     0.001 C 
HETATM   11  C7  UNL     1     -13.933 -35.911 -14.484  1.00  0.00     0.007 C 
HETATM   12  C8  UNL     1     -12.988 -35.960 -13.306  1.00  0.00     0.021 C 
BRANCH  12  13
HETATM   13  C9  UNL     1     -12.196 -37.230 -13.349  1.00  0.00     0.181 C 
BRANCH  13  14
HETATM   14  O1  UNL     1     -12.737 -38.248 -14.119  1.00  0.00    -0.345 OA
BRANCH  14  15
HETATM   15  C10 UNL     1     -13.750 -39.142 -13.666  1.00  0.00     0.142 A 
HETATM   16  C11 UNL     1     -14.766 -39.452 -14.538  1.00  0.00     0.193 A 
HETATM   17  F1  UNL     1     -14.930 -38.985 -15.827  1.00  0.00    -0.195 F 
HETATM   18  S1  UNL     1     -15.733 -40.522 -13.633  1.00  0.00    -0.054 SA
HETATM   19  C12 UNL     1     -14.840 -40.556 -12.185  1.00  0.00     0.053 A 
HETATM   20  C13 UNL     1     -14.760 -41.091 -10.881  1.00  0.00     0.050 A 
HETATM   21  C22 UNL     1     -13.795 -39.720 -12.444  1.00  0.00     0.087 A 
HETATM   22  C21 UNL     1     -13.632 -40.542 -10.374  1.00  0.00     0.105 A 
HETATM   23  N4  UNL     1     -13.048 -39.726 -11.285  1.00  0.00    -0.361 N 
ATOM     24  H4  UNL     1     -12.188 -39.199 -11.136  1.00  0.00     0.165 HD
BRANCH  20  25
HETATM   25  C14 UNL     1     -15.771 -41.993 -10.397  1.00  0.00     0.195 C 
HETATM   26  O2  UNL     1     -16.997 -41.576 -10.392  1.00  0.00    -0.287 OA
BRANCH  25  27
HETATM   27  C15 UNL     1     -15.580 -43.339  -9.910  1.00  0.00     0.015 A 
HETATM   28  C16 UNL     1     -15.670 -44.425 -10.731  1.00  0.00     0.017 A 
HETATM   29  C17 UNL     1     -15.496 -45.734 -10.263  1.00  0.00     0.020 A 
HETATM   30  C18 UNL     1     -15.228 -45.968  -8.950  1.00  0.00     0.011 A 
HETATM   31 BR1  UNL     1     -15.004 -47.763  -8.338  1.00  0.00    -0.051 Br
HETATM   32  C19 UNL     1     -15.134 -44.883  -8.107  1.00  0.00     0.020 A 
HETATM   33  C20 UNL     1     -15.306 -43.596  -8.577  1.00  0.00     0.017 A 
ENDBRANCH  25  27
ENDBRANCH  20  25
ENDBRANCH  14  15
ENDBRANCH  13  14
ENDBRANCH  12  13
ENDBRANCH   5   7
TORSDOF 6
ENDMDL
MODEL 4
REMARK VINA RESULT: -9.357090950      1.092      1.115
REMARK  6 active torsions:
REMARK  status: ('A' for Active; 'I' for Inactive)
REMARK    1  A    between atoms: C2_5  and  C3_7 
REMARK    2  A    between atoms: C8_12  and  C9_13 
REMARK    3  A    between atoms: C9_13  and  O1_14 
REMARK    4  A    between atoms: O1_14  and  C10_15 
REMARK    5  A    between atoms: C13_20  and  C14_21 
REMARK    6  A    between atoms: C14_21  and  C15_23 
ROOT
HETATM    1  N1  UNL     1      -7.976 -37.977 -13.644  1.00  0.00    -0.172 NA
HETATM    2  C1  UNL     1      -8.866 -37.433 -13.141  1.00  0.00     0.182 C 
HETATM    3  N2  UNL     1      -9.923 -36.771 -12.513  1.00  0.00    -0.285 N 
ATOM      4  H2  UNL     1      -9.905 -35.751 -12.486  1.00  0.00     0.179 HD
HETATM    5  C2  UNL     1     -10.914 -37.376 -11.968  1.00  0.00     0.106 C 
HETATM    6  N3  UNL     1     -10.952 -38.795 -11.995  1.00  0.00    -0.086 NA
ENDROOT
BRANCH   5   7
HETATM    7  C3  UNL     1     -11.983 -36.607 -11.354  1.00  0.00     0.057 C 
HETATM    8  C4  UNL     1     -11.405 -35.586 -10.343  1.00  0.00     0.012 C 
HETATM    9  C5  UNL     1     -12.538 -35.057  -9.558  1.00  0.00     0.001 C 
HETATM   10  C6  UNL     1     -13.694 -34.497 -10.318  1.00  0.00     0.001 C 
HETATM   11  C7  UNL     1     -14.003 -35.162 -11.608  1.00  0.00     0.007 C 
HETATM   12  C8  UNL     1     -12.811 -35.814 -12.270  1.00  0.00     0.021 C 
BRANCH  12  13
HETATM   13  C9  UNL     1     -13.254 -36.527 -13.510  1.00  0.00     0.181 C 
BRANCH  13  14
HETATM   14  O1  UNL     1     -14.625 -36.592 -13.708  1.00  0.00    -0.345 OA
BRANCH  14  15
HETATM   15  C10 UNL     1     -15.445 -37.675 -13.280  1.00  0.00     0.142 A 
HETATM   16  C11 UNL     1     -16.788 -37.434 -13.115  1.00  0.00     0.193 A 
HETATM   17  F1  UNL     1     -17.451 -36.240 -13.314  1.00  0.00    -0.195 F 
HETATM   18  S1  UNL     1     -17.389 -38.947 -12.614  1.00  0.00    -0.054 SA
HETATM   19  C12 UNL     1     -15.943 -39.844 -12.624  1.00  0.00     0.053 A 
HETATM   20  C13 UNL     1     -15.358 -41.108 -12.396  1.00  0.00     0.050 A 
HETATM   21  C22 UNL     1     -15.012 -38.931 -13.022  1.00  0.00     0.087 A 
HETATM   22  C21 UNL     1     -14.048 -40.914 -12.671  1.00  0.00     0.105 A 
HETATM   23  N4  UNL     1     -13.824 -39.630 -13.042  1.00  0.00    -0.361 N 
ATOM     24  H4  UNL     1     -12.916 -39.240 -13.297  1.00  0.00     0.165 HD
BRANCH  20  25
HETATM   25  C14 UNL     1     -16.162 -42.219 -11.959  1.00  0.00     0.195 C 
HETATM   26  O2  UNL     1     -17.294 -42.414 -12.557  1.00  0.00    -0.287 OA
BRANCH  25  27
HETATM   27  C15 UNL     1     -15.849 -43.166 -10.915  1.00  0.00     0.015 A 
HETATM   28  C16 UNL     1     -15.733 -42.790  -9.608  1.00  0.00     0.017 A 
HETATM   29  C17 UNL     1     -15.419 -43.703  -8.592  1.00  0.00     0.020 A 
HETATM   30  C18 UNL     1     -15.215 -45.017  -8.883  1.00  0.00     0.011 A 
HETATM   31 BR1  UNL     1     -14.781 -46.236  -7.479  1.00  0.00    -0.051 Br
HETATM   32  C19 UNL     1     -15.328 -45.412 -10.197  1.00  0.00     0.020 A 
HETATM   33  C20 UNL     1     -15.639 -44.506 -11.191  1.00  0.00     0.017 A 
ENDBRANCH  25  27
ENDBRANCH  20  25
ENDBRANCH  14  15
ENDBRANCH  13  14
ENDBRANCH  12  13
ENDBRANCH   5   7
TORSDOF 6
ENDMDL
MODEL 5
REMARK VINA RESULT: -9.259750445      1.440      1.754
REMARK  6 active torsions:
REMARK  status: ('A' for Active; 'I' for Inactive)
REMARK    1  A    between atoms: C2_5  and  C3_7 
REMARK    2  A    between atoms: C8_12  and  C9_13 
REMARK    3  A    between atoms: C9_13  and  O1_14 
REMARK    4  A    between atoms: O1_14  and  C10_15 
REMARK    5  A    between atoms: C13_20  and  C14_21 
REMARK    6  A    between atoms: C14_21  and  C15_23 
ROOT
HETATM    1  N1  UNL     1      -7.136 -37.255 -13.178  1.00  0.00    -0.172 NA
HETATM    2  C1  UNL     1      -8.182 -36.897 -12.833  1.00  0.00     0.182 C 
HETATM    3  N2  UNL     1      -9.432 -36.452 -12.396  1.00  0.00    -0.285 N 
ATOM      4  H2  UNL     1      -9.660 -35.464 -12.512  1.00  0.00     0.179 HD
HETATM    5  C2  UNL     1     -10.307 -37.218 -11.857  1.00  0.00     0.106 C 
HETATM    6  N3  UNL     1     -10.004 -38.595 -11.687  1.00  0.00    -0.086 NA
ENDROOT
BRANCH   5   7
HETATM    7  C3  UNL     1     -11.592 -36.676 -11.449  1.00  0.00     0.057 C 
HETATM    8  C4  UNL     1     -11.394 -35.473 -10.495  1.00  0.00     0.012 C 
HETATM    9  C5  UNL     1     -12.710 -35.164  -9.901  1.00  0.00     0.001 C 
HETATM   10  C6  UNL     1     -13.851 -34.952 -10.838  1.00  0.00     0.001 C 
HETATM   11  C7  UNL     1     -13.832 -35.768 -12.077  1.00  0.00     0.007 C 
HETATM   12  C8  UNL     1     -12.448 -36.172 -12.531  1.00  0.00     0.021 C 
BRANCH  12  13
HETATM   13  C9  UNL     1     -12.553 -37.063 -13.729  1.00  0.00     0.181 C 
BRANCH  13  14
HETATM   14  O1  UNL     1     -13.783 -37.677 -13.915  1.00  0.00    -0.345 OA
BRANCH  14  15
HETATM   15  C10 UNL     1     -14.006 -39.078 -13.787  1.00  0.00     0.142 A 
HETATM   16  C11 UNL     1     -13.337 -39.914 -14.649  1.00  0.00     0.193 A 
HETATM   17  F1  UNL     1     -12.460 -39.550 -15.650  1.00  0.00    -0.195 F 
HETATM   18  S1  UNL     1     -13.866 -41.460 -14.169  1.00  0.00    -0.054 SA
HETATM   19  C12 UNL     1     -14.912 -41.021 -12.900  1.00  0.00     0.053 A 
HETATM   20  C13 UNL     1     -15.792 -41.493 -11.903  1.00  0.00     0.050 A 
HETATM   21  C22 UNL     1     -14.824 -39.660 -12.880  1.00  0.00     0.087 A 
HETATM   22  C21 UNL     1     -16.224 -40.367 -11.291  1.00  0.00     0.105 A 
HETATM   23  N4  UNL     1     -15.663 -39.272 -11.858  1.00  0.00    -0.361 N 
ATOM     24  H4  UNL     1     -15.834 -38.308 -11.571  1.00  0.00     0.165 HD
BRANCH  20  25
HETATM   25  C14 UNL     1     -16.039 -42.903 -11.753  1.00  0.00     0.195 C 
HETATM   26  O2  UNL     1     -16.595 -43.524 -12.743  1.00  0.00    -0.287 OA
BRANCH  25  27
HETATM   27  C15 UNL     1     -15.729 -43.728 -10.609  1.00  0.00     0.015 A 
HETATM   28  C16 UNL     1     -15.600 -45.083 -10.707  1.00  0.00     0.017 A 
HETATM   29  C17 UNL     1     -15.310 -45.889  -9.598  1.00  0.00     0.020 A 
HETATM   30  C18 UNL     1     -15.147 -45.336  -8.366  1.00  0.00     0.011 A 
HETATM   31 BR1  UNL     1     -14.761 -46.461  -6.872  1.00  0.00    -0.051 Br
HETATM   32  C19 UNL     1     -15.275 -43.970  -8.249  1.00  0.00     0.020 A 
HETATM   33  C20 UNL     1     -15.559 -43.183  -9.347  1.00  0.00     0.017 A 
ENDBRANCH  25  27
ENDBRANCH  20  25
ENDBRANCH  14  15
ENDBRANCH  13  14
ENDBRANCH  12  13
ENDBRANCH   5   7
TORSDOF 6
ENDMDL
