MODEL 1
REMARK VINA RESULT: -9.308574256      0.000      0.000
REMARK  7 active torsions:
REMARK  status: ('A' for Active; 'I' for Inactive)
REMARK    1  A    between atoms: C2_2  and  C4_4 
REMARK    2  A    between atoms: C4_4  and  C5_5 
REMARK    3  A    between atoms: C6_8  and  O1_9 
REMARK    4  A    between atoms: O1_9  and  C7_10 
REMARK       I    between atoms: C7_10  and  N2_12 
REMARK    5  A    between atoms: N2_12  and  C8_14 
REMARK    6  A    between atoms: C19_25  and  N3_26 
REMARK    7  A    between atoms: C21_28  and  C22_29 
ROOT
HETATM    1  C5  UNL     1     -18.794 -39.178 -13.177  1.00  0.00     0.009 A 
HETATM    2  N1  UNL     1     -18.662 -37.979 -13.475  1.00  0.00    -0.368 N 
ATOM      3  H1  UNL     1     -19.406 -37.296 -13.333  1.00  0.00     0.161 HD
HETATM    4  C6  UNL     1     -17.424 -37.632 -14.018  1.00  0.00     0.234 A 
HETATM    5  C18 UNL     1     -16.629 -38.904 -14.091  1.00  0.00     0.087 A 
HETATM    6  C19 UNL     1     -17.551 -39.906 -13.501  1.00  0.00     0.156 A 
ENDROOT
BRANCH   6   7
HETATM    7  N3  UNL     1     -16.993 -40.580 -12.339  1.00  0.00    -0.292 N 
HETATM    8  C20 UNL     1     -16.790 -41.887 -12.176  1.00  0.00     0.124 A 
HETATM    9  C21 UNL     1     -16.250 -42.092 -10.943  1.00  0.00     0.009 A 
HETATM   10  C28 UNL     1     -16.142 -40.840 -10.383  1.00  0.00     0.121 A 
HETATM   11  N5  UNL     1     -16.603 -39.954 -11.264  1.00  0.00    -0.308 N 
ATOM     12  H5  UNL     1     -16.645 -38.945 -11.121  1.00  0.00     0.186 HD
BRANCH   9  13
HETATM   13  C22 UNL     1     -15.848 -43.336 -10.291  1.00  0.00    -0.008 A 
HETATM   14  C23 UNL     1     -15.736 -44.473 -10.959  1.00  0.00     0.101 A 
HETATM   15  N4  UNL     1     -15.341 -45.693 -10.313  1.00  0.00    -0.361 N 
HETATM   16  C24 UNL     1     -15.055 -45.712  -8.917  1.00  0.00     0.100 A 
ATOM     17  H4  UNL     1     -15.264 -46.553 -10.857  1.00  0.00     0.165 HD
HETATM   18  C25 UNL     1     -14.688 -46.822  -8.297  1.00  0.00     0.293 C 
HETATM   19  C26 UNL     1     -15.189 -44.435  -8.209  1.00  0.00     0.036 A 
HETATM   20  F1  UNL     1     -14.433 -46.762  -6.970  1.00  0.00    -0.171 F 
HETATM   21  F2  UNL     1     -14.588 -47.953  -9.017  1.00  0.00    -0.171 F 
HETATM   22  C27 UNL     1     -15.558 -43.349  -8.867  1.00  0.00     0.016 A 
ENDBRANCH   9  13
ENDBRANCH   6   7
BRANCH   1  23
HETATM   23  C4  UNL     1     -19.962 -39.906 -12.582  1.00  0.00     0.058 C 
BRANCH  23  24
HETATM   24  C2  UNL     1     -20.475 -40.999 -13.458  1.00  0.00    -0.017 C 
HETATM   25  C1  UNL     1     -20.963 -40.533 -14.798  1.00  0.00     0.010 C 
HETATM   26  C3  UNL     1     -21.627 -41.677 -12.753  1.00  0.00     0.010 C 
ENDBRANCH  23  24
ENDBRANCH   1  23
BRANCH   4  27
HETATM   27  O1  UNL     1     -16.704 -36.697 -13.211  1.00  0.00    -0.278 OA
BRANCH  27  28
HETATM   28  C7  UNL     1     -15.304 -36.676 -13.201  1.00  0.00     0.363 C 
HETATM   29  O2  UNL     1     -14.776 -36.181 -14.218  1.00  0.00    -0.238 OA
HETATM   30  N2  UNL     1     -14.541 -37.165 -12.141  1.00  0.00    -0.328 N 
ATOM     31  H2  UNL     1     -15.019 -37.567 -11.334  1.00  0.00     0.165 HD
BRANCH  30  32
HETATM   32  C8  UNL     1     -13.099 -37.122 -12.147  1.00  0.00     0.036 C 
HETATM   33  C9  UNL     1     -12.578 -38.173 -12.964  1.00  0.00     0.035 C 
HETATM   34  C10 UNL     1     -11.193 -38.479 -13.277  1.00  0.00    -0.012 C 
HETATM   35  C11 UNL     1     -10.214 -38.718 -12.182  1.00  0.00     0.009 C 
HETATM   36  C13 UNL     1     -10.270 -37.450 -13.788  1.00  0.00     0.009 C 
HETATM   37  C12 UNL     1      -9.777 -37.316 -12.385  1.00  0.00    -0.013 C 
HETATM   38  C14 UNL     1     -10.281 -36.266 -11.552  1.00  0.00     0.009 C 
HETATM   39  C15 UNL     1     -11.659 -35.942 -11.262  1.00  0.00    -0.009 C 
HETATM   40  C16 UNL     1     -12.583 -36.968 -10.745  1.00  0.00     0.035 C 
HETATM   41  C17 UNL     1     -12.625 -35.718 -12.355  1.00  0.00     0.035 C 
ENDBRANCH  30  32
ENDBRANCH  27  28
ENDBRANCH   4  27
TORSDOF 7
ENDMDL
MODEL 2
REMARK VINA RESULT: -9.221120500      4.198      8.112
REMARK  7 active torsions:
REMARK  status: ('A' for Active; 'I' for Inactive)
REMARK    1  A    between atoms: C2_2  and  C4_4 
REMARK    2  A    between atoms: C4_4  and  C5_5 
REMARK    3  A    between atoms: C6_8  and  O1_9 
REMARK    4  A    between atoms: O1_9  and  C7_10 
REMARK       I    between atoms: C7_10  and  N2_12 
REMARK    5  A    between atoms: N2_12  and  C8_14 
REMARK    6  A    between atoms: C19_25  and  N3_26 
REMARK    7  A    between atoms: C21_28  and  C22_29 
ROOT
HETATM    1  C5  UNL     1     -15.409 -35.886 -16.288  1.00  0.00     0.009 A 
HETATM    2  N1  UNL     1     -15.832 -36.828 -16.980  1.00  0.00    -0.368 N 
ATOM      3  H1  UNL     1     -15.651 -36.894 -17.981  1.00  0.00     0.161 HD
HETATM    4  C6  UNL     1     -16.572 -37.788 -16.290  1.00  0.00     0.234 A 
HETATM    5  C18 UNL     1     -16.638 -37.321 -14.864  1.00  0.00     0.087 A 
HETATM    6  C19 UNL     1     -15.835 -36.073 -14.887  1.00  0.00     0.156 A 
ENDROOT
BRANCH   6   7
HETATM    7  N3  UNL     1     -14.705 -36.105 -13.971  1.00  0.00    -0.292 N 
HETATM    8  C20 UNL     1     -14.614 -35.532 -12.772  1.00  0.00     0.124 A 
HETATM    9  C21 UNL     1     -13.387 -35.809 -12.251  1.00  0.00     0.009 A 
HETATM   10  C28 UNL     1     -12.755 -36.576 -13.202  1.00  0.00     0.121 A 
HETATM   11  N5  UNL     1     -13.591 -36.731 -14.227  1.00  0.00    -0.308 N 
ATOM     12  H5  UNL     1     -13.391 -37.256 -15.078  1.00  0.00     0.186 HD
BRANCH   9  13
HETATM   13  C22 UNL     1     -12.801 -35.415 -10.971  1.00  0.00    -0.008 A 
HETATM   14  C23 UNL     1     -11.573 -35.767 -10.625  1.00  0.00     0.101 A 
HETATM   15  N4  UNL     1     -11.002 -35.376  -9.366  1.00  0.00    -0.361 N 
HETATM   16  C24 UNL     1     -11.752 -34.589  -8.446  1.00  0.00     0.100 A 
ATOM     17  H4  UNL     1     -10.052 -35.664  -9.130  1.00  0.00     0.165 HD
HETATM   18  C25 UNL     1     -11.250 -34.216  -7.279  1.00  0.00     0.293 C 
HETATM   19  C26 UNL     1     -13.108 -34.218  -8.862  1.00  0.00     0.036 A 
HETATM   20  F1  UNL     1     -12.023 -33.469  -6.458  1.00  0.00    -0.171 F 
HETATM   21  F2  UNL     1      -9.999 -34.597  -6.971  1.00  0.00    -0.171 F 
HETATM   22  C27 UNL     1     -13.571 -34.612 -10.036  1.00  0.00     0.016 A 
ENDBRANCH   9  13
ENDBRANCH   6   7
BRANCH   1  23
HETATM   23  C4  UNL     1     -14.592 -34.690 -16.676  1.00  0.00     0.058 C 
BRANCH  23  24
HETATM   24  C2  UNL     1     -15.404 -33.443 -16.794  1.00  0.00    -0.017 C 
HETATM   25  C1  UNL     1     -15.175 -32.680 -18.065  1.00  0.00     0.010 C 
HETATM   26  C3  UNL     1     -15.058 -32.534 -15.637  1.00  0.00     0.010 C 
ENDBRANCH  23  24
ENDBRANCH   1  23
BRANCH   4  27
HETATM   27  O1  UNL     1     -15.964 -39.082 -16.312  1.00  0.00    -0.278 OA
BRANCH  27  28
HETATM   28  C7  UNL     1     -15.693 -39.777 -15.126  1.00  0.00     0.363 C 
HETATM   29  O2  UNL     1     -14.556 -39.585 -14.650  1.00  0.00    -0.238 OA
HETATM   30  N2  UNL     1     -16.616 -40.621 -14.509  1.00  0.00    -0.328 N 
ATOM     31  H2  UNL     1     -17.531 -40.751 -14.941  1.00  0.00     0.165 HD
BRANCH  30  32
HETATM   32  C8  UNL     1     -16.319 -41.316 -13.280  1.00  0.00     0.036 C 
HETATM   33  C9  UNL     1     -16.063 -40.378 -12.233  1.00  0.00     0.035 C 
HETATM   34  C10 UNL     1     -15.759 -40.635 -10.836  1.00  0.00    -0.012 C 
HETATM   35  C11 UNL     1     -14.605 -41.500 -10.469  1.00  0.00     0.009 C 
HETATM   36  C13 UNL     1     -16.600 -41.521 -10.011  1.00  0.00     0.009 C 
HETATM   37  C12 UNL     1     -15.594 -42.590 -10.283  1.00  0.00    -0.013 C 
HETATM   38  C14 UNL     1     -15.834 -43.544 -11.323  1.00  0.00     0.009 C 
HETATM   39  C15 UNL     1     -16.165 -43.290 -12.707  1.00  0.00    -0.009 C 
HETATM   40  C16 UNL     1     -15.321 -42.409 -13.535  1.00  0.00     0.035 C 
HETATM   41  C17 UNL     1     -17.305 -42.421 -13.060  1.00  0.00     0.035 C 
ENDBRANCH  30  32
ENDBRANCH  27  28
ENDBRANCH   4  27
TORSDOF 7
ENDMDL
MODEL 3
REMARK VINA RESULT: -9.079032540      0.496      1.403
REMARK  7 active torsions:
REMARK  status: ('A' for Active; 'I' for Inactive)
REMARK    1  A    between atoms: C2_2  and  C4_4 
REMARK    2  A    between atoms: C4_4  and  C5_5 
REMARK    3  A    between atoms: C6_8  and  O1_9 
REMARK    4  A    between atoms: O1_9  and  C7_10 
REMARK       I    between atoms: C7_10  and  N2_12 
REMARK    5  A    between atoms: N2_12  and  C8_14 
REMARK    6  A    between atoms: C19_25  and  N3_26 
REMARK    7  A    between atoms: C21_28  and  C22_29 
ROOT
HETATM    1  C5  UNL     1     -18.895 -39.160 -13.190  1.00  0.00     0.009 A 
HETATM    2  N1  UNL     1     -18.765 -37.960 -13.488  1.00  0.00    -0.368 N 
ATOM      3  H1  UNL     1     -19.505 -37.276 -13.332  1.00  0.00     0.161 HD
HETATM    4  C6  UNL     1     -17.537 -37.615 -14.052  1.00  0.00     0.234 A 
HETATM    5  C18 UNL     1     -16.746 -38.888 -14.141  1.00  0.00     0.087 A 
HETATM    6  C19 UNL     1     -17.659 -39.890 -13.536  1.00  0.00     0.156 A 
ENDROOT
BRANCH   6   7
HETATM    7  N3  UNL     1     -17.082 -40.566 -12.386  1.00  0.00    -0.292 N 
HETATM    8  C20 UNL     1     -16.858 -41.872 -12.238  1.00  0.00     0.124 A 
HETATM    9  C21 UNL     1     -16.306 -42.080 -11.011  1.00  0.00     0.009 A 
HETATM   10  C28 UNL     1     -16.214 -40.833 -10.438  1.00  0.00     0.121 A 
HETATM   11  N5  UNL     1     -16.696 -39.946 -11.307  1.00  0.00    -0.308 N 
ATOM     12  H5  UNL     1     -16.753 -38.939 -11.152  1.00  0.00     0.186 HD
BRANCH   9  13
HETATM   13  C22 UNL     1     -15.879 -43.326 -10.374  1.00  0.00    -0.008 A 
HETATM   14  C23 UNL     1     -15.738 -44.449 -11.059  1.00  0.00     0.101 A 
HETATM   15  N4  UNL     1     -15.318 -45.669 -10.427  1.00  0.00    -0.361 N 
HETATM   16  C24 UNL     1     -15.040 -45.702  -9.031  1.00  0.00     0.100 A 
ATOM     17  H4  UNL     1     -15.219 -46.519 -10.984  1.00  0.00     0.165 HD
HETATM   18  C25 UNL     1     -14.652 -46.814  -8.425  1.00  0.00     0.293 C 
HETATM   19  C26 UNL     1     -15.208 -44.440  -8.305  1.00  0.00     0.036 A 
HETATM   20  F1  UNL     1     -14.407 -46.767  -7.096  1.00  0.00    -0.171 F 
HETATM   21  F2  UNL     1     -14.522 -47.931  -9.160  1.00  0.00    -0.171 F 
HETATM   22  C27 UNL     1     -15.598 -43.353  -8.949  1.00  0.00     0.016 A 
ENDBRANCH   9  13
ENDBRANCH   6   7
BRANCH   1  23
HETATM   23  C4  UNL     1     -20.054 -39.886 -12.576  1.00  0.00     0.058 C 
BRANCH  23  24
HETATM   24  C2  UNL     1     -20.529 -41.031 -13.406  1.00  0.00    -0.017 C 
HETATM   25  C1  UNL     1     -20.963 -40.648 -14.789  1.00  0.00     0.010 C 
HETATM   26  C3  UNL     1     -21.708 -41.671 -12.709  1.00  0.00     0.010 C 
ENDBRANCH  23  24
ENDBRANCH   1  23
BRANCH   4  27
HETATM   27  O1  UNL     1     -16.801 -36.682 -13.256  1.00  0.00    -0.278 OA
BRANCH  27  28
HETATM   28  C7  UNL     1     -15.404 -36.746 -13.170  1.00  0.00     0.363 C 
HETATM   29  O2  UNL     1     -14.794 -35.934 -13.893  1.00  0.00    -0.238 OA
HETATM   30  N2  UNL     1     -14.731 -37.644 -12.341  1.00  0.00    -0.328 N 
ATOM     31  H2  UNL     1     -15.275 -38.294 -11.774  1.00  0.00     0.165 HD
BRANCH  30  32
HETATM   32  C8  UNL     1     -13.292 -37.683 -12.260  1.00  0.00     0.036 C 
HETATM   33  C9  UNL     1     -12.833 -36.808 -11.226  1.00  0.00     0.035 C 
HETATM   34  C10 UNL     1     -11.472 -36.564 -10.779  1.00  0.00    -0.012 C 
HETATM   35  C11 UNL     1     -10.437 -36.113 -11.748  1.00  0.00     0.009 C 
HETATM   36  C13 UNL     1     -10.564 -37.669 -10.424  1.00  0.00     0.009 C 
HETATM   37  C12 UNL     1      -9.991 -37.527 -11.796  1.00  0.00    -0.013 C 
HETATM   38  C14 UNL     1     -10.432 -38.396 -12.844  1.00  0.00     0.009 C 
HETATM   39  C15 UNL     1     -11.787 -38.663 -13.272  1.00  0.00    -0.009 C 
HETATM   40  C16 UNL     1     -12.695 -37.559 -13.633  1.00  0.00     0.035 C 
HETATM   41  C17 UNL     1     -12.809 -39.099 -12.300  1.00  0.00     0.035 C 
ENDBRANCH  30  32
ENDBRANCH  27  28
ENDBRANCH   4  27
TORSDOF 7
ENDMDL
MODEL 4
REMARK VINA RESULT: -8.968115755      3.986      7.695
REMARK  7 active torsions:
REMARK  status: ('A' for Active; 'I' for Inactive)
REMARK    1  A    between atoms: C2_2  and  C4_4 
REMARK    2  A    between atoms: C4_4  and  C5_5 
REMARK    3  A    between atoms: C6_8  and  O1_9 
REMARK    4  A    between atoms: O1_9  and  C7_10 
REMARK       I    between atoms: C7_10  and  N2_12 
REMARK    5  A    between atoms: N2_12  and  C8_14 
REMARK    6  A    between atoms: C19_25  and  N3_26 
REMARK    7  A    between atoms: C21_28  and  C22_29 
ROOT
HETATM    1  C5  UNL     1     -16.050 -37.662 -15.334  1.00  0.00     0.009 A 
HETATM    2  N1  UNL     1     -17.135 -38.170 -15.000  1.00  0.00    -0.368 N 
ATOM      3  H1  UNL     1     -17.411 -39.107 -15.292  1.00  0.00     0.161 HD
HETATM    4  C6  UNL     1     -17.948 -37.366 -14.200  1.00  0.00     0.234 A 
HETATM    5  C18 UNL     1     -17.210 -36.071 -14.022  1.00  0.00     0.087 A 
HETATM    6  C19 UNL     1     -15.944 -36.306 -14.760  1.00  0.00     0.156 A 
ENDROOT
BRANCH   6   7
HETATM    7  N3  UNL     1     -14.761 -36.156 -13.926  1.00  0.00    -0.292 N 
HETATM    8  C20 UNL     1     -14.705 -35.733 -12.664  1.00  0.00     0.124 A 
HETATM    9  C21 UNL     1     -13.404 -35.742 -12.262  1.00  0.00     0.009 A 
HETATM   10  C28 UNL     1     -12.693 -36.193 -13.349  1.00  0.00     0.121 A 
HETATM   11  N5  UNL     1     -13.555 -36.431 -14.335  1.00  0.00    -0.308 N 
ATOM     12  H5  UNL     1     -13.310 -36.776 -15.263  1.00  0.00     0.186 HD
BRANCH   9  13
HETATM   13  C22 UNL     1     -12.818 -35.371 -10.975  1.00  0.00    -0.008 A 
HETATM   14  C23 UNL     1     -11.590 -35.726 -10.636  1.00  0.00     0.101 A 
HETATM   15  N4  UNL     1     -11.020 -35.358  -9.370  1.00  0.00    -0.361 N 
HETATM   16  C24 UNL     1     -11.771 -34.591  -8.434  1.00  0.00     0.100 A 
ATOM     17  H4  UNL     1     -10.068 -35.648  -9.140  1.00  0.00     0.165 HD
HETATM   18  C25 UNL     1     -11.269 -34.239  -7.261  1.00  0.00     0.293 C 
HETATM   19  C26 UNL     1     -13.128 -34.215  -8.843  1.00  0.00     0.036 A 
HETATM   20  F1  UNL     1     -12.044 -33.510  -6.425  1.00  0.00    -0.171 F 
HETATM   21  F2  UNL     1     -10.017 -34.622  -6.960  1.00  0.00    -0.171 F 
HETATM   22  C27 UNL     1     -13.590 -34.589 -10.024  1.00  0.00     0.016 A 
ENDBRANCH   9  13
ENDBRANCH   6   7
BRANCH   1  23
HETATM   23  C4  UNL     1     -14.940 -38.216 -16.175  1.00  0.00     0.058 C 
BRANCH  23  24
HETATM   24  C2  UNL     1     -14.624 -39.640 -15.859  1.00  0.00    -0.017 C 
HETATM   25  C1  UNL     1     -13.716 -39.820 -14.679  1.00  0.00     0.010 C 
HETATM   26  C3  UNL     1     -13.951 -40.260 -17.063  1.00  0.00     0.010 C 
ENDBRANCH  23  24
ENDBRANCH   1  23
BRANCH   4  27
HETATM   27  O1  UNL     1     -18.188 -37.930 -12.908  1.00  0.00    -0.278 OA
BRANCH  27  28
HETATM   28  C7  UNL     1     -17.797 -39.241 -12.605  1.00  0.00     0.363 C 
HETATM   29  O2  UNL     1     -18.628 -40.121 -12.906  1.00  0.00    -0.238 OA
HETATM   30  N2  UNL     1     -16.574 -39.555 -12.012  1.00  0.00    -0.328 N 
ATOM     31  H2  UNL     1     -15.931 -38.798 -11.778  1.00  0.00     0.165 HD
BRANCH  30  32
HETATM   32  C8  UNL     1     -16.189 -40.914 -11.721  1.00  0.00     0.036 C 
HETATM   33  C9  UNL     1     -16.194 -41.695 -12.919  1.00  0.00     0.035 C 
HETATM   34  C10 UNL     1     -15.842 -43.094 -13.093  1.00  0.00    -0.012 C 
HETATM   35  C11 UNL     1     -16.530 -44.144 -12.295  1.00  0.00     0.009 C 
HETATM   36  C13 UNL     1     -14.568 -43.639 -12.590  1.00  0.00     0.009 C 
HETATM   37  C12 UNL     1     -15.341 -44.126 -11.408  1.00  0.00    -0.013 C 
HETATM   38  C14 UNL     1     -15.344 -43.362 -10.197  1.00  0.00     0.009 C 
HETATM   39  C15 UNL     1     -15.667 -41.963 -10.026  1.00  0.00    -0.009 C 
HETATM   40  C16 UNL     1     -16.942 -41.417 -10.523  1.00  0.00     0.035 C 
HETATM   41  C17 UNL     1     -14.986 -40.931 -10.831  1.00  0.00     0.035 C 
ENDBRANCH  30  32
ENDBRANCH  27  28
ENDBRANCH   4  27
TORSDOF 7
ENDMDL
MODEL 5
REMARK VINA RESULT: -8.966923188      1.722      2.209
REMARK  7 active torsions:
REMARK  status: ('A' for Active; 'I' for Inactive)
REMARK    1  A    between atoms: C2_2  and  C4_4 
REMARK    2  A    between atoms: C4_4  and  C5_5 
REMARK    3  A    between atoms: C6_8  and  O1_9 
REMARK    4  A    between atoms: O1_9  and  C7_10 
REMARK       I    between atoms: C7_10  and  N2_12 
REMARK    5  A    between atoms: N2_12  and  C8_14 
REMARK    6  A    between atoms: C19_25  and  N3_26 
REMARK    7  A    between atoms: C21_28  and  C22_29 
ROOT
HETATM    1  C5  UNL     1     -16.932 -39.871 -14.036  1.00  0.00     0.009 A 
HETATM    2  N1  UNL     1     -16.301 -39.376 -14.985  1.00  0.00    -0.368 N 
ATOM      3  H1  UNL     1     -16.313 -38.376 -15.186  1.00  0.00     0.161 HD
HETATM    4  C6  UNL     1     -15.575 -40.283 -15.757  1.00  0.00     0.234 A 
HETATM    5  C18 UNL     1     -15.837 -41.638 -15.165  1.00  0.00     0.087 A 
HETATM    6  C19 UNL     1     -16.716 -41.331 -14.009  1.00  0.00     0.156 A 
ENDROOT
BRANCH   6   7
HETATM    7  N3  UNL     1     -16.167 -41.780 -12.739  1.00  0.00    -0.292 N 
HETATM    8  C20 UNL     1     -16.298 -42.980 -12.175  1.00  0.00     0.124 A 
HETATM    9  C21 UNL     1     -15.628 -42.978 -10.990  1.00  0.00     0.009 A 
HETATM   10  C28 UNL     1     -15.092 -41.716 -10.880  1.00  0.00     0.121 A 
HETATM   11  N5  UNL     1     -15.444 -41.024 -11.962  1.00  0.00    -0.308 N 
ATOM     12  H5  UNL     1     -15.187 -40.056 -12.153  1.00  0.00     0.186 HD
BRANCH   9  13
HETATM   13  C22 UNL     1     -15.468 -44.042 -10.001  1.00  0.00    -0.008 A 
HETATM   14  C23 UNL     1     -15.496 -45.321 -10.339  1.00  0.00     0.101 A 
HETATM   15  N4  UNL     1     -15.339 -46.363  -9.362  1.00  0.00    -0.361 N 
HETATM   16  C24 UNL     1     -15.146 -46.043  -7.988  1.00  0.00     0.100 A 
ATOM     17  H4  UNL     1     -15.365 -47.340  -9.656  1.00  0.00     0.165 HD
HETATM   18  C25 UNL     1     -14.998 -46.983  -7.068  1.00  0.00     0.293 C 
HETATM   19  C26 UNL     1     -15.120 -44.616  -7.650  1.00  0.00     0.036 A 
HETATM   20  F1  UNL     1     -14.819 -46.602  -5.783  1.00  0.00    -0.171 F 
HETATM   21  F2  UNL     1     -15.034 -48.269  -7.458  1.00  0.00    -0.171 F 
HETATM   22  C27 UNL     1     -15.272 -43.709  -8.600  1.00  0.00     0.016 A 
ENDBRANCH   9  13
ENDBRANCH   6   7
BRANCH   1  23
HETATM   23  C4  UNL     1     -17.808 -39.218 -13.009  1.00  0.00     0.058 C 
BRANCH  23  24
HETATM   24  C2  UNL     1     -19.250 -39.210 -13.395  1.00  0.00    -0.017 C 
HETATM   25  C1  UNL     1     -19.938 -37.896 -13.168  1.00  0.00     0.010 C 
HETATM   26  C3  UNL     1     -19.970 -40.259 -12.578  1.00  0.00     0.010 C 
ENDBRANCH  23  24
ENDBRANCH   1  23
BRANCH   4  27
HETATM   27  O1  UNL     1     -14.166 -40.042 -15.722  1.00  0.00    -0.278 OA
BRANCH  27  28
HETATM   28  C7  UNL     1     -13.553 -39.489 -14.590  1.00  0.00     0.363 C 
HETATM   29  O2  UNL     1     -13.243 -40.311 -13.704  1.00  0.00    -0.238 OA
HETATM   30  N2  UNL     1     -13.299 -38.124 -14.449  1.00  0.00    -0.328 N 
ATOM     31  H2  UNL     1     -13.578 -37.491 -15.199  1.00  0.00     0.165 HD
BRANCH  30  32
HETATM   32  C8  UNL     1     -12.655 -37.580 -13.279  1.00  0.00     0.036 C 
HETATM   33  C9  UNL     1     -11.332 -38.109 -13.154  1.00  0.00     0.035 C 
HETATM   34  C10 UNL     1     -10.326 -37.811 -12.150  1.00  0.00    -0.012 C 
HETATM   35  C11 UNL     1     -10.634 -37.989 -10.705  1.00  0.00     0.009 C 
HETATM   36  C13 UNL     1      -9.940 -36.424 -11.828  1.00  0.00     0.009 C 
HETATM   37  C12 UNL     1     -10.870 -36.526 -10.665  1.00  0.00    -0.013 C 
HETATM   38  C14 UNL     1     -12.197 -35.997 -10.767  1.00  0.00     0.009 C 
HETATM   39  C15 UNL     1     -13.191 -36.270 -11.781  1.00  0.00    -0.009 C 
HETATM   40  C16 UNL     1     -13.581 -37.655 -12.100  1.00  0.00     0.035 C 
HETATM   41  C17 UNL     1     -12.870 -36.101 -13.212  1.00  0.00     0.035 C 
ENDBRANCH  30  32
ENDBRANCH  27  28
ENDBRANCH   4  27
TORSDOF 7
ENDMDL
