MODEL 1
REMARK VINA RESULT: -9.643443687      0.000      0.000
REMARK  7 active torsions:
REMARK  status: ('A' for Active; 'I' for Inactive)
REMARK    1  A    between atoms: C4_5  and  N1_6 
REMARK    2  A    between atoms: N1_6  and  C5_8 
REMARK    3  A    between atoms: N4_14  and  C7_16 
REMARK    4  A    between atoms: C10_19  and  S1_20 
REMARK    5  A    between atoms: S1_20  and  C11_21 
REMARK    6  A    between atoms: C14_24  and  C15_25 
REMARK    7  A    between atoms: C15_25  and  N5_26 
ROOT
HETATM    1  C7  UNL     1     -15.219 -40.327 -13.720  1.00  0.00     0.084 C 
HETATM    2  C8  UNL     1     -15.945 -41.549 -14.184  1.00  0.00     0.026 C 
HETATM    3  C9  UNL     1     -15.370 -42.708 -13.404  1.00  0.00     0.017 C 
HETATM    4  C10 UNL     1     -14.780 -42.121 -12.163  1.00  0.00     0.054 C 
HETATM    5  C23 UNL     1     -14.397 -40.697 -12.507  1.00  0.00     0.040 C 
ENDROOT
BRANCH   1   6
HETATM    6  N4  UNL     1     -16.126 -39.274 -13.305  1.00  0.00    -0.365 N 
HETATM    7  C6  UNL     1     -15.656 -38.086 -12.985  1.00  0.00     0.163 A 
HETATM    8  N3  UNL     1     -16.347 -37.019 -12.586  1.00  0.00    -0.278 N 
HETATM    9  S2  UNL     1     -14.050 -37.507 -12.967  1.00  0.00    -0.015 SA
HETATM   10  N2  UNL     1     -15.717 -35.943 -12.318  1.00  0.00    -0.278 N 
ATOM     11  H3  UNL     1     -17.362 -37.062 -12.498  1.00  0.00     0.189 HD
HETATM   12  C5  UNL     1     -14.390 -35.917 -12.442  1.00  0.00     0.167 A 
ATOM     13  H2  UNL     1     -16.223 -35.112 -12.010  1.00  0.00     0.189 HD
ATOM     14  H4  UNL     1     -17.129 -39.454 -13.261  1.00  0.00     0.162 HD
BRANCH  12  15
HETATM   15  N1  UNL     1     -13.579 -34.907 -12.212  1.00  0.00    -0.333 N 
ATOM     16  H1  UNL     1     -13.334 -34.239 -12.942  1.00  0.00     0.168 HD
BRANCH  15  17
HETATM   17  C4  UNL     1     -13.063 -34.798 -10.895  1.00  0.00     0.073 A 
HETATM   18  C3  UNL     1     -13.816 -34.195  -9.911  1.00  0.00     0.036 A 
HETATM   19  C2  UNL     1     -13.372 -34.060  -8.618  1.00  0.00     0.044 A 
HETATM   20  C1  UNL     1     -12.143 -34.532  -8.269  1.00  0.00     0.119 A 
HETATM   21  F1  UNL     1     -11.637 -34.434  -7.008  1.00  0.00    -0.206 F 
HETATM   22  C25 UNL     1     -11.357 -35.141  -9.221  1.00  0.00     0.086 A 
HETATM   23  C24 UNL     1     -11.823 -35.269 -10.526  1.00  0.00     0.145 A 
HETATM   24  F2  UNL     1     -11.028 -35.873 -11.438  1.00  0.00    -0.204 F 
ENDBRANCH  15  17
ENDBRANCH  12  15
ENDBRANCH   1   6
BRANCH   4  25
HETATM   25  S1  UNL     1     -15.867 -42.192 -10.724  1.00  0.00    -0.125 SA
BRANCH  25  26
HETATM   26  C11 UNL     1     -15.566 -43.717  -9.851  1.00  0.00     0.001 A 
HETATM   27  C12 UNL     1     -15.328 -43.688  -8.495  1.00  0.00     0.019 A 
HETATM   28  C13 UNL     1     -15.088 -44.821  -7.772  1.00  0.00     0.010 A 
HETATM   29  C14 UNL     1     -15.090 -46.021  -8.437  1.00  0.00    -0.030 A 
HETATM   30  C21 UNL     1     -15.323 -46.116  -9.799  1.00  0.00     0.010 A 
HETATM   31  C22 UNL     1     -15.560 -44.939 -10.484  1.00  0.00     0.019 A 
BRANCH  29  32
HETATM   32  C15 UNL     1     -14.838 -47.279  -7.696  1.00  0.00     0.311 C 
BRANCH  32  33
HETATM   33  N5  UNL     1     -15.825 -48.249  -8.073  1.00  0.00     0.092 N 
HETATM   34  C16 UNL     1     -15.252 -49.563  -8.191  1.00  0.00     0.272 C 
HETATM   35  C17 UNL     1     -15.572 -50.404  -6.978  1.00  0.00     0.030 C 
HETATM   36  C18 UNL     1     -17.071 -50.673  -6.921  1.00  0.00     0.003 C 
HETATM   37  C19 UNL     1     -17.810 -49.427  -7.389  1.00  0.00     0.030 C 
HETATM   38  C20 UNL     1     -16.937 -48.204  -7.171  1.00  0.00     0.272 C 
ENDBRANCH  32  33
ENDBRANCH  29  32
ENDBRANCH  25  26
ENDBRANCH   4  25
TORSDOF 7
ENDMDL
MODEL 2
REMARK VINA RESULT: -9.620159749      2.629      3.606
REMARK  7 active torsions:
REMARK  status: ('A' for Active; 'I' for Inactive)
REMARK    1  A    between atoms: C4_5  and  N1_6 
REMARK    2  A    between atoms: N1_6  and  C5_8 
REMARK    3  A    between atoms: N4_14  and  C7_16 
REMARK    4  A    between atoms: C10_19  and  S1_20 
REMARK    5  A    between atoms: S1_20  and  C11_21 
REMARK    6  A    between atoms: C14_24  and  C15_25 
REMARK    7  A    between atoms: C15_25  and  N5_26 
ROOT
HETATM    1  C7  UNL     1     -13.618 -39.354 -13.028  1.00  0.00     0.084 C 
HETATM    2  C8  UNL     1     -14.509 -38.217 -12.640  1.00  0.00     0.026 C 
HETATM    3  C9  UNL     1     -15.920 -38.754 -12.661  1.00  0.00     0.017 C 
HETATM    4  C10 UNL     1     -15.803 -40.234 -12.492  1.00  0.00     0.054 C 
HETATM    5  C23 UNL     1     -14.446 -40.619 -13.041  1.00  0.00     0.040 C 
ENDROOT
BRANCH   1   6
HETATM    6  N4  UNL     1     -12.548 -39.565 -12.073  1.00  0.00    -0.365 N 
HETATM    7  C6  UNL     1     -11.998 -38.538 -11.460  1.00  0.00     0.163 A 
HETATM    8  N3  UNL     1     -11.014 -38.558 -10.562  1.00  0.00    -0.278 N 
HETATM    9  S2  UNL     1     -12.339 -36.869 -11.587  1.00  0.00    -0.015 SA
HETATM   10  N2  UNL     1     -10.607 -37.454 -10.069  1.00  0.00    -0.278 N 
ATOM     11  H3  UNL     1     -10.593 -39.441 -10.275  1.00  0.00     0.189 HD
HETATM   12  C5  UNL     1     -11.177 -36.315 -10.465  1.00  0.00     0.167 A 
ATOM     13  H2  UNL     1      -9.854 -37.442  -9.381  1.00  0.00     0.189 HD
ATOM     14  H4  UNL     1     -12.220 -40.510 -11.876  1.00  0.00     0.162 HD
BRANCH  12  15
HETATM   15  N1  UNL     1     -10.893 -35.093 -10.071  1.00  0.00    -0.333 N 
ATOM     16  H1  UNL     1     -10.236 -34.503 -10.581  1.00  0.00     0.168 HD
BRANCH  15  17
HETATM   17  C4  UNL     1     -11.548 -34.639  -8.897  1.00  0.00     0.073 A 
HETATM   18  C3  UNL     1     -10.872 -34.621  -7.696  1.00  0.00     0.036 A 
HETATM   19  C2  UNL     1     -11.451 -34.192  -6.527  1.00  0.00     0.044 A 
HETATM   20  C1  UNL     1     -12.744 -33.763  -6.527  1.00  0.00     0.119 A 
HETATM   21  F1  UNL     1     -13.384 -33.325  -5.407  1.00  0.00    -0.206 F 
HETATM   22  C25 UNL     1     -13.458 -33.765  -7.704  1.00  0.00     0.086 A 
HETATM   23  C24 UNL     1     -12.854 -34.203  -8.880  1.00  0.00     0.145 A 
HETATM   24  F2  UNL     1     -13.580 -34.192 -10.020  1.00  0.00    -0.204 F 
ENDBRANCH  15  17
ENDBRANCH  12  15
ENDBRANCH   1   6
BRANCH   4  25
HETATM   25  S1  UNL     1     -16.022 -40.802 -10.793  1.00  0.00    -0.125 SA
BRANCH  25  26
HETATM   26  C11 UNL     1     -15.866 -42.578 -10.756  1.00  0.00     0.001 A 
HETATM   27  C12 UNL     1     -15.536 -43.206  -9.576  1.00  0.00     0.019 A 
HETATM   28  C13 UNL     1     -15.398 -44.562  -9.485  1.00  0.00     0.010 A 
HETATM   29  C14 UNL     1     -15.600 -45.306 -10.620  1.00  0.00    -0.030 A 
HETATM   30  C21 UNL     1     -15.934 -44.734 -11.835  1.00  0.00     0.010 A 
HETATM   31  C22 UNL     1     -16.061 -43.358 -11.873  1.00  0.00     0.019 A 
BRANCH  29  32
HETATM   32  C15 UNL     1     -15.466 -46.782 -10.571  1.00  0.00     0.311 C 
BRANCH  32  33
HETATM   33  N5  UNL     1     -14.073 -47.123 -10.548  1.00  0.00     0.092 N 
HETATM   34  C16 UNL     1     -13.850 -48.374  -9.875  1.00  0.00     0.272 C 
HETATM   35  C17 UNL     1     -13.623 -49.490 -10.869  1.00  0.00     0.030 C 
HETATM   36  C18 UNL     1     -12.318 -49.251 -11.619  1.00  0.00     0.003 C 
HETATM   37  C19 UNL     1     -12.165 -47.758 -11.872  1.00  0.00     0.030 C 
HETATM   38  C20 UNL     1     -13.532 -47.098 -11.874  1.00  0.00     0.272 C 
ENDBRANCH  32  33
ENDBRANCH  29  32
ENDBRANCH  25  26
ENDBRANCH   4  25
TORSDOF 7
ENDMDL
MODEL 3
REMARK VINA RESULT: -9.499012316      1.957      2.637
REMARK  7 active torsions:
REMARK  status: ('A' for Active; 'I' for Inactive)
REMARK    1  A    between atoms: C4_5  and  N1_6 
REMARK    2  A    between atoms: N1_6  and  C5_8 
REMARK    3  A    between atoms: N4_14  and  C7_16 
REMARK    4  A    between atoms: C10_19  and  S1_20 
REMARK    5  A    between atoms: S1_20  and  C11_21 
REMARK    6  A    between atoms: C14_24  and  C15_25 
REMARK    7  A    between atoms: C15_25  and  N5_26 
ROOT
HETATM    1  C7  UNL     1     -13.988 -39.736 -12.989  1.00  0.00     0.084 C 
HETATM    2  C8  UNL     1     -14.892 -38.581 -12.698  1.00  0.00     0.026 C 
HETATM    3  C9  UNL     1     -16.295 -39.138 -12.655  1.00  0.00     0.017 C 
HETATM    4  C10 UNL     1     -16.155 -40.594 -12.353  1.00  0.00     0.054 C 
HETATM    5  C23 UNL     1     -14.796 -41.008 -12.877  1.00  0.00     0.040 C 
ENDROOT
BRANCH   1   6
HETATM    6  N4  UNL     1     -12.906 -39.843 -12.029  1.00  0.00    -0.365 N 
HETATM    7  C6  UNL     1     -12.376 -38.757 -11.507  1.00  0.00     0.163 A 
HETATM    8  N3  UNL     1     -11.386 -38.681 -10.619  1.00  0.00    -0.278 N 
HETATM    9  S2  UNL     1     -12.757 -37.113 -11.768  1.00  0.00    -0.015 SA
HETATM   10  N2  UNL     1     -11.001 -37.531 -10.222  1.00  0.00    -0.278 N 
ATOM     11  H3  UNL     1     -10.942 -39.528 -10.263  1.00  0.00     0.189 HD
HETATM   12  C5  UNL     1     -11.600 -36.442 -10.705  1.00  0.00     0.167 A 
ATOM     13  H2  UNL     1     -10.244 -37.446  -9.543  1.00  0.00     0.189 HD
ATOM     14  H4  UNL     1     -12.555 -40.762 -11.758  1.00  0.00     0.162 HD
BRANCH  12  15
HETATM   15  N1  UNL     1     -11.341 -35.186 -10.415  1.00  0.00    -0.333 N 
ATOM     16  H1  UNL     1     -10.763 -34.603 -11.020  1.00  0.00     0.168 HD
BRANCH  15  17
HETATM   17  C4  UNL     1     -11.909 -34.684  -9.216  1.00  0.00     0.073 A 
HETATM   18  C3  UNL     1     -11.138 -34.590  -8.078  1.00  0.00     0.036 A 
HETATM   19  C2  UNL     1     -11.629 -34.112  -6.887  1.00  0.00     0.044 A 
HETATM   20  C1  UNL     1     -12.929 -33.710  -6.802  1.00  0.00     0.119 A 
HETATM   21  F1  UNL     1     -13.485 -33.226  -5.657  1.00  0.00    -0.206 F 
HETATM   22  C25 UNL     1     -13.736 -33.788  -7.914  1.00  0.00     0.086 A 
HETATM   23  C24 UNL     1     -13.220 -34.275  -9.112  1.00  0.00     0.145 A 
HETATM   24  F2  UNL     1     -14.037 -34.338 -10.187  1.00  0.00    -0.204 F 
ENDBRANCH  15  17
ENDBRANCH  12  15
ENDBRANCH   1   6
BRANCH   4  25
HETATM   25  S1  UNL     1     -16.351 -41.007 -10.607  1.00  0.00    -0.125 SA
BRANCH  25  26
HETATM   26  C11 UNL     1     -15.930 -42.724 -10.371  1.00  0.00     0.001 A 
HETATM   27  C12 UNL     1     -15.568 -43.169  -9.120  1.00  0.00     0.019 A 
HETATM   28  C13 UNL     1     -15.231 -44.470  -8.877  1.00  0.00     0.010 A 
HETATM   29  C14 UNL     1     -15.262 -45.350  -9.930  1.00  0.00    -0.030 A 
HETATM   30  C21 UNL     1     -15.619 -44.963 -11.211  1.00  0.00     0.010 A 
HETATM   31  C22 UNL     1     -15.950 -43.635 -11.403  1.00  0.00     0.019 A 
BRANCH  29  32
HETATM   32  C15 UNL     1     -14.909 -46.773  -9.717  1.00  0.00     0.311 C 
BRANCH  32  33
HETATM   33  N5  UNL     1     -15.828 -47.346  -8.776  1.00  0.00     0.092 N 
HETATM   34  C16 UNL     1     -16.338 -48.607  -9.242  1.00  0.00     0.272 C 
HETATM   35  C17 UNL     1     -15.647 -49.760  -8.552  1.00  0.00     0.030 C 
HETATM   36  C18 UNL     1     -16.002 -49.757  -7.070  1.00  0.00     0.003 C 
HETATM   37  C19 UNL     1     -16.077 -48.315  -6.587  1.00  0.00     0.030 C 
HETATM   38  C20 UNL     1     -15.224 -47.433  -7.480  1.00  0.00     0.272 C 
ENDBRANCH  32  33
ENDBRANCH  29  32
ENDBRANCH  25  26
ENDBRANCH   4  25
TORSDOF 7
ENDMDL
MODEL 4
REMARK VINA RESULT: -9.346178835      1.859      2.557
REMARK  7 active torsions:
REMARK  status: ('A' for Active; 'I' for Inactive)
REMARK    1  A    between atoms: C4_5  and  N1_6 
REMARK    2  A    between atoms: N1_6  and  C5_8 
REMARK    3  A    between atoms: N4_14  and  C7_16 
REMARK    4  A    between atoms: C10_19  and  S1_20 
REMARK    5  A    between atoms: S1_20  and  C11_21 
REMARK    6  A    between atoms: C14_24  and  C15_25 
REMARK    7  A    between atoms: C15_25  and  N5_26 
ROOT
HETATM    1  C7  UNL     1     -14.029 -40.635 -13.860  1.00  0.00     0.084 C 
HETATM    2  C8  UNL     1     -15.097 -39.740 -14.403  1.00  0.00     0.026 C 
HETATM    3  C9  UNL     1     -16.057 -40.631 -15.156  1.00  0.00     0.017 C 
HETATM    4  C10 UNL     1     -15.882 -42.002 -14.590  1.00  0.00     0.054 C 
HETATM    5  C23 UNL     1     -14.464 -42.068 -14.065  1.00  0.00     0.040 C 
ENDROOT
BRANCH   1   6
HETATM    6  N4  UNL     1     -13.836 -40.457 -12.434  1.00  0.00    -0.365 N 
HETATM    7  C6  UNL     1     -13.433 -39.296 -11.961  1.00  0.00     0.163 A 
HETATM    8  N3  UNL     1     -13.209 -38.969 -10.690  1.00  0.00    -0.278 N 
HETATM    9  S2  UNL     1     -13.067 -37.843 -12.780  1.00  0.00    -0.015 SA
HETATM   10  N2  UNL     1     -12.819 -37.785 -10.418  1.00  0.00    -0.278 N 
ATOM     11  H3  UNL     1     -13.346 -39.654  -9.947  1.00  0.00     0.189 HD
HETATM   12  C5  UNL     1     -12.648 -36.912 -11.410  1.00  0.00     0.167 A 
ATOM     13  H2  UNL     1     -12.640 -37.510  -9.452  1.00  0.00     0.189 HD
ATOM     14  H4  UNL     1     -14.013 -41.233 -11.796  1.00  0.00     0.162 HD
BRANCH  12  15
HETATM   15  N1  UNL     1     -12.255 -35.660 -11.323  1.00  0.00    -0.333 N 
ATOM     16  H1  UNL     1     -11.906 -35.149 -12.133  1.00  0.00     0.168 HD
BRANCH  15  17
HETATM   17  C4  UNL     1     -12.344 -35.058 -10.041  1.00  0.00     0.073 A 
HETATM   18  C3  UNL     1     -11.244 -35.045  -9.211  1.00  0.00     0.036 A 
HETATM   19  C2  UNL     1     -11.266 -34.478  -7.960  1.00  0.00     0.044 A 
HETATM   20  C1  UNL     1     -12.409 -33.898  -7.498  1.00  0.00     0.119 A 
HETATM   21  F1  UNL     1     -12.506 -33.317  -6.270  1.00  0.00    -0.206 F 
HETATM   22  C25 UNL     1     -13.533 -33.889  -8.293  1.00  0.00     0.086 A 
HETATM   23  C24 UNL     1     -13.491 -34.469  -9.559  1.00  0.00     0.145 A 
HETATM   24  F2  UNL     1     -14.610 -34.443 -10.316  1.00  0.00    -0.204 F 
ENDBRANCH  15  17
ENDBRANCH  12  15
ENDBRANCH   1   6
BRANCH   4  25
HETATM   25  S1  UNL     1     -17.086 -42.433 -13.315  1.00  0.00    -0.125 SA
BRANCH  25  26
HETATM   26  C11 UNL     1     -16.317 -43.543 -12.150  1.00  0.00     0.001 A 
HETATM   27  C12 UNL     1     -15.994 -44.821 -12.543  1.00  0.00     0.019 A 
HETATM   28  C13 UNL     1     -15.407 -45.718 -11.696  1.00  0.00     0.010 A 
HETATM   29  C14 UNL     1     -15.138 -45.311 -10.414  1.00  0.00    -0.030 A 
HETATM   30  C21 UNL     1     -15.438 -44.037  -9.960  1.00  0.00     0.010 A 
HETATM   31  C22 UNL     1     -16.032 -43.169 -10.856  1.00  0.00     0.019 A 
BRANCH  29  32
HETATM   32  C15 UNL     1     -14.499 -46.246  -9.458  1.00  0.00     0.311 C 
BRANCH  32  33
HETATM   33  N5  UNL     1     -15.473 -46.666  -8.493  1.00  0.00     0.092 N 
HETATM   34  C16 UNL     1     -16.059 -47.929  -8.855  1.00  0.00     0.272 C 
HETATM   35  C17 UNL     1     -15.462 -49.055  -8.043  1.00  0.00     0.030 C 
HETATM   36  C18 UNL     1     -15.847 -48.890  -6.578  1.00  0.00     0.003 C 
HETATM   37  C19 UNL     1     -15.833 -47.408  -6.232  1.00  0.00     0.030 C 
HETATM   38  C20 UNL     1     -14.904 -46.671  -7.179  1.00  0.00     0.272 C 
ENDBRANCH  32  33
ENDBRANCH  29  32
ENDBRANCH  25  26
ENDBRANCH   4  25
TORSDOF 7
ENDMDL
MODEL 5
REMARK VINA RESULT: -9.226754575      2.461      3.807
REMARK  7 active torsions:
REMARK  status: ('A' for Active; 'I' for Inactive)
REMARK    1  A    between atoms: C4_5  and  N1_6 
REMARK    2  A    between atoms: N1_6  and  C5_8 
REMARK    3  A    between atoms: N4_14  and  C7_16 
REMARK    4  A    between atoms: C10_19  and  S1_20 
REMARK    5  A    between atoms: S1_20  and  C11_21 
REMARK    6  A    between atoms: C14_24  and  C15_25 
REMARK    7  A    between atoms: C15_25  and  N5_26 
ROOT
HETATM    1  C7  UNL     1     -15.959 -38.194 -13.966  1.00  0.00     0.084 C 
HETATM    2  C8  UNL     1     -16.846 -37.075 -13.520  1.00  0.00     0.026 C 
HETATM    3  C9  UNL     1     -18.219 -37.374 -14.074  1.00  0.00     0.017 C 
HETATM    4  C10 UNL     1     -18.259 -38.847 -14.315  1.00  0.00     0.054 C 
HETATM    5  C23 UNL     1     -16.829 -39.276 -14.565  1.00  0.00     0.040 C 
ENDROOT
BRANCH   1   6
HETATM    6  N4  UNL     1     -15.241 -38.800 -12.861  1.00  0.00    -0.365 N 
HETATM    7  C6  UNL     1     -14.328 -38.110 -12.209  1.00  0.00     0.163 A 
HETATM    8  N3  UNL     1     -13.585 -38.514 -11.180  1.00  0.00    -0.278 N 
HETATM    9  S2  UNL     1     -13.789 -36.506 -12.440  1.00  0.00    -0.015 SA
HETATM   10  N2  UNL     1     -12.744 -37.701 -10.671  1.00  0.00    -0.278 N 
ATOM     11  H3  UNL     1     -13.686 -39.457 -10.806  1.00  0.00     0.189 HD
HETATM   12  C5  UNL     1     -12.634 -36.474 -11.181  1.00  0.00     0.167 A 
ATOM     13  H2  UNL     1     -12.163 -37.986  -9.883  1.00  0.00     0.189 HD
ATOM     14  H4  UNL     1     -15.444 -39.761 -12.588  1.00  0.00     0.162 HD
BRANCH  12  15
HETATM   15  N1  UNL     1     -11.831 -35.509 -10.791  1.00  0.00    -0.333 N 
ATOM     16  H1  UNL     1     -11.044 -35.201 -11.362  1.00  0.00     0.168 HD
BRANCH  15  17
HETATM   17  C4  UNL     1     -12.117 -34.918  -9.534  1.00  0.00     0.073 A 
HETATM   18  C3  UNL     1     -11.146 -34.881  -8.556  1.00  0.00     0.036 A 
HETATM   19  C2  UNL     1     -11.362 -34.322  -7.319  1.00  0.00     0.044 A 
HETATM   20  C1  UNL     1     -12.575 -33.777  -7.023  1.00  0.00     0.119 A 
HETATM   21  F1  UNL     1     -12.861 -33.207  -5.820  1.00  0.00    -0.206 F 
HETATM   22  C25 UNL     1     -13.574 -33.794  -7.969  1.00  0.00     0.086 A 
HETATM   23  C24 UNL     1     -13.337 -34.364  -9.217  1.00  0.00     0.145 A 
HETATM   24  F2  UNL     1     -14.338 -34.364 -10.126  1.00  0.00    -0.204 F 
ENDBRANCH  15  17
ENDBRANCH  12  15
ENDBRANCH   1   6
BRANCH   4  25
HETATM   25  S1  UNL     1     -19.015 -39.793 -12.977  1.00  0.00    -0.125 SA
BRANCH  25  26
HETATM   26  C11 UNL     1     -17.832 -40.984 -12.374  1.00  0.00     0.001 A 
HETATM   27  C12 UNL     1     -17.179 -40.751 -11.186  1.00  0.00     0.019 A 
HETATM   28  C13 UNL     1     -16.261 -41.623 -10.675  1.00  0.00     0.010 A 
HETATM   29  C14 UNL     1     -15.995 -42.766 -11.384  1.00  0.00    -0.030 A 
HETATM   30  C21 UNL     1     -16.620 -43.058 -12.585  1.00  0.00     0.010 A 
HETATM   31  C22 UNL     1     -17.540 -42.142 -13.059  1.00  0.00     0.019 A 
BRANCH  29  32
HETATM   32  C15 UNL     1     -15.009 -43.746 -10.869  1.00  0.00     0.311 C 
BRANCH  32  33
HETATM   33  N5  UNL     1     -15.539 -44.365  -9.690  1.00  0.00     0.092 N 
HETATM   34  C16 UNL     1     -15.540 -45.799  -9.805  1.00  0.00     0.272 C 
HETATM   35  C17 UNL     1     -14.390 -46.405  -9.035  1.00  0.00     0.030 C 
HETATM   36  C18 UNL     1     -14.590 -46.168  -7.543  1.00  0.00     0.003 C 
HETATM   37  C19 UNL     1     -15.194 -44.785  -7.344  1.00  0.00     0.030 C 
HETATM   38  C20 UNL     1     -14.844 -43.900  -8.527  1.00  0.00     0.272 C 
ENDBRANCH  32  33
ENDBRANCH  29  32
ENDBRANCH  25  26
ENDBRANCH   4  25
TORSDOF 7
ENDMDL
