MODEL 1
REMARK VINA RESULT: -8.820349917      0.000      0.000
REMARK  6 active torsions:
REMARK  status: ('A' for Active; 'I' for Inactive)
REMARK    1  A    between atoms: N1_2  and  C2_3 
REMARK    2  A    between atoms: N1_2  and  C9_10 
REMARK    3  A    between atoms: C2_3  and  C3_4 
REMARK    4  A    between atoms: C17_18  and  N2_19 
REMARK    5  A    between atoms: N2_19  and  C18_21 
REMARK    6  A    between atoms: C18_21  and  C19_22 
ROOT
HETATM    1  C9  UNL     1      -9.498 -19.535   4.326  1.00  0.00     0.031 C 
HETATM    2  C10 UNL     1      -8.640 -19.941   5.498  1.00  0.00     0.031 C 
HETATM    3  C11 UNL     1      -8.672 -21.411   5.824  1.00  0.00     0.003 C 
HETATM    4  C12 UNL     1      -7.942 -22.279   4.850  1.00  0.00     0.005 C 
HETATM    5  C13 UNL     1      -8.515 -22.388   3.498  1.00  0.00    -0.013 C 
HETATM    6  C14 UNL     1      -9.780 -21.766   3.169  1.00  0.00     0.007 C 
HETATM    7  C15 UNL     1     -10.379 -20.656   3.947  1.00  0.00     0.031 C 
HETATM    8  C16 UNL     1      -7.398 -22.138   2.476  1.00  0.00     0.029 C 
HETATM    9  C17 UNL     1      -7.348 -20.800   1.868  1.00  0.00     0.077 C 
HETATM   10  C24 UNL     1      -7.389 -19.637   2.865  1.00  0.00     0.027 C 
HETATM   11  C25 UNL     1      -8.730 -19.109   3.104  1.00  0.00     0.033 C 
ENDROOT
BRANCH   9  12
HETATM   12  N2  UNL     1      -6.104 -20.704   1.133  1.00  0.00    -0.413 N 
ATOM     13  H2  UNL     1      -5.283 -21.252   1.390  1.00  0.00     0.153 HD
BRANCH  12  14
HETATM   14  C18 UNL     1      -6.093 -19.803   0.035  1.00  0.00     0.153 C 
BRANCH  14  15
HETATM   15  C19 UNL     1      -6.662 -20.381  -1.191  1.00  0.00    -0.038 A 
HETATM   16  C20 UNL     1      -7.107 -21.677  -1.196  1.00  0.00     0.025 A 
HETATM   17  C21 UNL     1      -7.649 -22.231  -2.358  1.00  0.00     0.088 A 
HETATM   18  N3  UNL     1      -7.734 -21.496  -3.464  1.00  0.00    -0.375 N 
HETATM   19  C22 UNL     1      -7.302 -20.232  -3.472  1.00  0.00     0.088 A 
ATOM     20  H3  UNL     1      -8.131 -21.900  -4.311  1.00  0.00     0.164 HD
HETATM   21  C23 UNL     1      -6.753 -19.633  -2.337  1.00  0.00     0.025 A 
ENDBRANCH  14  15
ENDBRANCH  12  14
ENDBRANCH   9  12
BRANCH   1  22
HETATM   22  N1  UNL     1     -10.169 -18.334   4.784  1.00  0.00    -0.388 N 
HETATM   23  C1  UNL     1     -11.207 -18.000   3.851  1.00  0.00     0.149 C 
BRANCH  22  24
HETATM   24  C2  UNL     1     -10.352 -18.048   6.110  1.00  0.00     0.063 C 
BRANCH  24  25
HETATM   25  C3  UNL     1     -11.687 -18.194   6.766  1.00  0.00     0.024 C 
HETATM   26  C4  UNL     1     -12.289 -19.526   6.888  1.00  0.00     0.010 C 
HETATM   27  C5  UNL     1     -11.543 -20.445   7.866  1.00  0.00     0.001 C 
HETATM   28  C6  UNL     1     -11.748 -19.874   9.228  1.00  0.00     0.000 C 
HETATM   29  C7  UNL     1     -12.195 -18.444   9.221  1.00  0.00     0.001 C 
HETATM   30  C8  UNL     1     -11.546 -17.608   8.172  1.00  0.00     0.010 C 
ENDBRANCH  24  25
ENDBRANCH  22  24
ENDBRANCH   1  22
TORSDOF 6
ENDMDL
MODEL 2
REMARK VINA RESULT: -8.659003406      0.919      1.089
REMARK  6 active torsions:
REMARK  status: ('A' for Active; 'I' for Inactive)
REMARK    1  A    between atoms: N1_2  and  C2_3 
REMARK    2  A    between atoms: N1_2  and  C9_10 
REMARK    3  A    between atoms: C2_3  and  C3_4 
REMARK    4  A    between atoms: C17_18  and  N2_19 
REMARK    5  A    between atoms: N2_19  and  C18_21 
REMARK    6  A    between atoms: C18_21  and  C19_22 
ROOT
HETATM    1  C9  UNL     1      -9.397 -20.183   4.119  1.00  0.00     0.031 C 
HETATM    2  C10 UNL     1      -8.457 -20.408   5.278  1.00  0.00     0.031 C 
HETATM    3  C11 UNL     1      -8.029 -21.838   5.474  1.00  0.00     0.003 C 
HETATM    4  C12 UNL     1      -7.063 -22.344   4.451  1.00  0.00     0.005 C 
HETATM    5  C13 UNL     1      -7.573 -22.502   3.078  1.00  0.00    -0.013 C 
HETATM    6  C14 UNL     1      -8.968 -22.276   2.767  1.00  0.00     0.007 C 
HETATM    7  C15 UNL     1      -9.884 -21.482   3.619  1.00  0.00     0.031 C 
HETATM    8  C16 UNL     1      -6.588 -21.825   2.115  1.00  0.00     0.029 C 
HETATM    9  C17 UNL     1      -6.956 -20.488   1.627  1.00  0.00     0.077 C 
HETATM   10  C24 UNL     1      -7.360 -19.491   2.719  1.00  0.00     0.027 C 
HETATM   11  C25 UNL     1      -8.799 -19.430   2.962  1.00  0.00     0.033 C 
ENDROOT
BRANCH   9  12
HETATM   12  N2  UNL     1      -5.804 -19.944   0.941  1.00  0.00    -0.413 N 
ATOM     13  H2  UNL     1      -4.854 -20.083   1.288  1.00  0.00     0.153 HD
BRANCH  12  14
HETATM   14  C18 UNL     1      -6.070 -19.205  -0.243  1.00  0.00     0.153 C 
BRANCH  14  15
HETATM   15  C19 UNL     1      -6.622 -20.031  -1.327  1.00  0.00    -0.038 A 
HETATM   16  C20 UNL     1      -6.926 -21.348  -1.098  1.00  0.00     0.025 A 
HETATM   17  C21 UNL     1      -7.452 -22.138  -2.124  1.00  0.00     0.088 A 
HETATM   18  N3  UNL     1      -7.658 -21.607  -3.326  1.00  0.00    -0.375 N 
HETATM   19  C22 UNL     1      -7.365 -20.326  -3.561  1.00  0.00     0.088 A 
ATOM     20  H3  UNL     1      -8.043 -22.183  -4.074  1.00  0.00     0.164 HD
HETATM   21  C23 UNL     1      -6.838 -19.496  -2.570  1.00  0.00     0.025 A 
ENDBRANCH  14  15
ENDBRANCH  12  14
ENDBRANCH   9  12
BRANCH   1  22
HETATM   22  N1  UNL     1     -10.410 -19.296   4.659  1.00  0.00    -0.388 N 
HETATM   23  C1  UNL     1     -10.704 -18.283   3.687  1.00  0.00     0.149 C 
BRANCH  22  24
HETATM   24  C2  UNL     1     -11.411 -19.732   5.486  1.00  0.00     0.063 C 
BRANCH  24  25
HETATM   25  C3  UNL     1     -11.592 -19.173   6.860  1.00  0.00     0.024 C 
HETATM   26  C4  UNL     1     -11.740 -20.089   7.996  1.00  0.00     0.010 C 
HETATM   27  C5  UNL     1     -10.459 -20.871   8.322  1.00  0.00     0.001 C 
HETATM   28  C6  UNL     1      -9.473 -19.878   8.836  1.00  0.00     0.000 C 
HETATM   29  C7  UNL     1      -9.813 -18.458   8.494  1.00  0.00     0.001 C 
HETATM   30  C8  UNL     1     -10.380 -18.280   7.128  1.00  0.00     0.010 C 
ENDBRANCH  24  25
ENDBRANCH  22  24
ENDBRANCH   1  22
TORSDOF 6
ENDMDL
MODEL 3
REMARK VINA RESULT: -8.400648072      0.902      1.502
REMARK  6 active torsions:
REMARK  status: ('A' for Active; 'I' for Inactive)
REMARK    1  A    between atoms: N1_2  and  C2_3 
REMARK    2  A    between atoms: N1_2  and  C9_10 
REMARK    3  A    between atoms: C2_3  and  C3_4 
REMARK    4  A    between atoms: C17_18  and  N2_19 
REMARK    5  A    between atoms: N2_19  and  C18_21 
REMARK    6  A    between atoms: C18_21  and  C19_22 
ROOT
HETATM    1  C9  UNL     1      -9.670 -19.759   4.345  1.00  0.00     0.031 C 
HETATM    2  C10 UNL     1      -8.783 -20.030   5.535  1.00  0.00     0.031 C 
HETATM    3  C11 UNL     1      -8.578 -21.488   5.849  1.00  0.00     0.003 C 
HETATM    4  C12 UNL     1      -7.690 -22.211   4.888  1.00  0.00     0.005 C 
HETATM    5  C13 UNL     1      -8.206 -22.399   3.521  1.00  0.00    -0.013 C 
HETATM    6  C14 UNL     1      -9.549 -21.992   3.165  1.00  0.00     0.007 C 
HETATM    7  C15 UNL     1     -10.343 -21.006   3.936  1.00  0.00     0.031 C 
HETATM    8  C16 UNL     1      -7.123 -21.955   2.529  1.00  0.00     0.029 C 
HETATM    9  C17 UNL     1      -7.282 -20.621   1.932  1.00  0.00     0.077 C 
HETATM   10  C24 UNL     1      -7.540 -19.492   2.936  1.00  0.00     0.027 C 
HETATM   11  C25 UNL     1      -8.955 -19.197   3.145  1.00  0.00     0.033 C 
ENDROOT
BRANCH   9  12
HETATM   12  N2  UNL     1      -6.055 -20.310   1.230  1.00  0.00    -0.413 N 
ATOM     13  H2  UNL     1      -5.147 -20.635   1.562  1.00  0.00     0.153 HD
BRANCH  12  14
HETATM   14  C18 UNL     1      -6.188 -19.528   0.051  1.00  0.00     0.153 C 
BRANCH  14  15
HETATM   15  C19 UNL     1      -6.680 -20.300  -1.100  1.00  0.00    -0.038 A 
HETATM   16  C20 UNL     1      -6.791 -19.702  -2.329  1.00  0.00     0.025 A 
HETATM   17  C21 UNL     1      -7.257 -20.430  -3.427  1.00  0.00     0.088 A 
HETATM   18  N3  UNL     1      -7.593 -21.709  -3.277  1.00  0.00    -0.375 N 
HETATM   19  C22 UNL     1      -7.491 -22.301  -2.084  1.00  0.00     0.088 A 
ATOM     20  H3  UNL     1      -7.932 -22.240  -4.078  1.00  0.00     0.164 HD
HETATM   21  C23 UNL     1      -7.031 -21.617  -0.957  1.00  0.00     0.025 A 
ENDBRANCH  14  15
ENDBRANCH  12  14
ENDBRANCH   9  12
BRANCH   1  22
HETATM   22  N1  UNL     1     -10.542 -18.691   4.794  1.00  0.00    -0.388 N 
HETATM   23  C1  UNL     1     -11.030 -17.979   3.649  1.00  0.00     0.149 C 
BRANCH  22  24
HETATM   24  C2  UNL     1     -11.348 -18.808   5.895  1.00  0.00     0.063 C 
BRANCH  24  25
HETATM   25  C3  UNL     1     -11.273 -17.836   7.028  1.00  0.00     0.024 C 
HETATM   26  C4  UNL     1     -11.313 -18.333   8.407  1.00  0.00     0.010 C 
HETATM   27  C5  UNL     1     -10.059 -19.124   8.808  1.00  0.00     0.001 C 
HETATM   28  C6  UNL     1      -8.935 -18.146   8.851  1.00  0.00     0.000 C 
HETATM   29  C7  UNL     1      -9.216 -16.871   8.115  1.00  0.00     0.001 C 
HETATM   30  C8  UNL     1      -9.971 -17.055   6.844  1.00  0.00     0.010 C 
ENDBRANCH  24  25
ENDBRANCH  22  24
ENDBRANCH   1  22
TORSDOF 6
ENDMDL
MODEL 4
REMARK VINA RESULT: -8.218252338      1.095      1.885
REMARK  6 active torsions:
REMARK  status: ('A' for Active; 'I' for Inactive)
REMARK    1  A    between atoms: N1_2  and  C2_3 
REMARK    2  A    between atoms: N1_2  and  C9_10 
REMARK    3  A    between atoms: C2_3  and  C3_4 
REMARK    4  A    between atoms: C17_18  and  N2_19 
REMARK    5  A    between atoms: N2_19  and  C18_21 
REMARK    6  A    between atoms: C18_21  and  C19_22 
ROOT
HETATM    1  C9  UNL     1      -9.682 -19.489   4.487  1.00  0.00     0.031 C 
HETATM    2  C10 UNL     1      -8.827 -19.828   5.684  1.00  0.00     0.031 C 
HETATM    3  C11 UNL     1      -8.813 -21.287   6.054  1.00  0.00     0.003 C 
HETATM    4  C12 UNL     1      -8.039 -22.158   5.118  1.00  0.00     0.005 C 
HETATM    5  C13 UNL     1      -8.589 -22.329   3.762  1.00  0.00    -0.013 C 
HETATM    6  C14 UNL     1      -9.869 -21.762   3.397  1.00  0.00     0.007 C 
HETATM    7  C15 UNL     1     -10.518 -20.650   4.132  1.00  0.00     0.031 C 
HETATM    8  C16 UNL     1      -7.466 -22.071   2.748  1.00  0.00     0.029 C 
HETATM    9  C17 UNL     1      -7.454 -20.752   2.100  1.00  0.00     0.077 C 
HETATM   10  C24 UNL     1      -7.550 -19.560   3.059  1.00  0.00     0.027 C 
HETATM   11  C25 UNL     1      -8.912 -19.073   3.263  1.00  0.00     0.033 C 
ENDROOT
BRANCH   9  12
HETATM   12  N2  UNL     1      -6.203 -20.634   1.379  1.00  0.00    -0.413 N 
ATOM     13  H2  UNL     1      -5.371 -21.155   1.656  1.00  0.00     0.153 HD
BRANCH  12  14
HETATM   14  C18 UNL     1      -6.202 -19.752   0.266  1.00  0.00     0.153 C 
BRANCH  14  15
HETATM   15  C19 UNL     1      -6.677 -20.386  -0.973  1.00  0.00    -0.038 A 
HETATM   16  C20 UNL     1      -7.081 -21.696  -0.962  1.00  0.00     0.025 A 
HETATM   17  C21 UNL     1      -7.535 -22.303  -2.135  1.00  0.00     0.088 A 
HETATM   18  N3  UNL     1      -7.575 -21.605  -3.267  1.00  0.00    -0.375 N 
HETATM   19  C22 UNL     1      -7.183 -20.329  -3.291  1.00  0.00     0.088 A 
ATOM     20  H3  UNL     1      -7.907 -22.048  -4.123  1.00  0.00     0.164 HD
HETATM   21  C23 UNL     1      -6.722 -19.677  -2.146  1.00  0.00     0.025 A 
ENDBRANCH  14  15
ENDBRANCH  12  14
ENDBRANCH   9  12
BRANCH   1  22
HETATM   22  N1  UNL     1     -10.401 -18.298   4.899  1.00  0.00    -0.388 N 
HETATM   23  C1  UNL     1     -11.164 -17.811   3.786  1.00  0.00     0.149 C 
BRANCH  22  24
HETATM   24  C2  UNL     1     -10.895 -18.132   6.165  1.00  0.00     0.063 C 
BRANCH  24  25
HETATM   25  C3  UNL     1     -10.236 -17.222   7.150  1.00  0.00     0.024 C 
HETATM   26  C4  UNL     1      -9.700 -15.934   6.695  1.00  0.00     0.010 C 
HETATM   27  C5  UNL     1     -10.787 -14.934   6.275  1.00  0.00     0.001 C 
HETATM   28  C6  UNL     1     -11.521 -14.557   7.517  1.00  0.00     0.000 C 
HETATM   29  C7  UNL     1     -11.316 -15.513   8.653  1.00  0.00     0.001 C 
HETATM   30  C8  UNL     1     -11.269 -16.944   8.243  1.00  0.00     0.010 C 
ENDBRANCH  24  25
ENDBRANCH  22  24
ENDBRANCH   1  22
TORSDOF 6
ENDMDL
MODEL 5
REMARK VINA RESULT: -8.151853909      1.320      1.998
REMARK  6 active torsions:
REMARK  status: ('A' for Active; 'I' for Inactive)
REMARK    1  A    between atoms: N1_2  and  C2_3 
REMARK    2  A    between atoms: N1_2  and  C9_10 
REMARK    3  A    between atoms: C2_3  and  C3_4 
REMARK    4  A    between atoms: C17_18  and  N2_19 
REMARK    5  A    between atoms: N2_19  and  C18_21 
REMARK    6  A    between atoms: C18_21  and  C19_22 
ROOT
HETATM    1  C9  UNL     1      -9.651 -19.966   4.209  1.00  0.00     0.031 C 
HETATM    2  C10 UNL     1      -8.764 -20.207   5.406  1.00  0.00     0.031 C 
HETATM    3  C11 UNL     1      -8.419 -21.651   5.654  1.00  0.00     0.003 C 
HETATM    4  C12 UNL     1      -7.445 -22.233   4.680  1.00  0.00     0.005 C 
HETATM    5  C13 UNL     1      -7.914 -22.402   3.294  1.00  0.00    -0.013 C 
HETATM    6  C14 UNL     1      -9.284 -22.114   2.927  1.00  0.00     0.007 C 
HETATM    7  C15 UNL     1     -10.187 -21.252   3.725  1.00  0.00     0.031 C 
HETATM    8  C16 UNL     1      -6.862 -21.803   2.351  1.00  0.00     0.029 C 
HETATM    9  C17 UNL     1      -7.144 -20.463   1.816  1.00  0.00     0.077 C 
HETATM   10  C24 UNL     1      -7.533 -19.417   2.866  1.00  0.00     0.027 C 
HETATM   11  C25 UNL     1      -8.974 -19.276   3.055  1.00  0.00     0.033 C 
ENDROOT
BRANCH   9  12
HETATM   12  N2  UNL     1      -5.941 -19.997   1.158  1.00  0.00    -0.413 N 
ATOM     13  H2  UNL     1      -5.012 -20.188   1.535  1.00  0.00     0.153 HD
BRANCH  12  14
HETATM   14  C18 UNL     1      -6.128 -19.259  -0.041  1.00  0.00     0.153 C 
BRANCH  14  15
HETATM   15  C19 UNL     1      -6.627 -20.082  -1.153  1.00  0.00    -0.038 A 
HETATM   16  C20 UNL     1      -6.918 -21.406  -0.950  1.00  0.00     0.025 A 
HETATM   17  C21 UNL     1      -7.393 -22.192  -2.002  1.00  0.00     0.088 A 
HETATM   18  N3  UNL     1      -7.564 -21.652  -3.206  1.00  0.00    -0.375 N 
HETATM   19  C22 UNL     1      -7.282 -20.364  -3.416  1.00  0.00     0.088 A 
ATOM     20  H3  UNL     1      -7.912 -22.225  -3.973  1.00  0.00     0.164 HD
HETATM   21  C23 UNL     1      -6.805 -19.536  -2.398  1.00  0.00     0.025 A 
ENDBRANCH  14  15
ENDBRANCH  12  14
ENDBRANCH   9  12
BRANCH   1  22
HETATM   22  N1  UNL     1     -10.635 -19.015   4.689  1.00  0.00    -0.388 N 
HETATM   23  C1  UNL     1     -11.572 -19.702   5.529  1.00  0.00     0.149 C 
BRANCH  22  24
HETATM   24  C2  UNL     1     -10.328 -17.709   4.966  1.00  0.00     0.063 C 
BRANCH  24  25
HETATM   25  C3  UNL     1     -10.779 -17.050   6.229  1.00  0.00     0.024 C 
HETATM   26  C4  UNL     1     -10.063 -17.324   7.480  1.00  0.00     0.010 C 
HETATM   27  C5  UNL     1      -8.641 -16.743   7.510  1.00  0.00     0.001 C 
HETATM   28  C6  UNL     1      -8.787 -15.260   7.541  1.00  0.00     0.000 C 
HETATM   29  C7  UNL     1     -10.140 -14.778   7.111  1.00  0.00     0.001 C 
HETATM   30  C8  UNL     1     -10.726 -15.543   5.975  1.00  0.00     0.010 C 
ENDBRANCH  24  25
ENDBRANCH  22  24
ENDBRANCH   1  22
TORSDOF 6
ENDMDL
