MODEL 1
REMARK VINA RESULT: -8.332668198      0.000      0.000
REMARK  7 active torsions:
REMARK  status: ('A' for Active; 'I' for Inactive)
REMARK    1  A    between atoms: C2_2  and  C3_3 
REMARK    2  A    between atoms: C3_3  and  C4_4 
REMARK    3  A    between atoms: C4_4  and  C5_5 
REMARK    4  A    between atoms: C5_5  and  C6_6 
REMARK    5  A    between atoms: C13_13  and  N1_14 
REMARK       I    between atoms: N1_14  and  C14_16 
REMARK    6  A    between atoms: C14_16  and  O2_18 
REMARK    7  A    between atoms: O2_18  and  C15_19 
ROOT
HETATM    1  N1  UNL     1      -7.978 -19.116   3.516  1.00  0.00    -0.331 N 
ATOM      2  H1  UNL     1      -7.355 -18.519   4.061  1.00  0.00     0.165 HD
HETATM    3  C14 UNL     1      -9.317 -19.312   3.985  1.00  0.00     0.361 C 
HETATM    4  O1  UNL     1     -10.061 -20.051   3.299  1.00  0.00    -0.238 OA
ENDROOT
BRANCH   1   5
HETATM    5  C13 UNL     1      -7.474 -19.715   2.325  1.00  0.00     0.096 A 
HETATM    6  C5  UNL     1      -6.673 -20.869   2.071  1.00  0.00    -0.014 A 
HETATM    7  C12 UNL     1      -5.974 -19.481   2.162  1.00  0.00     0.038 A 
BRANCH   6   8
HETATM    8  C4  UNL     1      -5.933 -21.841   2.881  1.00  0.00     0.012 C 
BRANCH   8   9
HETATM    9  C3  UNL     1      -6.435 -22.567   4.034  1.00  0.00     0.000 C 
BRANCH   9  10
HETATM   10  C2  UNL     1      -7.864 -22.906   4.170  1.00  0.00    -0.005 C 
HETATM   11  C1  UNL     1      -8.075 -23.922   5.311  1.00  0.00     0.005 C 
ENDBRANCH   9  10
ENDBRANCH   8   9
ENDBRANCH   6   8
BRANCH   6  12
HETATM   12  C6  UNL     1      -6.632 -21.308   0.572  1.00  0.00    -0.004 C 
HETATM   13  C7  UNL     1      -7.621 -22.401   0.267  1.00  0.00     0.005 C 
HETATM   14  C8  UNL     1      -7.231 -22.943  -1.118  1.00  0.00     0.000 C 
HETATM   15  C9  UNL     1      -7.522 -21.839  -2.101  1.00  0.00     0.000 C 
HETATM   16  C10 UNL     1      -6.559 -20.726  -1.781  1.00  0.00     0.000 C 
HETATM   17  C11 UNL     1      -6.817 -20.172  -0.372  1.00  0.00     0.005 C 
ENDBRANCH   6  12
ENDBRANCH   1   5
BRANCH   3  18
HETATM   18  O2  UNL     1      -9.831 -18.754   5.116  1.00  0.00    -0.298 OA
BRANCH  18  19
HETATM   19  C15 UNL     1     -10.095 -19.357   6.334  1.00  0.00     0.138 C 
HETATM   20  C16 UNL     1     -11.534 -19.805   6.486  1.00  0.00     0.059 C 
HETATM   21  C17 UNL     1     -11.695 -20.286   7.914  1.00  0.00     0.171 C 
HETATM   22  O3  UNL     1     -10.785 -21.245   8.268  1.00  0.00    -0.380 OA
HETATM   23  C18 UNL     1      -9.459 -20.900   8.091  1.00  0.00     0.063 C 
HETATM   24  C19 UNL     1      -8.991 -19.808   9.011  1.00  0.00     0.038 C 
HETATM   25  C22 UNL     1      -8.634 -22.113   8.500  1.00  0.00     0.038 C 
HETATM   26  C23 UNL     1      -9.247 -20.559   6.636  1.00  0.00     0.070 C 
HETATM   27  C20 UNL     1      -8.564 -20.498  10.292  1.00  0.00     0.003 C 
HETATM   28  C21 UNL     1      -8.117 -21.873   9.882  1.00  0.00     0.003 C 
ENDBRANCH  18  19
ENDBRANCH   3  18
TORSDOF 7
ENDMDL
MODEL 2
REMARK VINA RESULT: -8.223274503      2.622      4.357
REMARK  7 active torsions:
REMARK  status: ('A' for Active; 'I' for Inactive)
REMARK    1  A    between atoms: C2_2  and  C3_3 
REMARK    2  A    between atoms: C3_3  and  C4_4 
REMARK    3  A    between atoms: C4_4  and  C5_5 
REMARK    4  A    between atoms: C5_5  and  C6_6 
REMARK    5  A    between atoms: C13_13  and  N1_14 
REMARK       I    between atoms: N1_14  and  C14_16 
REMARK    6  A    between atoms: C14_16  and  O2_18 
REMARK    7  A    between atoms: O2_18  and  C15_19 
ROOT
HETATM    1  N1  UNL     1      -8.705 -22.197   6.458  1.00  0.00    -0.331 N 
ATOM      2  H1  UNL     1      -9.590 -21.726   6.651  1.00  0.00     0.165 HD
HETATM    3  C14 UNL     1      -8.191 -23.109   7.435  1.00  0.00     0.361 C 
HETATM    4  O1  UNL     1      -7.103 -23.673   7.174  1.00  0.00    -0.238 OA
ENDROOT
BRANCH   1   5
HETATM    5  C13 UNL     1      -8.041 -21.916   5.229  1.00  0.00     0.096 A 
HETATM    6  C5  UNL     1      -8.474 -21.366   3.985  1.00  0.00    -0.014 A 
HETATM    7  C12 UNL     1      -8.420 -22.914   4.137  1.00  0.00     0.038 A 
BRANCH   6   8
HETATM    8  C4  UNL     1      -9.756 -20.979   3.388  1.00  0.00     0.012 C 
BRANCH   8   9
HETATM    9  C3  UNL     1     -10.657 -19.947   3.870  1.00  0.00     0.000 C 
BRANCH   9  10
HETATM   10  C2  UNL     1     -10.431 -18.521   3.567  1.00  0.00    -0.005 C 
HETATM   11  C1  UNL     1     -11.382 -17.633   4.394  1.00  0.00     0.005 C 
ENDBRANCH   9  10
ENDBRANCH   8   9
ENDBRANCH   6   8
BRANCH   6  12
HETATM   12  C6  UNL     1      -7.312 -20.958   3.022  1.00  0.00    -0.004 C 
HETATM   13  C7  UNL     1      -7.681 -21.129   1.573  1.00  0.00     0.005 C 
HETATM   14  C8  UNL     1      -6.362 -21.019   0.790  1.00  0.00     0.000 C 
HETATM   15  C9  UNL     1      -5.904 -19.591   0.932  1.00  0.00     0.000 C 
HETATM   16  C10 UNL     1      -5.564 -19.401   2.387  1.00  0.00     0.000 C 
HETATM   17  C11 UNL     1      -6.813 -19.577   3.264  1.00  0.00     0.005 C 
ENDBRANCH   6  12
ENDBRANCH   1   5
BRANCH   3  18
HETATM   18  O2  UNL     1      -8.800 -23.402   8.617  1.00  0.00    -0.298 OA
BRANCH  18  19
HETATM   19  C15 UNL     1      -9.995 -22.914   9.117  1.00  0.00     0.138 C 
HETATM   20  C16 UNL     1     -10.857 -23.977   9.768  1.00  0.00     0.059 C 
HETATM   21  C17 UNL     1     -12.179 -23.322  10.109  1.00  0.00     0.171 C 
HETATM   22  O3  UNL     1     -12.044 -22.190  10.866  1.00  0.00    -0.380 OA
HETATM   23  C18 UNL     1     -11.221 -21.215  10.336  1.00  0.00     0.063 C 
HETATM   24  C19 UNL     1     -11.764 -20.577   9.089  1.00  0.00     0.038 C 
HETATM   25  C22 UNL     1     -11.180 -20.080  11.350  1.00  0.00     0.038 C 
HETATM   26  C23 UNL     1      -9.850 -21.814  10.128  1.00  0.00     0.070 C 
HETATM   27  C20 UNL     1     -12.669 -19.455   9.557  1.00  0.00     0.003 C 
HETATM   28  C21 UNL     1     -12.112 -19.010  10.880  1.00  0.00     0.003 C 
ENDBRANCH  18  19
ENDBRANCH   3  18
TORSDOF 7
ENDMDL
MODEL 3
REMARK VINA RESULT: -8.166995992      0.941      1.514
REMARK  7 active torsions:
REMARK  status: ('A' for Active; 'I' for Inactive)
REMARK    1  A    between atoms: C2_2  and  C3_3 
REMARK    2  A    between atoms: C3_3  and  C4_4 
REMARK    3  A    between atoms: C4_4  and  C5_5 
REMARK    4  A    between atoms: C5_5  and  C6_6 
REMARK    5  A    between atoms: C13_13  and  N1_14 
REMARK       I    between atoms: N1_14  and  C14_16 
REMARK    6  A    between atoms: C14_16  and  O2_18 
REMARK    7  A    between atoms: O2_18  and  C15_19 
ROOT
HETATM    1  N1  UNL     1      -7.790 -19.247   3.605  1.00  0.00    -0.331 N 
ATOM      2  H1  UNL     1      -7.156 -18.666   4.155  1.00  0.00     0.165 HD
HETATM    3  C14 UNL     1      -9.111 -19.482   4.108  1.00  0.00     0.361 C 
HETATM    4  O1  UNL     1      -9.868 -20.199   3.415  1.00  0.00    -0.238 OA
ENDROOT
BRANCH   1   5
HETATM    5  C13 UNL     1      -7.319 -19.786   2.373  1.00  0.00     0.096 A 
HETATM    6  C5  UNL     1      -6.598 -20.970   2.033  1.00  0.00    -0.014 A 
HETATM    7  C12 UNL     1      -5.805 -19.646   2.233  1.00  0.00     0.038 A 
BRANCH   6   8
HETATM    8  C4  UNL     1      -5.935 -22.051   2.767  1.00  0.00     0.012 C 
BRANCH   8   9
HETATM    9  C3  UNL     1      -6.395 -22.670   3.998  1.00  0.00     0.000 C 
BRANCH   9  10
HETATM   10  C2  UNL     1      -7.823 -22.955   4.232  1.00  0.00    -0.005 C 
HETATM   11  C1  UNL     1      -7.993 -23.971   5.380  1.00  0.00     0.005 C 
ENDBRANCH   9  10
ENDBRANCH   8   9
ENDBRANCH   6   8
BRANCH   6  12
HETATM   12  C6  UNL     1      -6.575 -21.293   0.504  1.00  0.00    -0.004 C 
HETATM   13  C7  UNL     1      -7.559 -22.368   0.129  1.00  0.00     0.005 C 
HETATM   14  C8  UNL     1      -7.185 -22.800  -1.298  1.00  0.00     0.000 C 
HETATM   15  C9  UNL     1      -7.497 -21.626  -2.190  1.00  0.00     0.000 C 
HETATM   16  C10 UNL     1      -6.538 -20.534  -1.799  1.00  0.00     0.000 C 
HETATM   17  C11 UNL     1      -6.781 -20.091  -0.349  1.00  0.00     0.005 C 
ENDBRANCH   6  12
ENDBRANCH   1   5
BRANCH   3  18
HETATM   18  O2  UNL     1      -9.594 -18.981   5.279  1.00  0.00    -0.298 OA
BRANCH  18  19
HETATM   19  C15 UNL     1      -9.484 -19.508   6.554  1.00  0.00     0.138 C 
HETATM   20  C16 UNL     1      -9.069 -18.489   7.596  1.00  0.00     0.059 C 
HETATM   21  C17 UNL     1      -8.836 -19.249   8.886  1.00  0.00     0.171 C 
HETATM   22  O3  UNL     1      -9.908 -20.011   9.266  1.00  0.00    -0.380 OA
HETATM   23  C18 UNL     1     -10.357 -20.917   8.324  1.00  0.00     0.063 C 
HETATM   24  C19 UNL     1      -9.387 -22.030   8.045  1.00  0.00     0.038 C 
HETATM   25  C22 UNL     1     -11.565 -21.616   8.932  1.00  0.00     0.038 C 
HETATM   26  C23 UNL     1     -10.735 -20.155   7.076  1.00  0.00     0.070 C 
HETATM   27  C20 UNL     1      -9.664 -23.093   9.090  1.00  0.00     0.003 C 
HETATM   28  C21 UNL     1     -11.117 -22.948   9.441  1.00  0.00     0.003 C 
ENDBRANCH  18  19
ENDBRANCH   3  18
TORSDOF 7
ENDMDL
MODEL 4
REMARK VINA RESULT: -8.057522094      3.039      4.576
REMARK  7 active torsions:
REMARK  status: ('A' for Active; 'I' for Inactive)
REMARK    1  A    between atoms: C2_2  and  C3_3 
REMARK    2  A    between atoms: C3_3  and  C4_4 
REMARK    3  A    between atoms: C4_4  and  C5_5 
REMARK    4  A    between atoms: C5_5  and  C6_6 
REMARK    5  A    between atoms: C13_13  and  N1_14 
REMARK       I    between atoms: N1_14  and  C14_16 
REMARK    6  A    between atoms: C14_16  and  O2_18 
REMARK    7  A    between atoms: O2_18  and  C15_19 
ROOT
HETATM    1  N1  UNL     1      -8.544 -21.747   6.788  1.00  0.00    -0.331 N 
ATOM      2  H1  UNL     1      -9.209 -21.019   7.053  1.00  0.00     0.165 HD
HETATM    3  C14 UNL     1      -8.174 -22.722   7.770  1.00  0.00     0.361 C 
HETATM    4  O1  UNL     1      -7.355 -23.604   7.420  1.00  0.00    -0.238 OA
ENDROOT
BRANCH   1   5
HETATM    5  C13 UNL     1      -8.028 -21.744   5.460  1.00  0.00     0.096 A 
HETATM    6  C5  UNL     1      -8.606 -21.463   4.185  1.00  0.00    -0.014 A 
HETATM    7  C12 UNL     1      -8.522 -22.945   4.656  1.00  0.00     0.038 A 
BRANCH   6   8
HETATM    8  C4  UNL     1      -9.951 -21.191   3.671  1.00  0.00     0.012 C 
BRANCH   8   9
HETATM    9  C3  UNL     1     -10.788 -20.050   3.998  1.00  0.00     0.000 C 
BRANCH   9  10
HETATM   10  C2  UNL     1     -10.434 -18.685   3.566  1.00  0.00    -0.005 C 
HETATM   11  C1  UNL     1     -11.270 -17.639   4.332  1.00  0.00     0.005 C 
ENDBRANCH   9  10
ENDBRANCH   8   9
ENDBRANCH   6   8
BRANCH   6  12
HETATM   12  C6  UNL     1      -7.566 -21.288   3.031  1.00  0.00    -0.004 C 
HETATM   13  C7  UNL     1      -8.136 -21.648   1.686  1.00  0.00     0.005 C 
HETATM   14  C8  UNL     1      -6.932 -21.751   0.735  1.00  0.00     0.000 C 
HETATM   15  C9  UNL     1      -6.387 -20.353   0.591  1.00  0.00     0.000 C 
HETATM   16  C10 UNL     1      -5.844 -19.972   1.943  1.00  0.00     0.000 C 
HETATM   17  C11 UNL     1      -6.970 -19.925   2.987  1.00  0.00     0.005 C 
ENDBRANCH   6  12
ENDBRANCH   1   5
BRANCH   3  18
HETATM   18  O2  UNL     1      -8.649 -22.756   9.046  1.00  0.00    -0.298 OA
BRANCH  18  19
HETATM   19  C15 UNL     1      -9.961 -22.847   9.476  1.00  0.00     0.138 C 
HETATM   20  C16 UNL     1     -10.911 -21.947   8.712  1.00  0.00     0.059 C 
HETATM   21  C17 UNL     1     -12.256 -22.039   9.403  1.00  0.00     0.171 C 
HETATM   22  O3  UNL     1     -12.709 -23.324   9.536  1.00  0.00    -0.380 OA
HETATM   23  C18 UNL     1     -11.850 -24.194  10.178  1.00  0.00     0.063 C 
HETATM   24  C19 UNL     1     -11.651 -23.884  11.634  1.00  0.00     0.038 C 
HETATM   25  C22 UNL     1     -12.527 -25.558  10.175  1.00  0.00     0.038 C 
HETATM   26  C23 UNL     1     -10.549 -24.227   9.412  1.00  0.00     0.070 C 
HETATM   27  C20 UNL     1     -12.783 -24.580  12.365  1.00  0.00     0.003 C 
HETATM   28  C21 UNL     1     -13.138 -25.771  11.522  1.00  0.00     0.003 C 
ENDBRANCH  18  19
ENDBRANCH   3  18
TORSDOF 7
ENDMDL
MODEL 5
REMARK VINA RESULT: -8.026824191      2.243      4.271
REMARK  7 active torsions:
REMARK  status: ('A' for Active; 'I' for Inactive)
REMARK    1  A    between atoms: C2_2  and  C3_3 
REMARK    2  A    between atoms: C3_3  and  C4_4 
REMARK    3  A    between atoms: C4_4  and  C5_5 
REMARK    4  A    between atoms: C5_5  and  C6_6 
REMARK    5  A    between atoms: C13_13  and  N1_14 
REMARK       I    between atoms: N1_14  and  C14_16 
REMARK    6  A    between atoms: C14_16  and  O2_18 
REMARK    7  A    between atoms: O2_18  and  C15_19 
ROOT
HETATM    1  N1  UNL     1      -8.719 -22.124   6.807  1.00  0.00    -0.331 N 
ATOM      2  H1  UNL     1      -8.784 -23.067   7.191  1.00  0.00     0.165 HD
HETATM    3  C14 UNL     1      -9.279 -21.041   7.560  1.00  0.00     0.361 C 
HETATM    4  O1  UNL     1      -9.187 -19.893   7.066  1.00  0.00    -0.238 OA
ENDROOT
BRANCH   1   5
HETATM    5  C13 UNL     1      -8.076 -21.946   5.548  1.00  0.00     0.096 A 
HETATM    6  C5  UNL     1      -8.544 -21.568   4.254  1.00  0.00    -0.014 A 
HETATM    7  C12 UNL     1      -8.398 -23.083   4.581  1.00  0.00     0.038 A 
BRANCH   6   8
HETATM    8  C4  UNL     1      -9.848 -21.328   3.629  1.00  0.00     0.012 C 
BRANCH   8   9
HETATM    9  C3  UNL     1     -10.740 -20.212   3.891  1.00  0.00     0.000 C 
BRANCH   9  10
HETATM   10  C2  UNL     1     -10.381 -18.833   3.511  1.00  0.00    -0.005 C 
HETATM   11  C1  UNL     1     -11.175 -17.814   4.354  1.00  0.00     0.005 C 
ENDBRANCH   9  10
ENDBRANCH   8   9
ENDBRANCH   6   8
BRANCH   6  12
HETATM   12  C6  UNL     1      -7.411 -21.205   3.240  1.00  0.00    -0.004 C 
HETATM   13  C7  UNL     1      -7.816 -21.455   1.813  1.00  0.00     0.005 C 
HETATM   14  C8  UNL     1      -6.520 -21.380   0.990  1.00  0.00     0.000 C 
HETATM   15  C9  UNL     1      -6.069 -19.943   1.044  1.00  0.00     0.000 C 
HETATM   16  C10 UNL     1      -5.692 -19.674   2.477  1.00  0.00     0.000 C 
HETATM   17  C11 UNL     1      -6.916 -19.811   3.395  1.00  0.00     0.005 C 
ENDBRANCH   6  12
ENDBRANCH   1   5
BRANCH   3  18
HETATM   18  O2  UNL     1      -9.897 -21.175   8.767  1.00  0.00    -0.298 OA
BRANCH  18  19
HETATM   19  C15 UNL     1      -9.353 -21.574   9.975  1.00  0.00     0.138 C 
HETATM   20  C16 UNL     1      -9.636 -23.023  10.315  1.00  0.00     0.059 C 
HETATM   21  C17 UNL     1      -9.123 -23.253  11.722  1.00  0.00     0.171 C 
HETATM   22  O3  UNL     1      -7.811 -22.900  11.884  1.00  0.00    -0.380 OA
HETATM   23  C18 UNL     1      -7.496 -21.602  11.533  1.00  0.00     0.063 C 
HETATM   24  C19 UNL     1      -8.110 -20.566  12.431  1.00  0.00     0.038 C 
HETATM   25  C22 UNL     1      -5.997 -21.442  11.749  1.00  0.00     0.038 C 
HETATM   26  C23 UNL     1      -7.866 -21.401  10.082  1.00  0.00     0.070 C 
HETATM   27  C20 UNL     1      -7.153 -20.405  13.595  1.00  0.00     0.003 C 
HETATM   28  C21 UNL     1      -5.792 -20.735  13.049  1.00  0.00     0.003 C 
ENDBRANCH  18  19
ENDBRANCH   3  18
TORSDOF 7
ENDMDL
