MODEL 1
REMARK VINA RESULT: -8.175202480      0.000      0.000
REMARK  8 active torsions:
REMARK  status: ('A' for Active; 'I' for Inactive)
REMARK    1  A    between atoms: C2_2  and  C3_3 
REMARK    2  A    between atoms: C5_5  and  C6_6 
REMARK    3  A    between atoms: C6_6  and  C7_7 
REMARK    4  A    between atoms: C7_7  and  C8_8 
REMARK    5  A    between atoms: C15_15  and  O1_16 
REMARK    6  A    between atoms: C19_21  and  C21_23 
REMARK    7  A    between atoms: C21_23  and  C22_24 
REMARK    8  A    between atoms: C22_24  and  C23_25 
ROOT
HETATM    1  C8  UNL     1      -7.934 -22.290   4.945  1.00  0.00     0.018 C 
HETATM    2  C9  UNL     1      -6.413 -22.263   4.850  1.00  0.00     0.023 C 
HETATM    3  C10 UNL     1      -8.163 -23.409   5.984  1.00  0.00     0.017 C 
HETATM    4  C11 UNL     1      -8.037 -22.898   7.371  1.00  0.00     0.010 C 
HETATM    5  C12 UNL     1      -9.430 -22.436   7.743  1.00  0.00     0.021 C 
HETATM    6  C13 UNL     1      -9.697 -22.936   9.099  1.00  0.00    -0.056 C 
HETATM    7  C14 UNL     1     -10.490 -23.986   9.345  1.00  0.00     0.017 C 
HETATM    8  C15 UNL     1      -9.054 -22.255  10.268  1.00  0.00     0.146 C 
HETATM    9  C16 UNL     1      -9.517 -20.802  10.157  1.00  0.00     0.037 C 
HETATM   10  C17 UNL     1      -8.939 -20.281   8.834  1.00  0.00     0.009 C 
HETATM   11  C18 UNL     1      -9.620 -20.970   7.643  1.00  0.00     0.009 C 
HETATM   12  C19 UNL     1      -9.279 -20.308   6.369  1.00  0.00     0.022 C 
HETATM   13  C20 UNL     1      -8.462 -19.018   6.624  1.00  0.00     0.024 C 
HETATM   14  C25 UNL     1      -8.523 -21.027   5.342  1.00  0.00     0.143 C 
HETATM   15  O3  UNL     1      -8.281 -20.208   4.415  1.00  0.00    -0.296 OA
ENDROOT
BRANCH   1  16
HETATM   16  C7  UNL     1      -8.610 -22.830   3.730  1.00  0.00     0.021 C 
BRANCH  16  17
HETATM   17  C6  UNL     1      -8.931 -21.972   2.580  1.00  0.00     0.029 C 
BRANCH  17  18
HETATM   18  C5  UNL     1      -8.405 -22.452   1.291  1.00  0.00    -0.020 C 
HETATM   19  C3  UNL     1      -7.364 -21.951   0.648  1.00  0.00    -0.067 C 
HETATM   20  C4  UNL     1      -6.586 -20.796   1.154  1.00  0.00     0.048 C 
BRANCH  19  21
HETATM   21  C2  UNL     1      -6.988 -22.558  -0.617  1.00  0.00    -0.004 C 
HETATM   22  C1  UNL     1      -7.525 -22.488  -1.725  1.00  0.00     0.012 C 
ENDBRANCH  19  21
ENDBRANCH  17  18
ENDBRANCH  16  17
ENDBRANCH   1  16
BRANCH  12  23
HETATM   23  C21 UNL     1     -10.555 -19.829   5.708  1.00  0.00     0.025 C 
BRANCH  23  24
HETATM   24  C22 UNL     1     -11.217 -18.647   6.295  1.00  0.00     0.079 C 
BRANCH  24  25
HETATM   25  C23 UNL     1     -11.172 -17.587   5.209  1.00  0.00     0.123 C 
HETATM   26  C24 UNL     1     -11.203 -17.924   3.762  1.00  0.00     0.091 C 
HETATM   27  O2  UNL     1     -11.110 -16.399   5.557  1.00  0.00    -0.298 OA
ENDBRANCH  24  25
ENDBRANCH  23  24
ENDBRANCH  12  23
BRANCH   8  28
HETATM   28  O1  UNL     1      -7.661 -22.227  10.135  1.00  0.00    -0.391 OA
ATOM     29  H1  UNL     1      -7.331 -23.053   9.802  1.00  0.00     0.210 HD
ENDBRANCH   8  28
TORSDOF 8
ENDMDL
MODEL 2
REMARK VINA RESULT: -8.095592840      1.806      4.787
REMARK  8 active torsions:
REMARK  status: ('A' for Active; 'I' for Inactive)
REMARK    1  A    between atoms: C2_2  and  C3_3 
REMARK    2  A    between atoms: C5_5  and  C6_6 
REMARK    3  A    between atoms: C6_6  and  C7_7 
REMARK    4  A    between atoms: C7_7  and  C8_8 
REMARK    5  A    between atoms: C15_15  and  O1_16 
REMARK    6  A    between atoms: C19_21  and  C21_23 
REMARK    7  A    between atoms: C21_23  and  C22_24 
REMARK    8  A    between atoms: C22_24  and  C23_25 
ROOT
HETATM    1  C8  UNL     1      -7.977 -22.382   5.496  1.00  0.00     0.018 C 
HETATM    2  C9  UNL     1      -8.716 -23.367   4.598  1.00  0.00     0.023 C 
HETATM    3  C10 UNL     1      -8.513 -21.028   4.981  1.00  0.00     0.017 C 
HETATM    4  C11 UNL     1      -9.818 -20.688   5.601  1.00  0.00     0.010 C 
HETATM    5  C12 UNL     1      -9.464 -19.931   6.862  1.00  0.00     0.021 C 
HETATM    6  C13 UNL     1     -10.352 -18.761   6.920  1.00  0.00    -0.056 C 
HETATM    7  C14 UNL     1      -9.943 -17.521   6.624  1.00  0.00     0.017 C 
HETATM    8  C15 UNL     1     -11.784 -18.950   7.319  1.00  0.00     0.146 C 
HETATM    9  C16 UNL     1     -11.705 -19.602   8.700  1.00  0.00     0.037 C 
HETATM   10  C17 UNL     1     -11.013 -20.956   8.481  1.00  0.00     0.009 C 
HETATM   11  C18 UNL     1      -9.542 -20.750   8.094  1.00  0.00     0.009 C 
HETATM   12  C19 UNL     1      -8.791 -22.019   8.136  1.00  0.00     0.022 C 
HETATM   13  C20 UNL     1      -9.669 -23.157   8.711  1.00  0.00     0.024 C 
HETATM   14  C25 UNL     1      -8.217 -22.579   6.911  1.00  0.00     0.143 C 
HETATM   15  O3  UNL     1      -7.727 -23.702   7.208  1.00  0.00    -0.296 OA
ENDROOT
BRANCH   1  16
HETATM   16  C7  UNL     1      -6.515 -22.281   5.216  1.00  0.00     0.021 C 
BRANCH  16  17
HETATM   17  C6  UNL     1      -5.966 -22.546   3.878  1.00  0.00     0.029 C 
BRANCH  17  18
HETATM   18  C5  UNL     1      -5.812 -21.352   3.031  1.00  0.00    -0.020 C 
HETATM   19  C3  UNL     1      -6.509 -21.083   1.940  1.00  0.00    -0.067 C 
HETATM   20  C4  UNL     1      -7.552 -21.992   1.409  1.00  0.00     0.048 C 
BRANCH  19  21
HETATM   21  C2  UNL     1      -6.217 -19.850   1.230  1.00  0.00    -0.004 C 
HETATM   22  C1  UNL     1      -5.494 -18.902   1.544  1.00  0.00     0.012 C 
ENDBRANCH  19  21
ENDBRANCH  17  18
ENDBRANCH  16  17
ENDBRANCH   1  16
BRANCH  12  23
HETATM   23  C21 UNL     1      -7.649 -21.880   9.121  1.00  0.00     0.025 C 
BRANCH  23  24
HETATM   24  C22 UNL     1      -7.901 -21.083  10.339  1.00  0.00     0.079 C 
BRANCH  24  25
HETATM   25  C23 UNL     1      -7.414 -21.948  11.488  1.00  0.00     0.123 C 
HETATM   26  C24 UNL     1      -8.319 -22.849  12.248  1.00  0.00     0.091 C 
HETATM   27  O2  UNL     1      -6.214 -21.893  11.791  1.00  0.00    -0.298 OA
ENDBRANCH  24  25
ENDBRANCH  23  24
ENDBRANCH  12  23
BRANCH   8  28
HETATM   28  O1  UNL     1     -12.423 -19.878   6.490  1.00  0.00    -0.391 OA
ATOM     29  H1  UNL     1     -12.013 -20.734   6.551  1.00  0.00     0.210 HD
ENDBRANCH   8  28
TORSDOF 8
ENDMDL
MODEL 3
REMARK VINA RESULT: -8.018096682      0.621      1.191
REMARK  8 active torsions:
REMARK  status: ('A' for Active; 'I' for Inactive)
REMARK    1  A    between atoms: C2_2  and  C3_3 
REMARK    2  A    between atoms: C5_5  and  C6_6 
REMARK    3  A    between atoms: C6_6  and  C7_7 
REMARK    4  A    between atoms: C7_7  and  C8_8 
REMARK    5  A    between atoms: C15_15  and  O1_16 
REMARK    6  A    between atoms: C19_21  and  C21_23 
REMARK    7  A    between atoms: C21_23  and  C22_24 
REMARK    8  A    between atoms: C22_24  and  C23_25 
ROOT
HETATM    1  C8  UNL     1      -8.252 -21.884   4.728  1.00  0.00     0.018 C 
HETATM    2  C9  UNL     1      -6.749 -21.834   4.478  1.00  0.00     0.023 C 
HETATM    3  C10 UNL     1      -8.366 -23.069   5.712  1.00  0.00     0.017 C 
HETATM    4  C11 UNL     1      -8.098 -22.644   7.109  1.00  0.00     0.010 C 
HETATM    5  C12 UNL     1      -9.446 -22.222   7.651  1.00  0.00     0.021 C 
HETATM    6  C13 UNL     1      -9.568 -22.809   8.993  1.00  0.00    -0.056 C 
HETATM    7  C14 UNL     1     -10.327 -23.881   9.253  1.00  0.00     0.017 C 
HETATM    8  C15 UNL     1      -8.810 -22.196  10.130  1.00  0.00     0.146 C 
HETATM    9  C16 UNL     1      -9.288 -20.744  10.161  1.00  0.00     0.037 C 
HETATM   10  C17 UNL     1      -8.854 -20.135   8.820  1.00  0.00     0.009 C 
HETATM   11  C18 UNL     1      -9.653 -20.754   7.665  1.00  0.00     0.009 C 
HETATM   12  C19 UNL     1      -9.449 -20.010   6.408  1.00  0.00     0.022 C 
HETATM   13  C20 UNL     1      -8.615 -18.730   6.658  1.00  0.00     0.024 C 
HETATM   14  C25 UNL     1      -8.801 -20.655   5.264  1.00  0.00     0.143 C 
HETATM   15  O3  UNL     1      -8.661 -19.777   4.370  1.00  0.00    -0.296 OA
ENDROOT
BRANCH   1  16
HETATM   16  C7  UNL     1      -9.048 -22.354   3.558  1.00  0.00     0.021 C 
BRANCH  16  17
HETATM   17  C6  UNL     1      -8.432 -22.565   2.240  1.00  0.00     0.029 C 
BRANCH  17  18
HETATM   18  C5  UNL     1      -7.639 -21.427   1.746  1.00  0.00    -0.020 C 
HETATM   19  C3  UNL     1      -7.118 -21.317   0.535  1.00  0.00    -0.067 C 
HETATM   20  C4  UNL     1      -7.259 -22.369  -0.499  1.00  0.00     0.048 C 
BRANCH  19  21
HETATM   21  C2  UNL     1      -6.363 -20.116   0.224  1.00  0.00    -0.004 C 
HETATM   22  C1  UNL     1      -5.977 -19.204   0.959  1.00  0.00     0.012 C 
ENDBRANCH  19  21
ENDBRANCH  17  18
ENDBRANCH  16  17
ENDBRANCH   1  16
BRANCH  12  23
HETATM   23  C21 UNL     1     -10.789 -19.505   5.915  1.00  0.00     0.025 C 
BRANCH  23  24
HETATM   24  C22 UNL     1     -11.263 -18.214   6.452  1.00  0.00     0.079 C 
BRANCH  24  25
HETATM   25  C23 UNL     1     -11.198 -17.249   5.282  1.00  0.00     0.123 C 
HETATM   26  C24 UNL     1     -11.386 -17.686   3.874  1.00  0.00     0.091 C 
HETATM   27  O2  UNL     1     -10.984 -16.052   5.525  1.00  0.00    -0.298 OA
ENDBRANCH  24  25
ENDBRANCH  23  24
ENDBRANCH  12  23
BRANCH   8  28
HETATM   28  O1  UNL     1      -7.439 -22.144   9.856  1.00  0.00    -0.391 OA
ATOM     29  H1  UNL     1      -7.080 -21.287  10.056  1.00  0.00     0.210 HD
ENDBRANCH   8  28
TORSDOF 8
ENDMDL
MODEL 4
REMARK VINA RESULT: -7.881176537      1.594      2.776
REMARK  8 active torsions:
REMARK  status: ('A' for Active; 'I' for Inactive)
REMARK    1  A    between atoms: C2_2  and  C3_3 
REMARK    2  A    between atoms: C5_5  and  C6_6 
REMARK    3  A    between atoms: C6_6  and  C7_7 
REMARK    4  A    between atoms: C7_7  and  C8_8 
REMARK    5  A    between atoms: C15_15  and  O1_16 
REMARK    6  A    between atoms: C19_21  and  C21_23 
REMARK    7  A    between atoms: C21_23  and  C22_24 
REMARK    8  A    between atoms: C22_24  and  C23_25 
ROOT
HETATM    1  C8  UNL     1      -6.985 -20.856   2.534  1.00  0.00     0.018 C 
HETATM    2  C9  UNL     1      -5.583 -20.257   2.575  1.00  0.00     0.023 C 
HETATM    3  C10 UNL     1      -6.745 -22.255   3.142  1.00  0.00     0.017 C 
HETATM    4  C11 UNL     1      -6.754 -22.212   4.625  1.00  0.00     0.010 C 
HETATM    5  C12 UNL     1      -8.202 -22.427   5.011  1.00  0.00     0.021 C 
HETATM    6  C13 UNL     1      -8.210 -23.401   6.112  1.00  0.00    -0.056 C 
HETATM    7  C14 UNL     1      -8.555 -24.684   5.947  1.00  0.00     0.017 C 
HETATM    8  C15 UNL     1      -7.809 -22.954   7.485  1.00  0.00     0.146 C 
HETATM    9  C16 UNL     1      -8.774 -21.812   7.804  1.00  0.00     0.037 C 
HETATM   10  C17 UNL     1      -8.483 -20.719   6.765  1.00  0.00     0.009 C 
HETATM   11  C18 UNL     1      -8.917 -21.179   5.367  1.00  0.00     0.009 C 
HETATM   12  C19 UNL     1      -8.896 -20.064   4.401  1.00  0.00     0.022 C 
HETATM   13  C20 UNL     1      -8.594 -18.725   5.117  1.00  0.00     0.024 C 
HETATM   14  C25 UNL     1      -7.975 -20.089   3.263  1.00  0.00     0.143 C 
HETATM   15  O3  UNL     1      -8.089 -18.985   2.666  1.00  0.00    -0.296 OA
ENDROOT
BRANCH   1  16
HETATM   16  C7  UNL     1      -7.470 -21.176   1.160  1.00  0.00     0.021 C 
BRANCH  16  17
HETATM   17  C6  UNL     1      -6.567 -21.709   0.129  1.00  0.00     0.029 C 
BRANCH  17  18
HETATM   18  C5  UNL     1      -7.091 -21.628  -1.245  1.00  0.00    -0.020 C 
HETATM   19  C3  UNL     1      -6.882 -20.635  -2.093  1.00  0.00    -0.067 C 
HETATM   20  C4  UNL     1      -6.083 -19.436  -1.747  1.00  0.00     0.048 C 
BRANCH  19  21
HETATM   21  C2  UNL     1      -7.480 -20.728  -3.414  1.00  0.00    -0.004 C 
HETATM   22  C1  UNL     1      -8.373 -21.468  -3.833  1.00  0.00     0.012 C 
ENDBRANCH  19  21
ENDBRANCH  17  18
ENDBRANCH  16  17
ENDBRANCH   1  16
BRANCH  12  23
HETATM   23  C21 UNL     1     -10.286 -19.887   3.826  1.00  0.00     0.025 C 
BRANCH  23  24
HETATM   24  C22 UNL     1     -10.818 -18.511   3.757  1.00  0.00     0.079 C 
BRANCH  24  25
HETATM   25  C23 UNL     1     -11.495 -18.279   5.096  1.00  0.00     0.123 C 
HETATM   26  C24 UNL     1     -12.041 -19.390   5.918  1.00  0.00     0.091 C 
HETATM   27  O2  UNL     1     -11.585 -17.113   5.509  1.00  0.00    -0.298 OA
ENDBRANCH  24  25
ENDBRANCH  23  24
ENDBRANCH  12  23
BRANCH   8  28
HETATM   28  O1  UNL     1      -6.529 -22.388   7.480  1.00  0.00    -0.391 OA
ATOM     29  H1  UNL     1      -6.012 -22.702   8.213  1.00  0.00     0.210 HD
ENDBRANCH   8  28
TORSDOF 8
ENDMDL
MODEL 5
REMARK VINA RESULT: -7.832767363      1.441      2.033
REMARK  8 active torsions:
REMARK  status: ('A' for Active; 'I' for Inactive)
REMARK    1  A    between atoms: C2_2  and  C3_3 
REMARK    2  A    between atoms: C5_5  and  C6_6 
REMARK    3  A    between atoms: C6_6  and  C7_7 
REMARK    4  A    between atoms: C7_7  and  C8_8 
REMARK    5  A    between atoms: C15_15  and  O1_16 
REMARK    6  A    between atoms: C19_21  and  C21_23 
REMARK    7  A    between atoms: C21_23  and  C22_24 
REMARK    8  A    between atoms: C22_24  and  C23_25 
ROOT
HETATM    1  C8  UNL     1      -7.528 -21.555   3.411  1.00  0.00     0.018 C 
HETATM    2  C9  UNL     1      -6.053 -21.212   3.236  1.00  0.00     0.023 C 
HETATM    3  C10 UNL     1      -7.454 -22.771   4.361  1.00  0.00     0.017 C 
HETATM    4  C11 UNL     1      -7.334 -22.349   5.778  1.00  0.00     0.010 C 
HETATM    5  C12 UNL     1      -8.761 -22.210   6.265  1.00  0.00     0.021 C 
HETATM    6  C13 UNL     1      -8.826 -22.853   7.585  1.00  0.00    -0.056 C 
HETATM    7  C14 UNL     1      -9.374 -24.058   7.782  1.00  0.00     0.017 C 
HETATM    8  C15 UNL     1      -8.249 -22.143   8.772  1.00  0.00     0.146 C 
HETATM    9  C16 UNL     1      -8.999 -20.811   8.813  1.00  0.00     0.037 C 
HETATM   10  C17 UNL     1      -8.632 -20.087   7.510  1.00  0.00     0.009 C 
HETATM   11  C18 UNL     1      -9.246 -20.810   6.303  1.00  0.00     0.009 C 
HETATM   12  C19 UNL     1      -9.135 -20.000   5.075  1.00  0.00     0.022 C 
HETATM   13  C20 UNL     1      -8.575 -18.593   5.395  1.00  0.00     0.024 C 
HETATM   14  C25 UNL     1      -8.326 -20.472   3.949  1.00  0.00     0.143 C 
HETATM   15  O3  UNL     1      -8.319 -19.555   3.084  1.00  0.00    -0.296 OA
ENDROOT
BRANCH   1  16
HETATM   16  C7  UNL     1      -8.168 -22.131   2.194  1.00  0.00     0.021 C 
BRANCH  16  17
HETATM   17  C6  UNL     1      -7.384 -22.469   0.997  1.00  0.00     0.029 C 
BRANCH  17  18
HETATM   18  C5  UNL     1      -6.993 -21.312   0.173  1.00  0.00    -0.020 C 
HETATM   19  C3  UNL     1      -7.024 -21.259  -1.147  1.00  0.00    -0.067 C 
HETATM   20  C4  UNL     1      -7.453 -22.402  -1.988  1.00  0.00     0.048 C 
BRANCH  19  21
HETATM   21  C2  UNL     1      -6.601 -20.028  -1.791  1.00  0.00    -0.004 C 
HETATM   22  C1  UNL     1      -5.909 -19.102  -1.362  1.00  0.00     0.012 C 
ENDBRANCH  19  21
ENDBRANCH  17  18
ENDBRANCH  16  17
ENDBRANCH   1  16
BRANCH  12  23
HETATM   23  C21 UNL     1     -10.525 -19.745   4.529  1.00  0.00     0.025 C 
BRANCH  23  24
HETATM   24  C22 UNL     1     -11.077 -18.386   4.699  1.00  0.00     0.079 C 
BRANCH  24  25
HETATM   25  C23 UNL     1     -11.708 -18.383   6.079  1.00  0.00     0.123 C 
HETATM   26  C24 UNL     1     -12.631 -19.454   6.538  1.00  0.00     0.091 C 
HETATM   27  O2  UNL     1     -11.431 -17.448   6.845  1.00  0.00    -0.298 OA
ENDBRANCH  24  25
ENDBRANCH  23  24
ENDBRANCH  12  23
BRANCH   8  28
HETATM   28  O1  UNL     1      -6.903 -21.821   8.565  1.00  0.00    -0.391 OA
ATOM     29  H1  UNL     1      -6.337 -22.554   8.781  1.00  0.00     0.210 HD
ENDBRANCH   8  28
TORSDOF 8
ENDMDL
