MODEL 1
REMARK VINA RESULT: -8.807874584      0.000      0.000
REMARK  6 active torsions:
REMARK  status: ('A' for Active; 'I' for Inactive)
REMARK    1  A    between atoms: N1_7  and  C7_8 
REMARK    2  A    between atoms: C7_8  and  C8_9 
REMARK    3  A    between atoms: C8_9  and  C9_10 
REMARK    4  A    between atoms: C9_10  and  N2_11 
REMARK    5  A    between atoms: C9_10  and  C21_24 
REMARK    6  A    between atoms: N2_11  and  C10_13 
ROOT
HETATM    1  C9  UNL     1      -7.555 -21.136   3.700  1.00  0.00     0.136 C 
ENDROOT
BRANCH   1   2
HETATM    2  C8  UNL     1      -6.695 -21.540   2.566  1.00  0.00     0.062 C 
BRANCH   2   3
HETATM    3  C7  UNL     1      -7.425 -21.709   1.292  1.00  0.00     0.275 C 
BRANCH   3   4
HETATM    4  N1  UNL     1      -7.118 -20.831   0.196  1.00  0.00     0.089 N 
HETATM    5  C6  UNL     1      -6.758 -21.627  -1.008  1.00  0.00     0.276 C 
HETATM    6  C4  UNL     1      -6.600 -20.633  -2.115  1.00  0.00     0.010 C 
HETATM    7  C3  UNL     1      -6.901 -19.197  -1.636  1.00  0.00     0.012 C 
HETATM    8  C5  UNL     1      -7.614 -20.862  -3.242  1.00  0.00     0.011 C 
HETATM    9  C2  UNL     1      -5.913 -18.897  -0.503  1.00  0.00     0.010 C 
HETATM   10  C1  UNL     1      -4.597 -18.633  -1.167  1.00  0.00     0.011 C 
HETATM   11  C25 UNL     1      -5.894 -20.052   0.471  1.00  0.00     0.276 C 
ENDBRANCH   3   4
ENDBRANCH   2   3
ENDBRANCH   1   2
BRANCH   1  12
HETATM   12  N2  UNL     1      -8.845 -20.690   3.455  1.00  0.00    -0.403 N 
ATOM     13  H2  UNL     1      -9.334 -21.124   2.672  1.00  0.00     0.154 HD
BRANCH  12  14
HETATM   14  C10 UNL     1      -9.546 -19.713   4.160  1.00  0.00     0.027 C 
HETATM   15  C11 UNL     1      -9.990 -18.537   3.369  1.00  0.00     0.031 C 
HETATM   16  C12 UNL     1     -11.313 -17.966   3.853  1.00  0.00     0.007 C 
HETATM   17  C13 UNL     1     -11.445 -17.759   5.309  1.00  0.00    -0.014 C 
HETATM   18  C14 UNL     1     -12.113 -18.912   6.006  1.00  0.00     0.009 C 
HETATM   19  C18 UNL     1     -10.180 -17.325   6.008  1.00  0.00     0.009 C 
HETATM   20  C15 UNL     1     -11.110 -20.042   6.138  1.00  0.00    -0.012 C 
HETATM   21  C16 UNL     1     -10.011 -19.619   7.050  1.00  0.00     0.009 C 
HETATM   22  C20 UNL     1     -10.706 -20.439   4.787  1.00  0.00     0.035 C 
HETATM   23  C17 UNL     1      -9.300 -18.480   6.352  1.00  0.00    -0.012 C 
HETATM   24  C19 UNL     1      -8.594 -19.070   5.192  1.00  0.00     0.035 C 
ENDBRANCH  12  14
ENDBRANCH   1  12
BRANCH   1  25
HETATM   25  C21 UNL     1      -7.608 -22.282   4.709  1.00  0.00     0.074 A 
HETATM   26  C22 UNL     1      -8.478 -23.297   4.808  1.00  0.00     0.037 A 
HETATM   27  C23 UNL     1      -8.068 -24.069   5.907  1.00  0.00     0.027 A 
HETATM   28  C24 UNL     1      -6.953 -23.440   6.397  1.00  0.00     0.142 A 
HETATM   29  O1  UNL     1      -6.720 -22.409   5.677  1.00  0.00    -0.325 OA
ENDBRANCH   1  25
TORSDOF 6
ENDMDL
MODEL 2
REMARK VINA RESULT: -8.327092978      2.902      7.463
REMARK  6 active torsions:
REMARK  status: ('A' for Active; 'I' for Inactive)
REMARK    1  A    between atoms: N1_7  and  C7_8 
REMARK    2  A    between atoms: C7_8  and  C8_9 
REMARK    3  A    between atoms: C8_9  and  C9_10 
REMARK    4  A    between atoms: C9_10  and  N2_11 
REMARK    5  A    between atoms: C9_10  and  C21_24 
REMARK    6  A    between atoms: N2_11  and  C10_13 
ROOT
HETATM    1  C9  UNL     1     -10.743 -19.353   6.120  1.00  0.00     0.136 C 
ENDROOT
BRANCH   1   2
HETATM    2  C8  UNL     1     -11.879 -19.783   6.965  1.00  0.00     0.062 C 
BRANCH   2   3
HETATM    3  C7  UNL     1     -11.493 -20.161   8.340  1.00  0.00     0.275 C 
BRANCH   3   4
HETATM    4  N1  UNL     1     -10.243 -20.842   8.546  1.00  0.00     0.089 N 
HETATM    5  C6  UNL     1     -10.484 -22.297   8.743  1.00  0.00     0.276 C 
HETATM    6  C4  UNL     1      -9.127 -22.924   8.803  1.00  0.00     0.010 C 
HETATM    7  C3  UNL     1      -8.009 -21.880   8.601  1.00  0.00     0.012 C 
HETATM    8  C5  UNL     1      -8.905 -23.923   7.660  1.00  0.00     0.011 C 
HETATM    9  C2  UNL     1      -8.170 -20.845   9.721  1.00  0.00     0.010 C 
HETATM   10  C1  UNL     1      -7.637 -21.497  10.960  1.00  0.00     0.011 C 
HETATM   11  C25 UNL     1      -9.617 -20.423   9.817  1.00  0.00     0.276 C 
ENDBRANCH   3   4
ENDBRANCH   2   3
ENDBRANCH   1   2
BRANCH   1  12
HETATM   12  N2  UNL     1     -10.727 -19.688   4.774  1.00  0.00    -0.403 N 
ATOM     13  H2  UNL     1     -11.599 -19.552   4.263  1.00  0.00     0.154 HD
BRANCH  12  14
HETATM   14  C10 UNL     1      -9.651 -20.191   4.045  1.00  0.00     0.027 C 
HETATM   15  C11 UNL     1      -9.120 -19.304   2.978  1.00  0.00     0.031 C 
HETATM   16  C12 UNL     1      -7.620 -19.445   2.787  1.00  0.00     0.007 C 
HETATM   17  C13 UNL     1      -7.095 -20.822   2.698  1.00  0.00    -0.014 C 
HETATM   18  C14 UNL     1      -6.601 -21.347   4.018  1.00  0.00     0.009 C 
HETATM   19  C18 UNL     1      -8.001 -21.804   1.997  1.00  0.00     0.009 C 
HETATM   20  C15 UNL     1      -7.800 -21.730   4.864  1.00  0.00    -0.012 C 
HETATM   21  C16 UNL     1      -8.502 -22.879   4.227  1.00  0.00     0.009 C 
HETATM   22  C20 UNL     1      -8.603 -20.523   5.073  1.00  0.00     0.035 C 
HETATM   23  C17 UNL     1      -9.041 -22.364   2.910  1.00  0.00    -0.012 C 
HETATM   24  C19 UNL     1     -10.130 -21.418   3.239  1.00  0.00     0.035 C 
ENDBRANCH  12  14
ENDBRANCH   1  12
BRANCH   1  25
HETATM   25  C21 UNL     1     -10.570 -17.842   6.259  1.00  0.00     0.074 A 
HETATM   26  C22 UNL     1     -11.045 -16.851   5.492  1.00  0.00     0.037 A 
HETATM   27  C23 UNL     1     -10.598 -15.650   6.067  1.00  0.00     0.027 A 
HETATM   28  C24 UNL     1      -9.867 -16.024   7.165  1.00  0.00     0.142 A 
HETATM   29  O1  UNL     1      -9.874 -17.301   7.241  1.00  0.00    -0.325 OA
ENDBRANCH   1  25
TORSDOF 6
ENDMDL
MODEL 3
REMARK VINA RESULT: -8.308567072      0.922      1.750
REMARK  6 active torsions:
REMARK  status: ('A' for Active; 'I' for Inactive)
REMARK    1  A    between atoms: N1_7  and  C7_8 
REMARK    2  A    between atoms: C7_8  and  C8_9 
REMARK    3  A    between atoms: C8_9  and  C9_10 
REMARK    4  A    between atoms: C9_10  and  N2_11 
REMARK    5  A    between atoms: C9_10  and  C21_24 
REMARK    6  A    between atoms: N2_11  and  C10_13 
ROOT
HETATM    1  C9  UNL     1      -7.670 -21.344   4.284  1.00  0.00     0.136 C 
ENDROOT
BRANCH   1   2
HETATM    2  C8  UNL     1      -6.692 -21.808   3.275  1.00  0.00     0.062 C 
BRANCH   2   3
HETATM    3  C7  UNL     1      -7.168 -21.688   1.881  1.00  0.00     0.275 C 
BRANCH   3   4
HETATM    4  N1  UNL     1      -6.569 -20.698   1.028  1.00  0.00     0.089 N 
HETATM    5  C6  UNL     1      -7.117 -19.352   1.349  1.00  0.00     0.276 C 
HETATM    6  C4  UNL     1      -6.332 -18.389   0.515  1.00  0.00     0.010 C 
HETATM    7  C3  UNL     1      -5.247 -19.108  -0.313  1.00  0.00     0.012 C 
HETATM    8  C5  UNL     1      -5.538 -17.399   1.376  1.00  0.00     0.011 C 
HETATM    9  C2  UNL     1      -5.977 -20.118  -1.207  1.00  0.00     0.010 C 
HETATM   10  C1  UNL     1      -6.596 -19.316  -2.310  1.00  0.00     0.011 C 
HETATM   11  C25 UNL     1      -6.968 -20.902  -0.380  1.00  0.00     0.276 C 
ENDBRANCH   3   4
ENDBRANCH   2   3
ENDBRANCH   1   2
BRANCH   1  12
HETATM   12  N2  UNL     1      -8.898 -20.851   3.869  1.00  0.00    -0.403 N 
ATOM     13  H2  UNL     1      -9.330 -21.320   3.073  1.00  0.00     0.154 HD
BRANCH  12  14
HETATM   14  C10 UNL     1      -9.606 -19.784   4.420  1.00  0.00     0.027 C 
HETATM   15  C11 UNL     1      -9.981 -18.700   3.477  1.00  0.00     0.031 C 
HETATM   16  C12 UNL     1     -11.310 -18.050   3.824  1.00  0.00     0.007 C 
HETATM   17  C13 UNL     1     -11.506 -17.672   5.237  1.00  0.00    -0.014 C 
HETATM   18  C14 UNL     1     -12.237 -18.721   6.029  1.00  0.00     0.009 C 
HETATM   19  C18 UNL     1     -10.266 -17.184   5.944  1.00  0.00     0.009 C 
HETATM   20  C15 UNL     1     -11.270 -19.848   6.341  1.00  0.00    -0.012 C 
HETATM   21  C16 UNL     1     -10.206 -19.343   7.253  1.00  0.00     0.009 C 
HETATM   22  C20 UNL     1     -10.813 -20.409   5.068  1.00  0.00     0.035 C 
HETATM   23  C17 UNL     1      -9.433 -18.309   6.464  1.00  0.00    -0.012 C 
HETATM   24  C19 UNL     1      -8.688 -19.044   5.416  1.00  0.00     0.035 C 
ENDBRANCH  12  14
ENDBRANCH   1  12
BRANCH   1  25
HETATM   25  C21 UNL     1      -7.899 -22.463   5.298  1.00  0.00     0.074 A 
HETATM   26  C22 UNL     1      -7.864 -23.792   5.130  1.00  0.00     0.037 A 
HETATM   27  C23 UNL     1      -8.138 -24.362   6.383  1.00  0.00     0.027 A 
HETATM   28  C24 UNL     1      -8.323 -23.300   7.232  1.00  0.00     0.142 A 
HETATM   29  O1  UNL     1      -8.178 -22.218   6.564  1.00  0.00    -0.325 OA
ENDBRANCH   1  25
TORSDOF 6
ENDMDL
MODEL 4
REMARK VINA RESULT: -8.085372799      2.727      4.539
REMARK  6 active torsions:
REMARK  status: ('A' for Active; 'I' for Inactive)
REMARK    1  A    between atoms: N1_7  and  C7_8 
REMARK    2  A    between atoms: C7_8  and  C8_9 
REMARK    3  A    between atoms: C8_9  and  C9_10 
REMARK    4  A    between atoms: C9_10  and  N2_11 
REMARK    5  A    between atoms: C9_10  and  C21_24 
REMARK    6  A    between atoms: N2_11  and  C10_13 
ROOT
HETATM    1  C9  UNL     1      -8.610 -21.962   8.062  1.00  0.00     0.136 C 
ENDROOT
BRANCH   1   2
HETATM    2  C8  UNL     1      -8.309 -23.276   7.452  1.00  0.00     0.062 C 
BRANCH   2   3
HETATM    3  C7  UNL     1      -7.230 -23.235   6.443  1.00  0.00     0.275 C 
BRANCH   3   4
HETATM    4  N1  UNL     1      -7.393 -22.394   5.288  1.00  0.00     0.089 N 
HETATM    5  C6  UNL     1      -8.559 -22.854   4.486  1.00  0.00     0.276 C 
HETATM    6  C4  UNL     1      -8.725 -21.838   3.401  1.00  0.00     0.010 C 
HETATM    7  C3  UNL     1      -7.693 -20.697   3.527  1.00  0.00     0.012 C 
HETATM    8  C5  UNL     1     -10.077 -21.119   3.490  1.00  0.00     0.011 C 
HETATM    9  C2  UNL     1      -6.309 -21.350   3.441  1.00  0.00     0.010 C 
HETATM   10  C1  UNL     1      -6.097 -21.674   1.994  1.00  0.00     0.011 C 
HETATM   11  C25 UNL     1      -6.256 -22.549   4.359  1.00  0.00     0.276 C 
ENDBRANCH   3   4
ENDBRANCH   2   3
ENDBRANCH   1   2
BRANCH   1  12
HETATM   12  N2  UNL     1      -9.874 -21.413   7.911  1.00  0.00    -0.403 N 
ATOM     13  H2  UNL     1     -10.663 -22.024   8.121  1.00  0.00     0.154 HD
BRANCH  12  14
HETATM   14  C10 UNL     1     -10.185 -20.116   7.506  1.00  0.00     0.027 C 
HETATM   15  C11 UNL     1      -9.079 -19.351   6.876  1.00  0.00     0.031 C 
HETATM   16  C12 UNL     1      -9.561 -18.397   5.796  1.00  0.00     0.007 C 
HETATM   17  C13 UNL     1     -10.718 -17.548   6.140  1.00  0.00    -0.014 C 
HETATM   18  C14 UNL     1     -12.028 -18.132   5.686  1.00  0.00     0.009 C 
HETATM   19  C18 UNL     1     -10.767 -17.087   7.575  1.00  0.00     0.009 C 
HETATM   20  C15 UNL     1     -12.413 -19.249   6.638  1.00  0.00    -0.012 C 
HETATM   21  C16 UNL     1     -12.689 -18.673   7.984  1.00  0.00     0.009 C 
HETATM   22  C20 UNL     1     -11.362 -20.267   6.579  1.00  0.00     0.035 C 
HETATM   23  C17 UNL     1     -11.374 -18.109   8.478  1.00  0.00    -0.012 C 
HETATM   24  C19 UNL     1     -10.495 -19.267   8.758  1.00  0.00     0.035 C 
ENDBRANCH  12  14
ENDBRANCH   1  12
BRANCH   1  25
HETATM   25  C21 UNL     1      -8.265 -22.020   9.548  1.00  0.00     0.074 A 
HETATM   26  C22 UNL     1      -7.417 -21.265  10.261  1.00  0.00     0.037 A 
HETATM   27  C23 UNL     1      -7.480 -21.731  11.584  1.00  0.00     0.027 A 
HETATM   28  C24 UNL     1      -8.386 -22.761  11.563  1.00  0.00     0.142 A 
HETATM   29  O1  UNL     1      -8.816 -22.897  10.366  1.00  0.00    -0.325 OA
ENDBRANCH   1  25
TORSDOF 6
ENDMDL
MODEL 5
REMARK VINA RESULT: -8.061913433      2.651      7.332
REMARK  6 active torsions:
REMARK  status: ('A' for Active; 'I' for Inactive)
REMARK    1  A    between atoms: N1_7  and  C7_8 
REMARK    2  A    between atoms: C7_8  and  C8_9 
REMARK    3  A    between atoms: C8_9  and  C9_10 
REMARK    4  A    between atoms: C9_10  and  N2_11 
REMARK    5  A    between atoms: C9_10  and  C21_24 
REMARK    6  A    between atoms: N2_11  and  C10_13 
ROOT
HETATM    1  C9  UNL     1     -10.689 -19.486   5.271  1.00  0.00     0.136 C 
ENDROOT
BRANCH   1   2
HETATM    2  C8  UNL     1     -11.576 -18.304   5.199  1.00  0.00     0.062 C 
BRANCH   2   3
HETATM    3  C7  UNL     1     -10.856 -17.014   5.185  1.00  0.00     0.275 C 
BRANCH   3   4
HETATM    4  N1  UNL     1     -11.010 -16.122   6.302  1.00  0.00     0.089 N 
HETATM    5  C6  UNL     1     -10.629 -14.740   5.905  1.00  0.00     0.276 C 
HETATM    6  C4  UNL     1     -10.959 -13.878   7.083  1.00  0.00     0.010 C 
HETATM    7  C3  UNL     1     -11.595 -14.698   8.226  1.00  0.00     0.012 C 
HETATM    8  C5  UNL     1     -12.028 -12.831   6.746  1.00  0.00     0.011 C 
HETATM    9  C2  UNL     1     -10.570 -15.769   8.617  1.00  0.00     0.010 C 
HETATM   10  C1  UNL     1      -9.521 -15.059   9.417  1.00  0.00     0.011 C 
HETATM   11  C25 UNL     1     -10.047 -16.448   7.374  1.00  0.00     0.276 C 
ENDBRANCH   3   4
ENDBRANCH   2   3
ENDBRANCH   1   2
BRANCH   1  12
HETATM   12  N2  UNL     1      -9.362 -19.368   4.885  1.00  0.00    -0.403 N 
ATOM     13  H2  UNL     1      -8.809 -18.663   5.370  1.00  0.00     0.154 HD
BRANCH  12  14
HETATM   14  C10 UNL     1      -8.703 -20.108   3.905  1.00  0.00     0.027 C 
HETATM   15  C11 UNL     1      -8.426 -19.397   2.631  1.00  0.00     0.031 C 
HETATM   16  C12 UNL     1      -7.128 -19.841   1.978  1.00  0.00     0.007 C 
HETATM   17  C13 UNL     1      -6.908 -21.296   1.877  1.00  0.00    -0.014 C 
HETATM   18  C14 UNL     1      -6.089 -21.845   3.013  1.00  0.00     0.009 C 
HETATM   19  C18 UNL     1      -8.152 -22.112   1.624  1.00  0.00     0.009 C 
HETATM   20  C15 UNL     1      -6.974 -21.943   4.241  1.00  0.00    -0.012 C 
HETATM   21  C16 UNL     1      -8.036 -22.959   4.001  1.00  0.00     0.009 C 
HETATM   22  C20 UNL     1      -7.439 -20.592   4.565  1.00  0.00     0.035 C 
HETATM   23  C17 UNL     1      -8.897 -22.411   2.883  1.00  0.00    -0.012 C 
HETATM   24  C19 UNL     1      -9.630 -21.253   3.442  1.00  0.00     0.035 C 
ENDBRANCH  12  14
ENDBRANCH   1  12
BRANCH   1  25
HETATM   25  C21 UNL     1     -10.747 -20.058   6.685  1.00  0.00     0.074 A 
HETATM   26  C22 UNL     1      -9.773 -20.596   7.434  1.00  0.00     0.037 A 
HETATM   27  C23 UNL     1     -10.360 -20.958   8.656  1.00  0.00     0.027 A 
HETATM   28  C24 UNL     1     -11.680 -20.602   8.545  1.00  0.00     0.142 A 
HETATM   29  O1  UNL     1     -11.864 -20.086   7.388  1.00  0.00    -0.325 OA
ENDBRANCH   1  25
TORSDOF 6
ENDMDL
