MODEL 1
REMARK VINA RESULT: -8.563760755      0.000      0.000
REMARK  7 active torsions:
REMARK  status: ('A' for Active; 'I' for Inactive)
REMARK    1  A    between atoms: C2_2  and  C4_4 
REMARK    2  A    between atoms: C4_4  and  C5_5 
REMARK    3  A    between atoms: C5_5  and  C6_6 
REMARK    4  A    between atoms: C6_6  and  C7_7 
REMARK    5  A    between atoms: C7_7  and  C9_9 
REMARK    6  A    between atoms: C17_17  and  O1_18 
REMARK    7  A    between atoms: O1_18  and  N1_19 
ROOT
HETATM    1  C9  UNL     1      -8.265 -19.896   2.998  1.00  0.00    -0.002 C 
HETATM    2  C10 UNL     1      -9.374 -18.918   2.800  1.00  0.00     0.006 C 
HETATM    3  C11 UNL     1     -10.074 -18.771   4.162  1.00  0.00     0.006 C 
HETATM    4  C12 UNL     1      -9.177 -19.534   5.037  1.00  0.00    -0.002 C 
HETATM    5  C13 UNL     1      -9.627 -19.867   6.388  1.00  0.00    -0.005 C 
HETATM    6  C14 UNL     1      -8.903 -18.949   7.364  1.00  0.00     0.006 C 
HETATM    7  C15 UNL     1      -9.127 -19.251   8.798  1.00  0.00     0.008 C 
HETATM    8  C16 UNL     1      -8.630 -20.683   9.011  1.00  0.00     0.029 C 
HETATM    9  C17 UNL     1      -8.856 -21.181  10.417  1.00  0.00     0.225 C 
HETATM   10  C18 UNL     1      -9.171 -22.624  10.205  1.00  0.00     0.158 C 
HETATM   11  O2  UNL     1      -9.246 -23.487  11.058  1.00  0.00    -0.295 OA
HETATM   12  C19 UNL     1      -9.391 -22.879   8.736  1.00  0.00     0.086 C 
HETATM   13  C20 UNL     1      -9.643 -21.508   8.251  1.00  0.00     0.004 C 
HETATM   14  C21 UNL     1      -9.597 -21.308   6.761  1.00  0.00    -0.005 C 
HETATM   15  C22 UNL     1      -8.433 -22.031   6.206  1.00  0.00     0.006 C 
HETATM   16  C23 UNL     1      -7.764 -21.401   5.003  1.00  0.00     0.010 C 
HETATM   17  C24 UNL     1      -8.780 -20.735   4.132  1.00  0.00    -0.036 C 
HETATM   18  C25 UNL     1      -9.956 -21.586   3.824  1.00  0.00     0.016 C 
ENDROOT
BRANCH   1  19
HETATM   19  C7  UNL     1      -7.541 -20.436   1.876  1.00  0.00    -0.014 C 
HETATM   20  C8  UNL     1      -6.021 -20.118   1.968  1.00  0.00     0.010 C 
BRANCH  19  21
HETATM   21  C6  UNL     1      -7.589 -21.805   1.370  1.00  0.00     0.005 C 
BRANCH  21  22
HETATM   22  C5  UNL     1      -6.922 -22.256   0.136  1.00  0.00     0.001 C 
BRANCH  22  23
HETATM   23  C4  UNL     1      -7.626 -22.245  -1.154  1.00  0.00     0.004 C 
BRANCH  23  24
HETATM   24  C2  UNL     1      -7.097 -21.489  -2.300  1.00  0.00    -0.023 C 
HETATM   25  C1  UNL     1      -6.626 -20.109  -2.149  1.00  0.00     0.009 C 
HETATM   26  C3  UNL     1      -8.221 -21.479  -3.366  1.00  0.00     0.009 C 
ENDBRANCH  23  24
ENDBRANCH  22  23
ENDBRANCH  21  22
ENDBRANCH  19  21
ENDBRANCH   1  19
BRANCH   9  27
HETATM   27  O1  UNL     1      -7.676 -21.129  11.158  1.00  0.00    -0.274 OA
BRANCH  27  28
HETATM   28  N1  UNL     1      -7.916 -21.224  12.488  1.00  0.00    -0.310 N 
ATOM     29  H12 UNL     1      -8.180 -22.095  12.950  1.00  0.00     0.184 HD
ATOM     30  H11 UNL     1      -7.800 -20.326  12.956  1.00  0.00     0.184 HD
ENDBRANCH  27  28
ENDBRANCH   9  27
TORSDOF 7
ENDMDL
MODEL 2
REMARK VINA RESULT: -8.270384362      2.743      4.048
REMARK  7 active torsions:
REMARK  status: ('A' for Active; 'I' for Inactive)
REMARK    1  A    between atoms: C2_2  and  C4_4 
REMARK    2  A    between atoms: C4_4  and  C5_5 
REMARK    3  A    between atoms: C5_5  and  C6_6 
REMARK    4  A    between atoms: C6_6  and  C7_7 
REMARK    5  A    between atoms: C7_7  and  C9_9 
REMARK    6  A    between atoms: C17_17  and  O1_18 
REMARK    7  A    between atoms: O1_18  and  N1_19 
ROOT
HETATM    1  C9  UNL     1     -10.190 -18.717   5.874  1.00  0.00    -0.002 C 
HETATM    2  C10 UNL     1     -10.689 -17.422   6.419  1.00  0.00     0.006 C 
HETATM    3  C11 UNL     1     -10.298 -17.395   7.906  1.00  0.00     0.006 C 
HETATM    4  C12 UNL     1      -9.453 -18.590   8.009  1.00  0.00    -0.002 C 
HETATM    5  C13 UNL     1      -9.086 -19.080   9.337  1.00  0.00    -0.005 C 
HETATM    6  C14 UNL     1      -7.632 -18.704   9.592  1.00  0.00     0.006 C 
HETATM    7  C15 UNL     1      -7.046 -19.257  10.836  1.00  0.00     0.008 C 
HETATM    8  C16 UNL     1      -7.143 -20.779  10.708  1.00  0.00     0.029 C 
HETATM    9  C17 UNL     1      -6.652 -21.504  11.937  1.00  0.00     0.225 C 
HETATM   10  C18 UNL     1      -7.571 -22.677  12.011  1.00  0.00     0.158 C 
HETATM   11  O2  UNL     1      -7.454 -23.651  12.729  1.00  0.00    -0.295 OA
HETATM   12  C19 UNL     1      -8.708 -22.486  11.040  1.00  0.00     0.086 C 
HETATM   13  C20 UNL     1      -8.630 -21.031  10.803  1.00  0.00     0.004 C 
HETATM   14  C21 UNL     1      -9.413 -20.502   9.634  1.00  0.00    -0.005 C 
HETATM   15  C22 UNL     1      -9.227 -21.399   8.473  1.00  0.00     0.006 C 
HETATM   16  C23 UNL     1      -9.236 -20.741   7.110  1.00  0.00     0.010 C 
HETATM   17  C24 UNL     1     -10.199 -19.599   7.089  1.00  0.00    -0.036 C 
HETATM   18  C25 UNL     1     -11.538 -19.933   7.636  1.00  0.00     0.016 C 
ENDROOT
BRANCH   1  19
HETATM   19  C7  UNL     1     -10.577 -19.171   4.562  1.00  0.00    -0.014 C 
HETATM   20  C8  UNL     1     -11.187 -18.019   3.714  1.00  0.00     0.010 C 
BRANCH  19  21
HETATM   21  C6  UNL     1      -9.762 -19.922   3.611  1.00  0.00     0.005 C 
BRANCH  21  22
HETATM   22  C5  UNL     1      -9.781 -21.391   3.483  1.00  0.00     0.001 C 
BRANCH  22  23
HETATM   23  C4  UNL     1      -8.547 -22.144   3.219  1.00  0.00     0.004 C 
BRANCH  23  24
HETATM   24  C2  UNL     1      -7.549 -22.361   4.279  1.00  0.00    -0.023 C 
HETATM   25  C1  UNL     1      -6.123 -22.493   3.965  1.00  0.00     0.009 C 
HETATM   26  C3  UNL     1      -7.980 -23.652   5.019  1.00  0.00     0.009 C 
ENDBRANCH  23  24
ENDBRANCH  22  23
ENDBRANCH  21  22
ENDBRANCH  19  21
ENDBRANCH   1  19
BRANCH   9  27
HETATM   27  O1  UNL     1      -5.368 -22.009  11.735  1.00  0.00    -0.274 OA
BRANCH  27  28
HETATM   28  N1  UNL     1      -4.705 -22.168  12.907  1.00  0.00    -0.310 N 
ATOM     29  H12 UNL     1      -4.339 -23.065  13.227  1.00  0.00     0.184 HD
ATOM     30  H11 UNL     1      -4.622 -21.288  13.415  1.00  0.00     0.184 HD
ENDBRANCH  27  28
ENDBRANCH   9  27
TORSDOF 7
ENDMDL
MODEL 3
REMARK VINA RESULT: -8.095882121      2.133      3.080
REMARK  7 active torsions:
REMARK  status: ('A' for Active; 'I' for Inactive)
REMARK    1  A    between atoms: C2_2  and  C4_4 
REMARK    2  A    between atoms: C4_4  and  C5_5 
REMARK    3  A    between atoms: C5_5  and  C6_6 
REMARK    4  A    between atoms: C6_6  and  C7_7 
REMARK    5  A    between atoms: C7_7  and  C9_9 
REMARK    6  A    between atoms: C17_17  and  O1_18 
REMARK    7  A    between atoms: O1_18  and  N1_19 
ROOT
HETATM    1  C9  UNL     1      -7.564 -22.020   2.984  1.00  0.00    -0.002 C 
HETATM    2  C10 UNL     1      -6.203 -22.369   3.486  1.00  0.00     0.006 C 
HETATM    3  C11 UNL     1      -6.307 -22.438   5.018  1.00  0.00     0.006 C 
HETATM    4  C12 UNL     1      -7.755 -22.308   5.221  1.00  0.00    -0.002 C 
HETATM    5  C13 UNL     1      -8.258 -22.058   6.571  1.00  0.00    -0.005 C 
HETATM    6  C14 UNL     1      -8.856 -23.356   7.097  1.00  0.00     0.006 C 
HETATM    7  C15 UNL     1      -9.552 -23.246   8.401  1.00  0.00     0.008 C 
HETATM    8  C16 UNL     1     -10.681 -22.234   8.194  1.00  0.00     0.029 C 
HETATM    9  C17 UNL     1     -11.452 -21.946   9.459  1.00  0.00     0.225 C 
HETATM   10  C18 UNL     1     -11.778 -20.498   9.318  1.00  0.00     0.158 C 
HETATM   11  O2  UNL     1     -12.549 -19.853  10.004  1.00  0.00    -0.295 OA
HETATM   12  C19 UNL     1     -10.996 -19.916   8.169  1.00  0.00     0.086 C 
HETATM   13  C20 UNL     1      -9.937 -20.931   8.011  1.00  0.00     0.004 C 
HETATM   14  C21 UNL     1      -9.130 -20.864   6.744  1.00  0.00    -0.005 C 
HETATM   15  C22 UNL     1     -10.036 -20.630   5.598  1.00  0.00     0.006 C 
HETATM   16  C23 UNL     1      -9.630 -21.264   4.284  1.00  0.00     0.010 C 
HETATM   17  C24 UNL     1      -8.143 -21.258   4.140  1.00  0.00    -0.036 C 
HETATM   18  C25 UNL     1      -7.519 -19.941   4.424  1.00  0.00     0.016 C 
ENDROOT
BRANCH   1  19
HETATM   19  C7  UNL     1      -7.779 -21.657   1.607  1.00  0.00    -0.014 C 
HETATM   20  C8  UNL     1      -6.633 -20.755   1.066  1.00  0.00     0.010 C 
BRANCH  19  21
HETATM   21  C6  UNL     1      -8.083 -22.553   0.494  1.00  0.00     0.005 C 
BRANCH  21  22
HETATM   22  C5  UNL     1      -7.235 -22.707  -0.701  1.00  0.00     0.001 C 
BRANCH  22  23
HETATM   23  C4  UNL     1      -7.777 -22.484  -2.049  1.00  0.00     0.004 C 
BRANCH  23  24
HETATM   24  C2  UNL     1      -7.214 -21.448  -2.930  1.00  0.00    -0.023 C 
HETATM   25  C1  UNL     1      -6.799 -20.145  -2.403  1.00  0.00     0.009 C 
HETATM   26  C3  UNL     1      -8.281 -21.186  -4.023  1.00  0.00     0.009 C 
ENDBRANCH  23  24
ENDBRANCH  22  23
ENDBRANCH  21  22
ENDBRANCH  19  21
ENDBRANCH   1  19
BRANCH   9  27
HETATM   27  O1  UNL     1     -12.664 -22.635   9.469  1.00  0.00    -0.274 OA
BRANCH  27  28
HETATM   28  N1  UNL     1     -12.488 -23.951   9.740  1.00  0.00    -0.310 N 
ATOM     29  H12 UNL     1     -11.572 -24.401   9.768  1.00  0.00     0.184 HD
ATOM     30  H11 UNL     1     -13.376 -24.423   9.907  1.00  0.00     0.184 HD
ENDBRANCH  27  28
ENDBRANCH   9  27
TORSDOF 7
ENDMDL
MODEL 4
REMARK VINA RESULT: -8.010661414      2.238      2.843
REMARK  7 active torsions:
REMARK  status: ('A' for Active; 'I' for Inactive)
REMARK    1  A    between atoms: C2_2  and  C4_4 
REMARK    2  A    between atoms: C4_4  and  C5_5 
REMARK    3  A    between atoms: C5_5  and  C6_6 
REMARK    4  A    between atoms: C6_6  and  C7_7 
REMARK    5  A    between atoms: C7_7  and  C9_9 
REMARK    6  A    between atoms: C17_17  and  O1_18 
REMARK    7  A    between atoms: O1_18  and  N1_19 
ROOT
HETATM    1  C9  UNL     1      -8.262 -19.815   3.609  1.00  0.00    -0.002 C 
HETATM    2  C10 UNL     1      -9.101 -19.012   2.673  1.00  0.00     0.006 C 
HETATM    3  C11 UNL     1     -10.293 -18.493   3.493  1.00  0.00     0.006 C 
HETATM    4  C12 UNL     1      -9.913 -18.894   4.852  1.00  0.00    -0.002 C 
HETATM    5  C13 UNL     1     -10.915 -18.820   5.915  1.00  0.00    -0.005 C 
HETATM    6  C14 UNL     1     -10.596 -17.605   6.777  1.00  0.00     0.006 C 
HETATM    7  C15 UNL     1     -11.426 -17.462   7.997  1.00  0.00     0.008 C 
HETATM    8  C16 UNL     1     -11.183 -18.727   8.823  1.00  0.00     0.029 C 
HETATM    9  C17 UNL     1     -12.020 -18.779  10.079  1.00  0.00     0.225 C 
HETATM   10  C18 UNL     1     -12.332 -20.232  10.202  1.00  0.00     0.158 C 
HETATM   11  O2  UNL     1     -12.829 -20.793  11.159  1.00  0.00    -0.295 OA
HETATM   12  C19 UNL     1     -11.934 -20.941   8.932  1.00  0.00     0.086 C 
HETATM   13  C20 UNL     1     -11.846 -19.804   7.995  1.00  0.00     0.004 C 
HETATM   14  C21 UNL     1     -11.162 -20.071   6.683  1.00  0.00    -0.005 C 
HETATM   15  C22 UNL     1      -9.935 -20.862   6.923  1.00  0.00     0.006 C 
HETATM   16  C23 UNL     1      -8.774 -20.596   5.988  1.00  0.00     0.010 C 
HETATM   17  C24 UNL     1      -9.272 -20.291   4.613  1.00  0.00    -0.036 C 
HETATM   18  C25 UNL     1     -10.275 -21.262   4.109  1.00  0.00     0.016 C 
ENDROOT
BRANCH   1  19
HETATM   19  C7  UNL     1      -7.180 -20.633   3.123  1.00  0.00    -0.014 C 
HETATM   20  C8  UNL     1      -7.639 -21.563   1.965  1.00  0.00     0.010 C 
BRANCH  19  21
HETATM   21  C6  UNL     1      -5.849 -20.188   2.718  1.00  0.00     0.005 C 
BRANCH  21  22
HETATM   22  C5  UNL     1      -5.550 -18.843   2.193  1.00  0.00     0.001 C 
BRANCH  22  23
HETATM   23  C4  UNL     1      -5.950 -18.454   0.833  1.00  0.00     0.004 C 
BRANCH  23  24
HETATM   24  C2  UNL     1      -5.355 -19.101  -0.347  1.00  0.00    -0.023 C 
HETATM   25  C1  UNL     1      -4.516 -18.348  -1.284  1.00  0.00     0.009 C 
HETATM   26  C3  UNL     1      -6.536 -19.691  -1.157  1.00  0.00     0.009 C 
ENDBRANCH  23  24
ENDBRANCH  22  23
ENDBRANCH  21  22
ENDBRANCH  19  21
ENDBRANCH   1  19
BRANCH   9  27
HETATM   27  O1  UNL     1     -11.259 -18.432  11.195  1.00  0.00    -0.274 OA
BRANCH  27  28
HETATM   28  N1  UNL     1     -10.139 -19.189  11.290  1.00  0.00    -0.310 N 
ATOM     29  H12 UNL     1      -9.301 -18.891  11.790  1.00  0.00     0.184 HD
ATOM     30  H11 UNL     1     -10.244 -20.079  10.804  1.00  0.00     0.184 HD
ENDBRANCH  27  28
ENDBRANCH   9  27
TORSDOF 7
ENDMDL
MODEL 5
REMARK VINA RESULT: -7.883550251      3.676      7.805
REMARK  7 active torsions:
REMARK  status: ('A' for Active; 'I' for Inactive)
REMARK    1  A    between atoms: C2_2  and  C4_4 
REMARK    2  A    between atoms: C4_4  and  C5_5 
REMARK    3  A    between atoms: C5_5  and  C6_6 
REMARK    4  A    between atoms: C6_6  and  C7_7 
REMARK    5  A    between atoms: C7_7  and  C9_9 
REMARK    6  A    between atoms: C17_17  and  O1_18 
REMARK    7  A    between atoms: O1_18  and  N1_19 
ROOT
HETATM    1  C9  UNL     1     -10.894 -19.014   7.659  1.00  0.00    -0.002 C 
HETATM    2  C10 UNL     1     -12.285 -19.374   7.258  1.00  0.00     0.006 C 
HETATM    3  C11 UNL     1     -12.197 -19.923   5.824  1.00  0.00     0.006 C 
HETATM    4  C12 UNL     1     -10.745 -19.997   5.626  1.00  0.00    -0.002 C 
HETATM    5  C13 UNL     1     -10.229 -20.225   4.277  1.00  0.00    -0.005 C 
HETATM    6  C14 UNL     1      -9.760 -21.671   4.192  1.00  0.00     0.006 C 
HETATM    7  C15 UNL     1      -9.065 -22.037   2.935  1.00  0.00     0.008 C 
HETATM    8  C16 UNL     1      -7.843 -21.119   2.846  1.00  0.00     0.029 C 
HETATM    9  C17 UNL     1      -7.056 -21.310   1.572  1.00  0.00     0.225 C 
HETATM   10  C18 UNL     1      -6.592 -19.926   1.267  1.00  0.00     0.158 C 
HETATM   11  O2  UNL     1      -5.767 -19.600   0.434  1.00  0.00    -0.295 OA
HETATM   12  C19 UNL     1      -7.308 -18.947   2.161  1.00  0.00     0.086 C 
HETATM   13  C20 UNL     1      -8.458 -19.761   2.600  1.00  0.00     0.004 C 
HETATM   14  C21 UNL     1      -9.247 -19.230   3.764  1.00  0.00    -0.005 C 
HETATM   15  C22 UNL     1      -8.317 -18.738   4.803  1.00  0.00     0.006 C 
HETATM   16  C23 UNL     1      -8.773 -18.893   6.238  1.00  0.00     0.010 C 
HETATM   17  C24 UNL     1     -10.252 -18.704   6.338  1.00  0.00    -0.036 C 
HETATM   18  C25 UNL     1     -10.749 -17.488   5.647  1.00  0.00     0.016 C 
ENDROOT
BRANCH   1  19
HETATM   19  C7  UNL     1     -10.637 -18.264   8.862  1.00  0.00    -0.014 C 
HETATM   20  C8  UNL     1     -11.943 -17.655   9.448  1.00  0.00     0.010 C 
BRANCH  19  21
HETATM   21  C6  UNL     1      -9.891 -18.706  10.036  1.00  0.00     0.005 C 
BRANCH  21  22
HETATM   22  C5  UNL     1      -9.498 -20.104  10.290  1.00  0.00     0.001 C 
BRANCH  22  23
HETATM   23  C4  UNL     1      -8.484 -20.769   9.461  1.00  0.00     0.004 C 
BRANCH  23  24
HETATM   24  C2  UNL     1      -8.747 -22.082   8.850  1.00  0.00    -0.023 C 
HETATM   25  C1  UNL     1      -8.335 -22.376   7.474  1.00  0.00     0.009 C 
HETATM   26  C3  UNL     1     -10.279 -22.296   8.929  1.00  0.00     0.009 C 
ENDBRANCH  23  24
ENDBRANCH  22  23
ENDBRANCH  21  22
ENDBRANCH  19  21
ENDBRANCH   1  19
BRANCH   9  27
HETATM   27  O1  UNL     1      -5.915 -22.077   1.805  1.00  0.00    -0.274 OA
BRANCH  27  28
HETATM   28  N1  UNL     1      -5.529 -22.017   3.102  1.00  0.00    -0.310 N 
ATOM     29  H12 UNL     1      -5.170 -22.820   3.619  1.00  0.00     0.184 HD
ATOM     30  H11 UNL     1      -5.643 -21.078   3.485  1.00  0.00     0.184 HD
ENDBRANCH  27  28
ENDBRANCH   9  27
TORSDOF 7
ENDMDL
