MODEL 1
REMARK VINA RESULT: -6.556013181      0.000      0.000
REMARK  5 active torsions:
REMARK  status: ('A' for Active; 'I' for Inactive)
REMARK    1  A    between atoms: C2_2  and  C3_3 
REMARK    2  A    between atoms: C7_8  and  C8_9 
REMARK    3  A    between atoms: C8_9  and  C9_10 
REMARK    4  A    between atoms: C8_9  and  C12_19 
REMARK    5  A    between atoms: C11_14  and  N2_15 
ROOT
HETATM    1  C8  UNL     1      35.528  -7.908  55.444  1.00  0.00     0.066 C 
ENDROOT
BRANCH   1   2
HETATM    2  C7  UNL     1      35.833  -6.678  54.739  1.00  0.00    -0.009 A 
HETATM    3  C6  UNL     1      37.132  -6.196  54.724  1.00  0.00     0.014 A 
HETATM    4  C5  UNL     1      37.513  -5.047  54.083  1.00  0.00     0.043 A 
HETATM    5  C4  UNL     1      36.572  -4.307  53.405  1.00  0.00     0.125 A 
HETATM    6  C3  UNL     1      35.265  -4.744  53.391  1.00  0.00     0.019 A 
HETATM    7  F1  UNL     1      36.884  -3.165  52.752  1.00  0.00    -0.205 F 
HETATM    8  C15 UNL     1      34.915  -5.907  54.048  1.00  0.00     0.132 A 
HETATM    9  F2  UNL     1      33.640  -6.287  54.008  1.00  0.00    -0.205 F 
BRANCH   6  10
HETATM   10  C2  UNL     1      34.224  -3.969  52.665  1.00  0.00     0.040 C 
HETATM   11  C1  UNL     1      33.409  -3.245  53.714  1.00  0.00     0.010 C 
ENDBRANCH   6  10
ENDBRANCH   1   2
BRANCH   1  12
HETATM   12  C9  UNL     1      36.551  -8.996  55.232  1.00  0.00     0.010 A 
HETATM   13  C10 UNL     1      37.583  -9.363  56.049  1.00  0.00     0.105 A 
HETATM   14  N1  UNL     1      38.355 -10.337  55.670  1.00  0.00    -0.346 N 
HETATM   15  C11 UNL     1      38.102 -10.931  54.503  1.00  0.00     0.142 A 
ATOM     16  H1  UNL     1      39.135 -10.640  56.252  1.00  0.00     0.167 HD
HETATM   17  S1  UNL     1      36.739 -10.093  53.924  1.00  0.00    -0.057 SA
BRANCH  15  18
HETATM   18  N2  UNL     1      38.740 -11.920  53.930  1.00  0.00    -0.380 N 
ATOM     19  H22 UNL     1      39.543 -11.867  53.303  1.00  0.00     0.158 HD
ATOM     20  H21 UNL     1      38.561 -12.922  53.997  1.00  0.00     0.158 HD
ENDBRANCH  15  18
ENDBRANCH   1  12
BRANCH   1  21
HETATM   21  C12 UNL     1      35.341  -7.784  56.941  1.00  0.00    -0.009 C 
HETATM   22  C13 UNL     1      34.360  -8.905  57.322  1.00  0.00     0.010 C 
HETATM   23  C14 UNL     1      34.676  -6.480  57.330  1.00  0.00     0.010 C 
ENDBRANCH   1  21
TORSDOF 5
ENDMDL
MODEL 2
REMARK VINA RESULT: -6.244984944      0.820      1.001
REMARK  5 active torsions:
REMARK  status: ('A' for Active; 'I' for Inactive)
REMARK    1  A    between atoms: C2_2  and  C3_3 
REMARK    2  A    between atoms: C7_8  and  C8_9 
REMARK    3  A    between atoms: C8_9  and  C9_10 
REMARK    4  A    between atoms: C8_9  and  C12_19 
REMARK    5  A    between atoms: C11_14  and  N2_15 
ROOT
HETATM    1  C8  UNL     1      35.322  -7.753  55.272  1.00  0.00     0.066 C 
ENDROOT
BRANCH   1   2
HETATM    2  C7  UNL     1      35.707  -6.531  54.591  1.00  0.00    -0.009 A 
HETATM    3  C6  UNL     1      37.034  -6.132  54.589  1.00  0.00     0.014 A 
HETATM    4  C5  UNL     1      37.490  -4.998  53.971  1.00  0.00     0.043 A 
HETATM    5  C4  UNL     1      36.601  -4.187  53.305  1.00  0.00     0.125 A 
HETATM    6  C3  UNL     1      35.269  -4.540  53.279  1.00  0.00     0.019 A 
HETATM    7  F1  UNL     1      36.987  -3.055  52.675  1.00  0.00    -0.205 F 
HETATM    8  C15 UNL     1      34.843  -5.690  53.912  1.00  0.00     0.132 A 
HETATM    9  F2  UNL     1      33.547  -5.988  53.861  1.00  0.00    -0.205 F 
BRANCH   6  10
HETATM   10  C2  UNL     1      34.282  -3.686  52.565  1.00  0.00     0.040 C 
HETATM   11  C1  UNL     1      33.409  -3.050  53.624  1.00  0.00     0.010 C 
ENDBRANCH   6  10
ENDBRANCH   1   2
BRANCH   1  12
HETATM   12  C9  UNL     1      36.125  -8.958  54.850  1.00  0.00     0.010 A 
HETATM   13  C10 UNL     1      35.882  -9.823  53.820  1.00  0.00     0.105 A 
HETATM   14  N1  UNL     1      36.710 -10.806  53.631  1.00  0.00    -0.346 N 
HETATM   15  C11 UNL     1      37.755 -10.924  54.450  1.00  0.00     0.142 A 
ATOM     16  H1  UNL     1      36.564 -11.472  52.872  1.00  0.00     0.167 HD
HETATM   17  S1  UNL     1      37.565  -9.612  55.518  1.00  0.00    -0.057 SA
BRANCH  15  18
HETATM   18  N2  UNL     1      38.705 -11.825  54.447  1.00  0.00    -0.380 N 
ATOM     19  H22 UNL     1      39.435 -11.961  53.748  1.00  0.00     0.158 HD
ATOM     20  H21 UNL     1      38.897 -12.555  55.132  1.00  0.00     0.158 HD
ENDBRANCH  15  18
ENDBRANCH   1  12
BRANCH   1  21
HETATM   21  C12 UNL     1      35.374  -7.712  56.783  1.00  0.00    -0.009 C 
HETATM   22  C13 UNL     1      34.495  -8.885  57.251  1.00  0.00     0.010 C 
HETATM   23  C14 UNL     1      34.746  -6.454  57.346  1.00  0.00     0.010 C 
ENDBRANCH   1  21
TORSDOF 5
ENDMDL
MODEL 3
REMARK VINA RESULT: -6.223776303      1.721      2.023
REMARK  5 active torsions:
REMARK  status: ('A' for Active; 'I' for Inactive)
REMARK    1  A    between atoms: C2_2  and  C3_3 
REMARK    2  A    between atoms: C7_8  and  C8_9 
REMARK    3  A    between atoms: C8_9  and  C9_10 
REMARK    4  A    between atoms: C8_9  and  C12_19 
REMARK    5  A    between atoms: C11_14  and  N2_15 
ROOT
HETATM    1  C8  UNL     1      34.774  -6.788  54.863  1.00  0.00     0.066 C 
ENDROOT
BRANCH   1   2
HETATM    2  C7  UNL     1      35.268  -5.626  54.150  1.00  0.00    -0.009 A 
HETATM    3  C6  UNL     1      36.617  -5.524  53.847  1.00  0.00     0.014 A 
HETATM    4  C5  UNL     1      37.171  -4.467  53.175  1.00  0.00     0.043 A 
HETATM    5  C4  UNL     1      36.366  -3.431  52.763  1.00  0.00     0.125 A 
HETATM    6  C3  UNL     1      35.017  -3.484  53.041  1.00  0.00     0.019 A 
HETATM    7  F1  UNL     1      36.851  -2.360  52.095  1.00  0.00    -0.205 F 
HETATM    8  C15 UNL     1      34.491  -4.564  53.720  1.00  0.00     0.132 A 
HETATM    9  F2  UNL     1      33.183  -4.570  53.968  1.00  0.00    -0.205 F 
BRANCH   6  10
HETATM   10  C2  UNL     1      34.119  -2.381  52.607  1.00  0.00     0.040 C 
HETATM   11  C1  UNL     1      34.112  -2.392  51.095  1.00  0.00     0.010 C 
ENDBRANCH   6  10
ENDBRANCH   1   2
BRANCH   1  12
HETATM   12  C9  UNL     1      35.151  -8.098  54.218  1.00  0.00     0.010 A 
HETATM   13  C10 UNL     1      34.465  -8.807  53.271  1.00  0.00     0.105 A 
HETATM   14  N1  UNL     1      34.974  -9.925  52.848  1.00  0.00    -0.346 N 
HETATM   15  C11 UNL     1      36.140 -10.326  53.356  1.00  0.00     0.142 A 
ATOM     16  H1  UNL     1      34.494 -10.483  52.142  1.00  0.00     0.167 HD
HETATM   17  S1  UNL     1      36.529  -9.092  54.463  1.00  0.00    -0.057 SA
BRANCH  15  18
HETATM   18  N2  UNL     1      36.830 -11.404  53.081  1.00  0.00    -0.380 N 
ATOM     19  H22 UNL     1      37.382 -11.597  52.245  1.00  0.00     0.158 HD
ATOM     20  H21 UNL     1      36.948 -12.248  53.640  1.00  0.00     0.158 HD
ENDBRANCH  15  18
ENDBRANCH   1  12
BRANCH   1  21
HETATM   21  C12 UNL     1      35.183  -6.895  56.316  1.00  0.00    -0.009 C 
HETATM   22  C13 UNL     1      34.453  -8.138  56.853  1.00  0.00     0.010 C 
HETATM   23  C14 UNL     1      34.694  -5.721  57.139  1.00  0.00     0.010 C 
ENDBRANCH   1  21
TORSDOF 5
ENDMDL
MODEL 4
REMARK VINA RESULT: -6.206090813      3.641      5.397
REMARK  5 active torsions:
REMARK  status: ('A' for Active; 'I' for Inactive)
REMARK    1  A    between atoms: C2_2  and  C3_3 
REMARK    2  A    between atoms: C7_8  and  C8_9 
REMARK    3  A    between atoms: C8_9  and  C9_10 
REMARK    4  A    between atoms: C8_9  and  C12_19 
REMARK    5  A    between atoms: C11_14  and  N2_15 
ROOT
HETATM    1  C8  UNL     1      34.250  -6.453  55.041  1.00  0.00     0.066 C 
ENDROOT
BRANCH   1   2
HETATM    2  C7  UNL     1      34.135  -6.158  56.457  1.00  0.00    -0.009 A 
HETATM    3  C6  UNL     1      34.679  -7.028  57.388  1.00  0.00     0.014 A 
HETATM    4  C5  UNL     1      34.622  -6.830  58.742  1.00  0.00     0.043 A 
HETATM    5  C4  UNL     1      33.993  -5.711  59.236  1.00  0.00     0.125 A 
HETATM    6  C3  UNL     1      33.436  -4.815  58.350  1.00  0.00     0.019 A 
HETATM    7  F1  UNL     1      33.903  -5.458  60.561  1.00  0.00    -0.205 F 
HETATM    8  C15 UNL     1      33.511  -5.045  56.991  1.00  0.00     0.132 A 
HETATM    9  F2  UNL     1      32.955  -4.152  56.174  1.00  0.00    -0.205 F 
BRANCH   6  10
HETATM   10  C2  UNL     1      32.751  -3.593  58.851  1.00  0.00     0.040 C 
HETATM   11  C1  UNL     1      31.281  -3.932  58.965  1.00  0.00     0.010 C 
ENDBRANCH   6  10
ENDBRANCH   1   2
BRANCH   1  12
HETATM   12  C9  UNL     1      35.214  -5.549  54.312  1.00  0.00     0.010 A 
HETATM   13  C10 UNL     1      36.578  -5.516  54.398  1.00  0.00     0.105 A 
HETATM   14  N1  UNL     1      37.221  -4.649  53.676  1.00  0.00    -0.346 N 
HETATM   15  C11 UNL     1      36.520  -3.833  52.887  1.00  0.00     0.142 A 
ATOM     16  H1  UNL     1      38.239  -4.593  53.711  1.00  0.00     0.167 HD
HETATM   17  S1  UNL     1      34.909  -4.303  53.172  1.00  0.00    -0.057 SA
BRANCH  15  18
HETATM   18  N2  UNL     1      36.952  -2.895  52.084  1.00  0.00    -0.380 N 
ATOM     19  H22 UNL     1      37.399  -3.007  51.173  1.00  0.00     0.158 HD
ATOM     20  H21 UNL     1      36.927  -1.883  52.209  1.00  0.00     0.158 HD
ENDBRANCH  15  18
ENDBRANCH   1  12
BRANCH   1  21
HETATM   21  C12 UNL     1      34.647  -7.870  54.690  1.00  0.00    -0.009 C 
HETATM   22  C13 UNL     1      34.355  -8.014  53.188  1.00  0.00     0.010 C 
HETATM   23  C14 UNL     1      33.786  -8.898  55.395  1.00  0.00     0.010 C 
ENDBRANCH   1  21
TORSDOF 5
ENDMDL
MODEL 5
REMARK VINA RESULT: -6.205126482      3.691      5.401
REMARK  5 active torsions:
REMARK  status: ('A' for Active; 'I' for Inactive)
REMARK    1  A    between atoms: C2_2  and  C3_3 
REMARK    2  A    between atoms: C7_8  and  C8_9 
REMARK    3  A    between atoms: C8_9  and  C9_10 
REMARK    4  A    between atoms: C8_9  and  C12_19 
REMARK    5  A    between atoms: C11_14  and  N2_15 
ROOT
HETATM    1  C8  UNL     1      35.806  -6.849  55.457  1.00  0.00     0.066 C 
ENDROOT
BRANCH   1   2
HETATM    2  C7  UNL     1      36.104  -8.072  54.735  1.00  0.00    -0.009 A 
HETATM    3  C6  UNL     1      37.311  -8.719  54.944  1.00  0.00     0.014 A 
HETATM    4  C5  UNL     1      37.675  -9.879  54.312  1.00  0.00     0.043 A 
HETATM    5  C4  UNL     1      36.811 -10.458  53.412  1.00  0.00     0.125 A 
HETATM    6  C3  UNL     1      35.598  -9.852  53.169  1.00  0.00     0.019 A 
HETATM    7  F1  UNL     1      37.111 -11.602  52.755  1.00  0.00    -0.205 F 
HETATM    8  C15 UNL     1      35.262  -8.684  53.823  1.00  0.00     0.132 A 
HETATM    9  F2  UNL     1      34.080  -8.134  53.553  1.00  0.00    -0.205 F 
BRANCH   6  10
HETATM   10  C2  UNL     1      34.640 -10.454  52.203  1.00  0.00     0.040 C 
HETATM   11  C1  UNL     1      34.969  -9.876  50.844  1.00  0.00     0.010 C 
ENDBRANCH   6  10
ENDBRANCH   1   2
BRANCH   1  12
HETATM   12  C9  UNL     1      35.732  -5.629  54.573  1.00  0.00     0.010 A 
HETATM   13  C10 UNL     1      36.758  -4.865  54.092  1.00  0.00     0.105 A 
HETATM   14  N1  UNL     1      36.469  -3.846  53.339  1.00  0.00    -0.346 N 
HETATM   15  C11 UNL     1      35.187  -3.596  53.072  1.00  0.00     0.142 A 
ATOM     16  H1  UNL     1      37.206  -3.252  52.961  1.00  0.00     0.167 HD
HETATM   17  S1  UNL     1      34.366  -4.832  53.907  1.00  0.00    -0.057 SA
BRANCH  15  18
HETATM   18  N2  UNL     1      34.670  -2.637  52.347  1.00  0.00    -0.380 N 
ATOM     19  H22 UNL     1      34.812  -1.631  52.447  1.00  0.00     0.158 HD
ATOM     20  H21 UNL     1      34.035  -2.706  51.553  1.00  0.00     0.158 HD
ENDBRANCH  15  18
ENDBRANCH   1  12
BRANCH   1  21
HETATM   21  C12 UNL     1      34.536  -6.859  56.279  1.00  0.00    -0.009 C 
HETATM   22  C13 UNL     1      34.747  -5.791  57.364  1.00  0.00     0.010 C 
HETATM   23  C14 UNL     1      34.330  -8.173  57.003  1.00  0.00     0.010 C 
ENDBRANCH   1  21
TORSDOF 5
ENDMDL
