MODEL 1
REMARK VINA RESULT: -7.429559851      0.000      0.000
REMARK  7 active torsions:
REMARK  status: ('A' for Active; 'I' for Inactive)
REMARK    1  A    between atoms: C2_2  and  C3_3 
REMARK    2  A    between atoms: C3_3  and  C5_5 
REMARK    3  A    between atoms: C3_3  and  N1_10 
REMARK    4  A    between atoms: C5_5  and  C6_6 
REMARK    5  A    between atoms: N1_10  and  C10_12 
REMARK    6  A    between atoms: C11_15  and  O1_16 
REMARK    7  A    between atoms: N3_20  and  C14_21 
ROOT
HETATM    1  C10 UNL     1      35.725  -3.911  53.371  1.00  0.00     0.687 A 
HETATM    2  N2  UNL     1      36.684  -3.629  52.493  1.00  0.00    -0.168 N 
ATOM      3  H2  UNL     1      37.661  -3.906  52.579  1.00  0.00     0.186 HD
HETATM    4  C11 UNL     1      36.159  -2.915  51.465  1.00  0.00     0.178 A 
HETATM    5  C12 UNL     1      34.816  -2.758  51.733  1.00  0.00     0.082 A 
HETATM    6  C13 UNL     1      33.807  -2.031  50.878  1.00  0.00     0.074 C 
HETATM    7  N3  UNL     1      34.573  -3.362  52.881  1.00  0.00    -0.124 N 
ENDROOT
BRANCH   1   8
HETATM    8  N1  UNL     1      35.724  -4.542  54.461  1.00  0.00    -0.217 N 
ATOM      9  H1  UNL     1      35.715  -3.935  55.281  1.00  0.00     0.178 HD
BRANCH   8  10
HETATM   10  C3  UNL     1      35.734  -5.905  54.780  1.00  0.00     0.044 C 
HETATM   11  C4  UNL     1      37.200  -6.372  54.732  1.00  0.00     0.039 C 
BRANCH  10  12
HETATM   12  C2  UNL     1      35.328  -6.169  56.242  1.00  0.00     0.026 C 
HETATM   13  C1  UNL     1      34.070  -5.476  56.610  1.00  0.00     0.007 C 
ENDBRANCH  10  12
BRANCH  10  14
HETATM   14  C5  UNL     1      34.864  -6.766  53.956  1.00  0.00     0.039 C 
BRANCH  14  15
HETATM   15  C6  UNL     1      34.910  -8.222  54.101  1.00  0.00    -0.049 C 
HETATM   16  C7  UNL     1      36.206  -8.878  54.404  1.00  0.00     0.014 C 
HETATM   17  C8  UNL     1      34.477  -8.793  52.732  1.00  0.00     0.014 C 
HETATM   18  C9  UNL     1      33.883  -8.780  55.076  1.00  0.00     0.014 C 
ENDBRANCH  14  15
ENDBRANCH  10  14
ENDBRANCH   8  10
ENDBRANCH   1   8
BRANCH   7  19
HETATM   19  C14 UNL     1      33.259  -3.411  53.496  1.00  0.00     0.480 C 
HETATM   20  F1  UNL     1      33.118  -2.389  54.398  1.00  0.00    -0.190 F 
HETATM   21  F2  UNL     1      32.304  -3.248  52.503  1.00  0.00    -0.190 F 
ENDBRANCH   7  19
BRANCH   4  22
HETATM   22  O1  UNL     1      36.856  -2.444  50.364  1.00  0.00    -0.344 OA
ATOM     23  H1  UNL     1      36.841  -1.553  50.035  1.00  0.00     0.219 HD
ENDBRANCH   4  22
TORSDOF 7
ENDMDL
MODEL 2
REMARK VINA RESULT: -6.815700112      1.000      2.433
REMARK  7 active torsions:
REMARK  status: ('A' for Active; 'I' for Inactive)
REMARK    1  A    between atoms: C2_2  and  C3_3 
REMARK    2  A    between atoms: C3_3  and  C5_5 
REMARK    3  A    between atoms: C3_3  and  N1_10 
REMARK    4  A    between atoms: C5_5  and  C6_6 
REMARK    5  A    between atoms: N1_10  and  C10_12 
REMARK    6  A    between atoms: C11_15  and  O1_16 
REMARK    7  A    between atoms: N3_20  and  C14_21 
ROOT
HETATM    1  C10 UNL     1      35.966  -3.706  53.256  1.00  0.00     0.687 A 
HETATM    2  N2  UNL     1      36.869  -3.448  52.314  1.00  0.00    -0.168 N 
ATOM      3  H2  UNL     1      37.859  -3.688  52.365  1.00  0.00     0.186 HD
HETATM    4  C11 UNL     1      36.268  -2.818  51.273  1.00  0.00     0.178 A 
HETATM    5  C12 UNL     1      34.936  -2.689  51.600  1.00  0.00     0.082 A 
HETATM    6  C13 UNL     1      33.860  -2.051  50.756  1.00  0.00     0.074 C 
HETATM    7  N3  UNL     1      34.772  -3.227  52.793  1.00  0.00    -0.124 N 
ENDROOT
BRANCH   1   8
HETATM    8  N1  UNL     1      36.042  -4.267  54.381  1.00  0.00    -0.217 N 
ATOM      9  H1  UNL     1      36.061  -3.610  55.161  1.00  0.00     0.178 HD
BRANCH   8  10
HETATM   10  C3  UNL     1      36.107  -5.606  54.782  1.00  0.00     0.044 C 
HETATM   11  C4  UNL     1      35.098  -6.388  53.920  1.00  0.00     0.039 C 
BRANCH  10  12
HETATM   12  C2  UNL     1      37.455  -6.262  54.426  1.00  0.00     0.026 C 
HETATM   13  C1  UNL     1      37.519  -7.681  54.850  1.00  0.00     0.007 C 
ENDBRANCH  10  12
BRANCH  10  14
HETATM   14  C5  UNL     1      35.900  -5.859  56.220  1.00  0.00     0.039 C 
BRANCH  14  15
HETATM   15  C6  UNL     1      34.562  -6.149  56.738  1.00  0.00    -0.049 C 
HETATM   16  C7  UNL     1      33.498  -5.123  56.607  1.00  0.00     0.014 C 
HETATM   17  C8  UNL     1      34.737  -6.358  58.259  1.00  0.00     0.014 C 
HETATM   18  C9  UNL     1      33.980  -7.468  56.248  1.00  0.00     0.014 C 
ENDBRANCH  14  15
ENDBRANCH  10  14
ENDBRANCH   8  10
ENDBRANCH   1   8
BRANCH   7  19
HETATM   19  C14 UNL     1      33.493  -3.281  53.478  1.00  0.00     0.480 C 
HETATM   20  F1  UNL     1      33.229  -2.081  54.086  1.00  0.00    -0.190 F 
HETATM   21  F2  UNL     1      32.501  -3.516  52.537  1.00  0.00    -0.190 F 
ENDBRANCH   7  19
BRANCH   4  22
HETATM   22  O1  UNL     1      36.893  -2.395  50.110  1.00  0.00    -0.344 OA
ATOM     23  H1  UNL     1      36.828  -1.528  49.728  1.00  0.00     0.219 HD
ENDBRANCH   4  22
TORSDOF 7
ENDMDL
MODEL 3
REMARK VINA RESULT: -6.637571348      0.877      2.072
REMARK  7 active torsions:
REMARK  status: ('A' for Active; 'I' for Inactive)
REMARK    1  A    between atoms: C2_2  and  C3_3 
REMARK    2  A    between atoms: C3_3  and  C5_5 
REMARK    3  A    between atoms: C3_3  and  N1_10 
REMARK    4  A    between atoms: C5_5  and  C6_6 
REMARK    5  A    between atoms: N1_10  and  C10_12 
REMARK    6  A    between atoms: C11_15  and  O1_16 
REMARK    7  A    between atoms: N3_20  and  C14_21 
ROOT
HETATM    1  C10 UNL     1      35.538  -3.939  53.345  1.00  0.00     0.687 A 
HETATM    2  N2  UNL     1      36.540  -3.668  52.514  1.00  0.00    -0.168 N 
ATOM      3  H2  UNL     1      37.503  -3.984  52.631  1.00  0.00     0.186 HD
HETATM    4  C11 UNL     1      36.083  -2.909  51.486  1.00  0.00     0.178 A 
HETATM    5  C12 UNL     1      34.737  -2.710  51.705  1.00  0.00     0.082 A 
HETATM    6  C13 UNL     1      33.790  -1.925  50.831  1.00  0.00     0.074 C 
HETATM    7  N3  UNL     1      34.427  -3.335  52.825  1.00  0.00    -0.124 N 
ENDROOT
BRANCH   1   8
HETATM    8  N1  UNL     1      35.470  -4.598  54.416  1.00  0.00    -0.217 N 
ATOM      9  H1  UNL     1      35.351  -4.014  55.244  1.00  0.00     0.178 HD
BRANCH   8  10
HETATM   10  C3  UNL     1      35.524  -5.966  54.704  1.00  0.00     0.044 C 
HETATM   11  C4  UNL     1      34.632  -6.683  53.675  1.00  0.00     0.039 C 
BRANCH  10  12
HETATM   12  C2  UNL     1      36.918  -6.567  54.440  1.00  0.00     0.026 C 
HETATM   13  C1  UNL     1      38.009  -5.701  54.946  1.00  0.00     0.007 C 
ENDBRANCH  10  12
BRANCH  10  14
HETATM   14  C5  UNL     1      35.174  -6.349  56.085  1.00  0.00     0.039 C 
BRANCH  14  15
HETATM   15  C6  UNL     1      34.969  -7.755  56.436  1.00  0.00    -0.049 C 
HETATM   16  C7  UNL     1      33.860  -8.506  55.797  1.00  0.00     0.014 C 
HETATM   17  C8  UNL     1      34.648  -7.768  57.947  1.00  0.00     0.014 C 
HETATM   18  C9  UNL     1      36.221  -8.612  56.317  1.00  0.00     0.014 C 
ENDBRANCH  14  15
ENDBRANCH  10  14
ENDBRANCH   8  10
ENDBRANCH   1   8
BRANCH   7  19
HETATM   19  C14 UNL     1      33.087  -3.353  53.386  1.00  0.00     0.480 C 
HETATM   20  F1  UNL     1      32.953  -2.364  54.325  1.00  0.00    -0.190 F 
HETATM   21  F2  UNL     1      32.181  -3.105  52.365  1.00  0.00    -0.190 F 
ENDBRANCH   7  19
BRANCH   4  22
HETATM   22  O1  UNL     1      36.841  -2.435  50.427  1.00  0.00    -0.344 OA
ATOM     23  H1  UNL     1      36.695  -2.627  49.509  1.00  0.00     0.219 HD
ENDBRANCH   4  22
TORSDOF 7
ENDMDL
MODEL 4
REMARK VINA RESULT: -6.443883360      2.072      2.430
REMARK  7 active torsions:
REMARK  status: ('A' for Active; 'I' for Inactive)
REMARK    1  A    between atoms: C2_2  and  C3_3 
REMARK    2  A    between atoms: C3_3  and  C5_5 
REMARK    3  A    between atoms: C3_3  and  N1_10 
REMARK    4  A    between atoms: C5_5  and  C6_6 
REMARK    5  A    between atoms: N1_10  and  C10_12 
REMARK    6  A    between atoms: C11_15  and  O1_16 
REMARK    7  A    between atoms: N3_20  and  C14_21 
ROOT
HETATM    1  C10 UNL     1      34.849  -4.218  53.666  1.00  0.00     0.687 A 
HETATM    2  N2  UNL     1      33.524  -4.125  53.722  1.00  0.00    -0.168 N 
ATOM      3  H2  UNL     1      32.929  -4.595  54.405  1.00  0.00     0.186 HD
HETATM    4  C11 UNL     1      33.085  -3.309  52.731  1.00  0.00     0.178 A 
HETATM    5  C12 UNL     1      34.200  -2.885  52.041  1.00  0.00     0.082 A 
HETATM    6  C13 UNL     1      34.222  -1.960  50.849  1.00  0.00     0.074 C 
HETATM    7  N3  UNL     1      35.250  -3.440  52.616  1.00  0.00    -0.124 N 
ENDROOT
BRANCH   1   8
HETATM    8  N1  UNL     1      35.692  -4.842  54.363  1.00  0.00    -0.217 N 
ATOM      9  H1  UNL     1      36.533  -4.300  54.562  1.00  0.00     0.178 HD
BRANCH   8  10
HETATM   10  C3  UNL     1      35.713  -6.125  54.920  1.00  0.00     0.044 C 
HETATM   11  C4  UNL     1      37.134  -6.684  54.721  1.00  0.00     0.039 C 
BRANCH  10  12
HETATM   12  C2  UNL     1      35.555  -6.103  56.453  1.00  0.00     0.026 C 
HETATM   13  C1  UNL     1      34.184  -5.726  56.871  1.00  0.00     0.007 C 
ENDBRANCH  10  12
BRANCH  10  14
HETATM   14  C5  UNL     1      34.688  -7.062  54.421  1.00  0.00     0.039 C 
BRANCH  14  15
HETATM   15  C6  UNL     1      34.843  -8.504  54.618  1.00  0.00    -0.049 C 
HETATM   16  C7  UNL     1      36.114  -9.026  55.176  1.00  0.00     0.014 C 
HETATM   17  C8  UNL     1      34.732  -9.133  53.211  1.00  0.00     0.014 C 
HETATM   18  C9  UNL     1      33.707  -9.149  55.401  1.00  0.00     0.014 C 
ENDBRANCH  14  15
ENDBRANCH  10  14
ENDBRANCH   8  10
ENDBRANCH   1   8
BRANCH   7  19
HETATM   19  C14 UNL     1      36.614  -3.228  52.165  1.00  0.00     0.480 C 
HETATM   20  F1  UNL     1      37.434  -4.212  52.652  1.00  0.00    -0.190 F 
HETATM   21  F2  UNL     1      36.632  -3.296  50.779  1.00  0.00    -0.190 F 
ENDBRANCH   7  19
BRANCH   4  22
HETATM   22  O1  UNL     1      31.763  -2.977  52.478  1.00  0.00    -0.344 OA
ATOM     23  H1  UNL     1      31.091  -3.569  52.164  1.00  0.00     0.219 HD
ENDBRANCH   4  22
TORSDOF 7
ENDMDL
MODEL 5
REMARK VINA RESULT: -6.285035367      2.967      4.401
REMARK  7 active torsions:
REMARK  status: ('A' for Active; 'I' for Inactive)
REMARK    1  A    between atoms: C2_2  and  C3_3 
REMARK    2  A    between atoms: C3_3  and  C5_5 
REMARK    3  A    between atoms: C3_3  and  N1_10 
REMARK    4  A    between atoms: C5_5  and  C6_6 
REMARK    5  A    between atoms: N1_10  and  C10_12 
REMARK    6  A    between atoms: C11_15  and  O1_16 
REMARK    7  A    between atoms: N3_20  and  C14_21 
ROOT
HETATM    1  C10 UNL     1      35.125  -6.158  55.054  1.00  0.00     0.687 A 
HETATM    2  N2  UNL     1      34.029  -5.674  54.477  1.00  0.00    -0.168 N 
ATOM      3  H2  UNL     1      33.077  -5.987  54.667  1.00  0.00     0.186 HD
HETATM    4  C11 UNL     1      34.374  -4.701  53.597  1.00  0.00     0.178 A 
HETATM    5  C12 UNL     1      35.746  -4.588  53.644  1.00  0.00     0.082 A 
HETATM    6  C13 UNL     1      36.598  -3.636  52.841  1.00  0.00     0.074 C 
HETATM    7  N3  UNL     1      36.181  -5.470  54.524  1.00  0.00    -0.124 N 
ENDROOT
BRANCH   1   8
HETATM    8  N1  UNL     1      35.310  -7.051  55.922  1.00  0.00    -0.217 N 
ATOM      9  H1  UNL     1      35.497  -6.679  56.854  1.00  0.00     0.178 HD
BRANCH   8  10
HETATM   10  C3  UNL     1      35.313  -8.450  55.873  1.00  0.00     0.044 C 
HETATM   11  C4  UNL     1      33.887  -8.894  55.500  1.00  0.00     0.039 C 
BRANCH  10  12
HETATM   12  C2  UNL     1      36.167  -8.995  54.712  1.00  0.00     0.026 C 
HETATM   13  C1  UNL     1      37.543  -9.341  55.140  1.00  0.00     0.007 C 
ENDBRANCH  10  12
BRANCH  10  14
HETATM   14  C5  UNL     1      35.795  -9.137  57.086  1.00  0.00     0.039 C 
BRANCH  14  15
HETATM   15  C6  UNL     1      35.083  -8.986  58.356  1.00  0.00    -0.049 C 
HETATM   16  C7  UNL     1      34.665  -7.631  58.795  1.00  0.00     0.014 C 
HETATM   17  C8  UNL     1      36.061  -9.479  59.446  1.00  0.00     0.014 C 
HETATM   18  C9  UNL     1      33.875  -9.901  58.502  1.00  0.00     0.014 C 
ENDBRANCH  14  15
ENDBRANCH  10  14
ENDBRANCH   8  10
ENDBRANCH   1   8
BRANCH   7  19
HETATM   19  C14 UNL     1      37.585  -5.650  54.850  1.00  0.00     0.480 C 
HETATM   20  F1  UNL     1      38.352  -5.545  53.719  1.00  0.00    -0.190 F 
HETATM   21  F2  UNL     1      37.964  -4.642  55.725  1.00  0.00    -0.190 F 
ENDBRANCH   7  19
BRANCH   4  22
HETATM   22  O1  UNL     1      33.497  -3.969  52.811  1.00  0.00    -0.344 OA
ATOM     23  H1  UNL     1      32.896  -3.302  53.120  1.00  0.00     0.219 HD
ENDBRANCH   4  22
TORSDOF 7
ENDMDL
