MODEL 1
REMARK VINA RESULT: -7.066154492      0.000      0.000
REMARK  5 active torsions:
REMARK  status: ('A' for Active; 'I' for Inactive)
REMARK    1  A    between atoms: N1_1  and  C1_4 
REMARK    2  A    between atoms: N3_15  and  C8_16 
REMARK    3  A    between atoms: C8_16  and  C9_17 
REMARK    4  A    between atoms: C9_17  and  C10_18 
REMARK    5  A    between atoms: C10_18  and  C11_19 
ROOT
HETATM    1  C1  UNL     1      34.538  -5.218  55.702  1.00  0.00     0.679 A 
HETATM    2  N2  UNL     1      33.516  -4.601  55.082  1.00  0.00    -0.190 N 
ATOM      3  H2  UNL     1      32.556  -4.574  55.424  1.00  0.00     0.184 HD
HETATM    4  C2  UNL     1      33.951  -4.019  53.935  1.00  0.00     0.079 A 
HETATM    5  C3  UNL     1      33.292  -3.281  52.966  1.00  0.00     0.076 A 
HETATM    6  C4  UNL     1      33.999  -2.803  51.881  1.00  0.00     0.140 A 
HETATM    7  F1  UNL     1      33.354  -2.070  50.918  1.00  0.00    -0.204 F 
HETATM    8  C5  UNL     1      35.347  -3.080  51.803  1.00  0.00     0.074 A 
HETATM    9 CL1  UNL     1      36.250  -2.476  50.429  1.00  0.00    -0.081 Cl
HETATM   10  C6  UNL     1      36.017  -3.815  52.759  1.00  0.00     0.059 A 
HETATM   11  C7  UNL     1      35.301  -4.299  53.857  1.00  0.00     0.080 A 
HETATM   12  N3  UNL     1      35.623  -5.024  54.940  1.00  0.00    -0.181 N 
ENDROOT
BRANCH  12  13
HETATM   13  C8  UNL     1      36.964  -5.501  55.196  1.00  0.00     0.148 C 
BRANCH  13  14
HETATM   14  C9  UNL     1      37.242  -6.808  54.490  1.00  0.00     0.021 C 
BRANCH  14  15
HETATM   15  C10 UNL     1      36.877  -7.998  55.297  1.00  0.00     0.006 C 
BRANCH  15  16
HETATM   16  C11 UNL     1      35.918  -8.940  54.638  1.00  0.00    -0.014 C 
HETATM   17  C12 UNL     1      36.730  -9.950  53.839  1.00  0.00     0.004 C 
HETATM   18  C13 UNL     1      35.930 -10.272  52.618  1.00  0.00     0.000 C 
HETATM   19  C14 UNL     1      34.653  -9.512  52.747  1.00  0.00     0.000 C 
HETATM   20  C15 UNL     1      35.019  -8.314  53.635  1.00  0.00     0.004 C 
ENDBRANCH  15  16
ENDBRANCH  14  15
ENDBRANCH  13  14
ENDBRANCH  12  13
BRANCH   1  21
HETATM   21  N1  UNL     1      34.456  -5.875  56.832  1.00  0.00    -0.234 N 
ATOM     22  H12 UNL     1      34.739  -5.563  57.761  1.00  0.00     0.174 HD
ATOM     23  H11 UNL     1      34.087  -6.820  56.941  1.00  0.00     0.174 HD
ENDBRANCH   1  21
TORSDOF 5
ENDMDL
MODEL 2
REMARK VINA RESULT: -7.056739707      0.811      1.242
REMARK  5 active torsions:
REMARK  status: ('A' for Active; 'I' for Inactive)
REMARK    1  A    between atoms: N1_1  and  C1_4 
REMARK    2  A    between atoms: N3_15  and  C8_16 
REMARK    3  A    between atoms: C8_16  and  C9_17 
REMARK    4  A    between atoms: C9_17  and  C10_18 
REMARK    5  A    between atoms: C10_18  and  C11_19 
ROOT
HETATM    1  C1  UNL     1      34.542  -5.158  55.696  1.00  0.00     0.679 A 
HETATM    2  N2  UNL     1      33.523  -4.536  55.076  1.00  0.00    -0.190 N 
ATOM      3  H2  UNL     1      32.565  -4.495  55.425  1.00  0.00     0.184 HD
HETATM    4  C2  UNL     1      33.956  -3.971  53.920  1.00  0.00     0.079 A 
HETATM    5  C3  UNL     1      33.299  -3.236  52.948  1.00  0.00     0.076 A 
HETATM    6  C4  UNL     1      34.004  -2.777  51.854  1.00  0.00     0.140 A 
HETATM    7  F1  UNL     1      33.360  -2.047  50.887  1.00  0.00    -0.204 F 
HETATM    8  C5  UNL     1      35.347  -3.070  51.769  1.00  0.00     0.074 A 
HETATM    9 CL1  UNL     1      36.248  -2.489  50.383  1.00  0.00    -0.081 Cl
HETATM   10  C6  UNL     1      36.017  -3.801  52.728  1.00  0.00     0.059 A 
HETATM   11  C7  UNL     1      35.302  -4.266  53.837  1.00  0.00     0.080 A 
HETATM   12  N3  UNL     1      35.624  -4.983  54.924  1.00  0.00    -0.181 N 
ENDROOT
BRANCH  12  13
HETATM   13  C8  UNL     1      36.962  -5.472  55.177  1.00  0.00     0.148 C 
BRANCH  13  14
HETATM   14  C9  UNL     1      37.230  -6.775  54.460  1.00  0.00     0.021 C 
BRANCH  14  15
HETATM   15  C10 UNL     1      37.148  -7.960  55.350  1.00  0.00     0.006 C 
BRANCH  15  16
HETATM   16  C11 UNL     1      35.988  -8.869  55.088  1.00  0.00    -0.014 C 
HETATM   17  C12 UNL     1      35.187  -8.285  53.932  1.00  0.00     0.004 C 
HETATM   18  C13 UNL     1      33.752  -8.594  54.208  1.00  0.00     0.000 C 
HETATM   19  C14 UNL     1      33.735  -9.400  55.464  1.00  0.00     0.000 C 
HETATM   20  C15 UNL     1      35.010  -8.969  56.201  1.00  0.00     0.004 C 
ENDBRANCH  15  16
ENDBRANCH  14  15
ENDBRANCH  13  14
ENDBRANCH  12  13
BRANCH   1  21
HETATM   21  N1  UNL     1      34.461  -5.802  56.833  1.00  0.00    -0.234 N 
ATOM     22  H12 UNL     1      34.194  -6.775  56.985  1.00  0.00     0.174 HD
ATOM     23  H11 UNL     1      34.656  -5.407  57.753  1.00  0.00     0.174 HD
ENDBRANCH   1  21
TORSDOF 5
ENDMDL
MODEL 3
REMARK VINA RESULT: -6.754074237      3.637      6.225
REMARK  5 active torsions:
REMARK  status: ('A' for Active; 'I' for Inactive)
REMARK    1  A    between atoms: N1_1  and  C1_4 
REMARK    2  A    between atoms: N3_15  and  C8_16 
REMARK    3  A    between atoms: C8_16  and  C9_17 
REMARK    4  A    between atoms: C9_17  and  C10_18 
REMARK    5  A    between atoms: C10_18  and  C11_19 
ROOT
HETATM    1  C1  UNL     1      35.435  -7.940  55.284  1.00  0.00     0.679 A 
HETATM    2  N2  UNL     1      35.494  -8.176  56.607  1.00  0.00    -0.190 N 
ATOM      3  H2  UNL     1      35.944  -8.984  57.037  1.00  0.00     0.184 HD
HETATM    4  C2  UNL     1      34.867  -7.181  57.286  1.00  0.00     0.079 A 
HETATM    5  C3  UNL     1      34.662  -6.973  58.639  1.00  0.00     0.076 A 
HETATM    6  C4  UNL     1      33.975  -5.850  59.055  1.00  0.00     0.140 A 
HETATM    7  F1  UNL     1      33.770  -5.636  60.395  1.00  0.00    -0.204 F 
HETATM    8  C5  UNL     1      33.515  -4.971  58.100  1.00  0.00     0.074 A 
HETATM    9 CL1  UNL     1      32.644  -3.544  58.622  1.00  0.00    -0.081 Cl
HETATM   10  C6  UNL     1      33.710  -5.164  56.748  1.00  0.00     0.059 A 
HETATM   11  C7  UNL     1      34.406  -6.302  56.327  1.00  0.00     0.080 A 
HETATM   12  N3  UNL     1      34.766  -6.790  55.129  1.00  0.00    -0.181 N 
ENDROOT
BRANCH  12  13
HETATM   13  C8  UNL     1      34.450  -6.126  53.883  1.00  0.00     0.148 C 
BRANCH  13  14
HETATM   14  C9  UNL     1      35.204  -4.826  53.730  1.00  0.00     0.021 C 
BRANCH  14  15
HETATM   15  C10 UNL     1      34.338  -3.691  53.323  1.00  0.00     0.006 C 
BRANCH  15  16
HETATM   16  C11 UNL     1      34.984  -2.697  52.410  1.00  0.00    -0.014 C 
HETATM   17  C12 UNL     1      33.930  -2.215  51.422  1.00  0.00     0.004 C 
HETATM   18  C13 UNL     1      34.635  -1.979  50.126  1.00  0.00     0.000 C 
HETATM   19  C14 UNL     1      36.079  -2.256  50.383  1.00  0.00     0.000 C 
HETATM   20  C15 UNL     1      36.066  -3.248  51.554  1.00  0.00     0.004 C 
ENDBRANCH  15  16
ENDBRANCH  14  15
ENDBRANCH  13  14
ENDBRANCH  12  13
BRANCH   1  21
HETATM   21  N1  UNL     1      35.942  -8.707  54.352  1.00  0.00    -0.234 N 
ATOM     22  H12 UNL     1      36.551  -9.518  54.469  1.00  0.00     0.174 HD
ATOM     23  H11 UNL     1      35.795  -8.596  53.349  1.00  0.00     0.174 HD
ENDBRANCH   1  21
TORSDOF 5
ENDMDL
MODEL 4
REMARK VINA RESULT: -6.652010104      0.692      1.044
REMARK  5 active torsions:
REMARK  status: ('A' for Active; 'I' for Inactive)
REMARK    1  A    between atoms: N1_1  and  C1_4 
REMARK    2  A    between atoms: N3_15  and  C8_16 
REMARK    3  A    between atoms: C8_16  and  C9_17 
REMARK    4  A    between atoms: C9_17  and  C10_18 
REMARK    5  A    between atoms: C10_18  and  C11_19 
ROOT
HETATM    1  C1  UNL     1      34.567  -5.161  55.684  1.00  0.00     0.679 A 
HETATM    2  N2  UNL     1      33.528  -4.582  55.056  1.00  0.00    -0.190 N 
ATOM      3  H2  UNL     1      32.566  -4.581  55.395  1.00  0.00     0.184 HD
HETATM    4  C2  UNL     1      33.948  -3.999  53.903  1.00  0.00     0.079 A 
HETATM    5  C3  UNL     1      33.270  -3.292  52.925  1.00  0.00     0.076 A 
HETATM    6  C4  UNL     1      33.964  -2.804  51.838  1.00  0.00     0.140 A 
HETATM    7  F1  UNL     1      33.299  -2.101  50.865  1.00  0.00    -0.204 F 
HETATM    8  C5  UNL     1      35.320  -3.040  51.765  1.00  0.00     0.074 A 
HETATM    9 CL1  UNL     1      36.208  -2.422  50.388  1.00  0.00    -0.081 Cl
HETATM   10  C6  UNL     1      36.010  -3.743  52.731  1.00  0.00     0.059 A 
HETATM   11  C7  UNL     1      35.306  -4.238  53.832  1.00  0.00     0.080 A 
HETATM   12  N3  UNL     1      35.647  -4.942  54.923  1.00  0.00    -0.181 N 
ENDROOT
BRANCH  12  13
HETATM   13  C8  UNL     1      37.002  -5.374  55.188  1.00  0.00     0.148 C 
BRANCH  13  14
HETATM   14  C9  UNL     1      37.341  -6.649  54.450  1.00  0.00     0.021 C 
BRANCH  14  15
HETATM   15  C10 UNL     1      36.885  -7.872  55.155  1.00  0.00     0.006 C 
BRANCH  15  16
HETATM   16  C11 UNL     1      35.811  -8.644  54.454  1.00  0.00    -0.014 C 
HETATM   17  C12 UNL     1      34.857  -9.183  55.511  1.00  0.00     0.004 C 
HETATM   18  C13 UNL     1      34.388 -10.516  55.023  1.00  0.00     0.000 C 
HETATM   19  C14 UNL     1      35.009 -10.707  53.679  1.00  0.00     0.000 C 
HETATM   20  C15 UNL     1      36.283  -9.854  53.732  1.00  0.00     0.004 C 
ENDBRANCH  15  16
ENDBRANCH  14  15
ENDBRANCH  13  14
ENDBRANCH  12  13
BRANCH   1  21
HETATM   21  N1  UNL     1      34.502  -5.809  56.821  1.00  0.00    -0.234 N 
ATOM     22  H12 UNL     1      33.667  -6.095  57.333  1.00  0.00     0.174 HD
ATOM     23  H11 UNL     1      35.302  -6.124  57.369  1.00  0.00     0.174 HD
ENDBRANCH   1  21
TORSDOF 5
ENDMDL
MODEL 5
REMARK VINA RESULT: -6.648683979      3.746      6.604
REMARK  5 active torsions:
REMARK  status: ('A' for Active; 'I' for Inactive)
REMARK    1  A    between atoms: N1_1  and  C1_4 
REMARK    2  A    between atoms: N3_15  and  C8_16 
REMARK    3  A    between atoms: C8_16  and  C9_17 
REMARK    4  A    between atoms: C9_17  and  C10_18 
REMARK    5  A    between atoms: C10_18  and  C11_19 
ROOT
HETATM    1  C1  UNL     1      37.006  -5.712  54.640  1.00  0.00     0.679 A 
HETATM    2  N2  UNL     1      37.684  -6.857  54.835  1.00  0.00    -0.190 N 
ATOM      3  H2  UNL     1      38.689  -6.971  54.699  1.00  0.00     0.184 HD
HETATM    4  C2  UNL     1      36.836  -7.837  55.240  1.00  0.00     0.079 A 
HETATM    5  C3  UNL     1      37.048  -9.167  55.562  1.00  0.00     0.076 A 
HETATM    6  C4  UNL     1      35.979  -9.948  55.951  1.00  0.00     0.140 A 
HETATM    7  F1  UNL     1      36.180 -11.266  56.273  1.00  0.00    -0.204 F 
HETATM    8  C5  UNL     1      34.729  -9.370  56.004  1.00  0.00     0.074 A 
HETATM    9 CL1  UNL     1      33.368 -10.356  56.497  1.00  0.00    -0.081 Cl
HETATM   10  C6  UNL     1      34.502  -8.047  55.686  1.00  0.00     0.059 A 
HETATM   11  C7  UNL     1      35.585  -7.256  55.292  1.00  0.00     0.080 A 
HETATM   12  N3  UNL     1      35.723  -5.973  54.924  1.00  0.00    -0.181 N 
ENDROOT
BRANCH  12  13
HETATM   13  C8  UNL     1      34.611  -5.049  54.861  1.00  0.00     0.148 C 
BRANCH  13  14
HETATM   14  C9  UNL     1      34.202  -4.756  53.436  1.00  0.00     0.021 C 
BRANCH  14  15
HETATM   15  C10 UNL     1      33.728  -3.363  53.238  1.00  0.00     0.006 C 
BRANCH  15  16
HETATM   16  C11 UNL     1      34.603  -2.513  52.371  1.00  0.00    -0.014 C 
HETATM   17  C12 UNL     1      33.786  -2.082  51.161  1.00  0.00     0.004 C 
HETATM   18  C13 UNL     1      34.731  -2.029  50.005  1.00  0.00     0.000 C 
HETATM   19  C14 UNL     1      36.079  -2.359  50.554  1.00  0.00     0.000 C 
HETATM   20  C15 UNL     1      35.777  -3.215  51.792  1.00  0.00     0.004 C 
ENDBRANCH  15  16
ENDBRANCH  14  15
ENDBRANCH  13  14
ENDBRANCH  12  13
BRANCH   1  21
HETATM   21  N1  UNL     1      37.528  -4.576  54.247  1.00  0.00    -0.234 N 
ATOM     22  H12 UNL     1      38.197  -3.988  54.744  1.00  0.00     0.174 HD
ATOM     23  H11 UNL     1      37.330  -4.110  53.361  1.00  0.00     0.174 HD
ENDBRANCH   1  21
TORSDOF 5
ENDMDL
