MODEL 1
REMARK VINA RESULT: -7.559530194      0.000      0.000
REMARK  15 active torsions:
REMARK  status: ('A' for Active; 'I' for Inactive)
REMARK    1  A    between atoms: C2_2  and  S1_3 
REMARK    2  A    between atoms: S1_3  and  C3_4 
REMARK    3  A    between atoms: C3_4  and  C4_5 
REMARK    4  A    between atoms: C4_5  and  N1_7 
REMARK    5  A    between atoms: C4_5  and  C6_11 
REMARK       I    between atoms: C6_11  and  N2_13 
REMARK    6  A    between atoms: N2_13  and  C7_15 
REMARK    7  A    between atoms: C8_19  and  O2_20 
REMARK    8  A    between atoms: C9_25  and  N5_26 
REMARK    9  A    between atoms: C10_30  and  O3_31 
REMARK   10  A    between atoms: O3_31  and  C11_32 
REMARK   11  A    between atoms: C11_32  and  C12_34 
REMARK   12  A    between atoms: C12_34  and  N6_36 
REMARK   13  A    between atoms: N6_36  and  C14_38 
REMARK   14  A    between atoms: C14_38  and  N8_41 
REMARK   15  A    between atoms: N8_41  and  S2_43 
ROOT
HETATM    1  C14 UNL     1      18.536  19.882  52.617  1.00  0.00     0.297 C 
HETATM    2  C15 UNL     1      19.928  19.327  52.529  1.00  0.00     0.106 C 
HETATM    3  N7  UNL     1      20.998  18.920  52.460  1.00  0.00    -0.193 NA
ENDROOT
BRANCH   1   4
HETATM    4  N6  UNL     1      18.211  20.503  51.394  1.00  0.00    -0.377 N 
ATOM      5  H6  UNL     1      17.625  20.044  50.697  1.00  0.00     0.157 HD
BRANCH   4   6
HETATM    6  C12 UNL     1      18.741  21.797  51.186  1.00  0.00     0.175 C 
HETATM    7  C13 UNL     1      19.672  21.715  49.981  1.00  0.00     0.042 C 
BRANCH   6   8
HETATM    8  C11 UNL     1      17.749  22.886  51.012  1.00  0.00     0.281 C 
HETATM    9  O4  UNL     1      17.510  23.799  51.831  1.00  0.00    -0.263 OA
BRANCH   8  10
HETATM   10  O3  UNL     1      17.010  22.903  49.840  1.00  0.00    -0.306 OA
BRANCH  10  11
HETATM   11  C10 UNL     1      15.638  22.857  49.696  1.00  0.00     0.240 C 
HETATM   12  C7  UNL     1      14.982  21.725  50.459  1.00  0.00     0.325 C 
HETATM   13  N3  UNL     1      14.266  20.907  49.506  1.00  0.00     0.001 N 
HETATM   14  C8  UNL     1      15.128  20.387  48.445  1.00  0.00     0.526 C 
ATOM     15  H32 UNL     1      13.768  20.151  49.976  1.00  0.00     0.285 HD
ATOM     16  H31 UNL     1      13.471  21.413  49.117  1.00  0.00     0.285 HD
HETATM   17  N4  UNL     1      15.674  21.500  47.684  1.00  0.00     0.009 N 
HETATM   18  C9  UNL     1      15.176  22.769  48.261  1.00  0.00     0.418 C 
ATOM     19  H42 UNL     1      16.693  21.472  47.630  1.00  0.00     0.285 HD
ATOM     20  H41 UNL     1      15.476  21.423  46.686  1.00  0.00     0.285 HD
BRANCH  12  21
HETATM   21  N2  UNL     1      14.050  22.137  51.458  1.00  0.00    -0.329 N 
HETATM   22  C6  UNL     1      13.038  21.252  51.916  1.00  0.00     0.256 C 
HETATM   23  O1  UNL     1      12.954  20.086  51.449  1.00  0.00    -0.271 OA
ATOM     24  H2  UNL     1      14.111  23.077  51.848  1.00  0.00     0.164 HD
BRANCH  22  25
HETATM   25  C4  UNL     1      12.025  21.619  52.951  1.00  0.00     0.208 C 
HETATM   26  C5  UNL     1      11.066  20.433  53.097  1.00  0.00     0.057 C 
BRANCH  25  27
HETATM   27  C3  UNL     1      11.246  22.769  52.388  1.00  0.00     0.122 C 
BRANCH  27  28
HETATM   28  S1  UNL     1      11.425  24.311  53.277  1.00  0.00    -0.167 SA
BRANCH  28  29
HETATM   29  C2  UNL     1      11.595  25.712  52.168  1.00  0.00     0.069 C 
HETATM   30  C1  UNL     1      12.576  25.351  51.064  1.00  0.00     0.016 C 
ENDBRANCH  28  29
ENDBRANCH  27  28
ENDBRANCH  25  27
BRANCH  25  31
HETATM   31  N1  UNL     1      12.608  21.842  54.234  1.00  0.00    -0.061 N 
ATOM     32  H13 UNL     1      12.094  22.571  54.729  1.00  0.00     0.275 HD
ATOM     33  H12 UNL     1      12.424  21.045  54.844  1.00  0.00     0.275 HD
ATOM     34  H11 UNL     1      13.605  22.058  54.231  1.00  0.00     0.275 HD
ENDBRANCH  25  31
ENDBRANCH  22  25
ENDBRANCH  12  21
BRANCH  14  35
HETATM   35  O2  UNL     1      16.165  19.617  48.900  1.00  0.00    -0.349 OA
ATOM     36  H2  UNL     1      16.033  18.684  48.779  1.00  0.00     0.213 HD
ENDBRANCH  14  35
BRANCH  18  37
HETATM   37  N5  UNL     1      15.625  23.823  47.419  1.00  0.00    -0.047 N 
ATOM     38  H53 UNL     1      15.569  23.593  46.428  1.00  0.00     0.276 HD
ATOM     39  H52 UNL     1      14.989  24.621  47.406  1.00  0.00     0.276 HD
ATOM     40  H51 UNL     1      16.568  24.071  47.719  1.00  0.00     0.276 HD
ENDBRANCH  18  37
ENDBRANCH  10  11
ENDBRANCH   8  10
ENDBRANCH   6   8
ENDBRANCH   4   6
ENDBRANCH   1   4
BRANCH   1  41
HETATM   41  N8  UNL     1      18.550  20.756  53.774  1.00  0.00    -0.285 N 
ATOM     42  H8  UNL     1      19.406  21.191  54.122  1.00  0.00     0.175 HD
BRANCH  41  43
HETATM   43  S2  UNL     1      17.042  21.001  54.507  1.00  0.00     0.225 S 
HETATM   44  C16 UNL     1      16.794  20.009  55.926  1.00  0.00     0.186 C 
HETATM   45  O5  UNL     1      16.839  22.459  54.818  1.00  0.00    -0.206 OA
HETATM   46  O6  UNL     1      15.967  20.644  53.496  1.00  0.00    -0.206 OA
ENDBRANCH  41  43
ENDBRANCH   1  41
TORSDOF 15
ENDMDL
MODEL 2
REMARK VINA RESULT: -7.537529911      1.414      2.381
REMARK  15 active torsions:
REMARK  status: ('A' for Active; 'I' for Inactive)
REMARK    1  A    between atoms: C2_2  and  S1_3 
REMARK    2  A    between atoms: S1_3  and  C3_4 
REMARK    3  A    between atoms: C3_4  and  C4_5 
REMARK    4  A    between atoms: C4_5  and  N1_7 
REMARK    5  A    between atoms: C4_5  and  C6_11 
REMARK       I    between atoms: C6_11  and  N2_13 
REMARK    6  A    between atoms: N2_13  and  C7_15 
REMARK    7  A    between atoms: C8_19  and  O2_20 
REMARK    8  A    between atoms: C9_25  and  N5_26 
REMARK    9  A    between atoms: C10_30  and  O3_31 
REMARK   10  A    between atoms: O3_31  and  C11_32 
REMARK   11  A    between atoms: C11_32  and  C12_34 
REMARK   12  A    between atoms: C12_34  and  N6_36 
REMARK   13  A    between atoms: N6_36  and  C14_38 
REMARK   14  A    between atoms: C14_38  and  N8_41 
REMARK   15  A    between atoms: N8_41  and  S2_43 
ROOT
HETATM    1  C14 UNL     1      18.545  19.887  52.588  1.00  0.00     0.297 C 
HETATM    2  C15 UNL     1      19.933  19.324  52.496  1.00  0.00     0.106 C 
HETATM    3  N7  UNL     1      21.000  18.911  52.423  1.00  0.00    -0.193 NA
ENDROOT
BRANCH   1   4
HETATM    4  N6  UNL     1      18.220  20.512  51.367  1.00  0.00    -0.377 N 
ATOM      5  H6  UNL     1      17.636  20.053  50.667  1.00  0.00     0.157 HD
BRANCH   4   6
HETATM    6  C12 UNL     1      18.748  21.807  51.163  1.00  0.00     0.175 C 
HETATM    7  C13 UNL     1      19.684  21.729  49.961  1.00  0.00     0.042 C 
BRANCH   6   8
HETATM    8  C11 UNL     1      17.754  22.895  50.987  1.00  0.00     0.281 C 
HETATM    9  O4  UNL     1      17.517  23.811  51.802  1.00  0.00    -0.263 OA
BRANCH   8  10
HETATM   10  O3  UNL     1      17.011  22.905  49.817  1.00  0.00    -0.306 OA
BRANCH  10  11
HETATM   11  C10 UNL     1      15.638  22.910  49.680  1.00  0.00     0.240 C 
HETATM   12  C7  UNL     1      14.939  21.846  50.500  1.00  0.00     0.325 C 
HETATM   13  N3  UNL     1      14.185  21.012  49.591  1.00  0.00     0.001 N 
HETATM   14  C8  UNL     1      15.019  20.404  48.554  1.00  0.00     0.526 C 
ATOM     15  H32 UNL     1      13.657  20.302  50.099  1.00  0.00     0.285 HD
ATOM     16  H31 UNL     1      13.409  21.531  49.179  1.00  0.00     0.285 HD
HETATM   17  N4  UNL     1      15.608  21.455  47.737  1.00  0.00     0.009 N 
HETATM   18  C9  UNL     1      15.165  22.770  48.252  1.00  0.00     0.418 C 
ATOM     19  H42 UNL     1      16.624  21.381  47.682  1.00  0.00     0.285 HD
ATOM     20  H41 UNL     1      15.402  21.337  46.746  1.00  0.00     0.285 HD
BRANCH  12  21
HETATM   21  N2  UNL     1      14.030  22.345  51.480  1.00  0.00    -0.329 N 
HETATM   22  C6  UNL     1      13.065  21.491  52.078  1.00  0.00     0.256 C 
HETATM   23  O1  UNL     1      13.004  20.277  51.755  1.00  0.00    -0.271 OA
ATOM     24  H2  UNL     1      14.073  23.327  51.754  1.00  0.00     0.164 HD
BRANCH  22  25
HETATM   25  C4  UNL     1      12.078  21.949  53.101  1.00  0.00     0.208 C 
HETATM   26  C5  UNL     1      11.815  23.438  52.853  1.00  0.00     0.057 C 
BRANCH  25  27
HETATM   27  C3  UNL     1      12.758  21.821  54.430  1.00  0.00     0.122 C 
BRANCH  27  28
HETATM   28  S1  UNL     1      12.036  20.617  55.537  1.00  0.00    -0.167 SA
BRANCH  28  29
HETATM   29  C2  UNL     1      13.246  19.934  56.673  1.00  0.00     0.069 C 
HETATM   30  C1  UNL     1      12.522  19.130  57.741  1.00  0.00     0.016 C 
ENDBRANCH  28  29
ENDBRANCH  27  28
ENDBRANCH  25  27
BRANCH  25  31
HETATM   31  N1  UNL     1      10.821  21.281  52.988  1.00  0.00    -0.061 N 
ATOM     32  H13 UNL     1      10.673  20.678  53.797  1.00  0.00     0.275 HD
ATOM     33  H12 UNL     1      10.059  21.947  53.118  1.00  0.00     0.275 HD
ATOM     34  H11 UNL     1      10.681  20.753  52.127  1.00  0.00     0.275 HD
ENDBRANCH  25  31
ENDBRANCH  22  25
ENDBRANCH  12  21
BRANCH  14  35
HETATM   35  O2  UNL     1      16.025  19.615  49.044  1.00  0.00    -0.349 OA
ATOM     36  H2  UNL     1      16.871  20.045  49.075  1.00  0.00     0.213 HD
ENDBRANCH  14  35
BRANCH  18  37
HETATM   37  N5  UNL     1      15.654  23.762  47.358  1.00  0.00    -0.047 N 
ATOM     38  H53 UNL     1      16.238  24.460  47.818  1.00  0.00     0.276 HD
ATOM     39  H52 UNL     1      16.359  23.404  46.713  1.00  0.00     0.276 HD
ATOM     40  H51 UNL     1      14.848  24.167  46.882  1.00  0.00     0.276 HD
ENDBRANCH  18  37
ENDBRANCH  10  11
ENDBRANCH   8  10
ENDBRANCH   6   8
ENDBRANCH   4   6
ENDBRANCH   1   4
BRANCH   1  41
HETATM   41  N8  UNL     1      18.568  20.761  53.746  1.00  0.00    -0.285 N 
ATOM     42  H8  UNL     1      19.425  21.199  54.085  1.00  0.00     0.175 HD
BRANCH  41  43
HETATM   43  S2  UNL     1      17.067  20.998  54.495  1.00  0.00     0.225 S 
HETATM   44  C16 UNL     1      16.835  19.996  55.910  1.00  0.00     0.186 C 
HETATM   45  O5  UNL     1      16.865  22.454  54.819  1.00  0.00    -0.206 OA
HETATM   46  O6  UNL     1      15.982  20.647  53.493  1.00  0.00    -0.206 OA
ENDBRANCH  41  43
ENDBRANCH   1  41
TORSDOF 15
ENDMDL
MODEL 3
REMARK VINA RESULT: -7.504725312      0.973      1.224
REMARK  15 active torsions:
REMARK  status: ('A' for Active; 'I' for Inactive)
REMARK    1  A    between atoms: C2_2  and  S1_3 
REMARK    2  A    between atoms: S1_3  and  C3_4 
REMARK    3  A    between atoms: C3_4  and  C4_5 
REMARK    4  A    between atoms: C4_5  and  N1_7 
REMARK    5  A    between atoms: C4_5  and  C6_11 
REMARK       I    between atoms: C6_11  and  N2_13 
REMARK    6  A    between atoms: N2_13  and  C7_15 
REMARK    7  A    between atoms: C8_19  and  O2_20 
REMARK    8  A    between atoms: C9_25  and  N5_26 
REMARK    9  A    between atoms: C10_30  and  O3_31 
REMARK   10  A    between atoms: O3_31  and  C11_32 
REMARK   11  A    between atoms: C11_32  and  C12_34 
REMARK   12  A    between atoms: C12_34  and  N6_36 
REMARK   13  A    between atoms: N6_36  and  C14_38 
REMARK   14  A    between atoms: C14_38  and  N8_41 
REMARK   15  A    between atoms: N8_41  and  S2_43 
ROOT
HETATM    1  C14 UNL     1      18.513  19.909  52.574  1.00  0.00     0.297 C 
HETATM    2  C15 UNL     1      19.896  19.332  52.485  1.00  0.00     0.106 C 
HETATM    3  N7  UNL     1      20.959  18.909  52.415  1.00  0.00    -0.193 NA
ENDROOT
BRANCH   1   4
HETATM    4  N6  UNL     1      18.202  20.549  51.358  1.00  0.00    -0.377 N 
ATOM      5  H6  UNL     1      17.632  20.097  50.643  1.00  0.00     0.157 HD
BRANCH   4   6
HETATM    6  C12 UNL     1      18.724  21.851  51.181  1.00  0.00     0.175 C 
HETATM    7  C13 UNL     1      19.714  21.786  50.021  1.00  0.00     0.042 C 
BRANCH   6   8
HETATM    8  C11 UNL     1      17.727  22.928  50.964  1.00  0.00     0.281 C 
HETATM    9  O4  UNL     1      17.472  23.862  51.753  1.00  0.00    -0.263 OA
BRANCH   8  10
HETATM   10  O3  UNL     1      17.004  22.906  49.782  1.00  0.00    -0.306 OA
BRANCH  10  11
HETATM   11  C10 UNL     1      15.633  22.936  49.622  1.00  0.00     0.240 C 
HETATM   12  C7  UNL     1      14.897  21.919  50.469  1.00  0.00     0.325 C 
HETATM   13  N3  UNL     1      14.139  21.069  49.579  1.00  0.00     0.001 N 
HETATM   14  C8  UNL     1      14.975  20.404  48.580  1.00  0.00     0.526 C 
ATOM     15  H32 UNL     1      13.588  20.391  50.105  1.00  0.00     0.285 HD
ATOM     16  H31 UNL     1      13.382  21.589  49.135  1.00  0.00     0.285 HD
HETATM   17  N4  UNL     1      15.600  21.410  47.735  1.00  0.00     0.009 N 
HETATM   18  C9  UNL     1      15.180  22.753  48.192  1.00  0.00     0.418 C 
ATOM     19  H42 UNL     1      16.616  21.312  47.699  1.00  0.00     0.285 HD
ATOM     20  H41 UNL     1      15.408  21.259  46.745  1.00  0.00     0.285 HD
BRANCH  12  21
HETATM   21  N2  UNL     1      13.984  22.476  51.414  1.00  0.00    -0.329 N 
HETATM   22  C6  UNL     1      13.066  21.646  52.113  1.00  0.00     0.256 C 
HETATM   23  O1  UNL     1      13.051  20.404  51.911  1.00  0.00    -0.271 OA
ATOM     24  H2  UNL     1      13.990  23.480  51.590  1.00  0.00     0.164 HD
BRANCH  22  25
HETATM   25  C4  UNL     1      12.078  22.162  53.107  1.00  0.00     0.208 C 
HETATM   26  C5  UNL     1      10.704  21.600  52.724  1.00  0.00     0.057 C 
BRANCH  25  27
HETATM   27  C3  UNL     1      12.031  23.648  52.923  1.00  0.00     0.122 C 
BRANCH  27  28
HETATM   28  S1  UNL     1      10.425  24.392  53.183  1.00  0.00    -0.167 SA
BRANCH  28  29
HETATM   29  C2  UNL     1      10.218  24.976  54.867  1.00  0.00     0.069 C 
HETATM   30  C1  UNL     1       9.628  23.856  55.709  1.00  0.00     0.016 C 
ENDBRANCH  28  29
ENDBRANCH  27  28
ENDBRANCH  25  27
BRANCH  25  31
HETATM   31  N1  UNL     1      12.353  21.716  54.435  1.00  0.00    -0.061 N 
ATOM     32  H13 UNL     1      12.458  20.701  54.447  1.00  0.00     0.275 HD
ATOM     33  H12 UNL     1      13.294  21.998  54.710  1.00  0.00     0.275 HD
ATOM     34  H11 UNL     1      11.679  22.007  55.144  1.00  0.00     0.275 HD
ENDBRANCH  25  31
ENDBRANCH  22  25
ENDBRANCH  12  21
BRANCH  14  35
HETATM   35  O2  UNL     1      15.955  19.612  49.116  1.00  0.00    -0.349 OA
ATOM     36  H2  UNL     1      16.489  20.049  49.769  1.00  0.00     0.213 HD
ENDBRANCH  14  35
BRANCH  18  37
HETATM   37  N5  UNL     1      15.706  23.699  47.270  1.00  0.00    -0.047 N 
ATOM     38  H53 UNL     1      16.721  23.652  47.186  1.00  0.00     0.276 HD
ATOM     39  H52 UNL     1      15.482  23.477  46.300  1.00  0.00     0.276 HD
ATOM     40  H51 UNL     1      15.371  24.620  47.555  1.00  0.00     0.276 HD
ENDBRANCH  18  37
ENDBRANCH  10  11
ENDBRANCH   8  10
ENDBRANCH   6   8
ENDBRANCH   4   6
ENDBRANCH   1   4
BRANCH   1  41
HETATM   41  N8  UNL     1      18.538  20.770  53.742  1.00  0.00    -0.285 N 
ATOM     42  H8  UNL     1      19.398  21.190  54.095  1.00  0.00     0.175 HD
BRANCH  41  43
HETATM   43  S2  UNL     1      17.032  21.028  54.475  1.00  0.00     0.225 S 
HETATM   44  C16 UNL     1      16.779  20.040  55.897  1.00  0.00     0.186 C 
HETATM   45  O5  UNL     1      16.840  22.488  54.784  1.00  0.00    -0.206 OA
HETATM   46  O6  UNL     1      15.953  20.677  53.466  1.00  0.00    -0.206 OA
ENDBRANCH  41  43
ENDBRANCH   1  41
TORSDOF 15
ENDMDL
MODEL 4
REMARK VINA RESULT: -7.165021624      2.113      2.858
REMARK  15 active torsions:
REMARK  status: ('A' for Active; 'I' for Inactive)
REMARK    1  A    between atoms: C2_2  and  S1_3 
REMARK    2  A    between atoms: S1_3  and  C3_4 
REMARK    3  A    between atoms: C3_4  and  C4_5 
REMARK    4  A    between atoms: C4_5  and  N1_7 
REMARK    5  A    between atoms: C4_5  and  C6_11 
REMARK       I    between atoms: C6_11  and  N2_13 
REMARK    6  A    between atoms: N2_13  and  C7_15 
REMARK    7  A    between atoms: C8_19  and  O2_20 
REMARK    8  A    between atoms: C9_25  and  N5_26 
REMARK    9  A    between atoms: C10_30  and  O3_31 
REMARK   10  A    between atoms: O3_31  and  C11_32 
REMARK   11  A    between atoms: C11_32  and  C12_34 
REMARK   12  A    between atoms: C12_34  and  N6_36 
REMARK   13  A    between atoms: N6_36  and  C14_38 
REMARK   14  A    between atoms: C14_38  and  N8_41 
REMARK   15  A    between atoms: N8_41  and  S2_43 
ROOT
HETATM    1  C14 UNL     1      17.798  20.453  53.924  1.00  0.00     0.297 C 
HETATM    2  C15 UNL     1      18.154  21.911  53.887  1.00  0.00     0.106 C 
HETATM    3  N7  UNL     1      18.414  23.027  53.846  1.00  0.00    -0.193 NA
ENDROOT
BRANCH   1   4
HETATM    4  N6  UNL     1      18.137  19.866  52.688  1.00  0.00    -0.377 N 
ATOM      5  H6  UNL     1      17.518  19.206  52.219  1.00  0.00     0.157 HD
BRANCH   4   6
HETATM    6  C12 UNL     1      19.383  20.243  52.134  1.00  0.00     0.175 C 
HETATM    7  C13 UNL     1      20.318  19.046  52.273  1.00  0.00     0.042 C 
BRANCH   6   8
HETATM    8  C11 UNL     1      19.351  20.727  50.732  1.00  0.00     0.281 C 
HETATM    9  O4  UNL     1      20.328  20.795  49.957  1.00  0.00    -0.263 OA
BRANCH   8  10
HETATM   10  O3  UNL     1      18.133  21.149  50.225  1.00  0.00    -0.306 OA
BRANCH  10  11
HETATM   11  C10 UNL     1      17.428  22.293  50.542  1.00  0.00     0.240 C 
HETATM   12  C7  UNL     1      15.942  22.191  50.262  1.00  0.00     0.325 C 
HETATM   13  N3  UNL     1      15.595  23.246  49.336  1.00  0.00     0.001 N 
HETATM   14  C8  UNL     1      16.364  23.184  48.093  1.00  0.00     0.526 C 
ATOM     15  H32 UNL     1      14.593  23.249  49.146  1.00  0.00     0.285 HD
ATOM     16  H31 UNL     1      15.684  24.161  49.776  1.00  0.00     0.285 HD
HETATM   17  N4  UNL     1      17.775  23.367  48.394  1.00  0.00     0.009 N 
HETATM   18  C9  UNL     1      17.938  23.537  49.855  1.00  0.00     0.418 C 
ATOM     19  H42 UNL     1      18.353  22.612  48.024  1.00  0.00     0.285 HD
ATOM     20  H41 UNL     1      18.189  24.135  47.865  1.00  0.00     0.285 HD
BRANCH  12  21
HETATM   21  N2  UNL     1      15.105  22.333  51.408  1.00  0.00    -0.329 N 
HETATM   22  C6  UNL     1      13.716  22.045  51.334  1.00  0.00     0.256 C 
HETATM   23  O1  UNL     1      13.205  21.654  50.253  1.00  0.00    -0.271 OA
ATOM     24  H2  UNL     1      15.509  22.645  52.292  1.00  0.00     0.164 HD
BRANCH  22  25
HETATM   25  C4  UNL     1      12.781  22.181  52.491  1.00  0.00     0.208 C 
HETATM   26  C5  UNL     1      11.861  20.955  52.485  1.00  0.00     0.057 C 
BRANCH  25  27
HETATM   27  C3  UNL     1      11.936  23.387  52.211  1.00  0.00     0.122 C 
BRANCH  27  28
HETATM   28  S1  UNL     1      11.461  24.330  53.654  1.00  0.00    -0.167 SA
BRANCH  28  29
HETATM   29  C2  UNL     1      10.169  23.515  54.596  1.00  0.00     0.069 C 
HETATM   30  C1  UNL     1       9.764  24.412  55.756  1.00  0.00     0.016 C 
ENDBRANCH  28  29
ENDBRANCH  27  28
ENDBRANCH  25  27
BRANCH  25  31
HETATM   31  N1  UNL     1      13.459  22.185  53.746  1.00  0.00    -0.061 N 
ATOM     32  H13 UNL     1      14.454  22.361  53.605  1.00  0.00     0.275 HD
ATOM     33  H12 UNL     1      13.203  23.017  54.279  1.00  0.00     0.275 HD
ATOM     34  H11 UNL     1      13.330  21.350  54.318  1.00  0.00     0.275 HD
ENDBRANCH  25  31
ENDBRANCH  22  25
ENDBRANCH  12  21
BRANCH  14  35
HETATM   35  O2  UNL     1      16.211  22.011  47.403  1.00  0.00    -0.349 OA
ATOM     36  H2  UNL     1      16.585  21.256  47.842  1.00  0.00     0.213 HD
ENDBRANCH  14  35
BRANCH  18  37
HETATM   37  N5  UNL     1      19.306  23.838  50.097  1.00  0.00    -0.047 N 
ATOM     38  H53 UNL     1      19.719  23.258  50.827  1.00  0.00     0.276 HD
ATOM     39  H52 UNL     1      19.920  23.548  49.335  1.00  0.00     0.276 HD
ATOM     40  H51 UNL     1      19.367  24.836  50.300  1.00  0.00     0.276 HD
ENDBRANCH  18  37
ENDBRANCH  10  11
ENDBRANCH   8  10
ENDBRANCH   6   8
ENDBRANCH   4   6
ENDBRANCH   1   4
BRANCH   1  41
HETATM   41  N8  UNL     1      16.388  20.417  54.263  1.00  0.00    -0.285 N 
ATOM     42  H8  UNL     1      15.665  20.778  53.640  1.00  0.00     0.175 HD
BRANCH  41  43
HETATM   43  S2  UNL     1      16.030  19.732  55.771  1.00  0.00     0.225 S 
HETATM   44  C16 UNL     1      14.573  20.377  56.494  1.00  0.00     0.186 C 
HETATM   45  O5  UNL     1      15.970  18.233  55.667  1.00  0.00    -0.206 OA
HETATM   46  O6  UNL     1      17.186  20.033  56.708  1.00  0.00    -0.206 OA
ENDBRANCH  41  43
ENDBRANCH   1  41
TORSDOF 15
ENDMDL
MODEL 5
REMARK VINA RESULT: -7.062049175      2.957      6.315
REMARK  15 active torsions:
REMARK  status: ('A' for Active; 'I' for Inactive)
REMARK    1  A    between atoms: C2_2  and  S1_3 
REMARK    2  A    between atoms: S1_3  and  C3_4 
REMARK    3  A    between atoms: C3_4  and  C4_5 
REMARK    4  A    between atoms: C4_5  and  N1_7 
REMARK    5  A    between atoms: C4_5  and  C6_11 
REMARK       I    between atoms: C6_11  and  N2_13 
REMARK    6  A    between atoms: N2_13  and  C7_15 
REMARK    7  A    between atoms: C8_19  and  O2_20 
REMARK    8  A    between atoms: C9_25  and  N5_26 
REMARK    9  A    between atoms: C10_30  and  O3_31 
REMARK   10  A    between atoms: O3_31  and  C11_32 
REMARK   11  A    between atoms: C11_32  and  C12_34 
REMARK   12  A    between atoms: C12_34  and  N6_36 
REMARK   13  A    between atoms: N6_36  and  C14_38 
REMARK   14  A    between atoms: C14_38  and  N8_41 
REMARK   15  A    between atoms: N8_41  and  S2_43 
ROOT
HETATM    1  C14 UNL     1      12.574  22.186  52.268  1.00  0.00     0.297 C 
HETATM    2  C15 UNL     1      13.178  23.229  51.373  1.00  0.00     0.106 C 
HETATM    3  N7  UNL     1      13.644  24.012  50.676  1.00  0.00    -0.193 NA
ENDROOT
BRANCH   1   4
HETATM    4  N6  UNL     1      13.577  21.275  52.655  1.00  0.00    -0.377 N 
ATOM      5  H6  UNL     1      13.715  20.390  52.168  1.00  0.00     0.157 HD
BRANCH   4   6
HETATM    6  C12 UNL     1      14.381  21.655  53.754  1.00  0.00     0.175 C 
HETATM    7  C13 UNL     1      13.764  21.030  55.002  1.00  0.00     0.042 C 
BRANCH   6   8
HETATM    8  C11 UNL     1      15.822  21.317  53.653  1.00  0.00     0.281 C 
HETATM    9  O4  UNL     1      16.345  20.228  53.970  1.00  0.00    -0.263 OA
BRANCH   8  10
HETATM   10  O3  UNL     1      16.679  22.292  53.166  1.00  0.00    -0.306 OA
BRANCH  10  11
HETATM   11  C10 UNL     1      17.096  22.486  51.865  1.00  0.00     0.240 C 
HETATM   12  C7  UNL     1      16.699  21.368  50.924  1.00  0.00     0.325 C 
HETATM   13  N3  UNL     1      17.909  20.830  50.343  1.00  0.00     0.001 N 
HETATM   14  C8  UNL     1      18.856  20.350  51.349  1.00  0.00     0.526 C 
ATOM     15  H32 UNL     1      17.694  20.099  49.665  1.00  0.00     0.285 HD
ATOM     16  H31 UNL     1      18.348  21.508  49.721  1.00  0.00     0.285 HD
HETATM   17  N4  UNL     1      19.276  21.467  52.182  1.00  0.00     0.009 N 
HETATM   18  C9  UNL     1      18.586  22.694  51.725  1.00  0.00     0.418 C 
ATOM     19  H42 UNL     1      19.132  21.287  53.176  1.00  0.00     0.285 HD
ATOM     20  H41 UNL     1      20.290  21.576  52.202  1.00  0.00     0.285 HD
BRANCH  12  21
HETATM   21  N2  UNL     1      15.846  21.763  49.850  1.00  0.00    -0.329 N 
HETATM   22  C6  UNL     1      16.347  22.542  48.773  1.00  0.00     0.256 C 
HETATM   23  O1  UNL     1      17.556  22.889  48.748  1.00  0.00    -0.271 OA
ATOM     24  H2  UNL     1      14.865  21.483  49.857  1.00  0.00     0.164 HD
BRANCH  22  25
HETATM   25  C4  UNL     1      15.509  22.997  47.623  1.00  0.00     0.208 C 
HETATM   26  C5  UNL     1      14.482  21.896  47.338  1.00  0.00     0.057 C 
BRANCH  25  27
HETATM   27  C3  UNL     1      16.426  23.084  46.442  1.00  0.00     0.122 C 
BRANCH  27  28
HETATM   28  S1  UNL     1      15.868  24.163  45.129  1.00  0.00    -0.167 SA
BRANCH  28  29
HETATM   29  C2  UNL     1      16.408  23.596  43.514  1.00  0.00     0.069 C 
HETATM   30  C1  UNL     1      15.985  24.613  42.467  1.00  0.00     0.016 C 
ENDBRANCH  28  29
ENDBRANCH  27  28
ENDBRANCH  25  27
BRANCH  25  31
HETATM   31  N1  UNL     1      14.773  24.184  47.918  1.00  0.00    -0.061 N 
ATOM     32  H13 UNL     1      14.153  24.022  48.712  1.00  0.00     0.275 HD
ATOM     33  H12 UNL     1      15.394  24.890  48.315  1.00  0.00     0.275 HD
ATOM     34  H11 UNL     1      14.247  24.579  47.139  1.00  0.00     0.275 HD
ENDBRANCH  25  31
ENDBRANCH  22  25
ENDBRANCH  12  21
BRANCH  14  35
HETATM   35  O2  UNL     1      18.355  19.365  52.158  1.00  0.00    -0.349 OA
ATOM     36  H2  UNL     1      17.926  18.662  51.686  1.00  0.00     0.213 HD
ENDBRANCH  14  35
BRANCH  18  37
HETATM   37  N5  UNL     1      19.114  23.781  52.475  1.00  0.00    -0.047 N 
ATOM     38  H53 UNL     1      18.829  23.765  53.454  1.00  0.00     0.276 HD
ATOM     39  H52 UNL     1      20.120  23.709  52.628  1.00  0.00     0.276 HD
ATOM     40  H51 UNL     1      18.844  24.640  51.995  1.00  0.00     0.276 HD
ENDBRANCH  18  37
ENDBRANCH  10  11
ENDBRANCH   8  10
ENDBRANCH   6   8
ENDBRANCH   4   6
ENDBRANCH   1   4
BRANCH   1  41
HETATM   41  N8  UNL     1      11.480  21.619  51.502  1.00  0.00    -0.285 N 
ATOM     42  H8  UNL     1      10.581  22.092  51.397  1.00  0.00     0.175 HD
BRANCH  41  43
HETATM   43  S2  UNL     1      11.804  20.114  50.795  1.00  0.00     0.225 S 
HETATM   44  C16 UNL     1      10.660  19.677  49.545  1.00  0.00     0.186 C 
HETATM   45  O5  UNL     1      13.217  20.068  50.281  1.00  0.00    -0.206 OA
HETATM   46  O6  UNL     1      11.729  19.058  51.884  1.00  0.00    -0.206 OA
ENDBRANCH  41  43
ENDBRANCH   1  41
TORSDOF 15
ENDMDL
