MODEL 1
REMARK VINA RESULT: -8.634200913      0.000      0.000
REMARK  13 active torsions:
REMARK  status: ('A' for Active; 'I' for Inactive)
REMARK    1  A    between atoms: N1_1  and  C1_4 
REMARK    2  A    between atoms: C5_14  and  C6_15 
REMARK    3  A    between atoms: C6_15  and  O1_16 
REMARK    4  A    between atoms: C6_15  and  N5_18 
REMARK    5  A    between atoms: N5_18  and  C7_20 
REMARK    6  A    between atoms: C9_26  and  C10_27 
REMARK       I    between atoms: C10_27  and  N8_29 
REMARK    7  A    between atoms: N8_29  and  C11_31 
REMARK    8  A    between atoms: C11_31  and  C12_32 
REMARK    9  A    between atoms: N11_37  and  C13_38 
REMARK   10  A    between atoms: C13_38  and  C14_39 
REMARK   11  A    between atoms: C14_39  and  C15_40 
REMARK   12  A    between atoms: C15_40  and  C16_41 
REMARK   13  A    between atoms: C16_41  and  O3_42 
ROOT
HETATM    1  C7  UNL     1      13.831  21.019  55.070  1.00  0.00     0.141 A 
HETATM    2  N6  UNL     1      12.953  20.399  55.882  1.00  0.00    -0.337 N 
ATOM      3  H6  UNL     1      11.939  20.434  55.783  1.00  0.00     0.168 HD
HETATM    4  C8  UNL     1      13.603  19.735  56.833  1.00  0.00     0.182 A 
HETATM    5  N7  UNL     1      14.899  19.930  56.632  1.00  0.00    -0.345 N 
ATOM      6  H7  UNL     1      15.639  19.536  57.213  1.00  0.00     0.167 HD
HETATM    7  C9  UNL     1      15.112  20.729  55.540  1.00  0.00     0.146 A 
ENDROOT
BRANCH   1   8
HETATM    8  N5  UNL     1      13.549  21.864  53.981  1.00  0.00    -0.320 N 
ATOM      9  H5  UNL     1      14.072  22.739  53.991  1.00  0.00     0.169 HD
BRANCH   8  10
HETATM   10  C6  UNL     1      12.694  21.735  52.895  1.00  0.00     0.157 C 
BRANCH  10  11
HETATM   11  C5  UNL     1      11.488  22.436  52.528  1.00  0.00     0.081 A 
HETATM   12  C4  UNL     1      10.653  21.940  51.531  1.00  0.00     0.109 A 
HETATM   13  N4  UNL     1       9.546  22.578  51.175  1.00  0.00    -0.350 N 
HETATM   14  C3  UNL     1       9.231  23.734  51.803  1.00  0.00     0.124 A 
ATOM     15  H4  UNL     1       8.944  22.204  50.442  1.00  0.00     0.166 HD
HETATM   16  N3  UNL     1       8.086  24.367  51.426  1.00  0.00    -0.338 N 
HETATM   17  C19 UNL     1       9.998  24.300  52.804  1.00  0.00     0.102 A 
HETATM   18  C2  UNL     1       7.723  25.512  52.022  1.00  0.00     0.183 A 
ATOM     19  H3  UNL     1       7.502  23.969  50.690  1.00  0.00     0.168 HD
HETATM   20  N2  UNL     1       8.458  26.055  52.981  1.00  0.00    -0.338 N 
HETATM   21  C1  UNL     1       9.635  25.497  53.439  1.00  0.00     0.117 A 
ATOM     22  H2  UNL     1       8.140  26.927  53.402  1.00  0.00     0.168 HD
HETATM   23  C18 UNL     1      11.145  23.611  53.151  1.00  0.00     0.205 A 
HETATM   24  O5  UNL     1      11.880  24.088  54.063  1.00  0.00    -0.286 OA
BRANCH  21  25
HETATM   25  N1  UNL     1      10.267  26.021  54.329  1.00  0.00    -0.385 N 
ATOM     26  H12 UNL     1      10.534  27.005  54.345  1.00  0.00     0.157 HD
ATOM     27  H11 UNL     1      10.587  25.480  55.132  1.00  0.00     0.157 HD
ENDBRANCH  21  25
ENDBRANCH  10  11
BRANCH  10  28
HETATM   28  O1  UNL     1      13.038  20.807  52.037  1.00  0.00    -0.345 OA
ATOM     29  H1  UNL     1      13.434  20.045  52.443  1.00  0.00     0.219 HD
ENDBRANCH  10  28
ENDBRANCH   8  10
ENDBRANCH   1   8
BRANCH   7  30
HETATM   30  C10 UNL     1      16.423  21.116  55.069  1.00  0.00     0.272 C 
HETATM   31  O2  UNL     1      16.718  22.270  54.778  1.00  0.00    -0.266 OA
HETATM   32  N8  UNL     1      17.453  20.122  54.929  1.00  0.00    -0.348 N 
ATOM     33  H8  UNL     1      17.248  19.151  55.164  1.00  0.00     0.163 HD
BRANCH  32  34
HETATM   34  C11 UNL     1      18.779  20.476  54.460  1.00  0.00     0.202 C 
BRANCH  34  35
HETATM   35  C12 UNL     1      18.775  20.759  53.002  1.00  0.00     0.131 A 
HETATM   36  N9  UNL     1      18.583  19.846  52.023  1.00  0.00    -0.271 N 
HETATM   37  N10 UNL     1      18.657  20.492  50.884  1.00  0.00    -0.225 N 
ATOM     38  H9  UNL     1      18.414  18.848  52.146  1.00  0.00     0.190 HD
HETATM   39  N11 UNL     1      18.887  21.774  51.078  1.00  0.00    -0.218 N 
ATOM     40  H10 UNL     1      18.551  20.058  49.967  1.00  0.00     0.210 HD
HETATM   41  N12 UNL     1      18.959  21.941  52.387  1.00  0.00    -0.269 N 
ATOM     42  H12 UNL     1      19.128  22.829  52.859  1.00  0.00     0.190 HD
BRANCH  39  43
HETATM   43  C13 UNL     1      19.039  22.794  50.058  1.00  0.00     0.174 C 
BRANCH  43  44
HETATM   44  C14 UNL     1      17.933  23.794  50.036  1.00  0.00     0.066 C 
BRANCH  44  45
HETATM   45  C15 UNL     1      16.630  23.061  49.763  1.00  0.00     0.105 A 
HETATM   46  C17 UNL     1      16.094  23.229  48.353  1.00  0.00     0.209 A 
HETATM   47  O4  UNL     1      16.669  22.015  48.841  1.00  0.00    -0.373 OA
BRANCH  45  48
HETATM   48  C16 UNL     1      15.606  22.927  50.857  1.00  0.00     0.204 C 
BRANCH  48  49
HETATM   49  O3  UNL     1      15.896  21.862  51.711  1.00  0.00    -0.398 OA
ATOM     50  H3  UNL     1      15.403  21.916  52.521  1.00  0.00     0.209 HD
ENDBRANCH  48  49
ENDBRANCH  45  48
ENDBRANCH  44  45
ENDBRANCH  43  44
ENDBRANCH  39  43
ENDBRANCH  34  35
ENDBRANCH  32  34
ENDBRANCH   7  30
TORSDOF 13
ENDMDL
MODEL 2
REMARK VINA RESULT: -8.470878485      2.914      5.300
REMARK  13 active torsions:
REMARK  status: ('A' for Active; 'I' for Inactive)
REMARK    1  A    between atoms: N1_1  and  C1_4 
REMARK    2  A    between atoms: C5_14  and  C6_15 
REMARK    3  A    between atoms: C6_15  and  O1_16 
REMARK    4  A    between atoms: C6_15  and  N5_18 
REMARK    5  A    between atoms: N5_18  and  C7_20 
REMARK    6  A    between atoms: C9_26  and  C10_27 
REMARK       I    between atoms: C10_27  and  N8_29 
REMARK    7  A    between atoms: N8_29  and  C11_31 
REMARK    8  A    between atoms: C11_31  and  C12_32 
REMARK    9  A    between atoms: N11_37  and  C13_38 
REMARK   10  A    between atoms: C13_38  and  C14_39 
REMARK   11  A    between atoms: C14_39  and  C15_40 
REMARK   12  A    between atoms: C15_40  and  C16_41 
REMARK   13  A    between atoms: C16_41  and  O3_42 
ROOT
HETATM    1  C7  UNL     1      17.224  21.350  54.501  1.00  0.00     0.141 A 
HETATM    2  N6  UNL     1      17.576  20.359  55.342  1.00  0.00    -0.337 N 
ATOM      3  H6  UNL     1      16.947  19.902  56.003  1.00  0.00     0.168 HD
HETATM    4  C8  UNL     1      18.862  20.062  55.184  1.00  0.00     0.182 A 
HETATM    5  N7  UNL     1      19.337  20.864  54.242  1.00  0.00    -0.345 N 
ATOM      6  H7  UNL     1      20.302  20.859  53.912  1.00  0.00     0.167 HD
HETATM    7  C9  UNL     1      18.360  21.700  53.770  1.00  0.00     0.146 A 
ENDROOT
BRANCH   1   8
HETATM    8  N5  UNL     1      15.974  21.987  54.394  1.00  0.00    -0.320 N 
ATOM      9  H5  UNL     1      15.949  22.918  54.810  1.00  0.00     0.169 HD
BRANCH   8  10
HETATM   10  C6  UNL     1      14.768  21.591  53.831  1.00  0.00     0.157 C 
BRANCH  10  11
HETATM   11  C5  UNL     1      13.508  21.213  54.421  1.00  0.00     0.081 A 
HETATM   12  C4  UNL     1      12.310  21.721  53.924  1.00  0.00     0.109 A 
HETATM   13  N4  UNL     1      11.144  21.391  54.461  1.00  0.00    -0.350 N 
HETATM   14  C3  UNL     1      11.129  20.541  55.514  1.00  0.00     0.124 A 
ATOM     15  H4  UNL     1      10.274  21.772  54.089  1.00  0.00     0.166 HD
HETATM   16  N3  UNL     1       9.919  20.210  56.044  1.00  0.00    -0.338 N 
HETATM   17  C19 UNL     1      12.266  19.987  56.071  1.00  0.00     0.102 A 
HETATM   18  C2  UNL     1       9.847  19.366  57.083  1.00  0.00     0.183 A 
ATOM     19  H3  UNL     1       9.065  20.606  55.649  1.00  0.00     0.168 HD
HETATM   20  N2  UNL     1      10.937  18.835  57.617  1.00  0.00    -0.338 N 
HETATM   21  C1  UNL     1      12.211  19.101  57.158  1.00  0.00     0.117 A 
ATOM     22  H2  UNL     1      10.829  18.199  58.407  1.00  0.00     0.168 HD
HETATM   23  C18 UNL     1      13.465  20.351  55.488  1.00  0.00     0.205 A 
HETATM   24  O5  UNL     1      14.535  19.869  55.963  1.00  0.00    -0.286 OA
BRANCH  21  25
HETATM   25  N1  UNL     1      13.178  18.581  57.668  1.00  0.00    -0.385 N 
ATOM     26  H12 UNL     1      13.462  17.614  57.513  1.00  0.00     0.157 HD
ATOM     27  H11 UNL     1      13.773  19.100  58.314  1.00  0.00     0.157 HD
ENDBRANCH  21  25
ENDBRANCH  10  11
BRANCH  10  28
HETATM   28  O1  UNL     1      14.765  21.551  52.523  1.00  0.00    -0.345 OA
ATOM     29  H1  UNL     1      15.375  22.160  52.123  1.00  0.00     0.219 HD
ENDBRANCH  10  28
ENDBRANCH   8  10
ENDBRANCH   1   8
BRANCH   7  30
HETATM   30  C10 UNL     1      18.575  22.686  52.735  1.00  0.00     0.272 C 
HETATM   31  O2  UNL     1      18.905  23.844  52.969  1.00  0.00    -0.266 OA
HETATM   32  N8  UNL     1      18.406  22.321  51.354  1.00  0.00    -0.348 N 
ATOM     33  H8  UNL     1      18.135  21.366  51.118  1.00  0.00     0.163 HD
BRANCH  32  34
HETATM   34  C11 UNL     1      18.614  23.284  50.291  1.00  0.00     0.202 C 
BRANCH  34  35
HETATM   35  C12 UNL     1      17.363  23.518  49.526  1.00  0.00     0.131 A 
HETATM   36  N9  UNL     1      16.286  24.206  49.969  1.00  0.00    -0.271 N 
HETATM   37  N10 UNL     1      15.399  24.180  49.004  1.00  0.00    -0.225 N 
ATOM     38  H9  UNL     1      16.184  24.657  50.878  1.00  0.00     0.190 HD
HETATM   39  N11 UNL     1      15.848  23.513  47.961  1.00  0.00    -0.218 N 
ATOM     40  H10 UNL     1      14.481  24.621  49.053  1.00  0.00     0.210 HD
HETATM   41  N12 UNL     1      17.063  23.103  48.282  1.00  0.00    -0.269 N 
ATOM     42  H12 UNL     1      17.678  22.556  47.680  1.00  0.00     0.190 HD
BRANCH  39  43
HETATM   43  C13 UNL     1      15.144  23.268  46.716  1.00  0.00     0.174 C 
BRANCH  43  44
HETATM   44  C14 UNL     1      15.027  24.473  45.845  1.00  0.00     0.066 C 
BRANCH  44  45
HETATM   45  C15 UNL     1      16.049  24.356  44.726  1.00  0.00     0.105 A 
HETATM   46  C17 UNL     1      15.587  24.904  43.389  1.00  0.00     0.209 A 
HETATM   47  O4  UNL     1      16.565  25.545  44.211  1.00  0.00    -0.373 OA
BRANCH  45  48
HETATM   48  C16 UNL     1      16.973  23.170  44.680  1.00  0.00     0.204 C 
BRANCH  48  49
HETATM   49  O3  UNL     1      18.222  23.464  45.230  1.00  0.00    -0.398 OA
ATOM     50  H3  UNL     1      18.929  23.090  44.717  1.00  0.00     0.209 HD
ENDBRANCH  48  49
ENDBRANCH  45  48
ENDBRANCH  44  45
ENDBRANCH  43  44
ENDBRANCH  39  43
ENDBRANCH  34  35
ENDBRANCH  32  34
ENDBRANCH   7  30
TORSDOF 13
ENDMDL
MODEL 3
REMARK VINA RESULT: -8.419929544      3.073      5.672
REMARK  13 active torsions:
REMARK  status: ('A' for Active; 'I' for Inactive)
REMARK    1  A    between atoms: N1_1  and  C1_4 
REMARK    2  A    between atoms: C5_14  and  C6_15 
REMARK    3  A    between atoms: C6_15  and  O1_16 
REMARK    4  A    between atoms: C6_15  and  N5_18 
REMARK    5  A    between atoms: N5_18  and  C7_20 
REMARK    6  A    between atoms: C9_26  and  C10_27 
REMARK       I    between atoms: C10_27  and  N8_29 
REMARK    7  A    between atoms: N8_29  and  C11_31 
REMARK    8  A    between atoms: C11_31  and  C12_32 
REMARK    9  A    between atoms: N11_37  and  C13_38 
REMARK   10  A    between atoms: C13_38  and  C14_39 
REMARK   11  A    between atoms: C14_39  and  C15_40 
REMARK   12  A    between atoms: C15_40  and  C16_41 
REMARK   13  A    between atoms: C16_41  and  O3_42 
ROOT
HETATM    1  C7  UNL     1      18.413  20.758  53.605  1.00  0.00     0.141 A 
HETATM    2  N6  UNL     1      19.228  19.686  53.602  1.00  0.00    -0.337 N 
ATOM      3  H6  UNL     1      19.318  19.018  54.367  1.00  0.00     0.168 HD
HETATM    4  C8  UNL     1      19.899  19.627  52.455  1.00  0.00     0.182 A 
HETATM    5  N7  UNL     1      19.514  20.662  51.722  1.00  0.00    -0.345 N 
ATOM      6  H7  UNL     1      19.866  20.870  50.787  1.00  0.00     0.167 HD
HETATM    7  C9  UNL     1      18.582  21.415  52.385  1.00  0.00     0.146 A 
ENDROOT
BRANCH   1   8
HETATM    8  N5  UNL     1      17.580  21.205  54.647  1.00  0.00    -0.320 N 
ATOM      9  H5  UNL     1      17.710  22.188  54.886  1.00  0.00     0.169 HD
BRANCH   8  10
HETATM   10  C6  UNL     1      16.615  20.564  55.412  1.00  0.00     0.157 C 
BRANCH  10  11
HETATM   11  C5  UNL     1      15.177  20.668  55.435  1.00  0.00     0.081 A 
HETATM   12  C4  UNL     1      14.440  20.095  56.468  1.00  0.00     0.109 A 
HETATM   13  N4  UNL     1      13.116  20.173  56.498  1.00  0.00    -0.350 N 
HETATM   14  C3  UNL     1      12.479  20.826  55.499  1.00  0.00     0.124 A 
ATOM     15  H4  UNL     1      12.588  19.747  57.260  1.00  0.00     0.166 HD
HETATM   16  N3  UNL     1      11.121  20.899  55.555  1.00  0.00    -0.338 N 
HETATM   17  C19 UNL     1      13.128  21.426  54.436  1.00  0.00     0.102 A 
HETATM   18  C2  UNL     1      10.441  21.542  54.595  1.00  0.00     0.183 A 
ATOM     19  H3  UNL     1      10.619  20.465  56.330  1.00  0.00     0.168 HD
HETATM   20  N2  UNL     1      11.063  22.116  53.576  1.00  0.00    -0.338 N 
HETATM   21  C1  UNL     1      12.434  22.103  53.422  1.00  0.00     0.117 A 
ATOM     22  H2  UNL     1      10.501  22.592  52.870  1.00  0.00     0.168 HD
HETATM   23  C18 UNL     1      14.507  21.327  54.434  1.00  0.00     0.205 A 
HETATM   24  O5  UNL     1      15.147  21.861  53.482  1.00  0.00    -0.286 OA
BRANCH  21  25
HETATM   25  N1  UNL     1      12.961  22.655  52.482  1.00  0.00    -0.385 N 
ATOM     26  H12 UNL     1      12.455  23.099  51.716  1.00  0.00     0.157 HD
ATOM     27  H11 UNL     1      13.977  22.694  52.398  1.00  0.00     0.157 HD
ENDBRANCH  21  25
ENDBRANCH  10  11
BRANCH  10  28
HETATM   28  O1  UNL     1      17.089  19.705  56.279  1.00  0.00    -0.345 OA
ATOM     29  H1  UNL     1      17.704  19.086  55.901  1.00  0.00     0.219 HD
ENDBRANCH  10  28
ENDBRANCH   8  10
ENDBRANCH   1   8
BRANCH   7  30
HETATM   30  C10 UNL     1      17.973  22.606  51.839  1.00  0.00     0.272 C 
HETATM   31  O2  UNL     1      18.398  23.737  52.055  1.00  0.00    -0.266 OA
HETATM   32  N8  UNL     1      16.815  22.493  50.994  1.00  0.00    -0.348 N 
ATOM     33  H8  UNL     1      16.433  21.570  50.788  1.00  0.00     0.163 HD
BRANCH  32  34
HETATM   34  C11 UNL     1      16.180  23.667  50.429  1.00  0.00     0.202 C 
BRANCH  34  35
HETATM   35  C12 UNL     1      16.253  23.656  48.945  1.00  0.00     0.131 A 
HETATM   36  N9  UNL     1      17.372  23.452  48.214  1.00  0.00    -0.271 N 
HETATM   37  N10 UNL     1      17.017  23.523  46.954  1.00  0.00    -0.225 N 
ATOM     38  H9  UNL     1      18.310  23.278  48.573  1.00  0.00     0.190 HD
HETATM   39  N11 UNL     1      15.728  23.761  46.834  1.00  0.00    -0.218 N 
ATOM     40  H10 UNL     1      17.656  23.408  46.167  1.00  0.00     0.210 HD
HETATM   41  N12 UNL     1      15.253  23.843  48.065  1.00  0.00    -0.269 N 
ATOM     42  H12 UNL     1      14.279  24.020  48.310  1.00  0.00     0.190 HD
BRANCH  39  43
HETATM   43  C13 UNL     1      14.982  23.913  45.599  1.00  0.00     0.174 C 
BRANCH  43  44
HETATM   44  C14 UNL     1      15.423  25.070  44.767  1.00  0.00     0.066 C 
BRANCH  44  45
HETATM   45  C15 UNL     1      16.496  24.587  43.806  1.00  0.00     0.105 A 
HETATM   46  C17 UNL     1      17.467  25.663  43.353  1.00  0.00     0.209 A 
HETATM   47  O4  UNL     1      17.814  24.613  44.260  1.00  0.00    -0.373 OA
BRANCH  45  48
HETATM   48  C16 UNL     1      16.172  23.513  42.804  1.00  0.00     0.204 C 
BRANCH  48  49
HETATM   49  O3  UNL     1      16.926  22.359  43.019  1.00  0.00    -0.398 OA
ATOM     50  H3  UNL     1      17.237  21.984  42.204  1.00  0.00     0.209 HD
ENDBRANCH  48  49
ENDBRANCH  45  48
ENDBRANCH  44  45
ENDBRANCH  43  44
ENDBRANCH  39  43
ENDBRANCH  34  35
ENDBRANCH  32  34
ENDBRANCH   7  30
TORSDOF 13
ENDMDL
MODEL 4
REMARK VINA RESULT: -8.294143535      2.295      7.465
REMARK  13 active torsions:
REMARK  status: ('A' for Active; 'I' for Inactive)
REMARK    1  A    between atoms: N1_1  and  C1_4 
REMARK    2  A    between atoms: C5_14  and  C6_15 
REMARK    3  A    between atoms: C6_15  and  O1_16 
REMARK    4  A    between atoms: C6_15  and  N5_18 
REMARK    5  A    between atoms: N5_18  and  C7_20 
REMARK    6  A    between atoms: C9_26  and  C10_27 
REMARK       I    between atoms: C10_27  and  N8_29 
REMARK    7  A    between atoms: N8_29  and  C11_31 
REMARK    8  A    between atoms: C11_31  and  C12_32 
REMARK    9  A    between atoms: N11_37  and  C13_38 
REMARK   10  A    between atoms: C13_38  and  C14_39 
REMARK   11  A    between atoms: C14_39  and  C15_40 
REMARK   12  A    between atoms: C15_40  and  C16_41 
REMARK   13  A    between atoms: C16_41  and  O3_42 
ROOT
HETATM    1  C7  UNL     1      13.110  19.659  56.670  1.00  0.00     0.141 A 
HETATM    2  N6  UNL     1      13.461  18.851  57.689  1.00  0.00    -0.337 N 
ATOM      3  H6  UNL     1      14.420  18.624  57.952  1.00  0.00     0.168 HD
HETATM    4  C8  UNL     1      12.374  18.394  58.303  1.00  0.00     0.182 A 
HETATM    5  N7  UNL     1      11.324  18.907  57.677  1.00  0.00    -0.345 N 
ATOM      6  H7  UNL     1      10.354  18.727  57.935  1.00  0.00     0.167 HD
HETATM    7  C9  UNL     1      11.716  19.711  56.639  1.00  0.00     0.146 A 
ENDROOT
BRANCH   1   8
HETATM    8  N5  UNL     1      13.956  20.296  55.744  1.00  0.00    -0.320 N 
ATOM      9  H5  UNL     1      13.506  21.051  55.226  1.00  0.00     0.169 HD
BRANCH   8  10
HETATM   10  C6  UNL     1      15.286  20.096  55.401  1.00  0.00     0.157 C 
BRANCH  10  11
HETATM   11  C5  UNL     1      16.187  20.842  54.558  1.00  0.00     0.081 A 
HETATM   12  C4  UNL     1      17.501  21.077  54.955  1.00  0.00     0.109 A 
HETATM   13  N4  UNL     1      18.338  21.771  54.197  1.00  0.00    -0.350 N 
HETATM   14  C3  UNL     1      17.897  22.254  53.012  1.00  0.00     0.124 A 
ATOM     15  H4  UNL     1      19.298  21.938  54.501  1.00  0.00     0.166 HD
HETATM   16  N3  UNL     1      18.778  22.956  52.247  1.00  0.00    -0.338 N 
HETATM   17  C19 UNL     1      16.613  22.068  52.537  1.00  0.00     0.102 A 
HETATM   18  C2  UNL     1      18.394  23.449  51.061  1.00  0.00     0.183 A 
ATOM     19  H3  UNL     1      19.732  23.106  52.577  1.00  0.00     0.168 HD
HETATM   20  N2  UNL     1      17.163  23.272  50.606  1.00  0.00    -0.338 N 
HETATM   21  C1  UNL     1      16.193  22.577  51.298  1.00  0.00     0.117 A 
ATOM     22  H2  UNL     1      16.920  23.668  49.698  1.00  0.00     0.168 HD
HETATM   23  C18 UNL     1      15.765  21.342  53.351  1.00  0.00     0.205 A 
HETATM   24  O5  UNL     1      14.578  21.144  52.958  1.00  0.00    -0.286 OA
BRANCH  21  25
HETATM   25  N1  UNL     1      15.085  22.426  50.835  1.00  0.00    -0.385 N 
ATOM     26  H12 UNL     1      14.249  22.903  51.173  1.00  0.00     0.157 HD
ATOM     27  H11 UNL     1      14.922  21.780  50.063  1.00  0.00     0.157 HD
ENDBRANCH  21  25
ENDBRANCH  10  11
BRANCH  10  28
HETATM   28  O1  UNL     1      15.833  19.033  55.936  1.00  0.00    -0.345 OA
ATOM     29  H1  UNL     1      15.850  19.054  56.885  1.00  0.00     0.219 HD
ENDBRANCH  10  28
ENDBRANCH   8  10
ENDBRANCH   1   8
BRANCH   7  30
HETATM   30  C10 UNL     1      10.795  20.413  55.774  1.00  0.00     0.272 C 
HETATM   31  O2  UNL     1      11.121  20.884  54.689  1.00  0.00    -0.266 OA
HETATM   32  N8  UNL     1       9.424  20.578  56.174  1.00  0.00    -0.348 N 
ATOM     33  H8  UNL     1       9.113  20.198  57.068  1.00  0.00     0.163 HD
BRANCH  32  34
HETATM   34  C11 UNL     1       8.474  21.276  55.329  1.00  0.00     0.202 C 
BRANCH  34  35
HETATM   35  C12 UNL     1       8.796  22.724  55.241  1.00  0.00     0.131 A 
HETATM   36  N9  UNL     1       8.669  23.620  56.246  1.00  0.00    -0.271 N 
HETATM   37  N10 UNL     1       9.048  24.780  55.766  1.00  0.00    -0.225 N 
ATOM     38  H9  UNL     1       8.341  23.431  57.192  1.00  0.00     0.190 HD
HETATM   39  N11 UNL     1       9.413  24.678  54.505  1.00  0.00    -0.218 N 
ATOM     40  H10 UNL     1       9.059  25.649  56.300  1.00  0.00     0.210 HD
HETATM   41  N12 UNL     1       9.258  23.406  54.179  1.00  0.00    -0.269 N 
ATOM     42  H12 UNL     1       9.459  23.005  53.263  1.00  0.00     0.190 HD
BRANCH  39  43
HETATM   43  C13 UNL     1       9.881  25.749  53.645  1.00  0.00     0.174 C 
BRANCH  43  44
HETATM   44  C14 UNL     1      10.114  25.330  52.233  1.00  0.00     0.066 C 
BRANCH  44  45
HETATM   45  C15 UNL     1      11.591  25.015  52.064  1.00  0.00     0.105 A 
HETATM   46  C17 UNL     1      12.263  25.741  50.913  1.00  0.00     0.209 A 
HETATM   47  O4  UNL     1      12.492  26.055  52.288  1.00  0.00    -0.373 OA
BRANCH  45  48
HETATM   48  C16 UNL     1      12.099  23.633  52.372  1.00  0.00     0.204 C 
BRANCH  48  49
HETATM   49  O3  UNL     1      12.486  23.509  53.707  1.00  0.00    -0.398 OA
ATOM     50  H3  UNL     1      12.150  24.220  54.239  1.00  0.00     0.209 HD
ENDBRANCH  48  49
ENDBRANCH  45  48
ENDBRANCH  44  45
ENDBRANCH  43  44
ENDBRANCH  39  43
ENDBRANCH  34  35
ENDBRANCH  32  34
ENDBRANCH   7  30
TORSDOF 13
ENDMDL
MODEL 5
REMARK VINA RESULT: -8.276449963      2.453      5.484
REMARK  13 active torsions:
REMARK  status: ('A' for Active; 'I' for Inactive)
REMARK    1  A    between atoms: N1_1  and  C1_4 
REMARK    2  A    between atoms: C5_14  and  C6_15 
REMARK    3  A    between atoms: C6_15  and  O1_16 
REMARK    4  A    between atoms: C6_15  and  N5_18 
REMARK    5  A    between atoms: N5_18  and  C7_20 
REMARK    6  A    between atoms: C9_26  and  C10_27 
REMARK       I    between atoms: C10_27  and  N8_29 
REMARK    7  A    between atoms: N8_29  and  C11_31 
REMARK    8  A    between atoms: C11_31  and  C12_32 
REMARK    9  A    between atoms: N11_37  and  C13_38 
REMARK   10  A    between atoms: C13_38  and  C14_39 
REMARK   11  A    between atoms: C14_39  and  C15_40 
REMARK   12  A    between atoms: C15_40  and  C16_41 
REMARK   13  A    between atoms: C16_41  and  O3_42 
ROOT
HETATM    1  C7  UNL     1      15.023  23.639  47.890  1.00  0.00     0.141 A 
HETATM    2  N6  UNL     1      14.746  23.680  46.572  1.00  0.00    -0.337 N 
ATOM      3  H6  UNL     1      13.814  23.798  46.173  1.00  0.00     0.168 HD
HETATM    4  C8  UNL     1      15.865  23.546  45.867  1.00  0.00     0.182 A 
HETATM    5  N7  UNL     1      16.861  23.417  46.733  1.00  0.00    -0.345 N 
ATOM      6  H7  UNL     1      17.840  23.298  46.473  1.00  0.00     0.167 HD
HETATM    7  C9  UNL     1      16.401  23.465  48.022  1.00  0.00     0.146 A 
ENDROOT
BRANCH   1   8
HETATM    8  N5  UNL     1      14.114  23.690  48.963  1.00  0.00    -0.320 N 
ATOM      9  H5  UNL     1      13.423  22.940  48.953  1.00  0.00     0.169 HD
BRANCH   8  10
HETATM   10  C6  UNL     1      13.978  24.564  50.032  1.00  0.00     0.157 C 
BRANCH  10  11
HETATM   11  C5  UNL     1      13.079  24.576  51.160  1.00  0.00     0.081 A 
HETATM   12  C4  UNL     1      12.438  25.750  51.545  1.00  0.00     0.109 A 
HETATM   13  N4  UNL     1      11.617  25.780  52.586  1.00  0.00    -0.350 N 
HETATM   14  C3  UNL     1      11.403  24.638  53.280  1.00  0.00     0.124 A 
ATOM     15  H4  UNL     1      11.156  26.648  52.859  1.00  0.00     0.166 HD
HETATM   16  N3  UNL     1      10.550  24.691  54.339  1.00  0.00    -0.338 N 
HETATM   17  C19 UNL     1      11.993  23.427  52.968  1.00  0.00     0.102 A 
HETATM   18  C2  UNL     1      10.297  23.586  55.055  1.00  0.00     0.183 A 
ATOM     19  H3  UNL     1      10.102  25.573  54.588  1.00  0.00     0.168 HD
HETATM   20  N2  UNL     1      10.862  22.426  54.757  1.00  0.00    -0.338 N 
HETATM   21  C1  UNL     1      11.740  22.261  53.706  1.00  0.00     0.117 A 
ATOM     22  H2  UNL     1      10.638  21.615  55.333  1.00  0.00     0.168 HD
HETATM   23  C18 UNL     1      12.843  23.431  51.879  1.00  0.00     0.205 A 
HETATM   24  O5  UNL     1      13.407  22.345  51.553  1.00  0.00    -0.286 OA
BRANCH  21  25
HETATM   25  N1  UNL     1      12.222  21.177  53.461  1.00  0.00    -0.385 N 
ATOM     26  H12 UNL     1      12.691  20.586  54.147  1.00  0.00     0.157 HD
ATOM     27  H11 UNL     1      12.192  20.791  52.517  1.00  0.00     0.157 HD
ENDBRANCH  21  25
ENDBRANCH  10  11
BRANCH  10  28
HETATM   28  O1  UNL     1      14.817  25.570  50.024  1.00  0.00    -0.345 OA
ATOM     29  H1  UNL     1      15.547  25.448  49.429  1.00  0.00     0.219 HD
ENDBRANCH  10  28
ENDBRANCH   8  10
ENDBRANCH   1   8
BRANCH   7  30
HETATM   30  C10 UNL     1      17.252  23.355  49.185  1.00  0.00     0.272 C 
HETATM   31  O2  UNL     1      16.821  23.355  50.334  1.00  0.00    -0.266 OA
HETATM   32  N8  UNL     1      18.675  23.234  49.020  1.00  0.00    -0.348 N 
ATOM     33  H8  UNL     1      19.071  23.227  48.080  1.00  0.00     0.163 HD
BRANCH  32  34
HETATM   34  C11 UNL     1      19.557  23.121  50.165  1.00  0.00     0.202 C 
BRANCH  34  35
HETATM   35  C12 UNL     1      19.333  21.845  50.892  1.00  0.00     0.131 A 
HETATM   36  N9  UNL     1      19.697  20.618  50.459  1.00  0.00    -0.271 N 
HETATM   37  N10 UNL     1      19.319  19.765  51.381  1.00  0.00    -0.225 N 
ATOM     38  H9  UNL     1      20.174  20.397  49.585  1.00  0.00     0.190 HD
HETATM   39  N11 UNL     1      18.730  20.379  52.385  1.00  0.00    -0.218 N 
ATOM     40  H10 UNL     1      19.463  18.756  51.327  1.00  0.00     0.210 HD
HETATM   41  N12 UNL     1      18.738  21.666  52.085  1.00  0.00    -0.269 N 
ATOM     42  H12 UNL     1      18.353  22.409  52.668  1.00  0.00     0.190 HD
BRANCH  39  43
HETATM   43  C13 UNL     1      18.176  19.763  53.576  1.00  0.00     0.174 C 
BRANCH  43  44
HETATM   44  C14 UNL     1      17.762  20.741  54.623  1.00  0.00     0.066 C 
BRANCH  44  45
HETATM   45  C15 UNL     1      16.247  20.709  54.737  1.00  0.00     0.105 A 
HETATM   46  C17 UNL     1      15.548  21.944  54.200  1.00  0.00     0.209 A 
HETATM   47  O4  UNL     1      15.521  20.673  53.547  1.00  0.00    -0.373 OA
BRANCH  45  48
HETATM   48  C16 UNL     1      15.602  20.034  55.917  1.00  0.00     0.204 C 
BRANCH  48  49
HETATM   49  O3  UNL     1      15.732  18.646  55.854  1.00  0.00    -0.398 OA
ATOM     50  H3  UNL     1      15.947  18.352  54.978  1.00  0.00     0.209 HD
ENDBRANCH  48  49
ENDBRANCH  45  48
ENDBRANCH  44  45
ENDBRANCH  43  44
ENDBRANCH  39  43
ENDBRANCH  34  35
ENDBRANCH  32  34
ENDBRANCH   7  30
TORSDOF 13
ENDMDL
