MODEL 1
REMARK VINA RESULT: -5.229113750      0.000      0.000
REMARK  3 active torsions:
REMARK  status: ('A' for Active; 'I' for Inactive)
REMARK    1  A    between atoms: N1_2  and  N2_4 
REMARK    2  A    between atoms: N2_4  and  C3_6 
REMARK    3  A    between atoms: C4_9  and  N4_10 
ROOT
HETATM    1  C3  UNL     1      53.731 131.974 -88.151  1.00  0.00     0.166 A 
HETATM    2  N3  UNL     1      54.109 133.231 -87.817  1.00  0.00    -0.173 N 
ATOM      3  H3  UNL     1      54.406 133.870 -88.555  1.00  0.00     0.186 HD
HETATM    4  C4  UNL     1      54.105 133.664 -86.548  1.00  0.00     0.679 A 
HETATM    5  N5  UNL     1      53.726 132.878 -85.526  1.00  0.00    -0.174 N 
ATOM      6  H5  UNL     1      53.731 133.232 -84.569  1.00  0.00     0.186 HD
HETATM    7  C5  UNL     1      53.335 131.603 -85.791  1.00  0.00     0.152 A 
HETATM    8  N6  UNL     1      52.915 130.619 -84.975  1.00  0.00    -0.336 N 
ATOM      9  H6  UNL     1      52.814 130.670 -83.961  1.00  0.00     0.168 HD
HETATM   10  C6  UNL     1      52.654 129.557 -85.756  1.00  0.00     0.182 A 
HETATM   11  N7  UNL     1      52.908 129.877 -87.037  1.00  0.00    -0.346 N 
ATOM     12  H7  UNL     1      52.791 129.250 -87.832  1.00  0.00     0.167 HD
HETATM   13  C7  UNL     1      53.339 131.153 -87.114  1.00  0.00     0.124 A 
ENDROOT
BRANCH   1  14
HETATM   14  N2  UNL     1      53.714 131.509 -89.331  1.00  0.00    -0.286 N 
ATOM     15  H2  UNL     1      53.021 130.784 -89.517  1.00  0.00     0.188 HD
BRANCH  14  16
HETATM   16  N1  UNL     1      54.510 131.861 -90.381  1.00  0.00    -0.335 N 
HETATM   17  C1  UNL     1      54.908 130.880 -91.360  1.00  0.00     0.170 C 
HETATM   18  C2  UNL     1      54.970 133.218 -90.535  1.00  0.00     0.170 C 
ENDBRANCH  14  16
ENDBRANCH   1  14
BRANCH   4  19
HETATM   19  N4  UNL     1      54.476 134.881 -86.274  1.00  0.00    -0.234 N 
ATOM     20  H42 UNL     1      55.370 135.202 -86.648  1.00  0.00     0.174 HD
ATOM     21  H41 UNL     1      53.881 135.480 -85.702  1.00  0.00     0.174 HD
ENDBRANCH   4  19
TORSDOF 3
ENDMDL
MODEL 2
REMARK VINA RESULT: -4.756109980      1.860      4.887
REMARK  3 active torsions:
REMARK  status: ('A' for Active; 'I' for Inactive)
REMARK    1  A    between atoms: N1_2  and  N2_4 
REMARK    2  A    between atoms: N2_4  and  C3_6 
REMARK    3  A    between atoms: C4_9  and  N4_10 
ROOT
HETATM    1  C3  UNL     1      53.908 131.429 -89.703  1.00  0.00     0.166 A 
HETATM    2  N3  UNL     1      54.415 132.686 -89.724  1.00  0.00    -0.173 N 
ATOM      3  H3  UNL     1      54.340 133.263 -88.886  1.00  0.00     0.186 HD
HETATM    4  C4  UNL     1      55.013 133.195 -90.811  1.00  0.00     0.679 A 
HETATM    5  N5  UNL     1      55.148 132.493 -91.949  1.00  0.00    -0.174 N 
ATOM      6  H5  UNL     1      55.608 132.904 -92.761  1.00  0.00     0.186 HD
HETATM    7  C5  UNL     1      54.660 131.225 -91.996  1.00  0.00     0.152 A 
HETATM    8  N6  UNL     1      54.658 130.315 -92.988  1.00  0.00    -0.336 N 
ATOM      9  H6  UNL     1      55.046 130.433 -93.924  1.00  0.00     0.168 HD
HETATM   10  C6  UNL     1      54.047 129.220 -92.504  1.00  0.00     0.182 A 
HETATM   11  N7  UNL     1      53.676 129.448 -91.231  1.00  0.00    -0.346 N 
ATOM     12  H7  UNL     1      53.193 128.778 -90.633  1.00  0.00     0.167 HD
HETATM   13  C7  UNL     1      54.037 130.694 -90.864  1.00  0.00     0.124 A 
ENDROOT
BRANCH   1  14
HETATM   14  N2  UNL     1      53.334 130.894 -88.708  1.00  0.00    -0.286 N 
ATOM     15  H2  UNL     1      52.836 130.023 -88.893  1.00  0.00     0.188 HD
BRANCH  14  16
HETATM   16  N1  UNL     1      53.299 131.342 -87.420  1.00  0.00    -0.335 N 
HETATM   17  C1  UNL     1      53.816 130.529 -86.348  1.00  0.00     0.170 C 
HETATM   18  C2  UNL     1      52.747 132.635 -87.105  1.00  0.00     0.170 C 
ENDBRANCH  14  16
ENDBRANCH   1  14
BRANCH   4  19
HETATM   19  N4  UNL     1      55.486 134.408 -90.785  1.00  0.00    -0.234 N 
ATOM     20  H42 UNL     1      55.973 134.712 -89.942  1.00  0.00     0.174 HD
ATOM     21  H41 UNL     1      55.363 135.021 -91.592  1.00  0.00     0.174 HD
ENDBRANCH   4  19
TORSDOF 3
ENDMDL
MODEL 3
REMARK VINA RESULT: -3.910733654      9.661     10.071
REMARK  3 active torsions:
REMARK  status: ('A' for Active; 'I' for Inactive)
REMARK    1  A    between atoms: N1_2  and  N2_4 
REMARK    2  A    between atoms: N2_4  and  C3_6 
REMARK    3  A    between atoms: C4_9  and  N4_10 
ROOT
HETATM    1  C3  UNL     1      58.787 140.229 -88.302  1.00  0.00     0.166 A 
HETATM    2  N3  UNL     1      59.484 139.353 -89.065  1.00  0.00    -0.173 N 
ATOM      3  H3  UNL     1      59.306 139.321 -90.069  1.00  0.00     0.186 HD
HETATM    4  C4  UNL     1      60.401 138.526 -88.543  1.00  0.00     0.679 A 
HETATM    5  N5  UNL     1      60.687 138.513 -87.230  1.00  0.00    -0.174 N 
ATOM      6  H5  UNL     1      61.390 137.874 -86.858  1.00  0.00     0.186 HD
HETATM    7  C5  UNL     1      60.022 139.367 -86.407  1.00  0.00     0.152 A 
HETATM    8  N6  UNL     1      60.109 139.561 -85.078  1.00  0.00    -0.336 N 
ATOM      9  H6  UNL     1      60.724 139.070 -84.429  1.00  0.00     0.168 HD
HETATM   10  C6  UNL     1      59.227 140.529 -84.773  1.00  0.00     0.182 A 
HETATM   11  N7  UNL     1      58.604 140.929 -85.896  1.00  0.00    -0.346 N 
ATOM     12  H7  UNL     1      57.888 141.654 -85.942  1.00  0.00     0.167 HD
HETATM   13  C7  UNL     1      59.068 140.229 -86.952  1.00  0.00     0.124 A 
ENDROOT
BRANCH   1  14
HETATM   14  N2  UNL     1      57.910 141.034 -88.739  1.00  0.00    -0.286 N 
ATOM     15  H2  UNL     1      57.637 141.786 -88.105  1.00  0.00     0.188 HD
BRANCH  14  16
HETATM   16  N1  UNL     1      57.287 141.017 -89.952  1.00  0.00    -0.335 N 
HETATM   17  C1  UNL     1      58.057 141.033 -91.171  1.00  0.00     0.170 C 
HETATM   18  C2  UNL     1      55.849 140.984 -90.041  1.00  0.00     0.170 C 
ENDBRANCH  14  16
ENDBRANCH   1  14
BRANCH   4  19
HETATM   19  N4  UNL     1      61.047 137.700 -89.314  1.00  0.00    -0.234 N 
ATOM     20  H42 UNL     1      60.504 137.012 -89.837  1.00  0.00     0.174 HD
ATOM     21  H41 UNL     1      62.064 137.752 -89.381  1.00  0.00     0.174 HD
ENDBRANCH   4  19
TORSDOF 3
ENDMDL
MODEL 4
REMARK VINA RESULT: -3.751332577      2.143      5.831
REMARK  3 active torsions:
REMARK  status: ('A' for Active; 'I' for Inactive)
REMARK    1  A    between atoms: N1_2  and  N2_4 
REMARK    2  A    between atoms: N2_4  and  C3_6 
REMARK    3  A    between atoms: C4_9  and  N4_10 
ROOT
HETATM    1  C3  UNL     1      54.349 131.507 -90.417  1.00  0.00     0.166 A 
HETATM    2  N3  UNL     1      53.543 130.523 -90.883  1.00  0.00    -0.173 N 
ATOM      3  H3  UNL     1      52.578 130.479 -90.557  1.00  0.00     0.186 HD
HETATM    4  C4  UNL     1      53.974 129.603 -91.758  1.00  0.00     0.679 A 
HETATM    5  N5  UNL     1      55.233 129.599 -92.230  1.00  0.00    -0.174 N 
ATOM      6  H5  UNL     1      55.535 128.889 -92.897  1.00  0.00     0.186 HD
HETATM    7  C5  UNL     1      56.094 130.560 -91.802  1.00  0.00     0.152 A 
HETATM    8  N6  UNL     1      57.386 130.788 -92.106  1.00  0.00    -0.336 N 
ATOM      9  H6  UNL     1      57.967 130.245 -92.744  1.00  0.00     0.168 HD
HETATM   10  C6  UNL     1      57.760 131.871 -91.403  1.00  0.00     0.182 A 
HETATM   11  N7  UNL     1      56.716 132.308 -90.676  1.00  0.00    -0.346 N 
ATOM     12  H7  UNL     1      56.733 133.117 -90.055  1.00  0.00     0.167 HD
HETATM   13  C7  UNL     1      55.644 131.518 -90.891  1.00  0.00     0.124 A 
ENDROOT
BRANCH   1  14
HETATM   14  N2  UNL     1      53.998 132.402 -89.591  1.00  0.00    -0.286 N 
ATOM     15  H2  UNL     1      53.808 133.325 -89.983  1.00  0.00     0.188 HD
BRANCH  14  16
HETATM   16  N1  UNL     1      53.844 132.282 -88.241  1.00  0.00    -0.335 N 
HETATM   17  C1  UNL     1      54.343 133.303 -87.353  1.00  0.00     0.170 C 
HETATM   18  C2  UNL     1      53.180 131.136 -87.675  1.00  0.00     0.170 C 
ENDBRANCH  14  16
ENDBRANCH   1  14
BRANCH   4  19
HETATM   19  N4  UNL     1      53.165 128.674 -92.179  1.00  0.00    -0.234 N 
ATOM     20  H42 UNL     1      52.327 128.487 -91.627  1.00  0.00     0.174 HD
ATOM     21  H41 UNL     1      53.378 128.160 -93.034  1.00  0.00     0.174 HD
ENDBRANCH   4  19
TORSDOF 3
ENDMDL
MODEL 5
REMARK VINA RESULT: -3.590379890      9.714     10.971
REMARK  3 active torsions:
REMARK  status: ('A' for Active; 'I' for Inactive)
REMARK    1  A    between atoms: N1_2  and  N2_4 
REMARK    2  A    between atoms: N2_4  and  C3_6 
REMARK    3  A    between atoms: C4_9  and  N4_10 
ROOT
HETATM    1  C3  UNL     1      58.388 140.750 -89.867  1.00  0.00     0.166 A 
HETATM    2  N3  UNL     1      57.036 140.827 -89.822  1.00  0.00    -0.173 N 
ATOM      3  H3  UNL     1      56.580 140.988 -88.924  1.00  0.00     0.186 HD
HETATM    4  C4  UNL     1      56.278 140.701 -90.920  1.00  0.00     0.679 A 
HETATM    5  N5  UNL     1      56.809 140.488 -92.136  1.00  0.00    -0.174 N 
ATOM      6  H5  UNL     1      56.210 140.396 -92.956  1.00  0.00     0.186 HD
HETATM    7  C5  UNL     1      58.162 140.399 -92.252  1.00  0.00     0.152 A 
HETATM    8  N6  UNL     1      58.945 140.195 -93.327  1.00  0.00    -0.336 N 
ATOM      9  H6  UNL     1      58.636 140.065 -94.290  1.00  0.00     0.168 HD
HETATM   10  C6  UNL     1      60.214 140.196 -92.883  1.00  0.00     0.182 A 
HETATM   11  N7  UNL     1      60.217 140.398 -91.554  1.00  0.00    -0.346 N 
ATOM     12  H7  UNL     1      61.052 140.444 -90.970  1.00  0.00     0.167 HD
HETATM   13  C7  UNL     1      58.951 140.532 -91.107  1.00  0.00     0.124 A 
ENDROOT
BRANCH   1  14
HETATM   14  N2  UNL     1      59.156 140.862 -88.864  1.00  0.00    -0.286 N 
ATOM     15  H2  UNL     1      59.632 141.758 -88.763  1.00  0.00     0.188 HD
BRANCH  14  16
HETATM   16  N1  UNL     1      59.423 139.930 -87.905  1.00  0.00    -0.335 N 
HETATM   17  C1  UNL     1      60.275 138.803 -88.195  1.00  0.00     0.170 C 
HETATM   18  C2  UNL     1      58.860 140.050 -86.584  1.00  0.00     0.170 C 
ENDBRANCH  14  16
ENDBRANCH   1  14
BRANCH   4  19
HETATM   19  N4  UNL     1      54.982 140.782 -90.830  1.00  0.00    -0.234 N 
ATOM     20  H42 UNL     1      54.550 141.693 -90.987  1.00  0.00     0.174 HD
ATOM     21  H41 UNL     1      54.432 139.952 -90.608  1.00  0.00     0.174 HD
ENDBRANCH   4  19
TORSDOF 3
ENDMDL
