MODEL 1
REMARK VINA RESULT: -4.566610647      0.000      0.000
REMARK  2 active torsions:
REMARK  status: ('A' for Active; 'I' for Inactive)
REMARK    1  A    between atoms: C2_5  and  N3_6 
REMARK    2  A    between atoms: C4_15  and  C5_16 
ROOT
HETATM    1  C1  UNL     1      53.400 129.403 -91.725  1.00  0.00     0.179 C 
HETATM    2  N1  UNL     1      54.768 129.145 -92.062  1.00  0.00    -0.277 N 
HETATM    3  N2  UNL     1      55.160 127.871 -92.082  1.00  0.00    -0.130 N 
ATOM      4  H2  UNL     1      54.477 127.140 -91.881  1.00  0.00     0.206 HD
HETATM    5  C2  UNL     1      56.403 127.524 -92.356  1.00  0.00     0.692 A 
HETATM    6  N4  UNL     1      57.280 128.494 -92.618  1.00  0.00    -0.174 N 
ATOM      7  H4  UNL     1      58.246 128.243 -92.831  1.00  0.00     0.186 HD
HETATM    8  C3  UNL     1      56.923 129.813 -92.610  1.00  0.00     0.145 A 
HETATM    9  N5  UNL     1      57.802 130.699 -92.913  1.00  0.00    -0.383 N 
ATOM     10  H51 UNL     1      57.535 131.684 -92.907  1.00  0.00     0.157 HD
ATOM     11  H52 UNL     1      58.762 130.428 -93.126  1.00  0.00     0.157 HD
HETATM   12  C4  UNL     1      55.633 130.175 -92.325  1.00  0.00     0.123 A 
ENDROOT
BRANCH  12  13
HETATM   13  C5  UNL     1      55.235 131.562 -92.244  1.00  0.00     0.080 A 
HETATM   14  C6  UNL     1      54.732 132.346 -93.242  1.00  0.00     0.119 A 
HETATM   15  N6  UNL     1      54.459 133.659 -92.978  1.00  0.00    -0.372 N 
HETATM   16  C7  UNL     1      54.657 134.235 -91.792  1.00  0.00     0.104 A 
ATOM     17  H6  UNL     1      54.080 134.231 -93.733  1.00  0.00     0.164 HD
HETATM   18  C8  UNL     1      55.168 133.446 -90.779  1.00  0.00     0.105 A 
HETATM   19  N7  UNL     1      55.429 132.182 -91.037  1.00  0.00    -0.362 N 
ATOM     20  H7  UNL     1      55.805 131.617 -90.276  1.00  0.00     0.165 HD
ENDBRANCH  12  13
BRANCH   5  21
HETATM   21  N3  UNL     1      56.791 126.266 -92.375  1.00  0.00    -0.233 N 
ATOM     22  H32 UNL     1      56.108 125.522 -92.235  1.00  0.00     0.174 HD
ATOM     23  H31 UNL     1      57.764 126.002 -92.527  1.00  0.00     0.174 HD
ENDBRANCH   5  21
TORSDOF 2
ENDMDL
MODEL 2
REMARK VINA RESULT: -4.079102823      0.717      2.103
REMARK  2 active torsions:
REMARK  status: ('A' for Active; 'I' for Inactive)
REMARK    1  A    between atoms: C2_5  and  N3_6 
REMARK    2  A    between atoms: C4_15  and  C5_16 
ROOT
HETATM    1  C1  UNL     1      57.828 130.615 -92.954  1.00  0.00     0.179 C 
HETATM    2  N1  UNL     1      56.827 129.671 -92.556  1.00  0.00    -0.277 N 
HETATM    3  N2  UNL     1      57.155 128.379 -92.601  1.00  0.00    -0.130 N 
ATOM      4  H2  UNL     1      58.098 128.119 -92.892  1.00  0.00     0.206 HD
HETATM    5  C2  UNL     1      56.301 127.426 -92.280  1.00  0.00     0.692 A 
HETATM    6  N4  UNL     1      55.074 127.788 -91.901  1.00  0.00    -0.174 N 
ATOM      7  H4  UNL     1      54.401 127.064 -91.650  1.00  0.00     0.186 HD
HETATM    8  C3  UNL     1      54.694 129.099 -91.839  1.00  0.00     0.145 A 
HETATM    9  N5  UNL     1      53.513 129.387 -91.425  1.00  0.00    -0.383 N 
ATOM     10  H51 UNL     1      53.229 130.366 -91.379  1.00  0.00     0.157 HD
ATOM     11  H52 UNL     1      52.854 128.649 -91.176  1.00  0.00     0.157 HD
HETATM   12  C4  UNL     1      55.580 130.090 -92.173  1.00  0.00     0.123 A 
ENDROOT
BRANCH  12  13
HETATM   13  C5  UNL     1      55.192 131.482 -92.181  1.00  0.00     0.080 A 
HETATM   14  C6  UNL     1      54.700 132.205 -93.229  1.00  0.00     0.119 A 
HETATM   15  N6  UNL     1      54.435 133.534 -93.049  1.00  0.00    -0.372 N 
HETATM   16  C7  UNL     1      54.631 134.182 -91.901  1.00  0.00     0.104 A 
ATOM     17  H6  UNL     1      54.065 134.061 -93.841  1.00  0.00     0.164 HD
HETATM   18  C8  UNL     1      55.131 133.454 -90.837  1.00  0.00     0.105 A 
HETATM   19  N7  UNL     1      55.384 132.175 -91.014  1.00  0.00    -0.362 N 
ATOM     20  H7  UNL     1      55.752 131.656 -90.217  1.00  0.00     0.165 HD
ENDBRANCH  12  13
BRANCH   5  21
HETATM   21  N3  UNL     1      56.624 126.152 -92.325  1.00  0.00    -0.233 N 
ATOM     22  H32 UNL     1      56.332 125.581 -93.118  1.00  0.00     0.174 HD
ATOM     23  H31 UNL     1      57.166 125.704 -91.586  1.00  0.00     0.174 HD
ENDBRANCH   5  21
TORSDOF 2
ENDMDL
MODEL 3
REMARK VINA RESULT: -3.864382946      9.801     12.087
REMARK  2 active torsions:
REMARK  status: ('A' for Active; 'I' for Inactive)
REMARK    1  A    between atoms: C2_5  and  N3_6 
REMARK    2  A    between atoms: C4_15  and  C5_16 
ROOT
HETATM    1  C1  UNL     1      58.284 141.036 -88.137  1.00  0.00     0.179 C 
HETATM    2  N1  UNL     1      58.982 140.483 -87.014  1.00  0.00    -0.277 N 
HETATM    3  N2  UNL     1      58.579 140.862 -85.800  1.00  0.00    -0.130 N 
ATOM      4  H2  UNL     1      57.790 141.503 -85.719  1.00  0.00     0.206 HD
HETATM    5  C2  UNL     1      59.169 140.432 -84.701  1.00  0.00     0.692 A 
HETATM    6  N4  UNL     1      60.198 139.593 -84.830  1.00  0.00    -0.174 N 
ATOM      7  H4  UNL     1      60.666 139.252 -83.990  1.00  0.00     0.186 HD
HETATM    8  C3  UNL     1      60.643 139.178 -86.053  1.00  0.00     0.145 A 
HETATM    9  N5  UNL     1      61.611 138.336 -86.111  1.00  0.00    -0.383 N 
ATOM     10  H51 UNL     1      61.944 138.026 -87.024  1.00  0.00     0.157 HD
ATOM     11  H52 UNL     1      62.064 138.004 -85.260  1.00  0.00     0.157 HD
HETATM   12  C4  UNL     1      60.033 139.624 -87.196  1.00  0.00     0.123 A 
ENDROOT
BRANCH  12  13
HETATM   13  C5  UNL     1      60.519 139.257 -88.507  1.00  0.00     0.080 A 
HETATM   14  C6  UNL     1      60.429 138.040 -89.119  1.00  0.00     0.119 A 
HETATM   15  N6  UNL     1      60.997 137.877 -90.352  1.00  0.00    -0.372 N 
HETATM   16  C7  UNL     1      61.645 138.842 -91.006  1.00  0.00     0.104 A 
ATOM     17  H6  UNL     1      60.919 136.963 -90.798  1.00  0.00     0.164 HD
HETATM   18  C8  UNL     1      61.739 140.075 -90.389  1.00  0.00     0.105 A 
HETATM   19  N7  UNL     1      61.190 140.229 -89.202  1.00  0.00    -0.362 N 
ATOM     20  H7  UNL     1      61.271 141.146 -88.764  1.00  0.00     0.165 HD
ENDBRANCH  12  13
BRANCH   5  21
HETATM   21  N3  UNL     1      58.773 140.806 -83.503  1.00  0.00    -0.233 N 
ATOM     22  H32 UNL     1      59.019 141.731 -83.152  1.00  0.00     0.174 HD
ATOM     23  H31 UNL     1      58.219 140.197 -82.901  1.00  0.00     0.174 HD
ENDBRANCH   5  21
TORSDOF 2
ENDMDL
MODEL 4
REMARK VINA RESULT: -3.244247558     10.118     11.104
REMARK  2 active torsions:
REMARK  status: ('A' for Active; 'I' for Inactive)
REMARK    1  A    between atoms: C2_5  and  N3_6 
REMARK    2  A    between atoms: C4_15  and  C5_16 
ROOT
HETATM    1  C1  UNL     1      58.649 141.022 -87.693  1.00  0.00     0.179 C 
HETATM    2  N1  UNL     1      59.654 140.002 -87.659  1.00  0.00    -0.277 N 
HETATM    3  N2  UNL     1      60.070 139.597 -86.458  1.00  0.00    -0.130 N 
ATOM      4  H2  UNL     1      59.648 140.007 -85.624  1.00  0.00     0.206 HD
HETATM    5  C2  UNL     1      61.009 138.682 -86.313  1.00  0.00     0.692 A 
HETATM    6  N4  UNL     1      61.546 138.156 -87.415  1.00  0.00    -0.174 N 
ATOM      7  H4  UNL     1      62.273 137.447 -87.322  1.00  0.00     0.186 HD
HETATM    8  C3  UNL     1      61.150 138.540 -88.666  1.00  0.00     0.145 A 
HETATM    9  N5  UNL     1      61.673 137.967 -89.689  1.00  0.00    -0.383 N 
ATOM     10  H51 UNL     1      61.378 138.253 -90.622  1.00  0.00     0.157 HD
ATOM     11  H52 UNL     1      62.398 137.258 -89.575  1.00  0.00     0.157 HD
HETATM   12  C4  UNL     1      60.176 139.491 -88.819  1.00  0.00     0.123 A 
ENDROOT
BRANCH  12  13
HETATM   13  C5  UNL     1      59.779 139.967 -90.124  1.00  0.00     0.080 A 
HETATM   14  C6  UNL     1      60.547 140.621 -91.043  1.00  0.00     0.119 A 
HETATM   15  N6  UNL     1      59.972 141.036 -92.211  1.00  0.00    -0.372 N 
HETATM   16  C7  UNL     1      58.688 140.843 -92.517  1.00  0.00     0.104 A 
ATOM     17  H6  UNL     1      60.560 141.522 -92.890  1.00  0.00     0.164 HD
HETATM   18  C8  UNL     1      57.906 140.182 -91.588  1.00  0.00     0.105 A 
HETATM   19  N7  UNL     1      58.464 139.784 -90.465  1.00  0.00    -0.362 N 
ATOM     20  H7  UNL     1      57.869 139.298 -89.793  1.00  0.00     0.165 HD
ENDBRANCH  12  13
BRANCH   5  21
HETATM   21  N3  UNL     1      61.420 138.282 -85.129  1.00  0.00    -0.233 N 
ATOM     22  H32 UNL     1      61.640 137.299 -84.972  1.00  0.00     0.174 HD
ATOM     23  H31 UNL     1      61.530 138.929 -84.347  1.00  0.00     0.174 HD
ENDBRANCH   5  21
TORSDOF 2
ENDMDL
MODEL 5
REMARK VINA RESULT: -3.015272261     10.714     11.770
REMARK  2 active torsions:
REMARK  status: ('A' for Active; 'I' for Inactive)
REMARK    1  A    between atoms: C2_5  and  N3_6 
REMARK    2  A    between atoms: C4_15  and  C5_16 
ROOT
HETATM    1  C1  UNL     1      61.122 139.488 -90.907  1.00  0.00     0.179 C 
HETATM    2  N1  UNL     1      59.793 139.986 -90.708  1.00  0.00    -0.277 N 
HETATM    3  N2  UNL     1      59.080 140.269 -91.799  1.00  0.00    -0.130 N 
ATOM      4  H2  UNL     1      59.494 140.102 -92.717  1.00  0.00     0.206 HD
HETATM    5  C2  UNL     1      57.856 140.756 -91.730  1.00  0.00     0.692 A 
HETATM    6  N4  UNL     1      57.333 140.964 -90.520  1.00  0.00    -0.174 N 
ATOM      7  H4  UNL     1      56.388 141.341 -90.448  1.00  0.00     0.186 HD
HETATM    8  C3  UNL     1      58.027 140.688 -89.376  1.00  0.00     0.145 A 
HETATM    9  N5  UNL     1      57.455 140.869 -88.241  1.00  0.00    -0.383 N 
ATOM     10  H51 UNL     1      57.972 140.662 -87.386  1.00  0.00     0.157 HD
ATOM     11  H52 UNL     1      56.508 141.244 -88.189  1.00  0.00     0.157 HD
HETATM   12  C4  UNL     1      59.299 140.183 -89.446  1.00  0.00     0.123 A 
ENDROOT
BRANCH  12  13
HETATM   13  C5  UNL     1      60.085 139.940 -88.258  1.00  0.00     0.080 A 
HETATM   14  C6  UNL     1      60.237 138.762 -87.585  1.00  0.00     0.119 A 
HETATM   15  N6  UNL     1      60.991 138.745 -86.444  1.00  0.00    -0.372 N 
HETATM   16  C7  UNL     1      61.593 139.821 -85.935  1.00  0.00     0.104 A 
ATOM     17  H6  UNL     1      61.098 137.857 -85.953  1.00  0.00     0.164 HD
HETATM   18  C8  UNL     1      61.440 141.016 -86.613  1.00  0.00     0.105 A 
HETATM   19  N7  UNL     1      60.715 141.027 -87.711  1.00  0.00    -0.362 N 
ATOM     20  H7  UNL     1      60.614 141.919 -88.196  1.00  0.00     0.165 HD
ENDBRANCH  12  13
BRANCH   5  21
HETATM   21  N3  UNL     1      57.152 141.036 -92.805  1.00  0.00    -0.233 N 
ATOM     22  H32 UNL     1      56.855 140.285 -93.428  1.00  0.00     0.174 HD
ATOM     23  H31 UNL     1      56.888 141.992 -93.046  1.00  0.00     0.174 HD
ENDBRANCH   5  21
TORSDOF 2
ENDMDL
