MODEL 1
REMARK VINA RESULT: -5.195582202      0.000      0.000
REMARK  2 active torsions:
REMARK  status: ('A' for Active; 'I' for Inactive)
REMARK    1  A    between atoms: C2_2  and  N1_3 
REMARK    2  A    between atoms: N1_3  and  C3_5 
REMARK       I    between atoms: N4_11  and  C5_13 
ROOT
HETATM    1  C3  UNL     1      54.277 132.472 -89.561  1.00  0.00     0.162 A 
HETATM    2  N2  UNL     1      55.037 133.194 -90.376  1.00  0.00    -0.278 N 
ATOM      3  H2  UNL     1      55.228 134.174 -90.167  1.00  0.00     0.189 HD
HETATM    4  N3  UNL     1      55.526 132.652 -91.424  1.00  0.00    -0.277 N 
ATOM      5  H3  UNL     1      56.112 133.194 -92.059  1.00  0.00     0.189 HD
HETATM    6  C4  UNL     1      55.263 131.369 -91.678  1.00  0.00     0.169 A 
HETATM    7  N4  UNL     1      55.665 130.636 -92.690  1.00  0.00    -0.310 N 
ATOM      8  H4  UNL     1      56.260 131.025 -93.421  1.00  0.00     0.170 HD
HETATM    9  C5  UNL     1      55.246 129.294 -92.731  1.00  0.00     0.187 C 
HETATM   10  N5  UNL     1      56.055 128.408 -93.178  1.00  0.00    -0.373 N 
ATOM     11  H51 UNL     1      55.751 127.434 -93.208  1.00  0.00     0.158 HD
ATOM     12  H52 UNL     1      56.986 128.680 -93.495  1.00  0.00     0.158 HD
HETATM   13  N6  UNL     1      53.960 128.917 -92.293  1.00  0.00    -0.064 NA
HETATM   14  S1  UNL     1      54.268 130.953 -90.338  1.00  0.00    -0.015 SA
ENDROOT
BRANCH   1  15
HETATM   15  N1  UNL     1      53.658 132.715 -88.465  1.00  0.00    -0.370 N 
ATOM     16  H1  UNL     1      53.429 133.694 -88.292  1.00  0.00     0.161 HD
BRANCH  15  17
HETATM   17  C2  UNL     1      53.252 131.803 -87.467  1.00  0.00     0.117 C 
HETATM   18  C1  UNL     1      53.646 132.148 -86.071  1.00  0.00     0.026 C 
ENDBRANCH  15  17
ENDBRANCH   1  15
TORSDOF 2
ENDMDL
MODEL 2
REMARK VINA RESULT: -4.922758893      1.188      1.411
REMARK  2 active torsions:
REMARK  status: ('A' for Active; 'I' for Inactive)
REMARK    1  A    between atoms: C2_2  and  N1_3 
REMARK    2  A    between atoms: N1_3  and  C3_5 
REMARK       I    between atoms: N4_11  and  C5_13 
ROOT
HETATM    1  C3  UNL     1      53.642 131.963 -88.734  1.00  0.00     0.162 A 
HETATM    2  N2  UNL     1      54.313 133.087 -88.955  1.00  0.00    -0.278 N 
ATOM      3  H2  UNL     1      54.254 133.861 -88.292  1.00  0.00     0.189 HD
HETATM    4  N3  UNL     1      55.034 133.193 -90.005  1.00  0.00    -0.277 N 
ATOM      5  H3  UNL     1      55.556 134.050 -90.188  1.00  0.00     0.189 HD
HETATM    6  C4  UNL     1      55.097 132.170 -90.859  1.00  0.00     0.169 A 
HETATM    7  N4  UNL     1      55.772 132.080 -91.981  1.00  0.00    -0.310 N 
ATOM      8  H4  UNL     1      56.349 132.853 -92.313  1.00  0.00     0.170 HD
HETATM    9  C5  UNL     1      55.672 130.881 -92.709  1.00  0.00     0.187 C 
HETATM   10  N5  UNL     1      56.706 130.444 -93.324  1.00  0.00    -0.373 N 
ATOM     11  H51 UNL     1      56.633 129.574 -93.852  1.00  0.00     0.158 HD
ATOM     12  H52 UNL     1      57.583 130.962 -93.279  1.00  0.00     0.158 HD
HETATM   13  N6  UNL     1      54.458 130.164 -92.771  1.00  0.00    -0.064 NA
HETATM   14  S1  UNL     1      54.066 131.024 -90.093  1.00  0.00    -0.015 SA
ENDROOT
BRANCH   1  15
HETATM   15  N1  UNL     1      52.857 131.559 -87.806  1.00  0.00    -0.370 N 
ATOM     16  H1  UNL     1      51.862 131.565 -88.030  1.00  0.00     0.161 HD
BRANCH  15  17
HETATM   17  C2  UNL     1      53.192 131.105 -86.511  1.00  0.00     0.117 C 
HETATM   18  C1  UNL     1      53.753 132.131 -85.586  1.00  0.00     0.026 C 
ENDBRANCH  15  17
ENDBRANCH   1  15
TORSDOF 2
ENDMDL
MODEL 3
REMARK VINA RESULT: -4.862554805      1.042      4.994
REMARK  2 active torsions:
REMARK  status: ('A' for Active; 'I' for Inactive)
REMARK    1  A    between atoms: C2_2  and  N1_3 
REMARK    2  A    between atoms: N1_3  and  C3_5 
REMARK       I    between atoms: N4_11  and  C5_13 
ROOT
HETATM    1  C3  UNL     1      55.119 131.087 -91.934  1.00  0.00     0.162 A 
HETATM    2  N2  UNL     1      55.589 132.325 -91.842  1.00  0.00    -0.278 N 
ATOM      3  H2  UNL     1      56.161 132.715 -92.591  1.00  0.00     0.189 HD
HETATM    4  N3  UNL     1      55.321 133.024 -90.806  1.00  0.00    -0.277 N 
ATOM      5  H3  UNL     1      55.675 133.976 -90.721  1.00  0.00     0.189 HD
HETATM    6  C4  UNL     1      54.572 132.493 -89.837  1.00  0.00     0.169 A 
HETATM    7  N4  UNL     1      54.189 133.040 -88.708  1.00  0.00    -0.310 N 
ATOM      8  H4  UNL     1      54.457 133.993 -88.464  1.00  0.00     0.170 HD
HETATM    9  C5  UNL     1      53.394 132.264 -87.844  1.00  0.00     0.187 C 
HETATM   10  N5  UNL     1      52.467 132.840 -87.174  1.00  0.00    -0.373 N 
ATOM     11  H51 UNL     1      51.891 132.278 -86.547  1.00  0.00     0.158 HD
ATOM     12  H52 UNL     1      52.314 133.844 -87.272  1.00  0.00     0.158 HD
HETATM   13  N6  UNL     1      53.605 130.877 -87.708  1.00  0.00    -0.064 NA
HETATM   14  S1  UNL     1      54.257 130.925 -90.471  1.00  0.00    -0.015 SA
ENDROOT
BRANCH   1  15
HETATM   15  N1  UNL     1      55.208 130.160 -92.815  1.00  0.00    -0.370 N 
ATOM     16  H1  UNL     1      55.327 130.472 -93.779  1.00  0.00     0.161 HD
BRANCH  15  17
HETATM   17  C2  UNL     1      55.163 128.762 -92.623  1.00  0.00     0.117 C 
HETATM   18  C1  UNL     1      56.435 128.124 -92.178  1.00  0.00     0.026 C 
ENDBRANCH  15  17
ENDBRANCH   1  15
TORSDOF 2
ENDMDL
MODEL 4
REMARK VINA RESULT: -4.739470774      1.525      5.393
REMARK  2 active torsions:
REMARK  status: ('A' for Active; 'I' for Inactive)
REMARK    1  A    between atoms: C2_2  and  N1_3 
REMARK    2  A    between atoms: N1_3  and  C3_5 
REMARK       I    between atoms: N4_11  and  C5_13 
ROOT
HETATM    1  C3  UNL     1      55.261 129.991 -92.348  1.00  0.00     0.162 A 
HETATM    2  N2  UNL     1      54.118 129.449 -91.946  1.00  0.00    -0.278 N 
ATOM      3  H2  UNL     1      53.738 128.633 -92.427  1.00  0.00     0.189 HD
HETATM    4  N3  UNL     1      53.497 129.957 -90.952  1.00  0.00    -0.277 N 
ATOM      5  H3  UNL     1      52.617 129.551 -90.631  1.00  0.00     0.189 HD
HETATM    6  C4  UNL     1      54.011 131.024 -90.337  1.00  0.00     0.169 A 
HETATM    7  N4  UNL     1      53.533 131.686 -89.310  1.00  0.00    -0.310 N 
ATOM      8  H4  UNL     1      52.656 131.412 -88.866  1.00  0.00     0.170 HD
HETATM    9  C5  UNL     1      54.270 132.789 -88.843  1.00  0.00     0.187 C 
HETATM   10  N5  UNL     1      54.308 133.018 -87.584  1.00  0.00    -0.373 N 
ATOM     11  H51 UNL     1      54.844 133.818 -87.246  1.00  0.00     0.158 HD
ATOM     12  H52 UNL     1      53.810 132.406 -86.939  1.00  0.00     0.158 HD
HETATM   13  N6  UNL     1      54.960 133.636 -89.736  1.00  0.00    -0.064 NA
HETATM   14  S1  UNL     1      55.446 131.284 -91.250  1.00  0.00    -0.015 SA
ENDROOT
BRANCH   1  15
HETATM   15  N1  UNL     1      56.097 129.725 -93.283  1.00  0.00    -0.370 N 
ATOM     16  H1  UNL     1      56.059 130.335 -94.099  1.00  0.00     0.161 HD
BRANCH  15  17
HETATM   17  C2  UNL     1      57.062 128.696 -93.327  1.00  0.00     0.117 C 
HETATM   18  C1  UNL     1      56.802 127.520 -92.449  1.00  0.00     0.026 C 
ENDBRANCH  15  17
ENDBRANCH   1  15
TORSDOF 2
ENDMDL
MODEL 5
REMARK VINA RESULT: -4.720310595      1.171      1.254
REMARK  2 active torsions:
REMARK  status: ('A' for Active; 'I' for Inactive)
REMARK    1  A    between atoms: C2_2  and  N1_3 
REMARK    2  A    between atoms: N1_3  and  C3_5 
REMARK       I    between atoms: N4_11  and  C5_13 
ROOT
HETATM    1  C3  UNL     1      54.138 131.935 -89.415  1.00  0.00     0.162 A 
HETATM    2  N2  UNL     1      54.652 133.083 -89.842  1.00  0.00    -0.278 N 
ATOM      3  H2  UNL     1      54.410 133.959 -89.378  1.00  0.00     0.189 HD
HETATM    4  N3  UNL     1      55.452 133.081 -90.838  1.00  0.00    -0.277 N 
ATOM      5  H3  UNL     1      55.854 133.955 -91.177  1.00  0.00     0.189 HD
HETATM    6  C4  UNL     1      55.754 131.924 -91.430  1.00  0.00     0.169 A 
HETATM    7  N4  UNL     1      56.545 131.712 -92.456  1.00  0.00    -0.310 N 
ATOM      8  H4  UNL     1      57.030 132.481 -92.917  1.00  0.00     0.170 HD
HETATM    9  C5  UNL     1      56.701 130.385 -92.896  1.00  0.00     0.187 C 
HETATM   10  N5  UNL     1      57.847 130.008 -93.326  1.00  0.00    -0.373 N 
ATOM     11  H51 UNL     1      57.959 129.046 -93.646  1.00  0.00     0.158 HD
ATOM     12  H52 UNL     1      58.627 130.664 -93.344  1.00  0.00     0.158 HD
HETATM   13  N6  UNL     1      55.622 129.477 -92.872  1.00  0.00    -0.064 NA
HETATM   14  S1  UNL     1      54.835 130.812 -90.493  1.00  0.00    -0.015 SA
ENDROOT
BRANCH   1  15
HETATM   15  N1  UNL     1      53.333 131.612 -88.472  1.00  0.00    -0.370 N 
ATOM     16  H1  UNL     1      52.822 130.739 -88.602  1.00  0.00     0.161 HD
BRANCH  15  17
HETATM   17  C2  UNL     1      53.062 132.309 -87.274  1.00  0.00     0.117 C 
HETATM   18  C1  UNL     1      53.375 131.581 -86.011  1.00  0.00     0.026 C 
ENDBRANCH  15  17
ENDBRANCH   1  15
TORSDOF 2
ENDMDL
