MODEL 1
REMARK VINA RESULT: -6.966349233      0.000      0.000
REMARK  8 active torsions:
REMARK  status: ('A' for Active; 'I' for Inactive)
REMARK    1  A    between atoms: C2_2  and  C3_4 
REMARK    2  A    between atoms: C5_7  and  C6_8 
REMARK    3  A    between atoms: C6_8  and  O3_10 
REMARK    4  A    between atoms: O3_10  and  C7_11 
REMARK    5  A    between atoms: C7_11  and  C8_12 
REMARK    6  A    between atoms: C8_12  and  C9_13 
REMARK    7  A    between atoms: C10_15  and  O4_16 
REMARK    8  A    between atoms: O4_16  and  N1_17 
ROOT
HETATM    1  C3  UNL     1      98.380  10.059  16.809  1.00  0.00     0.100 A 
HETATM    2  C4  UNL     1      99.779   9.889  16.801  1.00  0.00     0.062 A 
HETATM    3 BR1  UNL     1     100.698   8.271  16.446  1.00  0.00    -0.047 Br
HETATM    4  C5  UNL     1     100.355  11.081  17.092  1.00  0.00     0.112 A 
HETATM    5  C10 UNL     1      99.367  12.008  17.285  1.00  0.00     0.190 A 
HETATM    6  N2  UNL     1      98.177  11.343  17.104  1.00  0.00    -0.325 N 
HETATM    7  C11 UNL     1      96.931  12.077  17.252  1.00  0.00     0.159 C 
ENDROOT
BRANCH   4   8
HETATM    8  C6  UNL     1     101.799  11.392  17.197  1.00  0.00     0.299 C 
HETATM    9  O2  UNL     1     102.318  11.720  18.288  1.00  0.00    -0.259 OA
BRANCH   8  10
HETATM   10  O3  UNL     1     102.607  11.322  16.081  1.00  0.00    -0.317 OA
BRANCH  10  11
HETATM   11  C7  UNL     1     102.162  11.387  14.748  1.00  0.00     0.181 C 
BRANCH  11  12
HETATM   12  C8  UNL     1     102.671  10.281  13.869  1.00  0.00     0.058 C 
BRANCH  12  13
HETATM   13  C9  UNL     1     101.696  10.122  12.699  1.00  0.00     0.224 C 
HETATM   14  F1  UNL     1     102.271  10.639  11.555  1.00  0.00    -0.255 F 
ENDBRANCH  12  13
ENDBRANCH  11  12
ENDBRANCH  10  11
ENDBRANCH   8  10
ENDBRANCH   4   8
BRANCH   5  15
HETATM   15  O4  UNL     1      99.579  13.343  17.600  1.00  0.00    -0.225 OA
BRANCH  15  16
HETATM   16  N1  UNL     1      99.302  14.433  16.893  1.00  0.00    -0.304 N 
ATOM     17  H12 UNL     1      99.216  14.267  15.891  1.00  0.00     0.184 HD
ATOM     18  H11 UNL     1      99.167  15.394  17.208  1.00  0.00     0.184 HD
ENDBRANCH  15  16
ENDBRANCH   5  15
BRANCH   1  19
HETATM   19  C2  UNL     1      97.424   8.990  16.535  1.00  0.00     0.173 C 
HETATM   20  C1  UNL     1      96.982   8.458  15.262  1.00  0.00     0.098 C 
HETATM   21  O1  UNL     1      96.904   8.449  17.591  1.00  0.00    -0.291 OA
ENDBRANCH   1  19
TORSDOF 8
ENDMDL
MODEL 2
REMARK VINA RESULT: -6.820547705      0.934      1.082
REMARK  8 active torsions:
REMARK  status: ('A' for Active; 'I' for Inactive)
REMARK    1  A    between atoms: C2_2  and  C3_4 
REMARK    2  A    between atoms: C5_7  and  C6_8 
REMARK    3  A    between atoms: C6_8  and  O3_10 
REMARK    4  A    between atoms: O3_10  and  C7_11 
REMARK    5  A    between atoms: C7_11  and  C8_12 
REMARK    6  A    between atoms: C8_12  and  C9_13 
REMARK    7  A    between atoms: C10_15  and  O4_16 
REMARK    8  A    between atoms: O4_16  and  N1_17 
ROOT
HETATM    1  C3  UNL     1      98.134  10.184  17.000  1.00  0.00     0.100 A 
HETATM    2  C4  UNL     1      99.517   9.980  16.821  1.00  0.00     0.062 A 
HETATM    3 BR1  UNL     1     100.398   8.303  16.806  1.00  0.00    -0.047 Br
HETATM    4  C5  UNL     1     100.110  11.189  16.662  1.00  0.00     0.112 A 
HETATM    5  C10 UNL     1      99.147  12.160  16.733  1.00  0.00     0.190 A 
HETATM    6  N2  UNL     1      97.957  11.504  16.941  1.00  0.00    -0.325 N 
HETATM    7  C11 UNL     1      96.737  12.285  17.066  1.00  0.00     0.159 C 
ENDROOT
BRANCH   4   8
HETATM    8  C6  UNL     1     101.546  11.476  16.444  1.00  0.00     0.299 C 
HETATM    9  O2  UNL     1     102.361  11.484  17.396  1.00  0.00    -0.259 OA
BRANCH   8  10
HETATM   10  O3  UNL     1     102.017  11.741  15.176  1.00  0.00    -0.317 OA
BRANCH  10  11
HETATM   11  C7  UNL     1     101.694  11.009  14.017  1.00  0.00     0.181 C 
BRANCH  11  12
HETATM   12  C8  UNL     1     102.682   9.934  13.668  1.00  0.00     0.058 C 
BRANCH  12  13
HETATM   13  C9  UNL     1     103.324  10.301  12.327  1.00  0.00     0.224 C 
HETATM   14  F1  UNL     1     102.334  10.647  11.429  1.00  0.00    -0.255 F 
ENDBRANCH  12  13
ENDBRANCH  11  12
ENDBRANCH  10  11
ENDBRANCH   8  10
ENDBRANCH   4   8
BRANCH   5  15
HETATM   15  O4  UNL     1      99.382  13.522  16.614  1.00  0.00    -0.225 OA
BRANCH  15  16
HETATM   16  N1  UNL     1      99.442  14.456  17.558  1.00  0.00    -0.304 N 
ATOM     17  H12 UNL     1     100.332  14.487  18.055  1.00  0.00     0.184 HD
ATOM     18  H11 UNL     1      98.735  15.131  17.848  1.00  0.00     0.184 HD
ENDBRANCH  15  16
ENDBRANCH   5  15
BRANCH   1  19
HETATM   19  C2  UNL     1      97.167   9.109  17.199  1.00  0.00     0.173 C 
HETATM   20  C1  UNL     1      96.401   8.771  18.381  1.00  0.00     0.098 C 
HETATM   21  O1  UNL     1      96.977   8.357  16.161  1.00  0.00    -0.291 OA
ENDBRANCH   1  19
TORSDOF 8
ENDMDL
MODEL 3
REMARK VINA RESULT: -6.789155505      1.657      1.811
REMARK  8 active torsions:
REMARK  status: ('A' for Active; 'I' for Inactive)
REMARK    1  A    between atoms: C2_2  and  C3_4 
REMARK    2  A    between atoms: C5_7  and  C6_8 
REMARK    3  A    between atoms: C6_8  and  O3_10 
REMARK    4  A    between atoms: O3_10  and  C7_11 
REMARK    5  A    between atoms: C7_11  and  C8_12 
REMARK    6  A    between atoms: C8_12  and  C9_13 
REMARK    7  A    between atoms: C10_15  and  O4_16 
REMARK    8  A    between atoms: O4_16  and  N1_17 
ROOT
HETATM    1  C3  UNL     1      97.637  10.608  17.286  1.00  0.00     0.100 A 
HETATM    2  C4  UNL     1      99.016  10.410  17.078  1.00  0.00     0.062 A 
HETATM    3 BR1  UNL     1      99.922   8.747  17.138  1.00  0.00    -0.047 Br
HETATM    4  C5  UNL     1      99.587  11.615  16.827  1.00  0.00     0.112 A 
HETATM    5  C10 UNL     1      98.613  12.576  16.868  1.00  0.00     0.190 A 
HETATM    6  N2  UNL     1      97.439  11.919  17.152  1.00  0.00    -0.325 N 
HETATM    7  C11 UNL     1      96.211  12.690  17.266  1.00  0.00     0.159 C 
ENDROOT
BRANCH   4   8
HETATM    8  C6  UNL     1     101.012  11.906  16.549  1.00  0.00     0.299 C 
HETATM    9  O2  UNL     1     101.710  12.572  17.348  1.00  0.00    -0.259 OA
BRANCH   8  10
HETATM   10  O3  UNL     1     101.601  11.443  15.392  1.00  0.00    -0.317 OA
BRANCH  10  11
HETATM   11  C7  UNL     1     101.028  11.496  14.107  1.00  0.00     0.181 C 
BRANCH  11  12
HETATM   12  C8  UNL     1     100.717  10.153  13.512  1.00  0.00     0.058 C 
BRANCH  12  13
HETATM   13  C9  UNL     1      99.193  10.005  13.453  1.00  0.00     0.224 C 
HETATM   14  F1  UNL     1      98.609  11.241  13.646  1.00  0.00    -0.255 F 
ENDBRANCH  12  13
ENDBRANCH  11  12
ENDBRANCH  10  11
ENDBRANCH   8  10
ENDBRANCH   4   8
BRANCH   5  15
HETATM   15  O4  UNL     1      98.824  13.931  16.659  1.00  0.00    -0.225 OA
BRANCH  15  16
HETATM   16  N1  UNL     1      99.365  14.838  17.467  1.00  0.00    -0.304 N 
ATOM     17  H12 UNL     1      99.992  14.446  18.169  1.00  0.00     0.184 HD
ATOM     18  H11 UNL     1      99.241  15.850  17.481  1.00  0.00     0.184 HD
ENDBRANCH  15  16
ENDBRANCH   5  15
BRANCH   1  19
HETATM   19  C2  UNL     1      96.692   9.534  17.579  1.00  0.00     0.173 C 
HETATM   20  C1  UNL     1      96.005   9.229  18.818  1.00  0.00     0.098 C 
HETATM   21  O1  UNL     1      96.441   8.750  16.579  1.00  0.00    -0.291 OA
ENDBRANCH   1  19
TORSDOF 8
ENDMDL
MODEL 4
REMARK VINA RESULT: -6.727278026      3.123      5.870
REMARK  8 active torsions:
REMARK  status: ('A' for Active; 'I' for Inactive)
REMARK    1  A    between atoms: C2_2  and  C3_4 
REMARK    2  A    between atoms: C5_7  and  C6_8 
REMARK    3  A    between atoms: C6_8  and  O3_10 
REMARK    4  A    between atoms: O3_10  and  C7_11 
REMARK    5  A    between atoms: C7_11  and  C8_12 
REMARK    6  A    between atoms: C8_12  and  C9_13 
REMARK    7  A    between atoms: C10_15  and  O4_16 
REMARK    8  A    between atoms: O4_16  and  N1_17 
ROOT
HETATM    1  C3  UNL     1      99.851  11.535  16.996  1.00  0.00     0.100 A 
HETATM    2  C4  UNL     1      99.260  10.256  16.991  1.00  0.00     0.062 A 
HETATM    3 BR1  UNL     1     100.188   8.604  17.030  1.00  0.00    -0.047 Br
HETATM    4  C5  UNL     1      97.913  10.408  16.952  1.00  0.00     0.112 A 
HETATM    5  C10 UNL     1      97.626  11.746  16.933  1.00  0.00     0.190 A 
HETATM    6  N2  UNL     1      98.836  12.398  16.960  1.00  0.00    -0.325 N 
HETATM    7  C11 UNL     1      98.851  13.852  16.943  1.00  0.00     0.159 C 
ENDROOT
BRANCH   4   8
HETATM    8  C6  UNL     1      96.879   9.349  16.933  1.00  0.00     0.299 C 
HETATM    9  O2  UNL     1      96.428   8.897  15.855  1.00  0.00    -0.259 OA
BRANCH   8  10
HETATM   10  O3  UNL     1      96.389   8.835  18.115  1.00  0.00    -0.317 OA
BRANCH  10  11
HETATM   11  C7  UNL     1      95.566   9.526  19.025  1.00  0.00     0.181 C 
BRANCH  11  12
HETATM   12  C8  UNL     1      94.115   9.149  18.958  1.00  0.00     0.058 C 
BRANCH  12  13
HETATM   13  C9  UNL     1      93.413  10.142  18.026  1.00  0.00     0.224 C 
HETATM   14  F1  UNL     1      93.480   9.673  16.729  1.00  0.00    -0.255 F 
ENDBRANCH  12  13
ENDBRANCH  11  12
ENDBRANCH  10  11
ENDBRANCH   8  10
ENDBRANCH   4   8
BRANCH   5  15
HETATM   15  O4  UNL     1      96.347  12.284  16.893  1.00  0.00    -0.225 OA
BRANCH  15  16
HETATM   16  N1  UNL     1      95.682  12.956  17.827  1.00  0.00    -0.304 N 
ATOM     17  H12 UNL     1      96.278  13.366  18.546  1.00  0.00     0.184 HD
ATOM     18  H11 UNL     1      94.679  13.115  17.923  1.00  0.00     0.184 HD
ENDBRANCH  15  16
ENDBRANCH   5  15
BRANCH   1  19
HETATM   19  C2  UNL     1     101.291  11.771  17.038  1.00  0.00     0.173 C 
HETATM   20  C1  UNL     1     102.126  12.154  18.157  1.00  0.00     0.098 C 
HETATM   21  O1  UNL     1     101.895  11.613  15.903  1.00  0.00    -0.291 OA
ENDBRANCH   1  19
TORSDOF 8
ENDMDL
MODEL 5
REMARK VINA RESULT: -6.576109488      1.856      2.089
REMARK  8 active torsions:
REMARK  status: ('A' for Active; 'I' for Inactive)
REMARK    1  A    between atoms: C2_2  and  C3_4 
REMARK    2  A    between atoms: C5_7  and  C6_8 
REMARK    3  A    between atoms: C6_8  and  O3_10 
REMARK    4  A    between atoms: O3_10  and  C7_11 
REMARK    5  A    between atoms: C7_11  and  C8_12 
REMARK    6  A    between atoms: C8_12  and  C9_13 
REMARK    7  A    between atoms: C10_15  and  O4_16 
REMARK    8  A    between atoms: O4_16  and  N1_17 
ROOT
HETATM    1  C3  UNL     1      96.675  10.484  17.488  1.00  0.00     0.100 A 
HETATM    2  C4  UNL     1      97.884   9.788  17.297  1.00  0.00     0.062 A 
HETATM    3 BR1  UNL     1      98.128   7.917  17.474  1.00  0.00    -0.047 Br
HETATM    4  C5  UNL     1      98.846  10.685  16.963  1.00  0.00     0.112 A 
HETATM    5  C10 UNL     1      98.286  11.933  16.935  1.00  0.00     0.190 A 
HETATM    6  N2  UNL     1      96.961  11.766  17.262  1.00  0.00    -0.325 N 
HETATM    7  C11 UNL     1      96.098  12.936  17.321  1.00  0.00     0.159 C 
ENDROOT
BRANCH   4   8
HETATM    8  C6  UNL     1     100.272  10.421  16.667  1.00  0.00     0.299 C 
HETATM    9  O2  UNL     1     101.151  10.518  17.554  1.00  0.00    -0.259 OA
BRANCH   8  10
HETATM   10  O3  UNL     1     100.661  10.058  15.395  1.00  0.00    -0.317 OA
BRANCH  10  11
HETATM   11  C7  UNL     1     101.956   9.651  15.024  1.00  0.00     0.181 C 
BRANCH  11  12
HETATM   12  C8  UNL     1     102.731  10.679  14.250  1.00  0.00     0.058 C 
BRANCH  12  13
HETATM   13  C9  UNL     1     103.051  10.089  12.873  1.00  0.00     0.224 C 
HETATM   14  F1  UNL     1     103.340   8.746  13.009  1.00  0.00    -0.255 F 
ENDBRANCH  12  13
ENDBRANCH  11  12
ENDBRANCH  10  11
ENDBRANCH   8  10
ENDBRANCH   4   8
BRANCH   5  15
HETATM   15  O4  UNL     1      98.968  13.103  16.632  1.00  0.00    -0.225 OA
BRANCH  15  16
HETATM   16  N1  UNL     1      99.662  13.909  17.429  1.00  0.00    -0.304 N 
ATOM     17  H12 UNL     1      99.099  14.625  17.887  1.00  0.00     0.184 HD
ATOM     18  H11 UNL     1     100.659  13.910  17.642  1.00  0.00     0.184 HD
ENDBRANCH  15  16
ENDBRANCH   5  15
BRANCH   1  19
HETATM   19  C2  UNL     1      95.413   9.848  17.855  1.00  0.00     0.173 C 
HETATM   20  C1  UNL     1      94.988   9.324  19.137  1.00  0.00     0.098 C 
HETATM   21  O1  UNL     1      94.562   9.743  16.884  1.00  0.00    -0.291 OA
ENDBRANCH   1  19
TORSDOF 8
ENDMDL
