MODEL 1
REMARK VINA RESULT: -8.006721716      0.000      0.000
REMARK  9 active torsions:
REMARK  status: ('A' for Active; 'I' for Inactive)
REMARK    1  A    between atoms: C2_2  and  C3_3 
REMARK    2  A    between atoms: C2_2  and  C12_20 
REMARK    3  A    between atoms: C3_3  and  O2_5 
REMARK    4  A    between atoms: O2_5  and  C4_6 
REMARK    5  A    between atoms: C4_6  and  C5_7 
REMARK    6  A    between atoms: C5_7  and  O4_9 
REMARK    7  A    between atoms: O4_9  and  C6_10 
REMARK    8  A    between atoms: C9_13  and  C10_14 
REMARK    9  A    between atoms: C12_20  and  O5_23 
ROOT
HETATM    1  C5  UNL     1      98.373  12.611  16.960  1.00  0.00     0.284 C 
HETATM    2  O3  UNL     1      98.596  13.846  16.954  1.00  0.00    -0.263 OA
ENDROOT
BRANCH   1   3
HETATM    3  C4  UNL     1      97.017  12.025  17.084  1.00  0.00     0.290 C 
BRANCH   3   4
HETATM    4  O2  UNL     1      96.832  10.930  16.234  1.00  0.00    -0.308 OA
BRANCH   4   5
HETATM    5  C3  UNL     1      96.746   9.652  16.814  1.00  0.00     0.291 C 
HETATM    6  O1  UNL     1      96.012   9.503  17.823  1.00  0.00    -0.260 OA
BRANCH   5   7
HETATM    7  C2  UNL     1      97.472   8.520  16.283  1.00  0.00     0.041 C 
HETATM    8  C1  UNL     1      97.283   8.166  15.025  1.00  0.00     0.028 C 
BRANCH   7   9
HETATM    9  C12 UNL     1      98.406   7.789  17.169  1.00  0.00     0.083 C 
HETATM   10  C13 UNL     1      99.045   6.651  16.382  1.00  0.00     0.051 C 
HETATM   11  C14 UNL     1      99.430   8.756  17.679  1.00  0.00     0.051 C 
BRANCH   9  12
HETATM   12  O5  UNL     1      97.657   7.225  18.197  1.00  0.00    -0.386 OA
ATOM     13  H5  UNL     1      98.117   7.392  19.011  1.00  0.00     0.211 HD
ENDBRANCH   9  12
ENDBRANCH   7   9
ENDBRANCH   5   7
ENDBRANCH   4   5
ENDBRANCH   3   4
ENDBRANCH   1   3
BRANCH   1  14
HETATM   14  O4  UNL     1      99.471  11.786  16.845  1.00  0.00    -0.304 OA
BRANCH  14  15
HETATM   15  C6  UNL     1     100.332  11.853  15.767  1.00  0.00     0.193 C 
HETATM   16  C7  UNL     1      99.997  10.926  14.628  1.00  0.00     0.044 C 
HETATM   17  C8  UNL     1     100.790  11.377  13.421  1.00  0.00     0.017 C 
HETATM   18  C9  UNL     1     102.258  11.227  13.575  1.00  0.00     0.103 C 
HETATM   19  C11 UNL     1     102.686  10.489  14.813  1.00  0.00     0.090 C 
HETATM   20  S1  UNL     1     102.069  11.489  16.226  1.00  0.00    -0.136 SA
BRANCH  18  21
HETATM   21  C10 UNL     1     102.804  10.458  12.368  1.00  0.00     0.392 C 
HETATM   22  F1  UNL     1     101.961  10.708  11.281  1.00  0.00    -0.171 F 
HETATM   23  F2  UNL     1     104.084  10.841  12.074  1.00  0.00    -0.171 F 
HETATM   24  F3  UNL     1     102.808   9.119  12.667  1.00  0.00    -0.171 F 
ENDBRANCH  18  21
ENDBRANCH  14  15
ENDBRANCH   1  14
TORSDOF 9
ENDMDL
MODEL 2
REMARK VINA RESULT: -7.853240957      2.216      3.553
REMARK  9 active torsions:
REMARK  status: ('A' for Active; 'I' for Inactive)
REMARK    1  A    between atoms: C2_2  and  C3_3 
REMARK    2  A    between atoms: C2_2  and  C12_20 
REMARK    3  A    between atoms: C3_3  and  O2_5 
REMARK    4  A    between atoms: O2_5  and  C4_6 
REMARK    5  A    between atoms: C4_6  and  C5_7 
REMARK    6  A    between atoms: C5_7  and  O4_9 
REMARK    7  A    between atoms: O4_9  and  C6_10 
REMARK    8  A    between atoms: C9_13  and  C10_14 
REMARK    9  A    between atoms: C12_20  and  O5_23 
ROOT
HETATM    1  C5  UNL     1      97.849   8.159  16.429  1.00  0.00     0.284 C 
HETATM    2  O3  UNL     1      97.148   8.165  15.388  1.00  0.00    -0.263 OA
ENDROOT
BRANCH   1   3
HETATM    3  C4  UNL     1      97.280   8.132  17.798  1.00  0.00     0.290 C 
BRANCH   3   4
HETATM    4  O2  UNL     1      97.185   9.409  18.359  1.00  0.00    -0.308 OA
BRANCH   4   5
HETATM    5  C3  UNL     1      96.210  10.285  17.847  1.00  0.00     0.291 C 
HETATM    6  O1  UNL     1      96.583  11.399  17.404  1.00  0.00    -0.260 OA
BRANCH   5   7
HETATM    7  C2  UNL     1      94.807   9.936  17.818  1.00  0.00     0.041 C 
HETATM    8  C1  UNL     1      94.181   9.880  16.656  1.00  0.00     0.028 C 
BRANCH   7   9
HETATM    9  C12 UNL     1      94.113   9.652  19.094  1.00  0.00     0.083 C 
HETATM   10  C13 UNL     1      94.486  10.725  20.109  1.00  0.00     0.051 C 
HETATM   11  C14 UNL     1      92.639   9.619  18.834  1.00  0.00     0.051 C 
BRANCH   9  12
HETATM   12  O5  UNL     1      94.591   8.435  19.569  1.00  0.00    -0.386 OA
ATOM     13  H5  UNL     1      95.395   8.240  19.101  1.00  0.00     0.211 HD
ENDBRANCH   9  12
ENDBRANCH   7   9
ENDBRANCH   5   7
ENDBRANCH   4   5
ENDBRANCH   3   4
ENDBRANCH   1   3
BRANCH   1  14
HETATM   14  O4  UNL     1      99.216   8.180  16.253  1.00  0.00    -0.304 OA
BRANCH  14  15
HETATM   15  C6  UNL     1      99.823   8.988  15.312  1.00  0.00     0.193 C 
HETATM   16  C7  UNL     1     100.582   8.253  14.240  1.00  0.00     0.044 C 
HETATM   17  C8  UNL     1     100.862   9.234  13.121  1.00  0.00     0.017 C 
HETATM   18  C9  UNL     1     101.777  10.338  13.504  1.00  0.00     0.103 C 
HETATM   19  C11 UNL     1     102.406  10.188  14.862  1.00  0.00     0.090 C 
HETATM   20  S1  UNL     1     101.010  10.170  16.058  1.00  0.00    -0.136 SA
BRANCH  18  21
HETATM   21  C10 UNL     1     102.911  10.417  12.477  1.00  0.00     0.392 C 
HETATM   22  F1  UNL     1     102.346  10.738  11.239  1.00  0.00    -0.171 F 
HETATM   23  F2  UNL     1     103.839  11.356  12.834  1.00  0.00    -0.171 F 
HETATM   24  F3  UNL     1     103.531   9.194  12.413  1.00  0.00    -0.171 F 
ENDBRANCH  18  21
ENDBRANCH  14  15
ENDBRANCH   1  14
TORSDOF 9
ENDMDL
MODEL 3
REMARK VINA RESULT: -7.834596604      4.772      6.856
REMARK  9 active torsions:
REMARK  status: ('A' for Active; 'I' for Inactive)
REMARK    1  A    between atoms: C2_2  and  C3_3 
REMARK    2  A    between atoms: C2_2  and  C12_20 
REMARK    3  A    between atoms: C3_3  and  O2_5 
REMARK    4  A    between atoms: O2_5  and  C4_6 
REMARK    5  A    between atoms: C4_6  and  C5_7 
REMARK    6  A    between atoms: C5_7  and  O4_9 
REMARK    7  A    between atoms: O4_9  and  C6_10 
REMARK    8  A    between atoms: C9_13  and  C10_14 
REMARK    9  A    between atoms: C12_20  and  O5_23 
ROOT
HETATM    1  C5  UNL     1      99.009   9.637  13.834  1.00  0.00     0.284 C 
HETATM    2  O3  UNL     1      98.887  10.833  13.473  1.00  0.00    -0.263 OA
ENDROOT
BRANCH   1   3
HETATM    3  C4  UNL     1     100.239   8.839  13.620  1.00  0.00     0.290 C 
BRANCH   3   4
HETATM    4  O2  UNL     1     100.890   8.534  14.818  1.00  0.00    -0.308 OA
BRANCH   4   5
HETATM    5  C3  UNL     1     101.525   9.582  15.510  1.00  0.00     0.291 C 
HETATM    6  O1  UNL     1     102.615  10.017  15.063  1.00  0.00    -0.260 OA
BRANCH   5   7
HETATM    7  C2  UNL     1     100.960  10.163  16.707  1.00  0.00     0.041 C 
HETATM    8  C1  UNL     1     100.594   9.369  17.698  1.00  0.00     0.028 C 
BRANCH   7   9
HETATM    9  C12 UNL     1     100.807  11.633  16.786  1.00  0.00     0.083 C 
HETATM   10  C13 UNL     1      99.453  11.956  17.407  1.00  0.00     0.051 C 
HETATM   11  C14 UNL     1     101.937  12.184  17.599  1.00  0.00     0.051 C 
BRANCH   9  12
HETATM   12  O5  UNL     1     100.805  12.126  15.485  1.00  0.00    -0.386 OA
ATOM     13  H5  UNL     1     101.267  12.956  15.492  1.00  0.00     0.211 HD
ENDBRANCH   9  12
ENDBRANCH   7   9
ENDBRANCH   5   7
ENDBRANCH   4   5
ENDBRANCH   3   4
ENDBRANCH   1   3
BRANCH   1  14
HETATM   14  O4  UNL     1      97.920   9.068  14.459  1.00  0.00    -0.304 OA
BRANCH  14  15
HETATM   15  C6  UNL     1      97.388   9.585  15.624  1.00  0.00     0.193 C 
HETATM   16  C7  UNL     1      97.040   8.560  16.672  1.00  0.00     0.044 C 
HETATM   17  C8  UNL     1      96.827   9.295  17.978  1.00  0.00     0.017 C 
HETATM   18  C9  UNL     1      95.654  10.204  17.973  1.00  0.00     0.103 C 
HETATM   19  C11 UNL     1      94.784  10.098  16.751  1.00  0.00     0.090 C 
HETATM   20  S1  UNL     1      95.861  10.556  15.333  1.00  0.00    -0.136 SA
BRANCH  18  21
HETATM   21  C10 UNL     1      94.780   9.887  19.191  1.00  0.00     0.392 C 
HETATM   22  F1  UNL     1      93.889  10.950  19.368  1.00  0.00    -0.171 F 
HETATM   23  F2  UNL     1      94.095   8.716  19.018  1.00  0.00    -0.171 F 
HETATM   24  F3  UNL     1      95.591   9.759  20.291  1.00  0.00    -0.171 F 
ENDBRANCH  18  21
ENDBRANCH  14  15
ENDBRANCH   1  14
TORSDOF 9
ENDMDL
MODEL 4
REMARK VINA RESULT: -7.804307468      4.778      6.842
REMARK  9 active torsions:
REMARK  status: ('A' for Active; 'I' for Inactive)
REMARK    1  A    between atoms: C2_2  and  C3_3 
REMARK    2  A    between atoms: C2_2  and  C12_20 
REMARK    3  A    between atoms: C3_3  and  O2_5 
REMARK    4  A    between atoms: O2_5  and  C4_6 
REMARK    5  A    between atoms: C4_6  and  C5_7 
REMARK    6  A    between atoms: C5_7  and  O4_9 
REMARK    7  A    between atoms: O4_9  and  C6_10 
REMARK    8  A    between atoms: C9_13  and  C10_14 
REMARK    9  A    between atoms: C12_20  and  O5_23 
ROOT
HETATM    1  C5  UNL     1      99.586   8.650  14.340  1.00  0.00     0.284 C 
HETATM    2  O3  UNL     1     100.628   8.135  14.814  1.00  0.00    -0.263 OA
ENDROOT
BRANCH   1   3
HETATM    3  C4  UNL     1      99.590   9.616  13.216  1.00  0.00     0.290 C 
BRANCH   3   4
HETATM    4  O2  UNL     1      99.418  10.934  13.647  1.00  0.00    -0.308 OA
BRANCH   4   5
HETATM    5  C3  UNL     1     100.476  11.543  14.346  1.00  0.00     0.291 C 
HETATM    6  O1  UNL     1     101.469  11.947  13.692  1.00  0.00    -0.260 OA
BRANCH   5   7
HETATM    7  C2  UNL     1     100.447  11.713  15.782  1.00  0.00     0.041 C 
HETATM    8  C1  UNL     1      99.463  12.403  16.330  1.00  0.00     0.028 C 
BRANCH   7   9
HETATM    9  C12 UNL     1     101.524  11.106  16.597  1.00  0.00     0.083 C 
HETATM   10  C13 UNL     1     102.355  12.219  17.225  1.00  0.00     0.051 C 
HETATM   11  C14 UNL     1     100.896  10.226  17.633  1.00  0.00     0.051 C 
BRANCH   9  12
HETATM   12  O5  UNL     1     102.353  10.395  15.734  1.00  0.00    -0.386 OA
ATOM     13  H5  UNL     1     102.546   9.561  16.146  1.00  0.00     0.211 HD
ENDBRANCH   9  12
ENDBRANCH   7   9
ENDBRANCH   5   7
ENDBRANCH   4   5
ENDBRANCH   3   4
ENDBRANCH   1   3
BRANCH   1  14
HETATM   14  O4  UNL     1      98.394   8.277  14.921  1.00  0.00    -0.304 OA
BRANCH  14  15
HETATM   15  C6  UNL     1      97.804   9.014  15.929  1.00  0.00     0.193 C 
HETATM   16  C7  UNL     1      97.312   8.207  17.101  1.00  0.00     0.044 C 
HETATM   17  C8  UNL     1      97.041   9.169  18.239  1.00  0.00     0.017 C 
HETATM   18  C9  UNL     1      95.930  10.116  17.974  1.00  0.00     0.103 C 
HETATM   19  C11 UNL     1      95.155   9.837  16.716  1.00  0.00     0.090 C 
HETATM   20  S1  UNL     1      96.366   9.988  15.342  1.00  0.00    -0.136 SA
BRANCH  18  21
HETATM   21  C10 UNL     1      94.944  10.059  19.146  1.00  0.00     0.392 C 
HETATM   22  F1  UNL     1      94.079   8.983  18.927  1.00  0.00    -0.171 F 
HETATM   23  F2  UNL     1      95.598   9.909  20.337  1.00  0.00    -0.171 F 
HETATM   24  F3  UNL     1      94.238  11.235  19.181  1.00  0.00    -0.171 F 
ENDBRANCH  18  21
ENDBRANCH  14  15
ENDBRANCH   1  14
TORSDOF 9
ENDMDL
MODEL 5
REMARK VINA RESULT: -7.796436080      2.014      3.022
REMARK  9 active torsions:
REMARK  status: ('A' for Active; 'I' for Inactive)
REMARK    1  A    between atoms: C2_2  and  C3_3 
REMARK    2  A    between atoms: C2_2  and  C12_20 
REMARK    3  A    between atoms: C3_3  and  O2_5 
REMARK    4  A    between atoms: O2_5  and  C4_6 
REMARK    5  A    between atoms: C4_6  and  C5_7 
REMARK    6  A    between atoms: C5_7  and  O4_9 
REMARK    7  A    between atoms: O4_9  and  C6_10 
REMARK    8  A    between atoms: C9_13  and  C10_14 
REMARK    9  A    between atoms: C12_20  and  O5_23 
ROOT
HETATM    1  C5  UNL     1      99.316  11.917  17.251  1.00  0.00     0.284 C 
HETATM    2  O3  UNL     1      99.574  13.115  17.522  1.00  0.00    -0.263 OA
ENDROOT
BRANCH   1   3
HETATM    3  C4  UNL     1      98.048  11.475  16.624  1.00  0.00     0.290 C 
BRANCH   3   4
HETATM    4  O2  UNL     1      97.004  11.376  17.548  1.00  0.00    -0.308 OA
BRANCH   4   5
HETATM    5  C3  UNL     1      96.454  10.104  17.788  1.00  0.00     0.291 C 
HETATM    6  O1  UNL     1      97.233   9.162  18.076  1.00  0.00    -0.260 OA
BRANCH   5   7
HETATM    7  C2  UNL     1      95.031   9.858  17.711  1.00  0.00     0.041 C 
HETATM    8  C1  UNL     1      94.431   9.909  16.535  1.00  0.00     0.028 C 
BRANCH   7   9
HETATM    9  C12 UNL     1      94.288   9.558  18.955  1.00  0.00     0.083 C 
HETATM   10  C13 UNL     1      94.478  10.709  19.935  1.00  0.00     0.051 C 
HETATM   11  C14 UNL     1      92.845   9.355  18.608  1.00  0.00     0.051 C 
BRANCH   9  12
HETATM   12  O5  UNL     1      94.858   8.422  19.521  1.00  0.00    -0.386 OA
ATOM     13  H5  UNL     1      94.173   7.961  19.991  1.00  0.00     0.211 HD
ENDBRANCH   9  12
ENDBRANCH   7   9
ENDBRANCH   5   7
ENDBRANCH   4   5
ENDBRANCH   3   4
ENDBRANCH   1   3
BRANCH   1  14
HETATM   14  O4  UNL     1     100.286  10.990  17.569  1.00  0.00    -0.304 OA
BRANCH  14  15
HETATM   15  C6  UNL     1     101.200  10.534  16.640  1.00  0.00     0.193 C 
HETATM   16  C7  UNL     1     101.449  11.466  15.484  1.00  0.00     0.044 C 
HETATM   17  C8  UNL     1     102.707  10.999  14.781  1.00  0.00     0.017 C 
HETATM   18  C9  UNL     1     102.577   9.669  14.138  1.00  0.00     0.103 C 
HETATM   19  C11 UNL     1     101.183   9.107  14.135  1.00  0.00     0.090 C 
HETATM   20  S1  UNL     1     100.715   8.927  15.903  1.00  0.00    -0.136 SA
BRANCH  18  21
HETATM   21  C10 UNL     1     103.032   9.781  12.679  1.00  0.00     0.392 C 
HETATM   22  F1  UNL     1     103.638   8.572  12.324  1.00  0.00    -0.171 F 
HETATM   23  F2  UNL     1     101.978  10.047  11.850  1.00  0.00    -0.171 F 
HETATM   24  F3  UNL     1     103.935  10.810  12.579  1.00  0.00    -0.171 F 
ENDBRANCH  18  21
ENDBRANCH  14  15
ENDBRANCH   1  14
TORSDOF 9
ENDMDL
