MODEL 1
REMARK VINA RESULT: -8.571769065      0.000      0.000
REMARK  8 active torsions:
REMARK  status: ('A' for Active; 'I' for Inactive)
REMARK    1  A    between atoms: C3_6  and  C4_7 
REMARK    2  A    between atoms: C4_7  and  O2_8 
REMARK    3  A    between atoms: O2_8  and  C5_9 
REMARK       I    between atoms: C5_9  and  N2_11 
REMARK    4  A    between atoms: N2_11  and  C6_13 
REMARK    5  A    between atoms: C6_13  and  C7_14 
REMARK    6  A    between atoms: C6_13  and  C13_22 
REMARK    7  A    between atoms: C7_14  and  O5_16 
REMARK    8  A    between atoms: O5_16  and  C8_17 
ROOT
HETATM    1  C5  UNL     1      98.301  11.529  16.245  1.00  0.00     0.361 C 
HETATM    2  O3  UNL     1      98.531  11.521  15.020  1.00  0.00    -0.238 OA
HETATM    3  N2  UNL     1      99.341  11.522  17.192  1.00  0.00    -0.315 N 
ATOM      4  H2  UNL     1      99.108  11.517  18.185  1.00  0.00     0.166 HD
ENDROOT
BRANCH   3   5
HETATM    5  C6  UNL     1     100.714  11.522  16.799  1.00  0.00     0.294 C 
BRANCH   5   6
HETATM    6  C7  UNL     1     101.335  10.194  16.669  1.00  0.00     0.291 C 
HETATM    7  O4  UNL     1     101.040   9.179  17.320  1.00  0.00    -0.263 OA
BRANCH   6   8
HETATM    8  O5  UNL     1     102.375   9.996  15.719  1.00  0.00    -0.314 OA
BRANCH   8   9
HETATM    9  C8  UNL     1     102.279  10.514  14.445  1.00  0.00     0.132 C 
HETATM   10  C9  UNL     1     102.272   9.267  13.511  1.00  0.00     0.032 C 
HETATM   11  C10 UNL     1     103.264   9.522  12.446  1.00  0.00     0.002 C 
HETATM   12  C11 UNL     1     103.922  10.837  12.700  1.00  0.00     0.002 C 
HETATM   13  C12 UNL     1     103.162  11.501  13.852  1.00  0.00     0.032 C 
ENDBRANCH   8   9
ENDBRANCH   6   8
ENDBRANCH   5   6
BRANCH   5  14
HETATM   14  C13 UNL     1     101.556  12.412  17.729  1.00  0.00     0.416 C 
HETATM   15  F1  UNL     1     102.732  12.719  17.116  1.00  0.00    -0.168 F 
HETATM   16  F2  UNL     1     100.874  13.641  17.837  1.00  0.00    -0.168 F 
HETATM   17  F3  UNL     1     101.720  11.912  18.973  1.00  0.00    -0.168 F 
ENDBRANCH   5  14
ENDBRANCH   3   5
BRANCH   1  18
HETATM   18  O2  UNL     1      96.956  11.574  16.632  1.00  0.00    -0.301 OA
BRANCH  18  19
HETATM   19  C4  UNL     1      95.965  11.086  15.781  1.00  0.00     0.215 C 
BRANCH  19  20
HETATM   20  C3  UNL     1      95.560   9.674  15.837  1.00  0.00     0.181 C 
HETATM   21  O1  UNL     1      95.745   9.277  17.211  1.00  0.00    -0.273 OA
HETATM   22  N1  UNL     1      96.857   8.543  17.369  1.00  0.00    -0.275 N 
HETATM   23  C2  UNL     1      97.286   8.187  16.192  1.00  0.00     0.009 C 
ATOM     24  H1  UNL     1      97.293   8.305  18.260  1.00  0.00     0.193 HD
HETATM   25  C1  UNL     1      98.498   7.363  16.052  1.00  0.00     0.065 C 
HETATM   26  C14 UNL     1      96.395   8.700  15.118  1.00  0.00     0.090 C 
ENDBRANCH  19  20
ENDBRANCH  18  19
ENDBRANCH   1  18
TORSDOF 8
ENDMDL
MODEL 2
REMARK VINA RESULT: -8.508988938      1.778      2.313
REMARK  8 active torsions:
REMARK  status: ('A' for Active; 'I' for Inactive)
REMARK    1  A    between atoms: C3_6  and  C4_7 
REMARK    2  A    between atoms: C4_7  and  O2_8 
REMARK    3  A    between atoms: O2_8  and  C5_9 
REMARK       I    between atoms: C5_9  and  N2_11 
REMARK    4  A    between atoms: N2_11  and  C6_13 
REMARK    5  A    between atoms: C6_13  and  C7_14 
REMARK    6  A    between atoms: C6_13  and  C13_22 
REMARK    7  A    between atoms: C7_14  and  O5_16 
REMARK    8  A    between atoms: O5_16  and  C8_17 
ROOT
HETATM    1  C5  UNL     1      98.579  11.446  17.016  1.00  0.00     0.361 C 
HETATM    2  O3  UNL     1      98.280  12.646  16.858  1.00  0.00    -0.238 OA
HETATM    3  N2  UNL     1      99.747  10.896  16.457  1.00  0.00    -0.315 N 
ATOM      4  H2  UNL     1      99.947   9.906  16.600  1.00  0.00     0.166 HD
ENDROOT
BRANCH   3   5
HETATM    5  C6  UNL     1     100.659  11.687  15.694  1.00  0.00     0.294 C 
BRANCH   5   6
HETATM    6  C7  UNL     1     100.442  11.677  14.239  1.00  0.00     0.291 C 
HETATM    7  O4  UNL     1     100.485  12.660  13.483  1.00  0.00    -0.263 OA
BRANCH   6   8
HETATM    8  O5  UNL     1     100.153  10.449  13.582  1.00  0.00    -0.314 OA
BRANCH   8   9
HETATM    9  C8  UNL     1     101.021   9.924  12.647  1.00  0.00     0.132 C 
HETATM   10  C9  UNL     1     101.565   8.620  13.302  1.00  0.00     0.032 C 
HETATM   11  C10 UNL     1     103.034   8.648  13.159  1.00  0.00     0.002 C 
HETATM   12  C11 UNL     1     103.434   9.924  12.497  1.00  0.00     0.002 C 
HETATM   13  C12 UNL     1     102.144  10.612  12.038  1.00  0.00     0.032 C 
ENDBRANCH   8   9
ENDBRANCH   6   8
ENDBRANCH   5   6
BRANCH   5  14
HETATM   14  C13 UNL     1     102.117  11.317  16.016  1.00  0.00     0.416 C 
HETATM   15  F1  UNL     1     102.420  11.733  17.275  1.00  0.00    -0.168 F 
HETATM   16  F2  UNL     1     102.171   9.910  16.078  1.00  0.00    -0.168 F 
HETATM   17  F3  UNL     1     103.009  11.731  15.090  1.00  0.00    -0.168 F 
ENDBRANCH   5  14
ENDBRANCH   3   5
BRANCH   1  18
HETATM   18  O2  UNL     1      97.709  10.679  17.800  1.00  0.00    -0.301 OA
BRANCH  18  19
HETATM   19  C4  UNL     1      96.530  10.177  17.251  1.00  0.00     0.215 C 
BRANCH  19  20
HETATM   20  C3  UNL     1      96.393   8.744  16.954  1.00  0.00     0.181 C 
HETATM   21  O1  UNL     1      96.860   8.062  18.136  1.00  0.00    -0.273 OA
HETATM   22  N1  UNL     1      98.095   7.566  17.967  1.00  0.00    -0.275 N 
HETATM   23  C2  UNL     1      98.388   7.616  16.699  1.00  0.00     0.009 C 
ATOM     24  H1  UNL     1      98.702   7.209  18.705  1.00  0.00     0.193 HD
HETATM   25  C1  UNL     1      99.689   7.132  16.208  1.00  0.00     0.065 C 
HETATM   26  C14 UNL     1      97.263   8.183  15.909  1.00  0.00     0.090 C 
ENDBRANCH  19  20
ENDBRANCH  18  19
ENDBRANCH   1  18
TORSDOF 8
ENDMDL
MODEL 3
REMARK VINA RESULT: -8.481285280      1.535      2.109
REMARK  8 active torsions:
REMARK  status: ('A' for Active; 'I' for Inactive)
REMARK    1  A    between atoms: C3_6  and  C4_7 
REMARK    2  A    between atoms: C4_7  and  O2_8 
REMARK    3  A    between atoms: O2_8  and  C5_9 
REMARK       I    between atoms: C5_9  and  N2_11 
REMARK    4  A    between atoms: N2_11  and  C6_13 
REMARK    5  A    between atoms: C6_13  and  C7_14 
REMARK    6  A    between atoms: C6_13  and  C13_22 
REMARK    7  A    between atoms: C7_14  and  O5_16 
REMARK    8  A    between atoms: O5_16  and  C8_17 
ROOT
HETATM    1  C5  UNL     1      98.520  11.442  17.219  1.00  0.00     0.361 C 
HETATM    2  O3  UNL     1      98.216  12.570  16.785  1.00  0.00    -0.238 OA
HETATM    3  N2  UNL     1      99.839  10.954  17.149  1.00  0.00    -0.315 N 
ATOM      4  H2  UNL     1     100.042  10.020  17.504  1.00  0.00     0.166 HD
ENDROOT
BRANCH   3   5
HETATM    5  C6  UNL     1     100.899  11.734  16.593  1.00  0.00     0.294 C 
BRANCH   5   6
HETATM    6  C7  UNL     1     101.771  11.027  15.641  1.00  0.00     0.291 C 
HETATM    7  O4  UNL     1     102.411   9.987  15.864  1.00  0.00    -0.263 OA
BRANCH   6   8
HETATM    8  O5  UNL     1     101.932  11.539  14.324  1.00  0.00    -0.314 OA
BRANCH   8   9
HETATM    9  C8  UNL     1     101.105  11.129  13.299  1.00  0.00     0.132 C 
HETATM   10  C9  UNL     1      99.709  11.721  13.656  1.00  0.00     0.032 C 
HETATM   11  C10 UNL     1      98.731  10.622  13.523  1.00  0.00     0.002 C 
HETATM   12  C11 UNL     1      99.453   9.370  13.154  1.00  0.00     0.002 C 
HETATM   13  C12 UNL     1     100.903   9.763  12.854  1.00  0.00     0.032 C 
ENDBRANCH   8   9
ENDBRANCH   6   8
ENDBRANCH   5   6
BRANCH   5  14
HETATM   14  C13 UNL     1     101.741  12.391  17.699  1.00  0.00     0.416 C 
HETATM   15  F1  UNL     1     102.952  12.748  17.192  1.00  0.00    -0.168 F 
HETATM   16  F2  UNL     1     101.109  13.609  18.017  1.00  0.00    -0.168 F 
HETATM   17  F3  UNL     1     101.834  11.659  18.831  1.00  0.00    -0.168 F 
ENDBRANCH   5  14
ENDBRANCH   3   5
BRANCH   1  18
HETATM   18  O2  UNL     1      97.492  10.693  17.804  1.00  0.00    -0.301 OA
BRANCH  18  19
HETATM   19  C4  UNL     1      96.490  10.138  17.008  1.00  0.00     0.215 C 
BRANCH  19  20
HETATM   20  C3  UNL     1      96.415   8.685  16.804  1.00  0.00     0.181 C 
HETATM   21  O1  UNL     1      96.882   8.101  18.038  1.00  0.00    -0.273 OA
HETATM   22  N1  UNL     1      98.139   7.644  17.925  1.00  0.00    -0.275 N 
HETATM   23  C2  UNL     1      98.457   7.623  16.663  1.00  0.00     0.009 C 
ATOM     24  H1  UNL     1      98.743   7.361  18.697  1.00  0.00     0.193 HD
HETATM   25  C1  UNL     1      99.786   7.160  16.230  1.00  0.00     0.065 C 
HETATM   26  C14 UNL     1      97.328   8.091  15.815  1.00  0.00     0.090 C 
ENDBRANCH  19  20
ENDBRANCH  18  19
ENDBRANCH   1  18
TORSDOF 8
ENDMDL
MODEL 4
REMARK VINA RESULT: -8.336536176      1.916      5.517
REMARK  8 active torsions:
REMARK  status: ('A' for Active; 'I' for Inactive)
REMARK    1  A    between atoms: C3_6  and  C4_7 
REMARK    2  A    between atoms: C4_7  and  O2_8 
REMARK    3  A    between atoms: O2_8  and  C5_9 
REMARK       I    between atoms: C5_9  and  N2_11 
REMARK    4  A    between atoms: N2_11  and  C6_13 
REMARK    5  A    between atoms: C6_13  and  C7_14 
REMARK    6  A    between atoms: C6_13  and  C13_22 
REMARK    7  A    between atoms: C7_14  and  O5_16 
REMARK    8  A    between atoms: O5_16  and  C8_17 
ROOT
HETATM    1  C5  UNL     1     101.770  11.258  16.186  1.00  0.00     0.361 C 
HETATM    2  O3  UNL     1     101.793  10.692  17.296  1.00  0.00    -0.238 OA
HETATM    3  N2  UNL     1     100.563  11.676  15.595  1.00  0.00    -0.315 N 
ATOM      4  H2  UNL     1     100.587  12.124  14.679  1.00  0.00     0.166 HD
ENDROOT
BRANCH   3   5
HETATM    5  C6  UNL     1      99.304  11.489  16.244  1.00  0.00     0.294 C 
BRANCH   5   6
HETATM    6  C7  UNL     1      98.211  11.015  15.380  1.00  0.00     0.291 C 
HETATM    7  O4  UNL     1      98.217  10.985  14.139  1.00  0.00    -0.263 OA
BRANCH   6   8
HETATM    8  O5  UNL     1      97.010  10.533  15.969  1.00  0.00    -0.314 OA
BRANCH   8   9
HETATM    9  C8  UNL     1      96.807   9.182  16.160  1.00  0.00     0.132 C 
HETATM   10  C9  UNL     1      96.990   8.967  17.692  1.00  0.00     0.032 C 
HETATM   11  C10 UNL     1      97.906   7.820  17.858  1.00  0.00     0.002 C 
HETATM   12  C11 UNL     1      98.341   7.346  16.512  1.00  0.00     0.002 C 
HETATM   13  C12 UNL     1      97.502   8.106  15.479  1.00  0.00     0.032 C 
ENDBRANCH   8   9
ENDBRANCH   6   8
ENDBRANCH   5   6
BRANCH   5  14
HETATM   14  C13 UNL     1      98.875  12.760  16.996  1.00  0.00     0.416 C 
HETATM   15  F1  UNL     1      99.679  12.936  18.079  1.00  0.00    -0.168 F 
HETATM   16  F2  UNL     1      99.166  13.847  16.149  1.00  0.00    -0.168 F 
HETATM   17  F3  UNL     1      97.559  12.804  17.299  1.00  0.00    -0.168 F 
ENDBRANCH   5  14
ENDBRANCH   3   5
BRANCH   1  18
HETATM   18  O2  UNL     1     103.005  11.482  15.567  1.00  0.00    -0.301 OA
BRANCH  18  19
HETATM   19  C4  UNL     1     103.057  11.900  14.238  1.00  0.00     0.215 C 
BRANCH  19  20
HETATM   20  C3  UNL     1     103.054  10.919  13.144  1.00  0.00     0.181 C 
HETATM   21  O1  UNL     1     101.788  11.096  12.475  1.00  0.00    -0.273 OA
HETATM   22  N1  UNL     1     100.916  10.130  12.802  1.00  0.00    -0.275 N 
HETATM   23  C2  UNL     1     101.565   9.179  13.411  1.00  0.00     0.009 C 
ATOM     24  H1  UNL     1      99.915  10.138  12.607  1.00  0.00     0.193 HD
HETATM   25  C1  UNL     1     100.863   7.976  13.887  1.00  0.00     0.065 C 
HETATM   26  C14 UNL     1     103.014   9.495  13.510  1.00  0.00     0.090 C 
ENDBRANCH  19  20
ENDBRANCH  18  19
ENDBRANCH   1  18
TORSDOF 8
ENDMDL
MODEL 5
REMARK VINA RESULT: -8.330910370      1.899      2.454
REMARK  8 active torsions:
REMARK  status: ('A' for Active; 'I' for Inactive)
REMARK    1  A    between atoms: C3_6  and  C4_7 
REMARK    2  A    between atoms: C4_7  and  O2_8 
REMARK    3  A    between atoms: O2_8  and  C5_9 
REMARK       I    between atoms: C5_9  and  N2_11 
REMARK    4  A    between atoms: N2_11  and  C6_13 
REMARK    5  A    between atoms: C6_13  and  C7_14 
REMARK    6  A    between atoms: C6_13  and  C13_22 
REMARK    7  A    between atoms: C7_14  and  O5_16 
REMARK    8  A    between atoms: O5_16  and  C8_17 
ROOT
HETATM    1  C5  UNL     1      98.000  11.132  16.452  1.00  0.00     0.361 C 
HETATM    2  O3  UNL     1      98.153  11.069  15.217  1.00  0.00    -0.238 OA
HETATM    3  N2  UNL     1      99.095  11.269  17.325  1.00  0.00    -0.315 N 
ATOM      4  H2  UNL     1      98.927  11.304  18.331  1.00  0.00     0.166 HD
ENDROOT
BRANCH   3   5
HETATM    5  C6  UNL     1     100.436  11.359  16.841  1.00  0.00     0.294 C 
BRANCH   5   6
HETATM    6  C7  UNL     1     101.146  10.078  16.703  1.00  0.00     0.291 C 
HETATM    7  O4  UNL     1     100.888   9.026  17.309  1.00  0.00    -0.263 OA
BRANCH   6   8
HETATM    8  O5  UNL     1     102.240   9.976  15.800  1.00  0.00    -0.314 OA
BRANCH   8   9
HETATM    9  C8  UNL     1     102.140  10.448  14.508  1.00  0.00     0.132 C 
HETATM   10  C9  UNL     1     102.225   9.176  13.614  1.00  0.00     0.032 C 
HETATM   11  C10 UNL     1     103.221   9.457  12.560  1.00  0.00     0.002 C 
HETATM   12  C11 UNL     1     103.795  10.816  12.784  1.00  0.00     0.002 C 
HETATM   13  C12 UNL     1     102.974  11.469  13.901  1.00  0.00     0.032 C 
ENDBRANCH   8   9
ENDBRANCH   6   8
ENDBRANCH   5   6
BRANCH   5  14
HETATM   14  C13 UNL     1     101.266  12.338  17.688  1.00  0.00     0.416 C 
HETATM   15  F1  UNL     1     102.386  12.691  17.001  1.00  0.00    -0.168 F 
HETATM   16  F2  UNL     1     100.514  13.526  17.785  1.00  0.00    -0.168 F 
HETATM   17  F3  UNL     1     101.525  11.902  18.940  1.00  0.00    -0.168 F 
ENDBRANCH   5  14
ENDBRANCH   3   5
BRANCH   1  18
HETATM   18  O2  UNL     1      96.684  11.088  16.927  1.00  0.00    -0.301 OA
BRANCH  18  19
HETATM   19  C4  UNL     1      96.199   9.933  17.539  1.00  0.00     0.215 C 
BRANCH  19  20
HETATM   20  C3  UNL     1      95.772   9.953  18.945  1.00  0.00     0.181 C 
HETATM   21  O1  UNL     1      95.250   8.633  19.205  1.00  0.00    -0.273 OA
HETATM   22  N1  UNL     1      93.908   8.625  19.220  1.00  0.00    -0.275 N 
HETATM   23  C2  UNL     1      93.490   9.857  19.263  1.00  0.00     0.009 C 
ATOM     24  H1  UNL     1      93.316   7.795  19.201  1.00  0.00     0.193 HD
HETATM   25  C1  UNL     1      92.050  10.161  19.292  1.00  0.00     0.065 C 
HETATM   26  C14 UNL     1      94.630  10.812  19.294  1.00  0.00     0.090 C 
ENDBRANCH  19  20
ENDBRANCH  18  19
ENDBRANCH   1  18
TORSDOF 8
ENDMDL
