MODEL 1
REMARK VINA RESULT: -8.606728565      0.000      0.000
REMARK  7 active torsions:
REMARK  status: ('A' for Active; 'I' for Inactive)
REMARK    1  A    between atoms: N1_2  and  C3_4 
REMARK    2  A    between atoms: C4_7  and  C5_8 
REMARK    3  A    between atoms: C6_12  and  C7_13 
REMARK    4  A    between atoms: C7_13  and  O2_15 
REMARK    5  A    between atoms: O2_15  and  C8_16 
REMARK    6  A    between atoms: C8_16  and  C9_17 
REMARK       I    between atoms: C9_17  and  N3_19 
REMARK    7  A    between atoms: N3_19  and  C10_21 
ROOT
HETATM    1  C3  UNL     1      95.404  10.071  18.533  1.00  0.00     0.227 A 
HETATM    2  N2  UNL     1      95.958   8.862  18.353  1.00  0.00    -0.315 N 
ATOM      3  H2  UNL     1      95.564   7.963  18.631  1.00  0.00     0.169 HD
HETATM    4  C4  UNL     1      97.153   9.070  17.724  1.00  0.00     0.160 A 
HETATM    5  C6  UNL     1      97.248  10.426  17.561  1.00  0.00     0.185 A 
HETATM    6  O4  UNL     1      96.181  11.008  18.056  1.00  0.00    -0.271 OA
ENDROOT
BRANCH   5   7
HETATM    7  C7  UNL     1      98.352  11.149  16.937  1.00  0.00     0.320 C 
HETATM    8  O1  UNL     1      98.295  11.320  15.673  1.00  0.00    -0.257 OA
BRANCH   7   9
HETATM    9  O2  UNL     1      99.421  11.637  17.664  1.00  0.00    -0.307 OA
BRANCH   9  10
HETATM   10  C8  UNL     1     100.329  12.495  17.049  1.00  0.00     0.281 C 
BRANCH  10  11
HETATM   11  C9  UNL     1     101.556  11.865  16.534  1.00  0.00     0.242 C 
HETATM   12  O3  UNL     1     102.615  11.752  17.195  1.00  0.00    -0.271 OA
HETATM   13  N3  UNL     1     101.521  11.362  15.211  1.00  0.00    -0.355 N 
ATOM     14  H3  UNL     1     100.672  11.441  14.651  1.00  0.00     0.162 HD
BRANCH  13  15
HETATM   15  C10 UNL     1     102.702  10.735  14.662  1.00  0.00     0.084 C 
HETATM   16  C11 UNL     1     102.264   9.535  13.868  1.00  0.00     0.025 C 
HETATM   17  C12 UNL     1     102.665   9.827  12.446  1.00  0.00     0.002 C 
HETATM   18  C13 UNL     1     103.835  10.770  12.609  1.00  0.00     0.002 C 
HETATM   19  C14 UNL     1     103.356  11.692  13.687  1.00  0.00     0.025 C 
ENDBRANCH  13  15
ENDBRANCH  10  11
ENDBRANCH   9  10
ENDBRANCH   7   9
ENDBRANCH   5   7
BRANCH   4  20
HETATM   20  C5  UNL     1      98.092   7.991  17.324  1.00  0.00     0.435 C 
HETATM   21  F1  UNL     1      97.944   7.604  16.019  1.00  0.00    -0.165 F 
HETATM   22  F2  UNL     1      99.407   8.359  17.619  1.00  0.00    -0.165 F 
HETATM   23  F3  UNL     1      97.848   6.873  18.101  1.00  0.00    -0.165 F 
ENDBRANCH   4  20
BRANCH   1  24
HETATM   24  N1  UNL     1      94.126  10.281  19.167  1.00  0.00    -0.356 N 
HETATM   25  C1  UNL     1      94.051  10.795  20.513  1.00  0.00     0.152 C 
HETATM   26  C2  UNL     1      92.919   9.971  18.442  1.00  0.00     0.152 C 
ENDBRANCH   1  24
TORSDOF 7
ENDMDL
MODEL 2
REMARK VINA RESULT: -8.566348521      0.187      1.042
REMARK  7 active torsions:
REMARK  status: ('A' for Active; 'I' for Inactive)
REMARK    1  A    between atoms: N1_2  and  C3_4 
REMARK    2  A    between atoms: C4_7  and  C5_8 
REMARK    3  A    between atoms: C6_12  and  C7_13 
REMARK    4  A    between atoms: C7_13  and  O2_15 
REMARK    5  A    between atoms: O2_15  and  C8_16 
REMARK    6  A    between atoms: C8_16  and  C9_17 
REMARK       I    between atoms: C9_17  and  N3_19 
REMARK    7  A    between atoms: N3_19  and  C10_21 
ROOT
HETATM    1  C3  UNL     1      95.416  10.110  18.464  1.00  0.00     0.227 A 
HETATM    2  N2  UNL     1      95.935   8.900  18.204  1.00  0.00    -0.315 N 
ATOM      3  H2  UNL     1      95.520   7.997  18.433  1.00  0.00     0.169 HD
HETATM    4  C4  UNL     1      97.127   9.115  17.573  1.00  0.00     0.160 A 
HETATM    5  C6  UNL     1      97.257  10.475  17.490  1.00  0.00     0.185 A 
HETATM    6  O4  UNL     1      96.213  11.054  18.034  1.00  0.00    -0.271 OA
ENDROOT
BRANCH   5   7
HETATM    7  C7  UNL     1      98.373  11.205  16.896  1.00  0.00     0.320 C 
HETATM    8  O1  UNL     1      98.344  11.385  15.633  1.00  0.00    -0.257 OA
BRANCH   7   9
HETATM    9  O2  UNL     1      99.425  11.690  17.650  1.00  0.00    -0.307 OA
BRANCH   9  10
HETATM   10  C8  UNL     1     100.359  12.533  17.055  1.00  0.00     0.281 C 
BRANCH  10  11
HETATM   11  C9  UNL     1     101.576  11.880  16.543  1.00  0.00     0.242 C 
HETATM   12  O3  UNL     1     102.632  11.751  17.204  1.00  0.00    -0.271 OA
HETATM   13  N3  UNL     1     101.531  11.372  15.222  1.00  0.00    -0.355 N 
ATOM     14  H3  UNL     1     100.684  11.464  14.662  1.00  0.00     0.162 HD
BRANCH  13  15
HETATM   15  C10 UNL     1     102.701  10.722  14.676  1.00  0.00     0.084 C 
HETATM   16  C11 UNL     1     102.242   9.533  13.877  1.00  0.00     0.025 C 
HETATM   17  C12 UNL     1     102.654   9.821  12.457  1.00  0.00     0.002 C 
HETATM   18  C13 UNL     1     103.843  10.739  12.628  1.00  0.00     0.002 C 
HETATM   19  C14 UNL     1     103.379  11.668  13.706  1.00  0.00     0.025 C 
ENDBRANCH  13  15
ENDBRANCH  10  11
ENDBRANCH   9  10
ENDBRANCH   7   9
ENDBRANCH   5   7
BRANCH   4  20
HETATM   20  C5  UNL     1      98.031   8.037  17.095  1.00  0.00     0.435 C 
HETATM   21  F1  UNL     1      99.326   8.453  16.932  1.00  0.00    -0.165 F 
HETATM   22  F2  UNL     1      97.937   6.921  17.930  1.00  0.00    -0.165 F 
HETATM   23  F3  UNL     1      97.594   7.599  15.858  1.00  0.00    -0.165 F 
ENDBRANCH   4  20
BRANCH   1  24
HETATM   24  N1  UNL     1      94.152  10.315  19.128  1.00  0.00    -0.356 N 
HETATM   25  C1  UNL     1      92.912  10.015  18.454  1.00  0.00     0.152 C 
HETATM   26  C2  UNL     1      94.139  10.825  20.476  1.00  0.00     0.152 C 
ENDBRANCH   1  24
TORSDOF 7
ENDMDL
MODEL 3
REMARK VINA RESULT: -8.541957809      0.858      1.127
REMARK  7 active torsions:
REMARK  status: ('A' for Active; 'I' for Inactive)
REMARK    1  A    between atoms: N1_2  and  C3_4 
REMARK    2  A    between atoms: C4_7  and  C5_8 
REMARK    3  A    between atoms: C6_12  and  C7_13 
REMARK    4  A    between atoms: C7_13  and  O2_15 
REMARK    5  A    between atoms: O2_15  and  C8_16 
REMARK    6  A    between atoms: C8_16  and  C9_17 
REMARK       I    between atoms: C9_17  and  N3_19 
REMARK    7  A    between atoms: N3_19  and  C10_21 
ROOT
HETATM    1  C3  UNL     1      95.966  10.320  18.043  1.00  0.00     0.227 A 
HETATM    2  N2  UNL     1      96.788   9.261  18.097  1.00  0.00    -0.315 N 
ATOM      3  H2  UNL     1      96.616   8.379  18.580  1.00  0.00     0.169 HD
HETATM    4  C4  UNL     1      97.900   9.594  17.377  1.00  0.00     0.160 A 
HETATM    5  C6  UNL     1      97.674  10.865  16.924  1.00  0.00     0.185 A 
HETATM    6  O4  UNL     1      96.501  11.283  17.338  1.00  0.00    -0.271 OA
ENDROOT
BRANCH   5   7
HETATM    7  C7  UNL     1      98.578  11.668  16.104  1.00  0.00     0.320 C 
HETATM    8  O1  UNL     1      98.638  11.387  14.860  1.00  0.00    -0.257 OA
BRANCH   7   9
HETATM    9  O2  UNL     1      99.342  12.692  16.630  1.00  0.00    -0.307 OA
BRANCH   9  10
HETATM   10  C8  UNL     1     100.365  12.389  17.525  1.00  0.00     0.281 C 
BRANCH  10  11
HETATM   11  C9  UNL     1     101.579  11.803  16.933  1.00  0.00     0.242 C 
HETATM   12  O3  UNL     1     102.659  11.657  17.552  1.00  0.00    -0.271 OA
HETATM   13  N3  UNL     1     101.505  11.383  15.583  1.00  0.00    -0.355 N 
ATOM     14  H3  UNL     1     100.639  11.490  15.056  1.00  0.00     0.162 HD
BRANCH  13  15
HETATM   15  C10 UNL     1     102.673  10.801  14.960  1.00  0.00     0.084 C 
HETATM   16  C11 UNL     1     102.242   9.550  14.244  1.00  0.00     0.025 C 
HETATM   17  C12 UNL     1     102.510   9.810  12.785  1.00  0.00     0.002 C 
HETATM   18  C13 UNL     1     103.633  10.821  12.820  1.00  0.00     0.002 C 
HETATM   19  C14 UNL     1     103.191  11.756  13.903  1.00  0.00     0.025 C 
ENDBRANCH  13  15
ENDBRANCH  10  11
ENDBRANCH   9  10
ENDBRANCH   7   9
ENDBRANCH   5   7
BRANCH   4  20
HETATM   20  C5  UNL     1      99.066   8.698  17.168  1.00  0.00     0.435 C 
HETATM   21  F1  UNL     1      99.442   8.599  15.855  1.00  0.00    -0.165 F 
HETATM   22  F2  UNL     1     100.126   9.082  17.993  1.00  0.00    -0.165 F 
HETATM   23  F3  UNL     1      98.731   7.422  17.583  1.00  0.00    -0.165 F 
ENDBRANCH   4  20
BRANCH   1  24
HETATM   24  N1  UNL     1      94.675  10.366  18.684  1.00  0.00    -0.356 N 
HETATM   25  C1  UNL     1      93.476  10.052  17.944  1.00  0.00     0.152 C 
HETATM   26  C2  UNL     1      94.591  10.730  20.077  1.00  0.00     0.152 C 
ENDBRANCH   1  24
TORSDOF 7
ENDMDL
MODEL 4
REMARK VINA RESULT: -8.445420565      1.317      1.693
REMARK  7 active torsions:
REMARK  status: ('A' for Active; 'I' for Inactive)
REMARK    1  A    between atoms: N1_2  and  C3_4 
REMARK    2  A    between atoms: C4_7  and  C5_8 
REMARK    3  A    between atoms: C6_12  and  C7_13 
REMARK    4  A    between atoms: C7_13  and  O2_15 
REMARK    5  A    between atoms: O2_15  and  C8_16 
REMARK    6  A    between atoms: C8_16  and  C9_17 
REMARK       I    between atoms: C9_17  and  N3_19 
REMARK    7  A    between atoms: N3_19  and  C10_21 
ROOT
HETATM    1  C3  UNL     1      95.324   9.933  18.158  1.00  0.00     0.227 A 
HETATM    2  N2  UNL     1      95.211   9.391  16.935  1.00  0.00    -0.315 N 
ATOM      3  H2  UNL     1      94.369   8.993  16.521  1.00  0.00     0.169 HD
HETATM    4  C4  UNL     1      96.445   9.477  16.356  1.00  0.00     0.160 A 
HETATM    5  C6  UNL     1      97.245  10.079  17.288  1.00  0.00     0.185 A 
HETATM    6  O4  UNL     1      96.547  10.346  18.367  1.00  0.00    -0.271 OA
ENDROOT
BRANCH   5   7
HETATM    7  C7  UNL     1      98.664  10.393  17.141  1.00  0.00     0.320 C 
HETATM    8  O1  UNL     1      99.496   9.459  17.398  1.00  0.00    -0.257 OA
BRANCH   7   9
HETATM    9  O2  UNL     1      99.109  11.639  16.742  1.00  0.00    -0.307 OA
BRANCH   9  10
HETATM   10  C8  UNL     1     100.273  12.159  17.301  1.00  0.00     0.281 C 
BRANCH  10  11
HETATM   11  C9  UNL     1     101.535  11.653  16.737  1.00  0.00     0.242 C 
HETATM   12  O3  UNL     1     102.618  11.617  17.366  1.00  0.00    -0.271 OA
HETATM   13  N3  UNL     1     101.506  11.181  15.402  1.00  0.00    -0.355 N 
ATOM     14  H3  UNL     1     100.637  11.199  14.868  1.00  0.00     0.162 HD
BRANCH  13  15
HETATM   15  C10 UNL     1     102.721  10.674  14.806  1.00  0.00     0.084 C 
HETATM   16  C11 UNL     1     102.357   9.504  13.933  1.00  0.00     0.025 C 
HETATM   17  C12 UNL     1     102.723   9.919  12.532  1.00  0.00     0.002 C 
HETATM   18  C13 UNL     1     103.829  10.925  12.755  1.00  0.00     0.002 C 
HETATM   19  C14 UNL     1     103.300  11.737  13.896  1.00  0.00     0.025 C 
ENDBRANCH  13  15
ENDBRANCH  10  11
ENDBRANCH   9  10
ENDBRANCH   7   9
ENDBRANCH   5   7
BRANCH   4  20
HETATM   20  C5  UNL     1      96.765   9.000  14.986  1.00  0.00     0.435 C 
HETATM   21  F1  UNL     1      97.541   9.879  14.277  1.00  0.00    -0.165 F 
HETATM   22  F2  UNL     1      97.327   7.722  15.036  1.00  0.00    -0.165 F 
HETATM   23  F3  UNL     1      95.587   8.847  14.277  1.00  0.00    -0.165 F 
ENDBRANCH   4  20
BRANCH   1  24
HETATM   24  N1  UNL     1      94.231  10.035  19.094  1.00  0.00    -0.356 N 
HETATM   25  C1  UNL     1      94.395  10.747  20.338  1.00  0.00     0.152 C 
HETATM   26  C2  UNL     1      92.969   9.415  18.774  1.00  0.00     0.152 C 
ENDBRANCH   1  24
TORSDOF 7
ENDMDL
MODEL 5
REMARK VINA RESULT: -8.387547351      2.689      7.022
REMARK  7 active torsions:
REMARK  status: ('A' for Active; 'I' for Inactive)
REMARK    1  A    between atoms: N1_2  and  C3_4 
REMARK    2  A    between atoms: C4_7  and  C5_8 
REMARK    3  A    between atoms: C6_12  and  C7_13 
REMARK    4  A    between atoms: C7_13  and  O2_15 
REMARK    5  A    between atoms: O2_15  and  C8_16 
REMARK    6  A    between atoms: C8_16  and  C9_17 
REMARK       I    between atoms: C9_17  and  N3_19 
REMARK    7  A    between atoms: N3_19  and  C10_21 
ROOT
HETATM    1  C3  UNL     1     100.494  11.056  16.424  1.00  0.00     0.227 A 
HETATM    2  N2  UNL     1     100.860  10.862  15.147  1.00  0.00    -0.315 N 
ATOM      3  H2  UNL     1     101.393  11.505  14.562  1.00  0.00     0.169 HD
HETATM    4  C4  UNL     1     100.380   9.636  14.786  1.00  0.00     0.160 A 
HETATM    5  C6  UNL     1      99.737   9.154  15.894  1.00  0.00     0.185 A 
HETATM    6  O4  UNL     1      99.820  10.028  16.870  1.00  0.00    -0.271 OA
ENDROOT
BRANCH   5   7
HETATM    7  C7  UNL     1      99.052   7.870  16.010  1.00  0.00     0.320 C 
HETATM    8  O1  UNL     1      99.777   6.842  16.229  1.00  0.00    -0.257 OA
BRANCH   7   9
HETATM    9  O2  UNL     1      97.680   7.750  15.893  1.00  0.00    -0.307 OA
BRANCH   9  10
HETATM   10  C8  UNL     1      96.988   8.623  15.059  1.00  0.00     0.281 C 
BRANCH  10  11
HETATM   11  C9  UNL     1      96.153   9.629  15.738  1.00  0.00     0.242 C 
HETATM   12  O3  UNL     1      95.857  10.741  15.243  1.00  0.00    -0.271 OA
HETATM   13  N3  UNL     1      95.663   9.302  17.026  1.00  0.00    -0.355 N 
ATOM     14  H3  UNL     1      95.889   8.403  17.451  1.00  0.00     0.162 HD
BRANCH  13  15
HETATM   15  C10 UNL     1      94.839  10.258  17.730  1.00  0.00     0.084 C 
HETATM   16  C11 UNL     1      93.404   9.831  17.584  1.00  0.00     0.025 C 
HETATM   17  C12 UNL     1      92.935   9.516  18.980  1.00  0.00     0.002 C 
HETATM   18  C13 UNL     1      93.825  10.383  19.841  1.00  0.00     0.002 C 
HETATM   19  C14 UNL     1      95.168  10.193  19.208  1.00  0.00     0.025 C 
ENDBRANCH  13  15
ENDBRANCH  10  11
ENDBRANCH   9  10
ENDBRANCH   7   9
ENDBRANCH   5   7
BRANCH   4  20
HETATM   20  C5  UNL     1     100.570   9.020  13.448  1.00  0.00     0.435 C 
HETATM   21  F1  UNL     1     101.164   7.787  13.501  1.00  0.00    -0.165 F 
HETATM   22  F2  UNL     1      99.359   8.992  12.751  1.00  0.00    -0.165 F 
HETATM   23  F3  UNL     1     101.400   9.830  12.694  1.00  0.00    -0.165 F 
ENDBRANCH   4  20
BRANCH   1  24
HETATM   24  N1  UNL     1     100.813  12.242  17.179  1.00  0.00    -0.356 N 
HETATM   25  C1  UNL     1     102.154  12.467  17.662  1.00  0.00     0.152 C 
HETATM   26  C2  UNL     1      99.776  13.207  17.447  1.00  0.00     0.152 C 
ENDBRANCH   1  24
TORSDOF 7
ENDMDL
