MODEL 1
REMARK VINA RESULT: -7.398034840      0.000      0.000
REMARK  6 active torsions:
REMARK  status: ('A' for Active; 'I' for Inactive)
REMARK    1  A    between atoms: N1_1  and  C1_4 
REMARK    2  A    between atoms: C2_9  and  N4_10 
REMARK    3  A    between atoms: C4_12  and  C5_13 
REMARK    4  A    between atoms: C5_13  and  N5_14 
REMARK    5  A    between atoms: C5_13  and  N6_18 
REMARK    6  A    between atoms: C6_26  and  N9_27 
ROOT
HETATM    1  N4  UNL     1     -16.015 -27.967  18.855  1.00  0.00    -0.230 N 
HETATM    2  C3  UNL     1     -15.440 -27.305  19.888  1.00  0.00     0.150 A 
HETATM    3  C4  UNL     1     -16.386 -27.025  20.850  1.00  0.00     0.102 A 
HETATM    4  N7  UNL     1     -17.537 -27.538  20.359  1.00  0.00    -0.285 N 
ATOM      5  H7  UNL     1     -18.446 -27.507  20.820  1.00  0.00     0.188 HD
HETATM    6  N8  UNL     1     -17.288 -28.092  19.173  1.00  0.00    -0.234 N 
ATOM      7  H8  UNL     1     -17.988 -28.550  18.590  1.00  0.00     0.209 HD
ENDROOT
BRANCH   1   8
HETATM    8  C2  UNL     1     -15.372 -28.427  17.673  1.00  0.00     0.188 A 
HETATM    9  N3  UNL     1     -14.148 -28.985  17.641  1.00  0.00    -0.267 N 
HETATM   10  N2  UNL     1     -13.592 -29.401  16.504  1.00  0.00    -0.131 N 
ATOM     11  H3  UNL     1     -13.630 -29.092  18.513  1.00  0.00     0.189 HD
HETATM   12  C1  UNL     1     -14.258 -29.265  15.360  1.00  0.00     0.692 A 
ATOM     13  H2  UNL     1     -12.662 -29.821  16.511  1.00  0.00     0.205 HD
HETATM   14  N10 UNL     1     -15.491 -28.709  15.353  1.00  0.00    -0.172 N 
HETATM   15  C6  UNL     1     -16.060 -28.288  16.490  1.00  0.00     0.162 A 
ATOM     16  H10 UNL     1     -15.994 -28.608  14.471  1.00  0.00     0.186 HD
BRANCH  12  17
HETATM   17  N1  UNL     1     -13.702 -29.674  14.261  1.00  0.00    -0.233 N 
ATOM     18  H12 UNL     1     -13.339 -30.624  14.177  1.00  0.00     0.174 HD
ATOM     19  H11 UNL     1     -13.634 -29.027  13.475  1.00  0.00     0.174 HD
ENDBRANCH  12  17
BRANCH  15  20
HETATM   20  N9  UNL     1     -17.229 -27.759  16.492  1.00  0.00    -0.382 N 
ATOM     21  H92 UNL     1     -17.661 -27.437  17.357  1.00  0.00     0.157 HD
ATOM     22  H91 UNL     1     -17.740 -27.658  15.615  1.00  0.00     0.157 HD
ENDBRANCH  15  20
ENDBRANCH   1   8
BRANCH   3  23
HETATM   23  C5  UNL     1     -16.218 -26.319  22.149  1.00  0.00     0.430 C 
BRANCH  23  24
HETATM   24  N5  UNL     1     -15.058 -25.415  22.097  1.00  0.00    -0.045 N 
ATOM     25  H53 UNL     1     -14.195 -25.917  21.891  1.00  0.00     0.277 HD
ATOM     26  H52 UNL     1     -15.084 -24.812  21.274  1.00  0.00     0.277 HD
ATOM     27  H51 UNL     1     -14.987 -24.876  22.961  1.00  0.00     0.277 HD
ENDBRANCH  23  24
BRANCH  23  28
HETATM   28  N6  UNL     1     -16.009 -27.231  23.241  1.00  0.00    -0.045 N 
ATOM     29  H63 UNL     1     -15.080 -27.651  23.199  1.00  0.00     0.277 HD
ATOM     30  H62 UNL     1     -15.922 -26.733  24.127  1.00  0.00     0.277 HD
ATOM     31  H61 UNL     1     -16.735 -27.947  23.290  1.00  0.00     0.277 HD
ENDBRANCH  23  28
ENDBRANCH   3  23
TORSDOF 6
ENDMDL
MODEL 2
REMARK VINA RESULT: -7.342737336      1.202      5.845
REMARK  6 active torsions:
REMARK  status: ('A' for Active; 'I' for Inactive)
REMARK    1  A    between atoms: N1_1  and  C1_4 
REMARK    2  A    between atoms: C2_9  and  N4_10 
REMARK    3  A    between atoms: C4_12  and  C5_13 
REMARK    4  A    between atoms: C5_13  and  N5_14 
REMARK    5  A    between atoms: C5_13  and  N6_18 
REMARK    6  A    between atoms: C6_26  and  N9_27 
ROOT
HETATM    1  N4  UNL     1     -15.900 -27.681  18.435  1.00  0.00    -0.230 N 
HETATM    2  C3  UNL     1     -14.937 -28.170  17.618  1.00  0.00     0.150 A 
HETATM    3  C4  UNL     1     -15.507 -28.661  16.463  1.00  0.00     0.102 A 
HETATM    4  N7  UNL     1     -16.833 -28.451  16.620  1.00  0.00    -0.285 N 
ATOM      5  H7  UNL     1     -17.557 -28.699  15.946  1.00  0.00     0.188 HD
HETATM    6  N8  UNL     1     -17.039 -27.868  17.800  1.00  0.00    -0.234 N 
ATOM      7  H8  UNL     1     -17.955 -27.602  18.162  1.00  0.00     0.209 HD
ENDROOT
BRANCH   1   8
HETATM    8  C2  UNL     1     -15.714 -27.092  19.716  1.00  0.00     0.188 A 
HETATM    9  N3  UNL     1     -14.517 -26.765  20.236  1.00  0.00    -0.267 N 
HETATM   10  N2  UNL     1     -14.399 -26.212  21.443  1.00  0.00    -0.131 N 
ATOM     11  H3  UNL     1     -13.675 -26.946  19.691  1.00  0.00     0.189 HD
HETATM   12  C1  UNL     1     -15.492 -25.973  22.164  1.00  0.00     0.692 A 
ATOM     13  H2  UNL     1     -13.478 -25.974  21.811  1.00  0.00     0.205 HD
HETATM   14  N10 UNL     1     -16.713 -26.289  21.674  1.00  0.00    -0.172 N 
HETATM   15  C6  UNL     1     -16.843 -26.843  20.463  1.00  0.00     0.162 A 
ATOM     16  H10 UNL     1     -17.544 -26.102  22.234  1.00  0.00     0.186 HD
BRANCH  12  17
HETATM   17  N1  UNL     1     -15.361 -25.436  23.338  1.00  0.00    -0.233 N 
ATOM     18  H12 UNL     1     -15.075 -25.994  24.143  1.00  0.00     0.174 HD
ATOM     19  H11 UNL     1     -15.548 -24.439  23.446  1.00  0.00     0.174 HD
ENDBRANCH  12  17
BRANCH  15  20
HETATM   20  N9  UNL     1     -17.997 -27.145  19.991  1.00  0.00    -0.382 N 
ATOM     21  H92 UNL     1     -18.180 -27.121  18.988  1.00  0.00     0.157 HD
ATOM     22  H91 UNL     1     -18.748 -27.414  20.626  1.00  0.00     0.157 HD
ENDBRANCH  15  20
ENDBRANCH   1   8
BRANCH   3  23
HETATM   23  C5  UNL     1     -14.844 -29.289  15.288  1.00  0.00     0.430 C 
BRANCH  23  24
HETATM   24  N5  UNL     1     -15.268 -30.690  15.145  1.00  0.00    -0.045 N 
ATOM     25  H53 UNL     1     -15.981 -30.943  15.830  1.00  0.00     0.277 HD
ATOM     26  H52 UNL     1     -15.814 -30.837  14.296  1.00  0.00     0.277 HD
ATOM     27  H51 UNL     1     -14.461 -31.313  15.190  1.00  0.00     0.277 HD
ENDBRANCH  23  24
BRANCH  23  28
HETATM   28  N6  UNL     1     -13.411 -29.277  15.401  1.00  0.00    -0.045 N 
ATOM     29  H63 UNL     1     -13.114 -28.872  16.289  1.00  0.00     0.277 HD
ATOM     30  H62 UNL     1     -13.043 -30.220  15.521  1.00  0.00     0.277 HD
ATOM     31  H61 UNL     1     -12.966 -28.803  14.614  1.00  0.00     0.277 HD
ENDBRANCH  23  28
ENDBRANCH   3  23
TORSDOF 6
ENDMDL
MODEL 3
REMARK VINA RESULT: -7.009317761      1.766      3.279
REMARK  6 active torsions:
REMARK  status: ('A' for Active; 'I' for Inactive)
REMARK    1  A    between atoms: N1_1  and  C1_4 
REMARK    2  A    between atoms: C2_9  and  N4_10 
REMARK    3  A    between atoms: C4_12  and  C5_13 
REMARK    4  A    between atoms: C5_13  and  N5_14 
REMARK    5  A    between atoms: C5_13  and  N6_18 
REMARK    6  A    between atoms: C6_26  and  N9_27 
ROOT
HETATM    1  N4  UNL     1     -15.547 -26.887  21.550  1.00  0.00    -0.230 N 
HETATM    2  C3  UNL     1     -15.530 -27.775  22.573  1.00  0.00     0.150 A 
HETATM    3  C4  UNL     1     -15.703 -27.114  23.770  1.00  0.00     0.102 A 
HETATM    4  N7  UNL     1     -15.821 -25.811  23.428  1.00  0.00    -0.285 N 
ATOM      5  H7  UNL     1     -15.960 -25.037  24.077  1.00  0.00     0.188 HD
HETATM    6  N8  UNL     1     -15.724 -25.705  22.103  1.00  0.00    -0.234 N 
ATOM      7  H8  UNL     1     -15.780 -24.827  21.588  1.00  0.00     0.209 HD
ENDROOT
BRANCH   1   8
HETATM    8  C2  UNL     1     -15.400 -27.178  20.166  1.00  0.00     0.188 A 
HETATM    9  N3  UNL     1     -14.243 -27.077  19.485  1.00  0.00    -0.267 N 
HETATM   10  N2  UNL     1     -14.161 -27.364  18.187  1.00  0.00    -0.131 N 
ATOM     11  H3  UNL     1     -13.405 -26.771  19.979  1.00  0.00     0.189 HD
HETATM   12  C1  UNL     1     -15.250 -27.763  17.533  1.00  0.00     0.692 A 
ATOM     13  H2  UNL     1     -13.270 -27.278  17.698  1.00  0.00     0.205 HD
HETATM   14  N10 UNL     1     -16.431 -27.876  18.184  1.00  0.00    -0.172 N 
HETATM   15  C6  UNL     1     -16.524 -27.591  19.489  1.00  0.00     0.162 A 
ATOM     16  H10 UNL     1     -17.259 -28.181  17.674  1.00  0.00     0.186 HD
BRANCH  12  17
HETATM   17  N1  UNL     1     -15.154 -28.037  16.268  1.00  0.00    -0.233 N 
ATOM     18  H12 UNL     1     -15.337 -27.325  15.561  1.00  0.00     0.174 HD
ATOM     19  H11 UNL     1     -14.890 -28.982  15.989  1.00  0.00     0.174 HD
ENDBRANCH  12  17
BRANCH  15  20
HETATM   20  N9  UNL     1     -17.640 -27.696  20.113  1.00  0.00    -0.382 N 
ATOM     21  H92 UNL     1     -18.134 -26.872  20.454  1.00  0.00     0.157 HD
ATOM     22  H91 UNL     1     -18.044 -28.618  20.275  1.00  0.00     0.157 HD
ENDBRANCH  15  20
ENDBRANCH   1   8
BRANCH   3  23
HETATM   23  C5  UNL     1     -15.752 -27.673  25.148  1.00  0.00     0.430 C 
BRANCH  23  24
HETATM   24  N5  UNL     1     -17.036 -28.353  25.382  1.00  0.00    -0.045 N 
ATOM     25  H53 UNL     1     -16.924 -29.366  25.440  1.00  0.00     0.277 HD
ATOM     26  H52 UNL     1     -17.387 -28.186  26.326  1.00  0.00     0.277 HD
ATOM     27  H51 UNL     1     -17.716 -28.086  24.671  1.00  0.00     0.277 HD
ENDBRANCH  23  24
BRANCH  23  28
HETATM   28  N6  UNL     1     -15.610 -26.655  26.154  1.00  0.00    -0.045 N 
ATOM     29  H63 UNL     1     -15.223 -27.040  27.016  1.00  0.00     0.277 HD
ATOM     30  H62 UNL     1     -14.861 -26.005  25.916  1.00  0.00     0.277 HD
ATOM     31  H61 UNL     1     -16.485 -26.162  26.330  1.00  0.00     0.277 HD
ENDBRANCH  23  28
ENDBRANCH   3  23
TORSDOF 6
ENDMDL
MODEL 4
REMARK VINA RESULT: -6.995009185      1.211      5.972
REMARK  6 active torsions:
REMARK  status: ('A' for Active; 'I' for Inactive)
REMARK    1  A    between atoms: N1_1  and  C1_4 
REMARK    2  A    between atoms: C2_9  and  N4_10 
REMARK    3  A    between atoms: C4_12  and  C5_13 
REMARK    4  A    between atoms: C5_13  and  N5_14 
REMARK    5  A    between atoms: C5_13  and  N6_18 
REMARK    6  A    between atoms: C6_26  and  N9_27 
ROOT
HETATM    1  N4  UNL     1     -16.078 -27.701  18.578  1.00  0.00    -0.230 N 
HETATM    2  C3  UNL     1     -15.064 -28.171  17.812  1.00  0.00     0.150 A 
HETATM    3  C4  UNL     1     -15.558 -28.626  16.609  1.00  0.00     0.102 A 
HETATM    4  N7  UNL     1     -16.891 -28.414  16.683  1.00  0.00    -0.285 N 
ATOM      5  H7  UNL     1     -17.569 -28.638  15.956  1.00  0.00     0.188 HD
HETATM    6  N8  UNL     1     -17.173 -27.864  17.863  1.00  0.00    -0.234 N 
ATOM      7  H8  UNL     1     -18.109 -27.603  18.172  1.00  0.00     0.209 HD
ENDROOT
BRANCH   1   8
HETATM    8  C2  UNL     1     -15.975 -27.149  19.885  1.00  0.00     0.188 A 
HETATM    9  N3  UNL     1     -17.010 -26.999  20.731  1.00  0.00    -0.267 N 
HETATM   10  N2  UNL     1     -16.858 -26.477  21.947  1.00  0.00    -0.131 N 
ATOM     11  H3  UNL     1     -17.939 -27.295  20.432  1.00  0.00     0.189 HD
HETATM   12  C1  UNL     1     -15.649 -26.086  22.346  1.00  0.00     0.692 A 
ATOM     13  H2  UNL     1     -17.661 -26.376  22.567  1.00  0.00     0.205 HD
HETATM   14  N10 UNL     1     -14.584 -26.221  21.522  1.00  0.00    -0.172 N 
HETATM   15  C6  UNL     1     -14.726 -26.746  20.299  1.00  0.00     0.162 A 
ATOM     16  H10 UNL     1     -13.663 -25.918  21.837  1.00  0.00     0.186 HD
BRANCH  12  17
HETATM   17  N1  UNL     1     -15.517 -25.578  23.533  1.00  0.00    -0.233 N 
ATOM     18  H12 UNL     1     -15.287 -24.592  23.660  1.00  0.00     0.174 HD
ATOM     19  H11 UNL     1     -15.649 -26.182  24.344  1.00  0.00     0.174 HD
ENDBRANCH  12  17
BRANCH  15  20
HETATM   20  N9  UNL     1     -13.722 -26.876  19.512  1.00  0.00    -0.382 N 
ATOM     21  H92 UNL     1     -12.784 -26.601  19.802  1.00  0.00     0.157 HD
ATOM     22  H91 UNL     1     -13.858 -27.260  18.577  1.00  0.00     0.157 HD
ENDBRANCH  15  20
ENDBRANCH   1   8
BRANCH   3  23
HETATM   23  C5  UNL     1     -14.821 -29.223  15.462  1.00  0.00     0.430 C 
BRANCH  23  24
HETATM   24  N5  UNL     1     -15.299 -30.589  15.198  1.00  0.00    -0.045 N 
ATOM     25  H53 UNL     1     -15.657 -31.036  16.042  1.00  0.00     0.277 HD
ATOM     26  H52 UNL     1     -16.159 -30.591  14.648  1.00  0.00     0.277 HD
ATOM     27  H51 UNL     1     -14.565 -31.145  14.757  1.00  0.00     0.277 HD
ENDBRANCH  23  24
BRANCH  23  28
HETATM   28  N6  UNL     1     -13.406 -29.297  15.704  1.00  0.00    -0.045 N 
ATOM     29  H63 UNL     1     -13.199 -29.888  16.510  1.00  0.00     0.277 HD
ATOM     30  H62 UNL     1     -12.935 -29.840  14.980  1.00  0.00     0.277 HD
ATOM     31  H61 UNL     1     -12.983 -28.374  15.807  1.00  0.00     0.277 HD
ENDBRANCH  23  28
ENDBRANCH   3  23
TORSDOF 6
ENDMDL
MODEL 5
REMARK VINA RESULT: -6.993070928      1.593      6.084
REMARK  6 active torsions:
REMARK  status: ('A' for Active; 'I' for Inactive)
REMARK    1  A    between atoms: N1_1  and  C1_4 
REMARK    2  A    between atoms: C2_9  and  N4_10 
REMARK    3  A    between atoms: C4_12  and  C5_13 
REMARK    4  A    between atoms: C5_13  and  N5_14 
REMARK    5  A    between atoms: C5_13  and  N6_18 
REMARK    6  A    between atoms: C6_26  and  N9_27 
ROOT
HETATM    1  N4  UNL     1     -15.269 -28.985  16.605  1.00  0.00    -0.230 N 
HETATM    2  C3  UNL     1     -14.399 -28.629  15.630  1.00  0.00     0.150 A 
HETATM    3  C4  UNL     1     -14.283 -29.649  14.711  1.00  0.00     0.102 A 
HETATM    4  N7  UNL     1     -15.106 -30.618  15.169  1.00  0.00    -0.285 N 
ATOM      5  H7  UNL     1     -15.262 -31.523  14.725  1.00  0.00     0.188 HD
HETATM    6  N8  UNL     1     -15.679 -30.198  16.296  1.00  0.00    -0.234 N 
ATOM      7  H8  UNL     1     -16.345 -30.741  16.844  1.00  0.00     0.209 HD
ENDROOT
BRANCH   1   8
HETATM    8  C2  UNL     1     -15.654 -28.205  17.731  1.00  0.00     0.188 A 
HETATM    9  N3  UNL     1     -14.869 -27.971  18.799  1.00  0.00    -0.267 N 
HETATM   10  N2  UNL     1     -15.280 -27.231  19.828  1.00  0.00    -0.131 N 
ATOM     11  H3  UNL     1     -13.932 -28.372  18.821  1.00  0.00     0.189 HD
HETATM   12  C1  UNL     1     -16.502 -26.704  19.810  1.00  0.00     0.692 A 
ATOM     13  H2  UNL     1     -14.662 -27.070  20.624  1.00  0.00     0.205 HD
HETATM   14  N10 UNL     1     -17.320 -26.918  18.754  1.00  0.00    -0.172 N 
HETATM   15  C6  UNL     1     -16.917 -27.659  17.714  1.00  0.00     0.162 A 
ATOM     16  H10 UNL     1     -18.255 -26.511  18.749  1.00  0.00     0.186 HD
BRANCH  12  17
HETATM   17  N1  UNL     1     -16.888 -25.987  20.820  1.00  0.00    -0.233 N 
ATOM     18  H12 UNL     1     -17.828 -26.085  21.206  1.00  0.00     0.174 HD
ATOM     19  H11 UNL     1     -16.234 -25.319  21.227  1.00  0.00     0.174 HD
ENDBRANCH  12  17
BRANCH  15  20
HETATM   20  N9  UNL     1     -17.686 -27.867  16.708  1.00  0.00    -0.382 N 
ATOM     21  H92 UNL     1     -18.268 -27.123  16.326  1.00  0.00     0.157 HD
ATOM     22  H91 UNL     1     -17.721 -28.792  16.281  1.00  0.00     0.157 HD
ENDBRANCH  15  20
ENDBRANCH   1   8
BRANCH   3  23
HETATM   23  C5  UNL     1     -13.448 -29.707  13.479  1.00  0.00     0.430 C 
BRANCH  23  24
HETATM   24  N5  UNL     1     -12.754 -31.001  13.388  1.00  0.00    -0.045 N 
ATOM     25  H53 UNL     1     -13.065 -31.542  12.581  1.00  0.00     0.277 HD
ATOM     26  H52 UNL     1     -11.774 -30.888  13.127  1.00  0.00     0.277 HD
ATOM     27  H51 UNL     1     -12.857 -31.523  14.259  1.00  0.00     0.277 HD
ENDBRANCH  23  24
BRANCH  23  28
HETATM   28  N6  UNL     1     -12.449 -28.674  13.451  1.00  0.00    -0.045 N 
ATOM     29  H63 UNL     1     -11.649 -28.918  14.035  1.00  0.00     0.277 HD
ATOM     30  H62 UNL     1     -11.983 -28.636  12.544  1.00  0.00     0.277 HD
ATOM     31  H61 UNL     1     -12.828 -27.762  13.710  1.00  0.00     0.277 HD
ENDBRANCH  23  28
ENDBRANCH   3  23
TORSDOF 6
ENDMDL
