MODEL 1
REMARK VINA RESULT: -7.767597126      0.000      0.000
REMARK  5 active torsions:
REMARK  status: ('A' for Active; 'I' for Inactive)
REMARK    1  A    between atoms: N1_1  and  C1_4 
REMARK    2  A    between atoms: C2_9  and  N4_10 
REMARK    3  A    between atoms: N4_10  and  N5_12 
REMARK    4  A    between atoms: N5_12  and  C3_14 
REMARK    5  A    between atoms: N9_24  and  N10_25 
ROOT
HETATM    1  N4  UNL     1     -11.425 -27.868  17.975  1.00  0.00    -0.127 N 
ATOM      2  H4  UNL     1     -11.180 -28.830  17.741  1.00  0.00     0.206 HD
ENDROOT
BRANCH   1   3
HETATM    3  C2  UNL     1     -10.449 -27.039  18.088  1.00  0.00     0.747 A 
HETATM    4  N3  UNL     1      -9.770 -26.419  17.109  1.00  0.00    -0.114 N 
HETATM    5  N2  UNL     1      -8.867 -25.670  17.718  1.00  0.00    -0.116 N 
ATOM      6  H3  UNL     1      -9.921 -26.507  16.104  1.00  0.00     0.206 HD
HETATM    7  C1  UNL     1      -8.935 -25.783  19.048  1.00  0.00     0.727 A 
ATOM      8  H2  UNL     1      -8.197 -25.075  17.231  1.00  0.00     0.206 HD
HETATM    9  N9  UNL     1      -9.931 -26.647  19.292  1.00  0.00     0.087 N 
BRANCH   7  10
HETATM   10  N1  UNL     1      -8.207 -25.195  19.956  1.00  0.00    -0.231 N 
ATOM     11  H12 UNL     1      -7.937 -24.212  19.949  1.00  0.00     0.174 HD
ATOM     12  H11 UNL     1      -7.794 -25.592  20.799  1.00  0.00     0.174 HD
ENDBRANCH   7  10
BRANCH   9  13
HETATM   13  N10 UNL     1     -10.350 -27.060  20.552  1.00  0.00    -0.309 N 
ATOM     14 2H10 UNL     1      -9.792 -27.554  21.248  1.00  0.00     0.178 HD
ATOM     15 1H10 UNL     1     -11.282 -26.919  20.942  1.00  0.00     0.178 HD
ENDBRANCH   9  13
ENDBRANCH   1   3
BRANCH   1  16
HETATM   16  N5  UNL     1     -12.763 -27.599  18.136  1.00  0.00    -0.270 N 
ATOM     17  H5  UNL     1     -13.017 -26.785  18.696  1.00  0.00     0.189 HD
BRANCH  16  18
HETATM   18  C3  UNL     1     -13.821 -28.371  17.580  1.00  0.00     0.141 A 
HETATM   19  C4  UNL     1     -14.939 -27.771  17.037  1.00  0.00     0.127 A 
HETATM   20  C5  UNL     1     -15.960 -28.517  16.505  1.00  0.00     0.264 A 
HETATM   21  O1  UNL     1     -16.997 -27.998  16.000  1.00  0.00    -0.267 OA
HETATM   22  N6  UNL     1     -15.870 -29.854  16.513  1.00  0.00    -0.252 N 
HETATM   23  N7  UNL     1     -14.779 -30.421  17.044  1.00  0.00    -0.238 N 
ATOM     24  H6  UNL     1     -16.618 -30.428  16.123  1.00  0.00     0.191 HD
HETATM   25  N8  UNL     1     -13.791 -29.712  17.558  1.00  0.00    -0.270 N 
ATOM     26  H7  UNL     1     -14.709 -31.439  17.051  1.00  0.00     0.208 HD
ATOM     27  H8  UNL     1     -12.984 -30.197  17.950  1.00  0.00     0.190 HD
ENDBRANCH  16  18
ENDBRANCH   1  16
TORSDOF 5
ENDMDL
MODEL 2
REMARK VINA RESULT: -7.724712043      6.458      7.917
REMARK  5 active torsions:
REMARK  status: ('A' for Active; 'I' for Inactive)
REMARK    1  A    between atoms: N1_1  and  C1_4 
REMARK    2  A    between atoms: C2_9  and  N4_10 
REMARK    3  A    between atoms: N4_10  and  N5_12 
REMARK    4  A    between atoms: N5_12  and  C3_14 
REMARK    5  A    between atoms: N9_24  and  N10_25 
ROOT
HETATM    1  N4  UNL     1     -15.516 -25.813  21.980  1.00  0.00    -0.127 N 
ATOM      2  H4  UNL     1     -15.154 -24.879  21.790  1.00  0.00     0.206 HD
ENDROOT
BRANCH   1   3
HETATM    3  C2  UNL     1     -16.279 -26.326  21.082  1.00  0.00     0.747 A 
HETATM    4  N3  UNL     1     -17.617 -26.252  20.988  1.00  0.00    -0.114 N 
HETATM    5  N2  UNL     1     -17.938 -26.932  19.900  1.00  0.00    -0.116 N 
ATOM      6  H3  UNL     1     -18.253 -25.770  21.624  1.00  0.00     0.206 HD
HETATM    7  C1  UNL     1     -16.864 -27.442  19.291  1.00  0.00     0.727 A 
ATOM      8  H2  UNL     1     -18.893 -27.053  19.566  1.00  0.00     0.206 HD
HETATM    9  N9  UNL     1     -15.810 -27.065  20.030  1.00  0.00     0.087 N 
BRANCH   7  10
HETATM   10  N1  UNL     1     -16.805 -28.159  18.204  1.00  0.00    -0.231 N 
ATOM     11  H12 UNL     1     -16.359 -27.872  17.333  1.00  0.00     0.174 HD
ATOM     12  H11 UNL     1     -17.177 -29.093  18.034  1.00  0.00     0.174 HD
ENDBRANCH   7  10
BRANCH   9  13
HETATM   13  N10 UNL     1     -14.482 -27.379  19.762  1.00  0.00    -0.309 N 
ATOM     14 2H10 UNL     1     -13.836 -26.847  19.179  1.00  0.00     0.178 HD
ATOM     15 1H10 UNL     1     -13.982 -28.193  20.120  1.00  0.00     0.178 HD
ENDBRANCH   9  13
ENDBRANCH   1   3
BRANCH   1  16
HETATM   16  N5  UNL     1     -15.137 -26.386  23.171  1.00  0.00    -0.270 N 
ATOM     17  H5  UNL     1     -14.174 -26.247  23.476  1.00  0.00     0.189 HD
BRANCH  16  18
HETATM   18  C3  UNL     1     -15.989 -27.158  24.010  1.00  0.00     0.141 A 
HETATM   19  C4  UNL     1     -16.826 -26.559  24.928  1.00  0.00     0.127 A 
HETATM   20  C5  UNL     1     -17.643 -27.304  25.739  1.00  0.00     0.264 A 
HETATM   21  O1  UNL     1     -18.423 -26.785  26.591  1.00  0.00    -0.267 OA
HETATM   22  N6  UNL     1     -17.628 -28.641  25.639  1.00  0.00    -0.252 N 
HETATM   23  N7  UNL     1     -16.809 -29.207  24.743  1.00  0.00    -0.238 N 
ATOM     24  H6  UNL     1     -18.227 -29.214  26.232  1.00  0.00     0.191 HD
HETATM   25  N8  UNL     1     -16.019 -28.498  23.957  1.00  0.00    -0.270 N 
ATOM     26  H7  UNL     1     -16.796 -30.224  24.664  1.00  0.00     0.208 HD
ATOM     27  H8  UNL     1     -15.415 -28.983  23.293  1.00  0.00     0.190 HD
ENDBRANCH  16  18
ENDBRANCH   1  16
TORSDOF 5
ENDMDL
MODEL 3
REMARK VINA RESULT: -7.470764834      6.351      7.704
REMARK  5 active torsions:
REMARK  status: ('A' for Active; 'I' for Inactive)
REMARK    1  A    between atoms: N1_1  and  C1_4 
REMARK    2  A    between atoms: C2_9  and  N4_10 
REMARK    3  A    between atoms: N4_10  and  N5_12 
REMARK    4  A    between atoms: N5_12  and  C3_14 
REMARK    5  A    between atoms: N9_24  and  N10_25 
ROOT
HETATM    1  N4  UNL     1     -15.666 -25.940  21.830  1.00  0.00    -0.127 N 
ATOM      2  H4  UNL     1     -16.067 -25.002  21.836  1.00  0.00     0.206 HD
ENDROOT
BRANCH   1   3
HETATM    3  C2  UNL     1     -15.604 -26.530  20.689  1.00  0.00     0.747 A 
HETATM    4  N3  UNL     1     -14.509 -26.910  20.010  1.00  0.00    -0.114 N 
HETATM    5  N2  UNL     1     -14.954 -27.473  18.899  1.00  0.00    -0.116 N 
ATOM      6  H3  UNL     1     -13.537 -26.790  20.294  1.00  0.00     0.206 HD
HETATM    7  C1  UNL     1     -16.288 -27.470  18.833  1.00  0.00     0.727 A 
ATOM      8  H2  UNL     1     -14.349 -27.863  18.177  1.00  0.00     0.206 HD
HETATM    9  N9  UNL     1     -16.709 -26.875  19.960  1.00  0.00     0.087 N 
BRANCH   7  10
HETATM   10  N1  UNL     1     -17.060 -27.936  17.893  1.00  0.00    -0.231 N 
ATOM     11  H12 UNL     1     -17.823 -28.599  18.031  1.00  0.00     0.174 HD
ATOM     12  H11 UNL     1     -17.044 -27.734  16.893  1.00  0.00     0.174 HD
ENDBRANCH   7  10
BRANCH   9  13
HETATM   13  N10 UNL     1     -18.037 -26.656  20.308  1.00  0.00    -0.309 N 
ATOM     14 2H10 UNL     1     -18.861 -26.926  19.771  1.00  0.00     0.178 HD
ATOM     15 1H10 UNL     1     -18.358 -26.192  21.158  1.00  0.00     0.178 HD
ENDBRANCH   9  13
ENDBRANCH   1   3
BRANCH   1  16
HETATM   16  N5  UNL     1     -15.252 -26.437  23.043  1.00  0.00    -0.270 N 
ATOM     17  H5  UNL     1     -14.284 -26.268  23.317  1.00  0.00     0.189 HD
BRANCH  16  18
HETATM   18  C3  UNL     1     -16.073 -27.171  23.944  1.00  0.00     0.141 A 
HETATM   19  C4  UNL     1     -16.873 -26.531  24.868  1.00  0.00     0.127 A 
HETATM   20  C5  UNL     1     -17.661 -27.239  25.740  1.00  0.00     0.264 A 
HETATM   21  O1  UNL     1     -18.406 -26.683  26.598  1.00  0.00    -0.267 OA
HETATM   22  N6  UNL     1     -17.652 -28.579  25.694  1.00  0.00    -0.252 N 
HETATM   23  N7  UNL     1     -16.870 -29.185  24.792  1.00  0.00    -0.238 N 
ATOM     24  H6  UNL     1     -18.230 -29.125  26.333  1.00  0.00     0.191 HD
HETATM   25  N8  UNL     1     -16.108 -28.512  23.948  1.00  0.00    -0.270 N 
ATOM     26  H7  UNL     1     -16.862 -30.204  24.755  1.00  0.00     0.208 HD
ATOM     27  H8  UNL     1     -15.532 -29.026  23.282  1.00  0.00     0.190 HD
ENDBRANCH  16  18
ENDBRANCH   1  16
TORSDOF 5
ENDMDL
MODEL 4
REMARK VINA RESULT: -7.403262917      6.220      7.815
REMARK  5 active torsions:
REMARK  status: ('A' for Active; 'I' for Inactive)
REMARK    1  A    between atoms: N1_1  and  C1_4 
REMARK    2  A    between atoms: C2_9  and  N4_10 
REMARK    3  A    between atoms: N4_10  and  N5_12 
REMARK    4  A    between atoms: N5_12  and  C3_14 
REMARK    5  A    between atoms: N9_24  and  N10_25 
ROOT
HETATM    1  N4  UNL     1     -15.606 -25.736  21.995  1.00  0.00    -0.127 N 
ATOM      2  H4  UNL     1     -15.370 -24.756  21.838  1.00  0.00     0.206 HD
ENDROOT
BRANCH   1   3
HETATM    3  C2  UNL     1     -16.332 -26.302  21.098  1.00  0.00     0.747 A 
HETATM    4  N3  UNL     1     -17.668 -26.262  20.965  1.00  0.00    -0.114 N 
HETATM    5  N2  UNL     1     -17.944 -26.992  19.898  1.00  0.00    -0.116 N 
ATOM      6  H3  UNL     1     -18.332 -25.770  21.564  1.00  0.00     0.206 HD
HETATM    7  C1  UNL     1     -16.843 -27.500  19.338  1.00  0.00     0.727 A 
ATOM      8  H2  UNL     1     -18.887 -27.148  19.543  1.00  0.00     0.206 HD
HETATM    9  N9  UNL     1     -15.818 -27.071  20.089  1.00  0.00     0.087 N 
BRANCH   7  10
HETATM   10  N1  UNL     1     -16.738 -28.258  18.283  1.00  0.00    -0.231 N 
ATOM     11  H12 UNL     1     -17.385 -28.262  17.494  1.00  0.00     0.174 HD
ATOM     12  H11 UNL     1     -16.025 -28.953  18.064  1.00  0.00     0.174 HD
ENDBRANCH   7  10
BRANCH   9  13
HETATM   13  N10 UNL     1     -14.477 -27.364  19.869  1.00  0.00    -0.309 N 
ATOM     14 2H10 UNL     1     -13.847 -27.851  20.507  1.00  0.00     0.178 HD
ATOM     15 1H10 UNL     1     -13.949 -27.126  19.030  1.00  0.00     0.178 HD
ENDBRANCH   9  13
ENDBRANCH   1   3
BRANCH   1  16
HETATM   16  N5  UNL     1     -15.113 -26.308  23.144  1.00  0.00    -0.270 N 
ATOM     17  H5  UNL     1     -14.167 -26.055  23.429  1.00  0.00     0.189 HD
BRANCH  16  18
HETATM   18  C3  UNL     1     -15.825 -27.225  23.966  1.00  0.00     0.141 A 
HETATM   19  C4  UNL     1     -15.461 -28.554  24.039  1.00  0.00     0.127 A 
HETATM   20  C5  UNL     1     -16.151 -29.439  24.828  1.00  0.00     0.264 A 
HETATM   21  O1  UNL     1     -15.843 -30.663  24.918  1.00  0.00    -0.267 OA
HETATM   22  N6  UNL     1     -17.200 -29.005  25.541  1.00  0.00    -0.252 N 
HETATM   23  N7  UNL     1     -17.541 -27.712  25.459  1.00  0.00    -0.238 N 
ATOM     24  H6  UNL     1     -17.727 -29.645  26.134  1.00  0.00     0.191 HD
HETATM   25  N8  UNL     1     -16.883 -26.853  24.702  1.00  0.00    -0.270 N 
ATOM     26  H7  UNL     1     -18.338 -27.379  26.001  1.00  0.00     0.208 HD
ATOM     27  H8  UNL     1     -17.187 -25.880  24.677  1.00  0.00     0.190 HD
ENDBRANCH  16  18
ENDBRANCH   1  16
TORSDOF 5
ENDMDL
MODEL 5
REMARK VINA RESULT: -7.394823106      5.864      7.158
REMARK  5 active torsions:
REMARK  status: ('A' for Active; 'I' for Inactive)
REMARK    1  A    between atoms: N1_1  and  C1_4 
REMARK    2  A    between atoms: C2_9  and  N4_10 
REMARK    3  A    between atoms: N4_10  and  N5_12 
REMARK    4  A    between atoms: N5_12  and  C3_14 
REMARK    5  A    between atoms: N9_24  and  N10_25 
ROOT
HETATM    1  N4  UNL     1     -15.285 -26.189  23.482  1.00  0.00    -0.127 N 
ATOM      2  H4  UNL     1     -14.480 -25.783  23.957  1.00  0.00     0.206 HD
ENDROOT
BRANCH   1   3
HETATM    3  C2  UNL     1     -15.889 -27.146  24.093  1.00  0.00     0.747 A 
HETATM    4  N3  UNL     1     -17.028 -27.089  24.803  1.00  0.00    -0.114 N 
HETATM    5  N2  UNL     1     -17.245 -28.320  25.232  1.00  0.00    -0.116 N 
ATOM      6  H3  UNL     1     -17.606 -26.266  24.974  1.00  0.00     0.206 HD
HETATM    7  C1  UNL     1     -16.294 -29.168  24.830  1.00  0.00     0.727 A 
ATOM      8  H2  UNL     1     -18.045 -28.592  25.803  1.00  0.00     0.206 HD
HETATM    9  N9  UNL     1     -15.431 -28.435  24.110  1.00  0.00     0.087 N 
BRANCH   7  10
HETATM   10  N1  UNL     1     -16.186 -30.445  25.063  1.00  0.00    -0.231 N 
ATOM     11  H12 UNL     1     -16.935 -31.047  25.404  1.00  0.00     0.174 HD
ATOM     12  H11 UNL     1     -15.371 -31.049  24.953  1.00  0.00     0.174 HD
ENDBRANCH   7  10
BRANCH   9  13
HETATM   13  N10 UNL     1     -14.280 -28.916  23.496  1.00  0.00    -0.309 N 
ATOM     14 2H10 UNL     1     -13.473 -29.337  23.958  1.00  0.00     0.178 HD
ATOM     15 1H10 UNL     1     -14.096 -28.909  22.493  1.00  0.00     0.178 HD
ENDBRANCH   9  13
ENDBRANCH   1   3
BRANCH   1  16
HETATM   16  N5  UNL     1     -15.608 -25.655  22.257  1.00  0.00    -0.270 N 
ATOM     17  H5  UNL     1     -15.431 -24.661  22.114  1.00  0.00     0.189 HD
BRANCH  16  18
HETATM   18  C3  UNL     1     -16.171 -26.387  21.174  1.00  0.00     0.141 A 
HETATM   19  C4  UNL     1     -15.385 -27.167  20.350  1.00  0.00     0.127 A 
HETATM   20  C5  UNL     1     -15.928 -27.868  19.304  1.00  0.00     0.264 A 
HETATM   21  O1  UNL     1     -15.235 -28.593  18.531  1.00  0.00    -0.267 OA
HETATM   22  N6  UNL     1     -17.246 -27.794  19.076  1.00  0.00    -0.252 N 
HETATM   23  N7  UNL     1     -17.995 -27.032  19.884  1.00  0.00    -0.238 N 
ATOM     24  H6  UNL     1     -17.671 -28.307  18.303  1.00  0.00     0.191 HD
HETATM   25  N8  UNL     1     -17.482 -26.353  20.894  1.00  0.00    -0.270 N 
ATOM     26  H7  UNL     1     -18.999 -26.974  19.712  1.00  0.00     0.208 HD
ATOM     27  H8  UNL     1     -18.100 -25.788  21.476  1.00  0.00     0.190 HD
ENDBRANCH  16  18
ENDBRANCH   1  16
TORSDOF 5
ENDMDL
