MODEL 1
REMARK VINA RESULT: -8.289226163      0.000      0.000
REMARK  7 active torsions:
REMARK  status: ('A' for Active; 'I' for Inactive)
REMARK    1  A    between atoms: N1_1  and  N2_4 
REMARK    2  A    between atoms: N3_6  and  C1_8 
REMARK    3  A    between atoms: C1_8  and  C2_9 
REMARK    4  A    between atoms: C2_9  and  N4_10 
REMARK    5  A    between atoms: C5_18  and  N8_19 
REMARK    6  A    between atoms: C6_24  and  C7_25 
REMARK       I    between atoms: C7_25  and  N10_27 
REMARK    7  A    between atoms: N10_27  and  N11_29 
ROOT
HETATM    1  N4  UNL     1     -15.286 -26.731  19.813  1.00  0.00    -0.314 N 
HETATM    2  C3  UNL     1     -16.602 -26.392  19.614  1.00  0.00     0.197 A 
HETATM    3  N5  UNL     1     -17.399 -25.531  20.436  1.00  0.00    -0.063 NA
HETATM    4  N6  UNL     1     -17.079 -26.986  18.539  1.00  0.00    -0.314 N 
ATOM      5  H6  UNL     1     -18.028 -26.896  18.177  1.00  0.00     0.170 HD
HETATM    6  C4  UNL     1     -16.096 -27.735  17.999  1.00  0.00     0.153 A 
HETATM    7  N7  UNL     1     -16.062 -28.546  16.930  1.00  0.00    -0.174 N 
ATOM      8  H7  UNL     1     -16.885 -28.665  16.339  1.00  0.00     0.186 HD
HETATM    9  C5  UNL     1     -14.924 -29.194  16.658  1.00  0.00     0.678 A 
HETATM   10  N9  UNL     1     -13.837 -29.068  17.399  1.00  0.00    -0.184 N 
ATOM     11  H9  UNL     1     -12.997 -29.588  17.144  1.00  0.00     0.184 HD
HETATM   12  C6  UNL     1     -13.811 -28.251  18.505  1.00  0.00     0.149 A 
HETATM   13  C8  UNL     1     -14.963 -27.565  18.818  1.00  0.00     0.115 A 
ENDROOT
BRANCH   1  14
HETATM   14  C2  UNL     1     -14.503 -26.265  20.914  1.00  0.00     0.153 C 
BRANCH  14  15
HETATM   15  C1  UNL     1     -14.635 -27.093  22.177  1.00  0.00     0.161 C 
BRANCH  15  16
HETATM   16  N3  UNL     1     -15.806 -26.813  22.950  1.00  0.00    -0.321 N 
HETATM   17  N2  UNL     1     -15.982 -27.358  24.060  1.00  0.00    -0.254 N 
ATOM     18  H2  UNL     1     -15.465 -26.765  24.709  1.00  0.00     0.207 HD
ATOM     19  H3  UNL     1     -16.504 -26.161  22.591  1.00  0.00     0.181 HD
BRANCH  17  20
HETATM   20  N1  UNL     1     -16.461 -28.249  24.784  1.00  0.00    -0.331 N 
ATOM     21  H12 UNL     1     -17.445 -27.981  24.815  1.00  0.00     0.178 HD
ATOM     22  H11 UNL     1     -16.377 -29.092  25.351  1.00  0.00     0.178 HD
ENDBRANCH  17  20
ENDBRANCH  15  16
ENDBRANCH  14  15
ENDBRANCH   1  14
BRANCH  12  23
HETATM   23  C7  UNL     1     -12.610 -28.213  19.304  1.00  0.00     0.289 C 
HETATM   24  O1  UNL     1     -12.376 -29.058  20.171  1.00  0.00    -0.264 OA
HETATM   25  N10 UNL     1     -11.674 -27.166  19.083  1.00  0.00    -0.271 N 
ATOM     26  H10 UNL     1     -11.852 -26.458  18.370  1.00  0.00     0.189 HD
BRANCH  25  27
HETATM   27  N11 UNL     1     -10.513 -27.116  19.848  1.00  0.00    -0.342 N 
ATOM     28 2H11 UNL     1     -10.482 -26.514  20.670  1.00  0.00     0.176 HD
ATOM     29 1H11 UNL     1      -9.711 -27.684  19.575  1.00  0.00     0.176 HD
ENDBRANCH  25  27
ENDBRANCH  12  23
BRANCH   9  30
HETATM   30  N8  UNL     1     -14.906 -29.972  15.624  1.00  0.00    -0.234 N 
ATOM     31  H82 UNL     1     -15.613 -29.859  14.897  1.00  0.00     0.174 HD
ATOM     32  H81 UNL     1     -14.174 -30.680  15.576  1.00  0.00     0.174 HD
ENDBRANCH   9  30
TORSDOF 7
ENDMDL
MODEL 2
REMARK VINA RESULT: -8.117824864      0.731      1.079
REMARK  7 active torsions:
REMARK  status: ('A' for Active; 'I' for Inactive)
REMARK    1  A    between atoms: N1_1  and  N2_4 
REMARK    2  A    between atoms: N3_6  and  C1_8 
REMARK    3  A    between atoms: C1_8  and  C2_9 
REMARK    4  A    between atoms: C2_9  and  N4_10 
REMARK    5  A    between atoms: C5_18  and  N8_19 
REMARK    6  A    between atoms: C6_24  and  C7_25 
REMARK       I    between atoms: C7_25  and  N10_27 
REMARK    7  A    between atoms: N10_27  and  N11_29 
ROOT
HETATM    1  N4  UNL     1     -15.257 -26.753  19.750  1.00  0.00    -0.314 N 
HETATM    2  C3  UNL     1     -16.573 -26.404  19.570  1.00  0.00     0.197 A 
HETATM    3  N5  UNL     1     -17.364 -25.574  20.428  1.00  0.00    -0.063 NA
HETATM    4  N6  UNL     1     -17.056 -26.956  18.475  1.00  0.00    -0.314 N 
ATOM      5  H6  UNL     1     -18.007 -26.850  18.121  1.00  0.00     0.170 HD
HETATM    6  C4  UNL     1     -16.077 -27.685  17.903  1.00  0.00     0.153 A 
HETATM    7  N7  UNL     1     -16.049 -28.456  16.803  1.00  0.00    -0.174 N 
ATOM      8  H7  UNL     1     -16.875 -28.550  16.211  1.00  0.00     0.186 HD
HETATM    9  C5  UNL     1     -14.914 -29.095  16.502  1.00  0.00     0.678 A 
HETATM   10  N9  UNL     1     -13.824 -28.999  17.242  1.00  0.00    -0.184 N 
ATOM     11  H9  UNL     1     -12.986 -29.511  16.964  1.00  0.00     0.184 HD
HETATM   12  C6  UNL     1     -13.792 -28.226  18.378  1.00  0.00     0.149 A 
HETATM   13  C8  UNL     1     -14.940 -27.549  18.722  1.00  0.00     0.115 A 
ENDROOT
BRANCH   1  14
HETATM   14  C2  UNL     1     -14.468 -26.332  20.865  1.00  0.00     0.153 C 
BRANCH  14  15
HETATM   15  C1  UNL     1     -14.720 -27.105  22.145  1.00  0.00     0.161 C 
BRANCH  15  16
HETATM   16  N3  UNL     1     -15.652 -26.487  23.036  1.00  0.00    -0.321 N 
HETATM   17  N2  UNL     1     -15.581 -25.265  23.287  1.00  0.00    -0.254 N 
ATOM     18  H2  UNL     1     -16.092 -24.828  22.520  1.00  0.00     0.207 HD
ATOM     19  H3  UNL     1     -16.382 -27.049  23.473  1.00  0.00     0.181 HD
BRANCH  17  20
HETATM   20  N1  UNL     1     -15.211 -24.306  23.986  1.00  0.00    -0.331 N 
ATOM     21  H12 UNL     1     -14.291 -24.108  23.593  1.00  0.00     0.178 HD
ATOM     22  H11 UNL     1     -15.352 -23.628  24.736  1.00  0.00     0.178 HD
ENDBRANCH  17  20
ENDBRANCH  15  16
ENDBRANCH  14  15
ENDBRANCH   1  14
BRANCH  12  23
HETATM   23  C7  UNL     1     -12.587 -28.221  19.173  1.00  0.00     0.289 C 
HETATM   24  O1  UNL     1     -12.355 -29.094  20.012  1.00  0.00    -0.264 OA
HETATM   25  N10 UNL     1     -11.644 -27.174  18.980  1.00  0.00    -0.271 N 
ATOM     26  H10 UNL     1     -11.820 -26.443  18.290  1.00  0.00     0.189 HD
BRANCH  25  27
HETATM   27  N11 UNL     1     -10.480 -27.156  19.742  1.00  0.00    -0.342 N 
ATOM     28 2H11 UNL     1     -10.177 -26.282  20.171  1.00  0.00     0.176 HD
ATOM     29 1H11 UNL     1      -9.947 -28.018  19.859  1.00  0.00     0.176 HD
ENDBRANCH  25  27
ENDBRANCH  12  23
BRANCH   9  30
HETATM   30  N8  UNL     1     -14.903 -29.833  15.439  1.00  0.00    -0.234 N 
ATOM     31  H82 UNL     1     -15.653 -29.740  14.753  1.00  0.00     0.174 HD
ATOM     32  H81 UNL     1     -14.131 -30.490  15.326  1.00  0.00     0.174 HD
ENDBRANCH   9  30
TORSDOF 7
ENDMDL
MODEL 3
REMARK VINA RESULT: -8.078460974      1.410      5.019
REMARK  7 active torsions:
REMARK  status: ('A' for Active; 'I' for Inactive)
REMARK    1  A    between atoms: N1_1  and  N2_4 
REMARK    2  A    between atoms: N3_6  and  C1_8 
REMARK    3  A    between atoms: C1_8  and  C2_9 
REMARK    4  A    between atoms: C2_9  and  N4_10 
REMARK    5  A    between atoms: C5_18  and  N8_19 
REMARK    6  A    between atoms: C6_24  and  C7_25 
REMARK       I    between atoms: C7_25  and  N10_27 
REMARK    7  A    between atoms: N10_27  and  N11_29 
ROOT
HETATM    1  N4  UNL     1     -15.240 -27.149  18.808  1.00  0.00    -0.314 N 
HETATM    2  C3  UNL     1     -16.558 -26.963  18.470  1.00  0.00     0.197 A 
HETATM    3  N5  UNL     1     -17.153 -27.191  17.187  1.00  0.00    -0.063 NA
HETATM    4  N6  UNL     1     -17.245 -26.516  19.501  1.00  0.00    -0.314 N 
ATOM      5  H6  UNL     1     -18.242 -26.301  19.507  1.00  0.00     0.170 HD
HETATM    6  C4  UNL     1     -16.403 -26.392  20.547  1.00  0.00     0.153 A 
HETATM    7  N7  UNL     1     -16.584 -25.960  21.806  1.00  0.00    -0.174 N 
ATOM      8  H7  UNL     1     -17.507 -25.669  22.130  1.00  0.00     0.186 HD
HETATM    9  C5  UNL     1     -15.527 -25.920  22.623  1.00  0.00     0.678 A 
HETATM   10  N9  UNL     1     -14.316 -26.287  22.242  1.00  0.00    -0.184 N 
ATOM     11  H9  UNL     1     -13.546 -26.234  22.909  1.00  0.00     0.184 HD
HETATM   12  C6  UNL     1     -14.070 -26.738  20.967  1.00  0.00     0.149 A 
HETATM   13  C8  UNL     1     -15.133 -26.796  20.094  1.00  0.00     0.115 A 
ENDROOT
BRANCH   1  14
HETATM   14  C2  UNL     1     -14.240 -27.601  17.892  1.00  0.00     0.153 C 
BRANCH  14  15
HETATM   15  C1  UNL     1     -14.106 -29.108  17.797  1.00  0.00     0.161 C 
BRANCH  15  16
HETATM   16  N3  UNL     1     -15.125 -29.746  17.021  1.00  0.00    -0.321 N 
HETATM   17  N2  UNL     1     -14.910 -30.078  15.836  1.00  0.00    -0.254 N 
ATOM     18  H2  UNL     1     -14.461 -30.990  15.915  1.00  0.00     0.207 HD
ATOM     19  H3  UNL     1     -16.037 -29.931  17.438  1.00  0.00     0.181 HD
BRANCH  17  20
HETATM   20  N1  UNL     1     -14.959 -29.873  14.610  1.00  0.00    -0.331 N 
ATOM     21  H12 UNL     1     -15.688 -29.163  14.549  1.00  0.00     0.178 HD
ATOM     22  H11 UNL     1     -14.650 -30.047  13.653  1.00  0.00     0.178 HD
ENDBRANCH  17  20
ENDBRANCH  15  16
ENDBRANCH  14  15
ENDBRANCH   1  14
BRANCH  12  23
HETATM   23  C7  UNL     1     -12.711 -27.060  20.601  1.00  0.00     0.289 C 
HETATM   24  O1  UNL     1     -12.279 -28.213  20.648  1.00  0.00    -0.264 OA
HETATM   25  N10 UNL     1     -11.850 -26.011  20.178  1.00  0.00    -0.271 N 
ATOM     26  H10 UNL     1     -12.191 -25.050  20.134  1.00  0.00     0.189 HD
BRANCH  25  27
HETATM   27  N11 UNL     1     -10.537 -26.307  19.825  1.00  0.00    -0.342 N 
ATOM     28 2H11 UNL     1     -10.344 -26.704  18.906  1.00  0.00     0.176 HD
ATOM     29 1H11 UNL     1      -9.787 -26.123  20.491  1.00  0.00     0.176 HD
ENDBRANCH  25  27
ENDBRANCH  12  23
BRANCH   9  30
HETATM   30  N8  UNL     1     -15.717 -25.501  23.833  1.00  0.00    -0.234 N 
ATOM     31  H82 UNL     1     -16.620 -25.105  24.093  1.00  0.00     0.174 HD
ATOM     32  H81 UNL     1     -14.943 -25.586  24.491  1.00  0.00     0.174 HD
ENDBRANCH   9  30
TORSDOF 7
ENDMDL
MODEL 4
REMARK VINA RESULT: -7.979300493      1.968      4.839
REMARK  7 active torsions:
REMARK  status: ('A' for Active; 'I' for Inactive)
REMARK    1  A    between atoms: N1_1  and  N2_4 
REMARK    2  A    between atoms: N3_6  and  C1_8 
REMARK    3  A    between atoms: C1_8  and  C2_9 
REMARK    4  A    between atoms: C2_9  and  N4_10 
REMARK    5  A    between atoms: C5_18  and  N8_19 
REMARK    6  A    between atoms: C6_24  and  C7_25 
REMARK       I    between atoms: C7_25  and  N10_27 
REMARK    7  A    between atoms: N10_27  and  N11_29 
ROOT
HETATM    1  N4  UNL     1     -13.065 -27.055  19.838  1.00  0.00    -0.314 N 
HETATM    2  C3  UNL     1     -12.260 -27.463  18.803  1.00  0.00     0.197 A 
HETATM    3  N5  UNL     1     -10.834 -27.593  18.827  1.00  0.00    -0.063 NA
HETATM    4  N6  UNL     1     -12.977 -27.718  17.727  1.00  0.00    -0.314 N 
ATOM      5  H6  UNL     1     -12.614 -28.037  16.829  1.00  0.00     0.170 HD
HETATM    6  C4  UNL     1     -14.272 -27.486  18.019  1.00  0.00     0.153 A 
HETATM    7  N7  UNL     1     -15.392 -27.565  17.282  1.00  0.00    -0.174 N 
ATOM      8  H7  UNL     1     -15.357 -27.872  16.310  1.00  0.00     0.186 HD
HETATM    9  C5  UNL     1     -16.554 -27.233  17.853  1.00  0.00     0.678 A 
HETATM   10  N9  UNL     1     -16.643 -26.829  19.108  1.00  0.00    -0.184 N 
ATOM     11  H9  UNL     1     -17.558 -26.587  19.491  1.00  0.00     0.184 HD
HETATM   12  C6  UNL     1     -15.532 -26.729  19.911  1.00  0.00     0.149 A 
HETATM   13  C8  UNL     1     -14.315 -27.065  19.362  1.00  0.00     0.115 A 
ENDROOT
BRANCH   1  14
HETATM   14  C2  UNL     1     -12.574 -26.680  21.127  1.00  0.00     0.153 C 
BRANCH  14  15
HETATM   15  C1  UNL     1     -12.009 -25.276  21.203  1.00  0.00     0.161 C 
BRANCH  15  16
HETATM   16  N3  UNL     1     -10.593 -25.196  21.011  1.00  0.00    -0.321 N 
HETATM   17  N2  UNL     1     -10.118 -24.621  20.009  1.00  0.00    -0.254 N 
ATOM     18  H2  UNL     1     -10.093 -23.638  20.279  1.00  0.00     0.207 HD
ATOM     19  H3  UNL     1      -9.966 -25.612  21.699  1.00  0.00     0.181 HD
BRANCH  17  20
HETATM   20  N1  UNL     1      -9.659 -24.627  18.853  1.00  0.00    -0.331 N 
ATOM     21  H12 UNL     1      -9.881 -25.574  18.548  1.00  0.00     0.178 HD
ATOM     22  H11 UNL     1      -9.184 -24.179  18.069  1.00  0.00     0.178 HD
ENDBRANCH  17  20
ENDBRANCH  15  16
ENDBRANCH  14  15
ENDBRANCH   1  14
BRANCH  12  23
HETATM   23  C7  UNL     1     -15.695 -26.220  21.252  1.00  0.00     0.289 C 
HETATM   24  O1  UNL     1     -15.657 -25.013  21.500  1.00  0.00    -0.264 OA
HETATM   25  N10 UNL     1     -15.904 -27.142  22.314  1.00  0.00    -0.271 N 
ATOM     26  H10 UNL     1     -15.938 -28.144  22.127  1.00  0.00     0.189 HD
BRANCH  25  27
HETATM   27  N11 UNL     1     -16.061 -26.664  23.611  1.00  0.00    -0.342 N 
ATOM     28 2H11 UNL     1     -16.028 -25.658  23.780  1.00  0.00     0.176 HD
ATOM     29 1H11 UNL     1     -16.205 -27.325  24.373  1.00  0.00     0.176 HD
ENDBRANCH  25  27
ENDBRANCH  12  23
BRANCH   9  30
HETATM   30  N8  UNL     1     -17.625 -27.314  17.130  1.00  0.00    -0.234 N 
ATOM     31  H82 UNL     1     -18.356 -27.978  17.387  1.00  0.00     0.174 HD
ATOM     32  H81 UNL     1     -17.698 -26.700  16.319  1.00  0.00     0.174 HD
ENDBRANCH   9  30
TORSDOF 7
ENDMDL
MODEL 5
REMARK VINA RESULT: -7.958182818      1.269      1.316
REMARK  7 active torsions:
REMARK  status: ('A' for Active; 'I' for Inactive)
REMARK    1  A    between atoms: N1_1  and  N2_4 
REMARK    2  A    between atoms: N3_6  and  C1_8 
REMARK    3  A    between atoms: C1_8  and  C2_9 
REMARK    4  A    between atoms: C2_9  and  N4_10 
REMARK    5  A    between atoms: C5_18  and  N8_19 
REMARK    6  A    between atoms: C6_24  and  C7_25 
REMARK       I    between atoms: C7_25  and  N10_27 
REMARK    7  A    between atoms: N10_27  and  N11_29 
ROOT
HETATM    1  N4  UNL     1     -15.275 -26.723  19.783  1.00  0.00    -0.314 N 
HETATM    2  C3  UNL     1     -16.591 -26.381  19.588  1.00  0.00     0.197 A 
HETATM    3  N5  UNL     1     -17.381 -25.513  20.409  1.00  0.00    -0.063 NA
HETATM    4  N6  UNL     1     -17.075 -26.980  18.519  1.00  0.00    -0.314 N 
ATOM      5  H6  UNL     1     -18.025 -26.888  18.161  1.00  0.00     0.170 HD
HETATM    6  C4  UNL     1     -16.096 -27.735  17.979  1.00  0.00     0.153 A 
HETATM    7  N7  UNL     1     -16.070 -28.553  16.914  1.00  0.00    -0.174 N 
ATOM      8  H7  UNL     1     -16.896 -28.672  16.328  1.00  0.00     0.186 HD
HETATM    9  C5  UNL     1     -14.936 -29.206  16.641  1.00  0.00     0.678 A 
HETATM   10  N9  UNL     1     -13.845 -29.079  17.376  1.00  0.00    -0.184 N 
ATOM     11  H9  UNL     1     -13.008 -29.604  17.121  1.00  0.00     0.184 HD
HETATM   12  C6  UNL     1     -13.812 -28.256  18.477  1.00  0.00     0.149 A 
HETATM   13  C8  UNL     1     -14.959 -27.564  18.791  1.00  0.00     0.115 A 
ENDROOT
BRANCH   1  14
HETATM   14  C2  UNL     1     -14.485 -26.254  20.878  1.00  0.00     0.153 C 
BRANCH  14  15
HETATM   15  C1  UNL     1     -14.661 -27.036  22.165  1.00  0.00     0.161 C 
BRANCH  15  16
HETATM   16  N3  UNL     1     -13.438 -27.367  22.829  1.00  0.00    -0.321 N 
HETATM   17  N2  UNL     1     -13.009 -28.539  22.827  1.00  0.00    -0.254 N 
ATOM     18  H2  UNL     1     -12.498 -28.612  21.947  1.00  0.00     0.207 HD
ATOM     19  H3  UNL     1     -12.912 -26.637  23.310  1.00  0.00     0.181 HD
BRANCH  17  20
HETATM   20  N1  UNL     1     -12.880 -29.664  23.342  1.00  0.00    -0.331 N 
ATOM     21  H12 UNL     1     -11.877 -29.821  23.246  1.00  0.00     0.178 HD
ATOM     22  H11 UNL     1     -13.255 -30.494  23.801  1.00  0.00     0.178 HD
ENDBRANCH  17  20
ENDBRANCH  15  16
ENDBRANCH  14  15
ENDBRANCH   1  14
BRANCH  12  23
HETATM   23  C7  UNL     1     -12.607 -28.218  19.270  1.00  0.00     0.289 C 
HETATM   24  O1  UNL     1     -12.375 -29.054  20.147  1.00  0.00    -0.264 OA
HETATM   25  N10 UNL     1     -11.663 -27.181  19.032  1.00  0.00    -0.271 N 
ATOM     26  H10 UNL     1     -11.839 -26.480  18.312  1.00  0.00     0.189 HD
BRANCH  25  27
HETATM   27  N11 UNL     1     -10.499 -27.131  19.792  1.00  0.00    -0.342 N 
ATOM     28 2H11 UNL     1     -10.298 -27.885  20.449  1.00  0.00     0.176 HD
ATOM     29 1H11 UNL     1      -9.863 -26.341  19.680  1.00  0.00     0.176 HD
ENDBRANCH  25  27
ENDBRANCH  12  23
BRANCH   9  30
HETATM   30  N8  UNL     1     -14.926 -29.990  15.612  1.00  0.00    -0.234 N 
ATOM     31  H82 UNL     1     -15.798 -30.412  15.292  1.00  0.00     0.174 HD
ATOM     32  H81 UNL     1     -14.032 -30.158  15.152  1.00  0.00     0.174 HD
ENDBRANCH   9  30
TORSDOF 7
ENDMDL
