MODEL 1
REMARK VINA RESULT: -7.820367892      0.000      0.000
REMARK  5 active torsions:
REMARK  status: ('A' for Active; 'I' for Inactive)
REMARK       I    between atoms: N1_1  and  C1_4 
REMARK       I    between atoms: C1_4  and  N3_6 
REMARK    1  A    between atoms: N3_6  and  N4_8 
REMARK       I    between atoms: N4_8  and  C2_10 
REMARK    2  A    between atoms: C2_10  and  C3_12 
REMARK    3  A    between atoms: C3_12  and  S1_13 
REMARK    4  A    between atoms: S1_13  and  C4_14 
REMARK    5  A    between atoms: C4_14  and  C5_15 
ROOT
HETATM    1  S1  UNL     1     -15.235 -26.536  21.452  1.00  0.00    -0.153 SA
ENDROOT
BRANCH   1   2
HETATM    2  C3  UNL     1     -14.946 -25.230  22.660  1.00  0.00     0.178 C 
BRANCH   2   3
HETATM    3  C2  UNL     1     -15.402 -25.700  23.985  1.00  0.00     0.245 C 
HETATM    4  N4  UNL     1     -16.694 -26.259  24.156  1.00  0.00    -0.267 N 
ATOM      5  H4  UNL     1     -17.329 -26.344  23.362  1.00  0.00     0.190 HD
HETATM    6  O1  UNL     1     -14.616 -25.592  24.958  1.00  0.00    -0.271 OA
BRANCH   4   7
HETATM    7  N3  UNL     1     -17.089 -26.696  25.434  1.00  0.00    -0.271 N 
HETATM    8  C1  UNL     1     -17.132 -28.085  25.718  1.00  0.00     0.200 C 
HETATM    9  N1  UNL     1     -17.857 -28.548  26.658  1.00  0.00    -0.372 N 
HETATM   10  N2  UNL     1     -16.352 -28.983  24.940  1.00  0.00    -0.062 NA
ATOM     11  H12 UNL     1     -17.888 -29.547  26.863  1.00  0.00     0.158 HD
ATOM     12  H11 UNL     1     -18.417 -27.903  27.217  1.00  0.00     0.158 HD
ATOM     13  H3  UNL     1     -17.342 -26.017  26.152  1.00  0.00     0.189 HD
ENDBRANCH   4   7
ENDBRANCH   2   3
ENDBRANCH   1   2
BRANCH   1  14
HETATM   14  C4  UNL     1     -16.524 -26.039  20.305  1.00  0.00     0.140 C 
BRANCH  14  15
HETATM   15  C5  UNL     1     -16.374 -26.780  19.044  1.00  0.00     0.080 A 
HETATM   16  N5  UNL     1     -17.341 -26.894  18.120  1.00  0.00    -0.283 N 
HETATM   17  N6  UNL     1     -17.270 -27.526  16.990  1.00  0.00    -0.240 N 
ATOM     18  H5  UNL     1     -18.226 -26.433  18.330  1.00  0.00     0.189 HD
HETATM   19  N7  UNL     1     -16.261 -28.180  16.508  1.00  0.00    -0.265 N 
ATOM     20  H6  UNL     1     -18.110 -27.506  16.412  1.00  0.00     0.208 HD
HETATM   21  C6  UNL     1     -15.057 -28.350  17.075  1.00  0.00     0.159 A 
ATOM     22  H7  UNL     1     -16.398 -28.614  15.595  1.00  0.00     0.190 HD
HETATM   23  N8  UNL     1     -14.082 -29.016  16.546  1.00  0.00    -0.379 N 
HETATM   24  S2  UNL     1     -14.920 -27.591  18.598  1.00  0.00    -0.038 SA
ATOM     25  H82 UNL     1     -14.164 -29.470  15.636  1.00  0.00     0.158 HD
ATOM     26  H81 UNL     1     -13.167 -29.146  16.978  1.00  0.00     0.158 HD
ENDBRANCH  14  15
ENDBRANCH   1  14
TORSDOF 5
ENDMDL
MODEL 2
REMARK VINA RESULT: -7.727401124      1.235      1.398
REMARK  5 active torsions:
REMARK  status: ('A' for Active; 'I' for Inactive)
REMARK       I    between atoms: N1_1  and  C1_4 
REMARK       I    between atoms: C1_4  and  N3_6 
REMARK    1  A    between atoms: N3_6  and  N4_8 
REMARK       I    between atoms: N4_8  and  C2_10 
REMARK    2  A    between atoms: C2_10  and  C3_12 
REMARK    3  A    between atoms: C3_12  and  S1_13 
REMARK    4  A    between atoms: S1_13  and  C4_14 
REMARK    5  A    between atoms: C4_14  and  C5_15 
ROOT
HETATM    1  S1  UNL     1     -15.378 -26.637  21.569  1.00  0.00    -0.153 SA
ENDROOT
BRANCH   1   2
HETATM    2  C3  UNL     1     -15.598 -25.711  23.099  1.00  0.00     0.178 C 
BRANCH   2   3
HETATM    3  C2  UNL     1     -16.199 -26.604  24.112  1.00  0.00     0.245 C 
HETATM    4  N4  UNL     1     -15.879 -27.985  24.147  1.00  0.00    -0.267 N 
ATOM      5  H4  UNL     1     -15.228 -28.382  23.471  1.00  0.00     0.190 HD
HETATM    6  O1  UNL     1     -17.001 -26.109  24.941  1.00  0.00    -0.271 OA
BRANCH   4   7
HETATM    7  N3  UNL     1     -16.473 -28.801  25.129  1.00  0.00    -0.271 N 
HETATM    8  C1  UNL     1     -15.714 -29.202  26.259  1.00  0.00     0.200 C 
HETATM    9  N1  UNL     1     -16.025 -30.239  26.931  1.00  0.00    -0.372 N 
HETATM   10  N2  UNL     1     -14.585 -28.435  26.652  1.00  0.00    -0.062 NA
ATOM     11  H12 UNL     1     -15.479 -30.528  27.744  1.00  0.00     0.158 HD
ATOM     12  H11 UNL     1     -16.836 -30.790  26.649  1.00  0.00     0.158 HD
ATOM     13  H3  UNL     1     -17.442 -29.101  25.028  1.00  0.00     0.189 HD
ENDBRANCH   4   7
ENDBRANCH   2   3
ENDBRANCH   1   2
BRANCH   1  14
HETATM   14  C4  UNL     1     -16.581 -26.105  20.347  1.00  0.00     0.140 C 
BRANCH  14  15
HETATM   15  C5  UNL     1     -16.359 -26.830  19.088  1.00  0.00     0.080 A 
HETATM   16  N5  UNL     1     -17.293 -26.986  18.137  1.00  0.00    -0.283 N 
HETATM   17  N6  UNL     1     -17.159 -27.606  17.006  1.00  0.00    -0.240 N 
ATOM     18  H5  UNL     1     -18.206 -26.571  18.323  1.00  0.00     0.189 HD
HETATM   19  N7  UNL     1     -16.106 -28.206  16.549  1.00  0.00    -0.265 N 
ATOM     20  H6  UNL     1     -17.983 -27.624  16.404  1.00  0.00     0.208 HD
HETATM   21  C6  UNL     1     -14.911 -28.320  17.150  1.00  0.00     0.159 A 
ATOM     22  H7  UNL     1     -16.195 -28.641  15.631  1.00  0.00     0.190 HD
HETATM   23  N8  UNL     1     -13.890 -28.933  16.645  1.00  0.00    -0.379 N 
HETATM   24  S2  UNL     1     -14.855 -27.564  18.679  1.00  0.00    -0.038 SA
ATOM     25  H82 UNL     1     -13.923 -29.385  15.731  1.00  0.00     0.158 HD
ATOM     26  H81 UNL     1     -12.981 -29.020  17.102  1.00  0.00     0.158 HD
ENDBRANCH  14  15
ENDBRANCH   1  14
TORSDOF 5
ENDMDL
MODEL 3
REMARK VINA RESULT: -7.653773955      2.027      7.002
REMARK  5 active torsions:
REMARK  status: ('A' for Active; 'I' for Inactive)
REMARK       I    between atoms: N1_1  and  C1_4 
REMARK       I    between atoms: C1_4  and  N3_6 
REMARK    1  A    between atoms: N3_6  and  N4_8 
REMARK       I    between atoms: N4_8  and  C2_10 
REMARK    2  A    between atoms: C2_10  and  C3_12 
REMARK    3  A    between atoms: C3_12  and  S1_13 
REMARK    4  A    between atoms: S1_13  and  C4_14 
REMARK    5  A    between atoms: C4_14  and  C5_15 
ROOT
HETATM    1  S1  UNL     1     -14.925 -25.992  21.917  1.00  0.00    -0.153 SA
ENDROOT
BRANCH   1   2
HETATM    2  C3  UNL     1     -16.320 -25.715  20.810  1.00  0.00     0.178 C 
BRANCH   2   3
HETATM    3  C2  UNL     1     -16.498 -26.913  19.962  1.00  0.00     0.245 C 
HETATM    4  N4  UNL     1     -15.657 -27.147  18.845  1.00  0.00    -0.267 N 
ATOM      5  H4  UNL     1     -14.915 -26.489  18.610  1.00  0.00     0.190 HD
HETATM    6  O1  UNL     1     -17.415 -27.718  20.257  1.00  0.00    -0.271 OA
BRANCH   4   7
HETATM    7  N3  UNL     1     -15.861 -28.300  18.065  1.00  0.00    -0.271 N 
HETATM    8  C1  UNL     1     -14.743 -29.057  17.627  1.00  0.00     0.200 C 
HETATM    9  N1  UNL     1     -14.816 -29.821  16.609  1.00  0.00    -0.372 N 
HETATM   10  N2  UNL     1     -13.515 -28.963  18.335  1.00  0.00    -0.062 NA
ATOM     11  H12 UNL     1     -14.012 -30.365  16.295  1.00  0.00     0.158 HD
ATOM     12  H11 UNL     1     -15.698 -29.888  16.102  1.00  0.00     0.158 HD
ATOM     13  H3  UNL     1     -16.806 -28.590  17.815  1.00  0.00     0.189 HD
ENDBRANCH   4   7
ENDBRANCH   2   3
ENDBRANCH   1   2
BRANCH   1  14
HETATM   14  C4  UNL     1     -15.330 -25.426  23.572  1.00  0.00     0.140 C 
BRANCH  14  15
HETATM   15  C5  UNL     1     -15.843 -26.551  24.366  1.00  0.00     0.080 A 
HETATM   16  N5  UNL     1     -16.936 -26.485  25.143  1.00  0.00    -0.283 N 
HETATM   17  N6  UNL     1     -17.441 -27.439  25.861  1.00  0.00    -0.240 N 
ATOM     18  H5  UNL     1     -17.421 -25.589  25.171  1.00  0.00     0.189 HD
HETATM   19  N7  UNL     1     -17.009 -28.654  25.986  1.00  0.00    -0.265 N 
ATOM     20  H6  UNL     1     -18.281 -27.205  26.392  1.00  0.00     0.208 HD
HETATM   21  C6  UNL     1     -15.933 -29.198  25.396  1.00  0.00     0.159 A 
ATOM     22  H7  UNL     1     -17.546 -29.265  26.602  1.00  0.00     0.190 HD
HETATM   23  N8  UNL     1     -15.545 -30.421  25.558  1.00  0.00    -0.379 N 
HETATM   24  S2  UNL     1     -15.097 -28.104  24.387  1.00  0.00    -0.038 SA
ATOM     25  H82 UNL     1     -16.045 -31.075  26.162  1.00  0.00     0.158 HD
ATOM     26  H81 UNL     1     -14.727 -30.835  25.110  1.00  0.00     0.158 HD
ENDBRANCH  14  15
ENDBRANCH   1  14
TORSDOF 5
ENDMDL
MODEL 4
REMARK VINA RESULT: -7.596618166      2.316      7.246
REMARK  5 active torsions:
REMARK  status: ('A' for Active; 'I' for Inactive)
REMARK       I    between atoms: N1_1  and  C1_4 
REMARK       I    between atoms: C1_4  and  N3_6 
REMARK    1  A    between atoms: N3_6  and  N4_8 
REMARK       I    between atoms: N4_8  and  C2_10 
REMARK    2  A    between atoms: C2_10  and  C3_12 
REMARK    3  A    between atoms: C3_12  and  S1_13 
REMARK    4  A    between atoms: S1_13  and  C4_14 
REMARK    5  A    between atoms: C4_14  and  C5_15 
ROOT
HETATM    1  S1  UNL     1     -14.786 -26.525  22.899  1.00  0.00    -0.153 SA
ENDROOT
BRANCH   1   2
HETATM    2  C3  UNL     1     -15.057 -25.345  21.564  1.00  0.00     0.178 C 
BRANCH   2   3
HETATM    3  C2  UNL     1     -16.037 -25.918  20.617  1.00  0.00     0.245 C 
HETATM    4  N4  UNL     1     -15.755 -27.114  19.910  1.00  0.00    -0.267 N 
ATOM      5  H4  UNL     1     -14.867 -27.598  20.047  1.00  0.00     0.190 HD
HETATM    6  O1  UNL     1     -17.126 -25.316  20.452  1.00  0.00    -0.271 OA
BRANCH   4   7
HETATM    7  N3  UNL     1     -16.715 -27.626  19.018  1.00  0.00    -0.271 N 
HETATM    8  C1  UNL     1     -16.643 -27.289  17.642  1.00  0.00     0.200 C 
HETATM    9  N1  UNL     1     -17.670 -27.352  16.889  1.00  0.00    -0.372 N 
HETATM   10  N2  UNL     1     -15.404 -26.872  17.088  1.00  0.00    -0.062 NA
ATOM     11  H12 UNL     1     -17.618 -27.110  15.899  1.00  0.00     0.158 HD
ATOM     12  H11 UNL     1     -18.560 -27.652  17.288  1.00  0.00     0.158 HD
ATOM     13  H3  UNL     1     -17.458 -28.236  19.359  1.00  0.00     0.189 HD
ENDBRANCH   4   7
ENDBRANCH   2   3
ENDBRANCH   1   2
BRANCH   1  14
HETATM   14  C4  UNL     1     -16.025 -26.301  24.179  1.00  0.00     0.140 C 
BRANCH  14  15
HETATM   15  C5  UNL     1     -16.021 -27.465  25.077  1.00  0.00     0.080 A 
HETATM   16  N5  UNL     1     -17.102 -27.903  25.741  1.00  0.00    -0.283 N 
HETATM   17  N6  UNL     1     -17.166 -28.923  26.541  1.00  0.00    -0.240 N 
ATOM     18  H5  UNL     1     -17.965 -27.378  25.603  1.00  0.00     0.189 HD
HETATM   19  N7  UNL     1     -16.213 -29.735  26.870  1.00  0.00    -0.265 N 
ATOM     20  H6  UNL     1     -18.078 -29.107  26.960  1.00  0.00     0.208 HD
HETATM   21  C6  UNL     1     -14.937 -29.700  26.455  1.00  0.00     0.159 A 
ATOM     22  H7  UNL     1     -16.459 -30.484  27.518  1.00  0.00     0.190 HD
HETATM   23  N8  UNL     1     -14.022 -30.540  26.819  1.00  0.00    -0.379 N 
HETATM   24  S2  UNL     1     -14.617 -28.416  25.377  1.00  0.00    -0.038 SA
ATOM     25  H82 UNL     1     -14.214 -31.308  27.463  1.00  0.00     0.158 HD
ATOM     26  H81 UNL     1     -13.052 -30.514  26.503  1.00  0.00     0.158 HD
ENDBRANCH  14  15
ENDBRANCH   1  14
TORSDOF 5
ENDMDL
MODEL 5
REMARK VINA RESULT: -7.570105449      1.288      1.512
REMARK  5 active torsions:
REMARK  status: ('A' for Active; 'I' for Inactive)
REMARK       I    between atoms: N1_1  and  C1_4 
REMARK       I    between atoms: C1_4  and  N3_6 
REMARK    1  A    between atoms: N3_6  and  N4_8 
REMARK       I    between atoms: N4_8  and  C2_10 
REMARK    2  A    between atoms: C2_10  and  C3_12 
REMARK    3  A    between atoms: C3_12  and  S1_13 
REMARK    4  A    between atoms: S1_13  and  C4_14 
REMARK    5  A    between atoms: C4_14  and  C5_15 
ROOT
HETATM    1  S1  UNL     1     -14.074 -26.612  21.040  1.00  0.00    -0.153 SA
ENDROOT
BRANCH   1   2
HETATM    2  C3  UNL     1     -13.823 -26.493  22.821  1.00  0.00     0.178 C 
BRANCH   2   3
HETATM    3  C2  UNL     1     -14.657 -27.516  23.487  1.00  0.00     0.245 C 
HETATM    4  N4  UNL     1     -15.851 -27.156  24.162  1.00  0.00    -0.267 N 
ATOM      5  H4  UNL     1     -16.151 -26.182  24.198  1.00  0.00     0.190 HD
HETATM    6  O1  UNL     1     -14.281 -28.712  23.440  1.00  0.00    -0.271 OA
BRANCH   4   7
HETATM    7  N3  UNL     1     -16.616 -28.161  24.783  1.00  0.00    -0.271 N 
HETATM    8  C1  UNL     1     -17.384 -27.847  25.934  1.00  0.00     0.200 C 
HETATM    9  N1  UNL     1     -17.735 -28.750  26.763  1.00  0.00    -0.372 N 
HETATM   10  N2  UNL     1     -17.769 -26.501  26.172  1.00  0.00    -0.062 NA
ATOM     11  H12 UNL     1     -18.287 -28.524  27.591  1.00  0.00     0.158 HD
ATOM     12  H11 UNL     1     -17.458 -29.716  26.591  1.00  0.00     0.158 HD
ATOM     13  H3  UNL     1     -16.619 -29.109  24.407  1.00  0.00     0.189 HD
ENDBRANCH   4   7
ENDBRANCH   2   3
ENDBRANCH   1   2
BRANCH   1  14
HETATM   14  C4  UNL     1     -15.815 -26.417  20.649  1.00  0.00     0.140 C 
BRANCH  14  15
HETATM   15  C5  UNL     1     -16.062 -26.854  19.267  1.00  0.00     0.080 A 
HETATM   16  N5  UNL     1     -17.253 -26.769  18.654  1.00  0.00    -0.283 N 
HETATM   17  N6  UNL     1     -17.533 -27.129  17.440  1.00  0.00    -0.240 N 
ATOM     18  H5  UNL     1     -18.019 -26.377  19.201  1.00  0.00     0.189 HD
HETATM   19  N7  UNL     1     -16.735 -27.647  16.561  1.00  0.00    -0.265 N 
ATOM     20  H6  UNL     1     -18.499 -26.990  17.143  1.00  0.00     0.208 HD
HETATM   21  C6  UNL     1     -15.431 -27.926  16.712  1.00  0.00     0.159 A 
ATOM     22  H7  UNL     1     -17.143 -27.866  15.652  1.00  0.00     0.190 HD
HETATM   23  N8  UNL     1     -14.679 -28.445  15.796  1.00  0.00    -0.379 N 
HETATM   24  S2  UNL     1     -14.836 -27.527  18.261  1.00  0.00    -0.038 SA
ATOM     25  H82 UNL     1     -15.036 -28.683  14.871  1.00  0.00     0.158 HD
ATOM     26  H81 UNL     1     -13.688 -28.657  15.911  1.00  0.00     0.158 HD
ENDBRANCH  14  15
ENDBRANCH   1  14
TORSDOF 5
ENDMDL
