MODEL 1
REMARK VINA RESULT: -7.869848172      0.000      0.000
REMARK  5 active torsions:
REMARK  status: ('A' for Active; 'I' for Inactive)
REMARK    1  A    between atoms: N6_16  and  C6_17 
REMARK    2  A    between atoms: C6_17  and  S1_18 
REMARK    3  A    between atoms: S1_18  and  C7_19 
REMARK    4  A    between atoms: C7_19  and  C8_20 
REMARK       I    between atoms: C8_20  and  N7_22 
REMARK    5  A    between atoms: N7_22  and  N8_24 
ROOT
HETATM    1  N1  UNL     1     -15.348 -29.440  16.588  1.00  0.00    -0.383 N 
ATOM      2  H11 UNL     1     -16.367 -29.449  16.631  1.00  0.00     0.157 HD
ATOM      3  H12 UNL     1     -14.905 -30.000  15.859  1.00  0.00     0.157 HD
HETATM    4  C1  UNL     1     -14.707 -28.724  17.446  1.00  0.00     0.131 A 
HETATM    5  N2  UNL     1     -13.370 -28.712  17.390  1.00  0.00    -0.337 N 
ATOM      6  H2  UNL     1     -12.903 -29.265  16.670  1.00  0.00     0.168 HD
HETATM    7  C2  UNL     1     -12.613 -27.995  18.252  1.00  0.00     0.183 A 
HETATM    8  N3  UNL     1     -13.223 -27.267  19.203  1.00  0.00    -0.336 N 
ATOM      9  H3  UNL     1     -12.649 -26.728  19.851  1.00  0.00     0.168 HD
HETATM   10  C3  UNL     1     -14.558 -27.221  19.332  1.00  0.00     0.142 A 
HETATM   11  C4  UNL     1     -15.305 -27.969  18.429  1.00  0.00     0.123 A 
HETATM   12  N4  UNL     1     -16.584 -27.761  18.745  1.00  0.00    -0.324 N 
ATOM     13  H4  UNL     1     -17.392 -28.167  18.271  1.00  0.00     0.169 HD
HETATM   14  C5  UNL     1     -16.624 -26.916  19.805  1.00  0.00     0.197 A 
HETATM   15  N5  UNL     1     -17.783 -26.433  20.462  1.00  0.00    -0.063 NA
HETATM   16  N6  UNL     1     -15.363 -26.572  20.181  1.00  0.00    -0.296 N 
ENDROOT
BRANCH  16  17
HETATM   17  C6  UNL     1     -15.036 -25.693  21.306  1.00  0.00     0.207 C 
BRANCH  17  18
HETATM   18  S1  UNL     1     -14.781 -26.661  22.788  1.00  0.00    -0.139 SA
BRANCH  18  19
HETATM   19  C7  UNL     1     -15.620 -25.935  24.179  1.00  0.00     0.180 C 
BRANCH  19  20
HETATM   20  C8  UNL     1     -15.929 -26.876  25.274  1.00  0.00     0.244 C 
HETATM   21  O1  UNL     1     -15.188 -26.855  26.284  1.00  0.00    -0.271 OA
HETATM   22  N7  UNL     1     -17.008 -27.800  25.257  1.00  0.00    -0.276 N 
ATOM     23  H7  UNL     1     -17.622 -27.830  24.442  1.00  0.00     0.189 HD
BRANCH  22  24
HETATM   24  N8  UNL     1     -17.250 -28.667  26.322  1.00  0.00    -0.343 N 
ATOM     25  H82 UNL     1     -16.856 -28.430  27.232  1.00  0.00     0.176 HD
ATOM     26  H81 UNL     1     -17.803 -29.516  26.209  1.00  0.00     0.176 HD
ENDBRANCH  22  24
ENDBRANCH  19  20
ENDBRANCH  18  19
ENDBRANCH  17  18
ENDBRANCH  16  17
TORSDOF 5
ENDMDL
MODEL 2
REMARK VINA RESULT: -7.695952927      1.621      3.096
REMARK  5 active torsions:
REMARK  status: ('A' for Active; 'I' for Inactive)
REMARK    1  A    between atoms: N6_16  and  C6_17 
REMARK    2  A    between atoms: C6_17  and  S1_18 
REMARK    3  A    between atoms: S1_18  and  C7_19 
REMARK    4  A    between atoms: C7_19  and  C8_20 
REMARK       I    between atoms: C8_20  and  N7_22 
REMARK    5  A    between atoms: N7_22  and  N8_24 
ROOT
HETATM    1  N1  UNL     1     -17.102 -27.445  17.138  1.00  0.00    -0.383 N 
ATOM      2  H11 UNL     1     -16.483 -27.926  16.486  1.00  0.00     0.157 HD
ATOM      3  H12 UNL     1     -18.071 -27.309  16.851  1.00  0.00     0.157 HD
HETATM    4  C1  UNL     1     -16.617 -27.058  18.267  1.00  0.00     0.131 A 
HETATM    5  N2  UNL     1     -17.430 -26.427  19.124  1.00  0.00    -0.337 N 
ATOM      6  H2  UNL     1     -18.404 -26.278  18.858  1.00  0.00     0.168 HD
HETATM    7  C2  UNL     1     -17.008 -25.978  20.328  1.00  0.00     0.183 A 
HETATM    8  N3  UNL     1     -15.726 -26.171  20.682  1.00  0.00    -0.336 N 
ATOM      9  H3  UNL     1     -15.412 -25.831  21.590  1.00  0.00     0.168 HD
HETATM   10  C3  UNL     1     -14.843 -26.793  19.885  1.00  0.00     0.142 A 
HETATM   11  C4  UNL     1     -15.309 -27.241  18.655  1.00  0.00     0.123 A 
HETATM   12  N4  UNL     1     -14.271 -27.825  18.054  1.00  0.00    -0.324 N 
ATOM     13  H4  UNL     1     -14.280 -28.260  17.132  1.00  0.00     0.169 HD
HETATM   14  C5  UNL     1     -13.202 -27.738  18.885  1.00  0.00     0.197 A 
HETATM   15  N5  UNL     1     -11.896 -28.229  18.640  1.00  0.00    -0.063 NA
HETATM   16  N6  UNL     1     -13.547 -27.095  20.032  1.00  0.00    -0.296 N 
ENDROOT
BRANCH  16  17
HETATM   17  C6  UNL     1     -12.632 -26.806  21.138  1.00  0.00     0.207 C 
BRANCH  17  18
HETATM   18  S1  UNL     1     -13.008 -27.855  22.537  1.00  0.00    -0.139 SA
BRANCH  18  19
HETATM   19  C7  UNL     1     -13.859 -26.946  23.808  1.00  0.00     0.180 C 
BRANCH  19  20
HETATM   20  C8  UNL     1     -15.240 -27.397  24.071  1.00  0.00     0.244 C 
HETATM   21  O1  UNL     1     -16.175 -26.661  23.679  1.00  0.00    -0.271 OA
HETATM   22  N7  UNL     1     -15.576 -28.605  24.738  1.00  0.00    -0.276 N 
ATOM     23  H7  UNL     1     -14.827 -29.217  25.063  1.00  0.00     0.189 HD
BRANCH  22  24
HETATM   24  N8  UNL     1     -16.901 -28.978  24.960  1.00  0.00    -0.343 N 
ATOM     25  H82 UNL     1     -17.329 -29.636  24.309  1.00  0.00     0.176 HD
ATOM     26  H81 UNL     1     -17.439 -28.611  25.745  1.00  0.00     0.176 HD
ENDBRANCH  22  24
ENDBRANCH  19  20
ENDBRANCH  18  19
ENDBRANCH  17  18
ENDBRANCH  16  17
TORSDOF 5
ENDMDL
MODEL 3
REMARK VINA RESULT: -7.657325170      1.525      1.826
REMARK  5 active torsions:
REMARK  status: ('A' for Active; 'I' for Inactive)
REMARK    1  A    between atoms: N6_16  and  C6_17 
REMARK    2  A    between atoms: C6_17  and  S1_18 
REMARK    3  A    between atoms: S1_18  and  C7_19 
REMARK    4  A    between atoms: C7_19  and  C8_20 
REMARK       I    between atoms: C8_20  and  N7_22 
REMARK    5  A    between atoms: N7_22  and  N8_24 
ROOT
HETATM    1  N1  UNL     1     -17.563 -27.264  17.282  1.00  0.00    -0.383 N 
ATOM      2  H11 UNL     1     -18.333 -27.031  17.908  1.00  0.00     0.157 HD
ATOM      3  H12 UNL     1     -17.800 -27.510  16.320  1.00  0.00     0.157 HD
HETATM    4  C1  UNL     1     -16.363 -27.224  17.748  1.00  0.00     0.131 A 
HETATM    5  N2  UNL     1     -15.352 -27.530  16.925  1.00  0.00    -0.337 N 
ATOM      6  H2  UNL     1     -15.564 -27.780  15.959  1.00  0.00     0.168 HD
HETATM    7  C2  UNL     1     -14.061 -27.522  17.327  1.00  0.00     0.183 A 
HETATM    8  N3  UNL     1     -13.777 -27.194  18.599  1.00  0.00    -0.336 N 
ATOM      9  H3  UNL     1     -12.803 -27.189  18.899  1.00  0.00     0.168 HD
HETATM   10  C3  UNL     1     -14.727 -26.874  19.491  1.00  0.00     0.142 A 
HETATM   11  C4  UNL     1     -16.043 -26.893  19.045  1.00  0.00     0.123 A 
HETATM   12  N4  UNL     1     -16.795 -26.538  20.088  1.00  0.00    -0.324 N 
ATOM     13  H4  UNL     1     -17.811 -26.452  20.093  1.00  0.00     0.169 HD
HETATM   14  C5  UNL     1     -15.970 -26.309  21.141  1.00  0.00     0.197 A 
HETATM   15  N5  UNL     1     -16.351 -25.911  22.447  1.00  0.00    -0.063 NA
HETATM   16  N6  UNL     1     -14.676 -26.517  20.780  1.00  0.00    -0.296 N 
ENDROOT
BRANCH  16  17
HETATM   17  C6  UNL     1     -13.525 -26.384  21.676  1.00  0.00     0.207 C 
BRANCH  17  18
HETATM   18  S1  UNL     1     -13.386 -27.833  22.716  1.00  0.00    -0.139 SA
BRANCH  18  19
HETATM   19  C7  UNL     1     -13.494 -27.398  24.438  1.00  0.00     0.180 C 
BRANCH  19  20
HETATM   20  C8  UNL     1     -14.727 -27.848  25.113  1.00  0.00     0.244 C 
HETATM   21  O1  UNL     1     -14.732 -27.862  26.365  1.00  0.00    -0.271 OA
HETATM   22  N7  UNL     1     -15.905 -28.266  24.437  1.00  0.00    -0.276 N 
ATOM     23  H7  UNL     1     -15.919 -28.261  23.417  1.00  0.00     0.189 HD
BRANCH  22  24
HETATM   24  N8  UNL     1     -17.041 -28.683  25.130  1.00  0.00    -0.343 N 
ATOM     25  H82 UNL     1     -17.073 -29.647  25.462  1.00  0.00     0.176 HD
ATOM     26  H81 UNL     1     -17.824 -28.054  25.306  1.00  0.00     0.176 HD
ENDBRANCH  22  24
ENDBRANCH  19  20
ENDBRANCH  18  19
ENDBRANCH  17  18
ENDBRANCH  16  17
TORSDOF 5
ENDMDL
MODEL 4
REMARK VINA RESULT: -7.601742177      3.058      4.629
REMARK  5 active torsions:
REMARK  status: ('A' for Active; 'I' for Inactive)
REMARK    1  A    between atoms: N6_16  and  C6_17 
REMARK    2  A    between atoms: C6_17  and  S1_18 
REMARK    3  A    between atoms: S1_18  and  C7_19 
REMARK    4  A    between atoms: C7_19  and  C8_20 
REMARK       I    between atoms: C8_20  and  N7_22 
REMARK    5  A    between atoms: N7_22  and  N8_24 
ROOT
HETATM    1  N1  UNL     1     -17.806 -27.454  16.901  1.00  0.00    -0.383 N 
ATOM      2  H11 UNL     1     -18.586 -27.279  17.534  1.00  0.00     0.157 HD
ATOM      3  H12 UNL     1     -18.030 -27.736  15.947  1.00  0.00     0.157 HD
HETATM    4  C1  UNL     1     -16.608 -27.298  17.351  1.00  0.00     0.131 A 
HETATM    5  N2  UNL     1     -15.584 -27.527  16.520  1.00  0.00    -0.337 N 
ATOM      6  H2  UNL     1     -15.784 -27.811  15.560  1.00  0.00     0.168 HD
HETATM    7  C2  UNL     1     -14.294 -27.396  16.904  1.00  0.00     0.183 A 
HETATM    8  N3  UNL     1     -14.026 -27.022  18.167  1.00  0.00    -0.336 N 
ATOM      9  H3  UNL     1     -13.052 -26.925  18.453  1.00  0.00     0.168 HD
HETATM   10  C3  UNL     1     -14.990 -26.773  19.066  1.00  0.00     0.142 A 
HETATM   11  C4  UNL     1     -16.305 -26.917  18.638  1.00  0.00     0.123 A 
HETATM   12  N4  UNL     1     -17.072 -26.612  19.685  1.00  0.00    -0.324 N 
ATOM     13  H4  UNL     1     -18.093 -26.618  19.702  1.00  0.00     0.169 HD
HETATM   14  C5  UNL     1     -16.259 -26.293  20.723  1.00  0.00     0.197 A 
HETATM   15  N5  UNL     1     -16.659 -25.908  22.027  1.00  0.00    -0.063 NA
HETATM   16  N6  UNL     1     -14.956 -26.390  20.348  1.00  0.00    -0.296 N 
ENDROOT
BRANCH  16  17
HETATM   17  C6  UNL     1     -13.811 -26.139  21.227  1.00  0.00     0.207 C 
BRANCH  17  18
HETATM   18  S1  UNL     1     -13.233 -27.675  21.937  1.00  0.00    -0.139 SA
BRANCH  18  19
HETATM   19  C7  UNL     1     -11.588 -28.059  21.379  1.00  0.00     0.180 C 
BRANCH  19  20
HETATM   20  C8  UNL     1     -11.400 -27.995  19.917  1.00  0.00     0.244 C 
HETATM   21  O1  UNL     1     -11.845 -28.944  19.231  1.00  0.00    -0.271 OA
HETATM   22  N7  UNL     1     -10.748 -26.931  19.237  1.00  0.00    -0.276 N 
ATOM     23  H7  UNL     1     -10.380 -26.149  19.779  1.00  0.00     0.189 HD
BRANCH  22  24
HETATM   24  N8  UNL     1     -10.599 -26.926  17.851  1.00  0.00    -0.343 N 
ATOM     25  H82 UNL     1     -11.372 -26.574  17.287  1.00  0.00     0.176 HD
ATOM     26  H81 UNL     1      -9.747 -27.262  17.401  1.00  0.00     0.176 HD
ENDBRANCH  22  24
ENDBRANCH  19  20
ENDBRANCH  18  19
ENDBRANCH  17  18
ENDBRANCH  16  17
TORSDOF 5
ENDMDL
MODEL 5
REMARK VINA RESULT: -7.514347263      1.062      1.062
REMARK  5 active torsions:
REMARK  status: ('A' for Active; 'I' for Inactive)
REMARK    1  A    between atoms: N6_16  and  C6_17 
REMARK    2  A    between atoms: C6_17  and  S1_18 
REMARK    3  A    between atoms: S1_18  and  C7_19 
REMARK    4  A    between atoms: C7_19  and  C8_20 
REMARK       I    between atoms: C8_20  and  N7_22 
REMARK    5  A    between atoms: N7_22  and  N8_24 
ROOT
HETATM    1  N1  UNL     1     -15.437 -29.182  16.404  1.00  0.00    -0.383 N 
ATOM      2  H11 UNL     1     -16.455 -29.149  16.449  1.00  0.00     0.157 HD
ATOM      3  H12 UNL     1     -15.018 -29.704  15.634  1.00  0.00     0.157 HD
HETATM    4  C1  UNL     1     -14.765 -28.563  17.313  1.00  0.00     0.131 A 
HETATM    5  N2  UNL     1     -13.429 -28.606  17.255  1.00  0.00    -0.337 N 
ATOM      6  H2  UNL     1     -12.987 -29.123  16.494  1.00  0.00     0.168 HD
HETATM    7  C2  UNL     1     -12.642 -27.992  18.168  1.00  0.00     0.183 A 
HETATM    8  N3  UNL     1     -13.220 -27.311  19.172  1.00  0.00    -0.336 N 
ATOM      9  H3  UNL     1     -12.624 -26.850  19.859  1.00  0.00     0.168 HD
HETATM   10  C3  UNL     1     -14.552 -27.216  19.307  1.00  0.00     0.142 A 
HETATM   11  C4  UNL     1     -15.330 -27.859  18.352  1.00  0.00     0.123 A 
HETATM   12  N4  UNL     1     -16.600 -27.620  18.685  1.00  0.00    -0.324 N 
ATOM     13  H4  UNL     1     -17.424 -27.952  18.183  1.00  0.00     0.169 HD
HETATM   14  C5  UNL     1     -16.603 -26.857  19.807  1.00  0.00     0.197 A 
HETATM   15  N5  UNL     1     -17.740 -26.374  20.501  1.00  0.00    -0.063 NA
HETATM   16  N6  UNL     1     -15.329 -26.598  20.205  1.00  0.00    -0.296 N 
ENDROOT
BRANCH  16  17
HETATM   17  C6  UNL     1     -14.964 -25.823  21.393  1.00  0.00     0.207 C 
BRANCH  17  18
HETATM   18  S1  UNL     1     -14.515 -26.922  22.730  1.00  0.00    -0.139 SA
BRANCH  18  19
HETATM   19  C7  UNL     1     -15.568 -26.676  24.143  1.00  0.00     0.180 C 
BRANCH  19  20
HETATM   20  C8  UNL     1     -15.724 -27.859  25.012  1.00  0.00     0.244 C 
HETATM   21  O1  UNL     1     -16.593 -28.703  24.694  1.00  0.00    -0.271 OA
HETATM   22  N7  UNL     1     -14.956 -28.102  26.182  1.00  0.00    -0.276 N 
ATOM     23  H7  UNL     1     -14.242 -27.425  26.456  1.00  0.00     0.189 HD
BRANCH  22  24
HETATM   24  N8  UNL     1     -15.149 -29.239  26.966  1.00  0.00    -0.343 N 
ATOM     25  H82 UNL     1     -15.827 -29.931  26.647  1.00  0.00     0.176 HD
ATOM     26  H81 UNL     1     -14.635 -29.387  27.834  1.00  0.00     0.176 HD
ENDBRANCH  22  24
ENDBRANCH  19  20
ENDBRANCH  18  19
ENDBRANCH  17  18
ENDBRANCH  16  17
TORSDOF 5
ENDMDL
