MODEL 1
REMARK VINA RESULT: -7.241072280      0.000      0.000
REMARK  7 active torsions:
REMARK  status: ('A' for Active; 'I' for Inactive)
REMARK    1  A    between atoms: C2_2  and  C5_5 
REMARK    2  A    between atoms: C5_5  and  C6_6 
REMARK    3  A    between atoms: C5_5  and  N2_11 
REMARK    4  A    between atoms: C6_6  and  N1_7 
REMARK       I    between atoms: N2_11  and  C7_13 
REMARK    5  A    between atoms: C7_13  and  C8_15 
REMARK    6  A    between atoms: C19_26  and  O2_27 
REMARK    7  A    between atoms: O2_27  and  C20_28 
ROOT
HETATM    1  C8  UNL     1       8.271   5.125 -29.358  1.00  0.00     0.086 C 
HETATM    2  C9  UNL     1       7.584   6.435 -29.144  1.00  0.00     0.015 C 
HETATM    3  C10 UNL     1       7.851   7.089 -27.831  1.00  0.00     0.002 C 
HETATM    4  C11 UNL     1       8.172   6.227 -26.677  1.00  0.00     0.010 C 
HETATM    5  C12 UNL     1       7.886   4.751 -26.939  1.00  0.00    -0.032 C 
HETATM    6  C13 UNL     1       6.415   4.691 -27.336  1.00  0.00     0.016 C 
HETATM    7  C14 UNL     1       8.095   3.905 -25.747  1.00  0.00     0.003 C 
HETATM    8  C15 UNL     1       8.974   4.410 -24.669  1.00  0.00     0.010 C 
HETATM    9  C16 UNL     1       9.406   3.339 -23.710  1.00  0.00     0.039 C 
HETATM   10  C17 UNL     1       8.533   2.139 -23.686  1.00  0.00    -0.049 A 
HETATM   11  C18 UNL     1       8.209   1.507 -22.496  1.00  0.00     0.044 A 
HETATM   12  C19 UNL     1       7.403   0.396 -22.554  1.00  0.00     0.078 A 
HETATM   13  C21 UNL     1       6.912  -0.099 -23.769  1.00  0.00     0.037 A 
HETATM   14  C22 UNL     1       7.263   0.567 -24.926  1.00  0.00     0.011 A 
HETATM   15  C23 UNL     1       8.066   1.676 -24.900  1.00  0.00    -0.047 A 
HETATM   16  C24 UNL     1       8.498   2.470 -26.068  1.00  0.00     0.024 C 
HETATM   17  C25 UNL     1       7.945   2.086 -27.379  1.00  0.00     0.010 C 
HETATM   18  C26 UNL     1       8.638   2.892 -28.446  1.00  0.00     0.011 C 
HETATM   19  C27 UNL     1       8.715   4.381 -28.149  1.00  0.00    -0.024 C 
HETATM   20  C28 UNL     1      10.179   4.701 -27.958  1.00  0.00     0.017 C 
ENDROOT
BRANCH   1  21
HETATM   21  C7  UNL     1       9.309   5.210 -30.419  1.00  0.00     0.223 C 
HETATM   22  N2  UNL     1       9.720   4.073 -31.184  1.00  0.00    -0.354 N 
ATOM     23  H2  UNL     1       9.287   3.168 -31.001  1.00  0.00     0.162 HD
HETATM   24  O1  UNL     1       9.888   6.303 -30.702  1.00  0.00    -0.273 OA
BRANCH  22  25
HETATM   25  C5  UNL     1      10.733   4.174 -32.208  1.00  0.00     0.117 C 
BRANCH  25  26
HETATM   26  C2  UNL     1      10.557   3.260 -33.369  1.00  0.00    -0.029 C 
HETATM   27  C1  UNL     1      11.604   3.358 -34.423  1.00  0.00     0.016 C 
HETATM   28  C3  UNL     1       9.208   3.428 -34.047  1.00  0.00     0.016 C 
HETATM   29  C4  UNL     1      10.560   1.830 -32.819  1.00  0.00     0.016 C 
ENDBRANCH  25  26
BRANCH  25  30
HETATM   30  C6  UNL     1      12.041   3.755 -31.500  1.00  0.00     0.255 C 
BRANCH  30  31
HETATM   31  N1  UNL     1      12.768   4.989 -31.227  1.00  0.00    -0.077 N 
ATOM     32  H13 UNL     1      12.383   5.802 -31.708  1.00  0.00     0.274 HD
ATOM     33  H12 UNL     1      12.637   5.335 -30.276  1.00  0.00     0.274 HD
ATOM     34  H11 UNL     1      13.743   4.802 -31.462  1.00  0.00     0.274 HD
ENDBRANCH  30  31
ENDBRANCH  25  30
ENDBRANCH  22  25
ENDBRANCH   1  21
BRANCH  12  35
HETATM   35  O2  UNL     1       7.077  -0.241 -21.351  1.00  0.00    -0.255 OA
BRANCH  35  36
HETATM   36  C20 UNL     1       8.025  -1.201 -20.879  1.00  0.00     0.530 C 
HETATM   37  F1  UNL     1       8.988  -1.462 -21.857  1.00  0.00    -0.144 F 
HETATM   38  F2  UNL     1       7.434  -2.398 -20.565  1.00  0.00    -0.144 F 
HETATM   39  F3  UNL     1       8.692  -0.729 -19.768  1.00  0.00    -0.144 F 
ENDBRANCH  35  36
ENDBRANCH  12  35
TORSDOF 7
ENDMDL
MODEL 2
REMARK VINA RESULT: -7.136370412      3.457      4.737
REMARK  7 active torsions:
REMARK  status: ('A' for Active; 'I' for Inactive)
REMARK    1  A    between atoms: C2_2  and  C5_5 
REMARK    2  A    between atoms: C5_5  and  C6_6 
REMARK    3  A    between atoms: C5_5  and  N2_11 
REMARK    4  A    between atoms: C6_6  and  N1_7 
REMARK       I    between atoms: N2_11  and  C7_13 
REMARK    5  A    between atoms: C7_13  and  C8_15 
REMARK    6  A    between atoms: C19_26  and  O2_27 
REMARK    7  A    between atoms: O2_27  and  C20_28 
ROOT
HETATM    1  C8  UNL     1       7.939   2.019 -32.811  1.00  0.00     0.086 C 
HETATM    2  C9  UNL     1       7.995   3.405 -33.367  1.00  0.00     0.015 C 
HETATM    3  C10 UNL     1       8.896   4.348 -32.644  1.00  0.00     0.002 C 
HETATM    4  C11 UNL     1       9.130   4.121 -31.205  1.00  0.00     0.010 C 
HETATM    5  C12 UNL     1       8.161   3.111 -30.598  1.00  0.00    -0.032 C 
HETATM    6  C13 UNL     1       6.769   3.659 -30.896  1.00  0.00     0.016 C 
HETATM    7  C14 UNL     1       8.317   2.974 -29.136  1.00  0.00     0.003 C 
HETATM    8  C15 UNL     1       9.602   3.376 -28.522  1.00  0.00     0.010 C 
HETATM    9  C16 UNL     1       9.780   2.851 -27.127  1.00  0.00     0.039 C 
HETATM   10  C17 UNL     1       8.518   2.481 -26.438  1.00  0.00    -0.049 A 
HETATM   11  C18 UNL     1       8.315   2.775 -25.099  1.00  0.00     0.044 A 
HETATM   12  C19 UNL     1       7.125   2.394 -24.528  1.00  0.00     0.078 A 
HETATM   13  C21 UNL     1       6.133   1.728 -25.259  1.00  0.00     0.037 A 
HETATM   14  C22 UNL     1       6.384   1.459 -26.590  1.00  0.00     0.011 A 
HETATM   15  C23 UNL     1       7.561   1.826 -27.187  1.00  0.00    -0.047 A 
HETATM   16  C24 UNL     1       7.933   1.599 -28.598  1.00  0.00     0.024 C 
HETATM   17  C25 UNL     1       6.908   0.998 -29.471  1.00  0.00     0.010 C 
HETATM   18  C26 UNL     1       7.536   0.690 -30.805  1.00  0.00     0.011 C 
HETATM   19  C27 UNL     1       8.344   1.836 -31.391  1.00  0.00    -0.024 C 
HETATM   20  C28 UNL     1       9.784   1.377 -31.408  1.00  0.00     0.017 C 
ENDROOT
BRANCH   1  21
HETATM   21  C7  UNL     1       8.545   1.025 -33.735  1.00  0.00     0.223 C 
HETATM   22  N2  UNL     1       8.030  -0.303 -33.880  1.00  0.00    -0.354 N 
ATOM     23  H2  UNL     1       7.216  -0.582 -33.333  1.00  0.00     0.162 HD
HETATM   24  O1  UNL     1       9.556   1.303 -34.448  1.00  0.00    -0.273 OA
BRANCH  22  25
HETATM   25  C5  UNL     1       8.634  -1.257 -34.780  1.00  0.00     0.117 C 
BRANCH  25  26
HETATM   26  C2  UNL     1       7.710  -2.285 -35.331  1.00  0.00    -0.029 C 
HETATM   27  C1  UNL     1       6.274  -1.895 -35.372  1.00  0.00     0.016 C 
HETATM   28  C3  UNL     1       7.804  -3.610 -34.595  1.00  0.00     0.016 C 
HETATM   29  C4  UNL     1       8.170  -2.580 -36.762  1.00  0.00     0.016 C 
ENDBRANCH  25  26
BRANCH  25  30
HETATM   30  C6  UNL     1       9.672  -2.003 -33.912  1.00  0.00     0.255 C 
BRANCH  30  31
HETATM   31  N1  UNL     1      10.980  -1.653 -34.453  1.00  0.00    -0.077 N 
ATOM     32  H13 UNL     1      10.945  -0.911 -35.151  1.00  0.00     0.274 HD
ATOM     33  H12 UNL     1      11.578  -1.167 -33.785  1.00  0.00     0.274 HD
ATOM     34  H11 UNL     1      11.384  -2.522 -34.804  1.00  0.00     0.274 HD
ENDBRANCH  30  31
ENDBRANCH  25  30
ENDBRANCH  22  25
ENDBRANCH   1  21
BRANCH  12  35
HETATM   35  O2  UNL     1       6.923   2.691 -23.175  1.00  0.00    -0.255 OA
BRANCH  35  36
HETATM   36  C20 UNL     1       6.962   1.577 -22.281  1.00  0.00     0.530 C 
HETATM   37  F1  UNL     1       7.334   1.989 -20.999  1.00  0.00    -0.144 F 
HETATM   38  F2  UNL     1       7.868   0.627 -22.678  1.00  0.00    -0.144 F 
HETATM   39  F3  UNL     1       5.719   0.988 -22.172  1.00  0.00    -0.144 F 
ENDBRANCH  35  36
ENDBRANCH  12  35
TORSDOF 7
ENDMDL
MODEL 3
REMARK VINA RESULT: -6.986102970      3.961      5.736
REMARK  7 active torsions:
REMARK  status: ('A' for Active; 'I' for Inactive)
REMARK    1  A    between atoms: C2_2  and  C5_5 
REMARK    2  A    between atoms: C5_5  and  C6_6 
REMARK    3  A    between atoms: C5_5  and  N2_11 
REMARK    4  A    between atoms: C6_6  and  N1_7 
REMARK       I    between atoms: N2_11  and  C7_13 
REMARK    5  A    between atoms: C7_13  and  C8_15 
REMARK    6  A    between atoms: C19_26  and  O2_27 
REMARK    7  A    between atoms: O2_27  and  C20_28 
ROOT
HETATM    1  C8  UNL     1       7.819   1.644 -33.372  1.00  0.00     0.086 C 
HETATM    2  C9  UNL     1       7.516   2.910 -34.106  1.00  0.00     0.015 C 
HETATM    3  C10 UNL     1       8.462   4.035 -33.858  1.00  0.00     0.002 C 
HETATM    4  C11 UNL     1       9.157   4.085 -32.557  1.00  0.00     0.010 C 
HETATM    5  C12 UNL     1       8.566   3.123 -31.530  1.00  0.00    -0.032 C 
HETATM    6  C13 UNL     1       7.090   3.496 -31.432  1.00  0.00     0.016 C 
HETATM    7  C14 UNL     1       9.183   3.259 -30.195  1.00  0.00     0.003 C 
HETATM    8  C15 UNL     1      10.529   3.865 -30.098  1.00  0.00     0.010 C 
HETATM    9  C16 UNL     1      11.198   3.611 -28.779  1.00  0.00     0.039 C 
HETATM   10  C17 UNL     1      10.271   3.268 -27.670  1.00  0.00    -0.049 A 
HETATM   11  C18 UNL     1      10.455   3.776 -26.394  1.00  0.00     0.044 A 
HETATM   12  C19 UNL     1       9.562   3.407 -25.418  1.00  0.00     0.078 A 
HETATM   13  C21 UNL     1       8.490   2.544 -25.683  1.00  0.00     0.037 A 
HETATM   14  C22 UNL     1       8.351   2.066 -26.971  1.00  0.00     0.011 A 
HETATM   15  C23 UNL     1       9.226   2.416 -27.965  1.00  0.00    -0.047 A 
HETATM   16  C24 UNL     1       9.170   1.975 -29.374  1.00  0.00     0.024 C 
HETATM   17  C25 UNL     1       8.016   1.148 -29.770  1.00  0.00     0.010 C 
HETATM   18  C26 UNL     1       8.236   0.661 -31.178  1.00  0.00     0.011 C 
HETATM   19  C27 UNL     1       8.663   1.748 -32.151  1.00  0.00    -0.024 C 
HETATM   20  C28 UNL     1      10.075   1.411 -32.573  1.00  0.00     0.017 C 
ENDROOT
BRANCH   1  21
HETATM   21  C7  UNL     1       8.236   0.554 -34.293  1.00  0.00     0.223 C 
HETATM   22  N2  UNL     1       7.764  -0.790 -34.157  1.00  0.00    -0.354 N 
ATOM     23  H2  UNL     1       7.115  -1.014 -33.403  1.00  0.00     0.162 HD
HETATM   24  O1  UNL     1       9.038   0.761 -35.254  1.00  0.00    -0.273 OA
BRANCH  22  25
HETATM   25  C5  UNL     1       8.183  -1.836 -35.059  1.00  0.00     0.117 C 
BRANCH  25  26
HETATM   26  C2  UNL     1       7.092  -2.709 -35.572  1.00  0.00    -0.029 C 
HETATM   27  C1  UNL     1       5.735  -2.097 -35.576  1.00  0.00     0.016 C 
HETATM   28  C3  UNL     1       6.998  -4.028 -34.826  1.00  0.00     0.016 C 
HETATM   29  C4  UNL     1       7.456  -3.081 -37.013  1.00  0.00     0.016 C 
ENDBRANCH  25  26
BRANCH  25  30
HETATM   30  C6  UNL     1       9.112  -2.731 -34.208  1.00  0.00     0.255 C 
BRANCH  30  31
HETATM   31  N1  UNL     1      10.384  -2.024 -34.117  1.00  0.00    -0.077 N 
ATOM     32  H13 UNL     1      11.147  -2.497 -34.600  1.00  0.00     0.274 HD
ATOM     33  H12 UNL     1      10.408  -1.161 -34.661  1.00  0.00     0.274 HD
ATOM     34  H11 UNL     1      10.559  -1.881 -33.122  1.00  0.00     0.274 HD
ENDBRANCH  30  31
ENDBRANCH  25  30
ENDBRANCH  22  25
ENDBRANCH   1  21
BRANCH  12  35
HETATM   35  O2  UNL     1       9.749   3.921 -24.130  1.00  0.00    -0.255 OA
BRANCH  35  36
HETATM   36  C20 UNL     1      10.431   3.064 -23.211  1.00  0.00     0.530 C 
HETATM   37  F1  UNL     1       9.630   1.969 -22.875  1.00  0.00    -0.144 F 
HETATM   38  F2  UNL     1      10.748   3.706 -22.042  1.00  0.00    -0.144 F 
HETATM   39  F3  UNL     1      11.588   2.562 -23.771  1.00  0.00    -0.144 F 
ENDBRANCH  35  36
ENDBRANCH  12  35
TORSDOF 7
ENDMDL
MODEL 4
REMARK VINA RESULT: -6.911930891      0.873      1.179
REMARK  7 active torsions:
REMARK  status: ('A' for Active; 'I' for Inactive)
REMARK    1  A    between atoms: C2_2  and  C5_5 
REMARK    2  A    between atoms: C5_5  and  C6_6 
REMARK    3  A    between atoms: C5_5  and  N2_11 
REMARK    4  A    between atoms: C6_6  and  N1_7 
REMARK       I    between atoms: N2_11  and  C7_13 
REMARK    5  A    between atoms: C7_13  and  C8_15 
REMARK    6  A    between atoms: C19_26  and  O2_27 
REMARK    7  A    between atoms: O2_27  and  C20_28 
ROOT
HETATM    1  C8  UNL     1       7.753   4.525 -29.934  1.00  0.00     0.086 C 
HETATM    2  C9  UNL     1       7.133   5.877 -29.793  1.00  0.00     0.015 C 
HETATM    3  C10 UNL     1       7.555   6.651 -28.590  1.00  0.00     0.002 C 
HETATM    4  C11 UNL     1       7.968   5.899 -27.389  1.00  0.00     0.010 C 
HETATM    5  C12 UNL     1       7.609   4.417 -27.463  1.00  0.00    -0.032 C 
HETATM    6  C13 UNL     1       6.103   4.379 -27.702  1.00  0.00     0.016 C 
HETATM    7  C14 UNL     1       7.914   3.690 -26.215  1.00  0.00     0.003 C 
HETATM    8  C15 UNL     1       8.915   4.265 -25.289  1.00  0.00     0.010 C 
HETATM    9  C16 UNL     1       9.411   3.281 -24.270  1.00  0.00     0.039 C 
HETATM   10  C17 UNL     1       8.508   2.127 -24.032  1.00  0.00    -0.049 A 
HETATM   11  C18 UNL     1       8.289   1.635 -22.755  1.00  0.00     0.044 A 
HETATM   12  C19 UNL     1       7.446   0.559 -22.614  1.00  0.00     0.078 A 
HETATM   13  C21 UNL     1       6.817  -0.037 -23.714  1.00  0.00     0.037 A 
HETATM   14  C22 UNL     1       7.067   0.492 -24.965  1.00  0.00     0.011 A 
HETATM   15  C23 UNL     1       7.903   1.563 -25.137  1.00  0.00    -0.047 A 
HETATM   16  C24 UNL     1       8.236   2.214 -26.420  1.00  0.00     0.024 C 
HETATM   17  C25 UNL     1       7.538   1.721 -27.621  1.00  0.00     0.010 C 
HETATM   18  C26 UNL     1       8.141   2.383 -28.832  1.00  0.00     0.011 C 
HETATM   19  C27 UNL     1       8.296   3.890 -28.703  1.00  0.00    -0.024 C 
HETATM   20  C28 UNL     1       9.781   4.166 -28.695  1.00  0.00     0.017 C 
ENDROOT
BRANCH   1  21
HETATM   21  C7  UNL     1       8.677   4.457 -31.096  1.00  0.00     0.223 C 
HETATM   22  N2  UNL     1       9.043   3.220 -31.715  1.00  0.00    -0.354 N 
ATOM     23  H2  UNL     1       8.657   2.349 -31.351  1.00  0.00     0.162 HD
HETATM   24  O1  UNL     1       9.192   5.499 -31.603  1.00  0.00    -0.273 OA
BRANCH  22  25
HETATM   25  C5  UNL     1       9.946   3.172 -32.841  1.00  0.00     0.117 C 
BRANCH  25  26
HETATM   26  C2  UNL     1       9.756   2.018 -33.761  1.00  0.00    -0.029 C 
HETATM   27  C1  UNL     1       9.535   0.704 -33.097  1.00  0.00     0.016 C 
HETATM   28  C3  UNL     1      10.909   1.850 -34.735  1.00  0.00     0.016 C 
HETATM   29  C4  UNL     1       8.532   2.331 -34.628  1.00  0.00     0.016 C 
ENDBRANCH  25  26
BRANCH  25  30
HETATM   30  C6  UNL     1      11.347   3.018 -32.207  1.00  0.00     0.255 C 
BRANCH  30  31
HETATM   31  N1  UNL     1      12.016   4.301 -32.384  1.00  0.00    -0.077 N 
ATOM     32  H13 UNL     1      12.892   4.234 -32.901  1.00  0.00     0.274 HD
ATOM     33  H12 UNL     1      11.535   4.923 -33.035  1.00  0.00     0.274 HD
ATOM     34  H11 UNL     1      12.124   4.696 -31.450  1.00  0.00     0.274 HD
ENDBRANCH  30  31
ENDBRANCH  25  30
ENDBRANCH  22  25
ENDBRANCH   1  21
BRANCH  12  35
HETATM   35  O2  UNL     1       7.227   0.063 -21.324  1.00  0.00    -0.255 OA
BRANCH  35  36
HETATM   36  C20 UNL     1       8.049  -1.039 -20.933  1.00  0.00     0.530 C 
HETATM   37  F1  UNL     1       9.073  -1.242 -21.862  1.00  0.00    -0.144 F 
HETATM   38  F2  UNL     1       7.340  -2.210 -20.852  1.00  0.00    -0.144 F 
HETATM   39  F3  UNL     1       8.650  -0.798 -19.715  1.00  0.00    -0.144 F 
ENDBRANCH  35  36
ENDBRANCH  12  35
TORSDOF 7
ENDMDL
MODEL 5
REMARK VINA RESULT: -6.902347754      2.823      4.151
REMARK  7 active torsions:
REMARK  status: ('A' for Active; 'I' for Inactive)
REMARK    1  A    between atoms: C2_2  and  C5_5 
REMARK    2  A    between atoms: C5_5  and  C6_6 
REMARK    3  A    between atoms: C5_5  and  N2_11 
REMARK    4  A    between atoms: C6_6  and  N1_7 
REMARK       I    between atoms: N2_11  and  C7_13 
REMARK    5  A    between atoms: C7_13  and  C8_15 
REMARK    6  A    between atoms: C19_26  and  O2_27 
REMARK    7  A    between atoms: O2_27  and  C20_28 
ROOT
HETATM    1  C8  UNL     1      12.295   4.699 -29.832  1.00  0.00     0.086 C 
HETATM    2  C9  UNL     1      11.605   4.043 -30.984  1.00  0.00     0.015 C 
HETATM    3  C10 UNL     1      10.121   4.187 -31.006  1.00  0.00     0.002 C 
HETATM    4  C11 UNL     1       9.419   4.345 -29.718  1.00  0.00     0.010 C 
HETATM    5  C12 UNL     1      10.304   4.034 -28.515  1.00  0.00    -0.032 C 
HETATM    6  C13 UNL     1      10.813   2.614 -28.746  1.00  0.00     0.016 C 
HETATM    7  C14 UNL     1       9.569   4.076 -27.235  1.00  0.00     0.003 C 
HETATM    8  C15 UNL     1       8.309   4.848 -27.170  1.00  0.00     0.010 C 
HETATM    9  C16 UNL     1       7.861   5.130 -25.766  1.00  0.00     0.039 C 
HETATM   10  C17 UNL     1       8.421   4.214 -24.740  1.00  0.00    -0.049 A 
HETATM   11  C18 UNL     1       7.643   3.736 -23.699  1.00  0.00     0.044 A 
HETATM   12  C19 UNL     1       8.234   2.899 -22.783  1.00  0.00     0.078 A 
HETATM   13  C21 UNL     1       9.582   2.528 -22.882  1.00  0.00     0.037 A 
HETATM   14  C22 UNL     1      10.313   3.031 -23.939  1.00  0.00     0.011 A 
HETATM   15  C23 UNL     1       9.752   3.868 -24.867  1.00  0.00    -0.047 A 
HETATM   16  C24 UNL     1      10.432   4.457 -26.038  1.00  0.00     0.024 C 
HETATM   17  C25 UNL     1      11.825   4.039 -26.282  1.00  0.00     0.010 C 
HETATM   18  C26 UNL     1      12.388   4.876 -27.400  1.00  0.00     0.011 C 
HETATM   19  C27 UNL     1      11.482   4.977 -28.617  1.00  0.00    -0.024 C 
HETATM   20  C28 UNL     1      11.050   6.422 -28.708  1.00  0.00     0.017 C 
ENDROOT
BRANCH   1  21
HETATM   21  C7  UNL     1      13.128   5.852 -30.267  1.00  0.00     0.223 C 
HETATM   22  N2  UNL     1      13.136   6.327 -31.616  1.00  0.00    -0.354 N 
ATOM     23  H2  UNL     1      12.549   5.864 -32.310  1.00  0.00     0.162 HD
HETATM   24  O1  UNL     1      13.879   6.477 -29.459  1.00  0.00    -0.273 OA
BRANCH  22  25
HETATM   25  C5  UNL     1      13.953   7.446 -32.022  1.00  0.00     0.117 C 
BRANCH  25  26
HETATM   26  C2  UNL     1      13.225   8.727 -32.223  1.00  0.00    -0.029 C 
HETATM   27  C1  UNL     1      11.741   8.620 -32.251  1.00  0.00     0.016 C 
HETATM   28  C3  UNL     1      13.655   9.454 -33.485  1.00  0.00     0.016 C 
HETATM   29  C4  UNL     1      13.619   9.653 -31.067  1.00  0.00     0.016 C 
ENDBRANCH  25  26
BRANCH  25  30
HETATM   30  C6  UNL     1      14.521   7.030 -33.398  1.00  0.00     0.255 C 
BRANCH  30  31
HETATM   31  N1  UNL     1      15.699   6.216 -33.122  1.00  0.00    -0.077 N 
ATOM     32  H13 UNL     1      16.490   6.754 -32.767  1.00  0.00     0.274 HD
ATOM     33  H12 UNL     1      15.590   5.607 -32.312  1.00  0.00     0.274 HD
ATOM     34  H11 UNL     1      15.904   5.712 -33.985  1.00  0.00     0.274 HD
ENDBRANCH  30  31
ENDBRANCH  25  30
ENDBRANCH  22  25
ENDBRANCH   1  21
BRANCH  12  35
HETATM   35  O2  UNL     1       7.446   2.417 -21.732  1.00  0.00    -0.255 OA
BRANCH  35  36
HETATM   36  C20 UNL     1       7.165   1.016 -21.756  1.00  0.00     0.530 C 
HETATM   37  F1  UNL     1       8.123   0.310 -21.024  1.00  0.00    -0.144 F 
HETATM   38  F2  UNL     1       7.177   0.509 -23.031  1.00  0.00    -0.144 F 
HETATM   39  F3  UNL     1       5.939   0.749 -21.183  1.00  0.00    -0.144 F 
ENDBRANCH  35  36
ENDBRANCH  12  35
TORSDOF 7
ENDMDL
