MODEL 1
REMARK VINA RESULT: -8.664509419      0.000      0.000
REMARK  5 active torsions:
REMARK  status: ('A' for Active; 'I' for Inactive)
REMARK    1  A    between atoms: C4_4  and  N1_5 
REMARK       I    between atoms: N1_5  and  C5_7 
REMARK    2  A    between atoms: C5_7  and  C6_9 
REMARK    3  A    between atoms: C8_11  and  C9_12 
REMARK    4  A    between atoms: C16_26  and  C17_27 
REMARK    5  A    between atoms: C16_26  and  C23_34 
ROOT
HETATM    1  C1  UNL     1      10.097   2.912 -23.674  1.00  0.00     0.011 C 
HETATM    2  C2  UNL     1       8.775   3.519 -23.995  1.00  0.00     0.001 C 
HETATM    3  C3  UNL     1       9.045   4.561 -25.090  1.00  0.00     0.057 C 
HETATM    4  C4  UNL     1       9.576   3.825 -26.277  1.00  0.00    -0.010 C 
HETATM    5  C14 UNL     1       8.641   2.820 -26.819  1.00  0.00     0.053 C 
HETATM    6  C15 UNL     1       8.303   1.760 -25.766  1.00  0.00     0.021 C 
HETATM    7  C16 UNL     1       7.769   2.421 -24.506  1.00  0.00    -0.001 C 
ENDROOT
BRANCH   4   8
HETATM    8  N1  UNL     1      10.270   4.602 -27.237  1.00  0.00    -0.330 N 
HETATM    9  C5  UNL     1      11.654   4.873 -27.303  1.00  0.00     0.256 C 
HETATM   10  O1  UNL     1      12.440   4.493 -26.398  1.00  0.00    -0.267 OA
ATOM     11  H1  UNL     1       9.698   5.017 -27.973  1.00  0.00     0.168 HD
BRANCH   9  12
HETATM   12  C6  UNL     1      12.252   5.597 -28.441  1.00  0.00     0.047 A 
HETATM   13  C7  UNL     1      12.477   6.945 -28.215  1.00  0.00     0.034 A 
HETATM   14  C8  UNL     1      12.879   7.738 -29.274  1.00  0.00     0.051 A 
HETATM   15  C10 UNL     1      13.046   7.167 -30.518  1.00  0.00     0.048 A 
HETATM   16  C11 UNL     1      12.820   5.816 -30.722  1.00  0.00     0.061 A 
HETATM   17  N2  UNL     1      12.886   4.988 -31.781  1.00  0.00    -0.300 N 
HETATM   18  C13 UNL     1      12.406   4.984 -29.652  1.00  0.00     0.025 A 
HETATM   19  N3  UNL     1      12.554   3.746 -31.438  1.00  0.00    -0.311 N 
ATOM     20  H2  UNL     1      13.155   5.274 -32.722  1.00  0.00     0.187 HD
HETATM   21  C12 UNL     1      12.252   3.699 -30.143  1.00  0.00     0.121 A 
ATOM     22  H3  UNL     1      12.534   2.948 -32.073  1.00  0.00     0.186 HD
BRANCH  14  23
HETATM   23  C9  UNL     1      13.125   9.184 -29.117  1.00  0.00     0.417 C 
HETATM   24  F1  UNL     1      13.375   9.382 -27.750  1.00  0.00    -0.166 F 
HETATM   25  F2  UNL     1      14.167   9.584 -29.910  1.00  0.00    -0.166 F 
HETATM   26  F3  UNL     1      11.970   9.907 -29.386  1.00  0.00    -0.166 F 
ENDBRANCH  14  23
ENDBRANCH   9  12
ENDBRANCH   4   8
BRANCH   7  27
HETATM   27  C17 UNL     1       6.510   3.143 -24.766  1.00  0.00     0.068 C 
HETATM   28  N4  UNL     1       5.542   2.905 -25.688  1.00  0.00    -0.393 N 
HETATM   29  C18 UNL     1       4.598   4.084 -25.767  1.00  0.00     0.122 C 
HETATM   30  C22 UNL     1       4.741   1.796 -25.931  1.00  0.00     0.122 C 
HETATM   31  C19 UNL     1       3.251   3.740 -25.222  1.00  0.00     0.020 C 
HETATM   32  C20 UNL     1       2.555   2.898 -26.288  1.00  0.00     0.003 C 
HETATM   33  C21 UNL     1       3.637   2.131 -26.988  1.00  0.00     0.020 C 
ENDBRANCH   7  27
BRANCH   7  34
HETATM   34  C23 UNL     1       7.788   1.459 -23.386  1.00  0.00    -0.001 C 
HETATM   35  C24 UNL     1       7.420   0.043 -23.568  1.00  0.00     0.006 C 
HETATM   36  C25 UNL     1       8.251  -0.745 -22.522  1.00  0.00     0.000 C 
HETATM   37  C26 UNL     1       7.809  -0.256 -21.149  1.00  0.00     0.000 C 
HETATM   38  C27 UNL     1       6.757   0.812 -21.192  1.00  0.00     0.000 C 
HETATM   39  C28 UNL     1       7.109   1.969 -22.110  1.00  0.00     0.006 C 
ENDBRANCH   7  34
TORSDOF 5
ENDMDL
MODEL 2
REMARK VINA RESULT: -8.164950652      2.251      2.793
REMARK  5 active torsions:
REMARK  status: ('A' for Active; 'I' for Inactive)
REMARK    1  A    between atoms: C4_4  and  N1_5 
REMARK       I    between atoms: N1_5  and  C5_7 
REMARK    2  A    between atoms: C5_7  and  C6_9 
REMARK    3  A    between atoms: C8_11  and  C9_12 
REMARK    4  A    between atoms: C16_26  and  C17_27 
REMARK    5  A    between atoms: C16_26  and  C23_34 
ROOT
HETATM    1  C1  UNL     1      10.086   3.009 -24.011  1.00  0.00     0.011 C 
HETATM    2  C2  UNL     1       8.755   3.601 -24.324  1.00  0.00     0.001 C 
HETATM    3  C3  UNL     1       8.995   4.595 -25.470  1.00  0.00     0.057 C 
HETATM    4  C4  UNL     1       9.497   3.807 -26.637  1.00  0.00    -0.010 C 
HETATM    5  C14 UNL     1       8.550   2.779 -27.110  1.00  0.00     0.053 C 
HETATM    6  C15 UNL     1       8.239   1.766 -26.003  1.00  0.00     0.021 C 
HETATM    7  C16 UNL     1       7.738   2.482 -24.760  1.00  0.00    -0.001 C 
ENDROOT
BRANCH   4   8
HETATM    8  N1  UNL     1      10.165   4.541 -27.648  1.00  0.00    -0.330 N 
HETATM    9  C5  UNL     1      11.551   4.597 -27.913  1.00  0.00     0.256 C 
HETATM   10  O1  UNL     1      12.384   4.026 -27.164  1.00  0.00    -0.267 OA
ATOM     11  H1  UNL     1       9.570   5.099 -28.261  1.00  0.00     0.168 HD
BRANCH   9  12
HETATM   12  C6  UNL     1      12.090   5.308 -29.087  1.00  0.00     0.047 A 
HETATM   13  C7  UNL     1      11.855   4.683 -30.301  1.00  0.00     0.034 A 
HETATM   14  C8  UNL     1      12.463   5.187 -31.436  1.00  0.00     0.051 A 
HETATM   15  C10 UNL     1      13.278   6.294 -31.329  1.00  0.00     0.048 A 
HETATM   16  C11 UNL     1      13.497   6.907 -30.107  1.00  0.00     0.061 A 
HETATM   17  N2  UNL     1      14.218   7.962 -29.684  1.00  0.00    -0.300 N 
HETATM   18  C13 UNL     1      12.886   6.407 -28.929  1.00  0.00     0.025 A 
HETATM   19  N3  UNL     1      14.089   8.135 -28.371  1.00  0.00    -0.311 N 
ATOM     20  H2  UNL     1      14.788   8.551 -30.291  1.00  0.00     0.187 HD
HETATM   21  C12 UNL     1      13.283   7.204 -27.869  1.00  0.00     0.121 A 
ATOM     22  H3  UNL     1      14.541   8.872 -27.830  1.00  0.00     0.186 HD
BRANCH  14  23
HETATM   23  C9  UNL     1      12.274   4.569 -32.762  1.00  0.00     0.417 C 
HETATM   24  F1  UNL     1      11.823   3.263 -32.514  1.00  0.00    -0.166 F 
HETATM   25  F2  UNL     1      11.394   5.301 -33.513  1.00  0.00    -0.166 F 
HETATM   26  F3  UNL     1      13.495   4.417 -33.407  1.00  0.00    -0.166 F 
ENDBRANCH  14  23
ENDBRANCH   9  12
ENDBRANCH   4   8
BRANCH   7  27
HETATM   27  C17 UNL     1       6.472   3.192 -25.019  1.00  0.00     0.068 C 
HETATM   28  N4  UNL     1       5.450   2.877 -25.856  1.00  0.00    -0.393 N 
HETATM   29  C18 UNL     1       4.513   4.056 -25.999  1.00  0.00     0.122 C 
HETATM   30  C22 UNL     1       4.628   1.761 -25.942  1.00  0.00     0.122 C 
HETATM   31  C19 UNL     1       3.197   3.785 -25.346  1.00  0.00     0.020 C 
HETATM   32  C20 UNL     1       2.434   2.852 -26.283  1.00  0.00     0.003 C 
HETATM   33  C21 UNL     1       3.468   2.006 -26.964  1.00  0.00     0.020 C 
ENDBRANCH   7  27
BRANCH   7  34
HETATM   34  C23 UNL     1       7.787   1.570 -23.600  1.00  0.00    -0.001 C 
HETATM   35  C24 UNL     1       7.427   0.145 -23.713  1.00  0.00     0.006 C 
HETATM   36  C25 UNL     1       8.285  -0.590 -22.650  1.00  0.00     0.000 C 
HETATM   37  C26 UNL     1       7.866  -0.045 -21.291  1.00  0.00     0.000 C 
HETATM   38  C27 UNL     1       6.805   1.012 -21.359  1.00  0.00     0.000 C 
HETATM   39  C28 UNL     1       7.129   2.131 -22.334  1.00  0.00     0.006 C 
ENDBRANCH   7  34
TORSDOF 5
ENDMDL
MODEL 3
REMARK VINA RESULT: -8.070045978      0.916      1.180
REMARK  5 active torsions:
REMARK  status: ('A' for Active; 'I' for Inactive)
REMARK    1  A    between atoms: C4_4  and  N1_5 
REMARK       I    between atoms: N1_5  and  C5_7 
REMARK    2  A    between atoms: C5_7  and  C6_9 
REMARK    3  A    between atoms: C8_11  and  C9_12 
REMARK    4  A    between atoms: C16_26  and  C17_27 
REMARK    5  A    between atoms: C16_26  and  C23_34 
ROOT
HETATM    1  C1  UNL     1      10.225   3.016 -24.270  1.00  0.00     0.011 C 
HETATM    2  C2  UNL     1       8.919   3.656 -24.596  1.00  0.00     0.001 C 
HETATM    3  C3  UNL     1       9.192   4.583 -25.790  1.00  0.00     0.057 C 
HETATM    4  C4  UNL     1       9.642   3.721 -26.924  1.00  0.00    -0.010 C 
HETATM    5  C14 UNL     1       8.642   2.717 -27.340  1.00  0.00     0.053 C 
HETATM    6  C15 UNL     1       8.299   1.772 -26.184  1.00  0.00     0.021 C 
HETATM    7  C16 UNL     1       7.846   2.566 -24.971  1.00  0.00    -0.001 C 
ENDROOT
BRANCH   4   8
HETATM    8  N1  UNL     1      10.331   4.375 -27.975  1.00  0.00    -0.330 N 
HETATM    9  C5  UNL     1      11.718   4.377 -28.239  1.00  0.00     0.256 C 
HETATM   10  O1  UNL     1      12.534   3.828 -27.456  1.00  0.00    -0.267 OA
ATOM     11  H1  UNL     1       9.753   4.913 -28.621  1.00  0.00     0.168 HD
BRANCH   9  12
HETATM   12  C6  UNL     1      12.278   5.003 -29.451  1.00  0.00     0.047 A 
HETATM   13  C7  UNL     1      12.877   6.235 -29.242  1.00  0.00     0.034 A 
HETATM   14  C8  UNL     1      13.282   6.972 -30.340  1.00  0.00     0.051 A 
HETATM   15  C10 UNL     1      13.082   6.460 -31.605  1.00  0.00     0.048 A 
HETATM   16  C11 UNL     1      12.487   5.224 -31.793  1.00  0.00     0.061 A 
HETATM   17  N2  UNL     1      12.157   4.477 -32.863  1.00  0.00    -0.300 N 
HETATM   18  C13 UNL     1      12.062   4.452 -30.682  1.00  0.00     0.025 A 
HETATM   19  N3  UNL     1      11.582   3.336 -32.491  1.00  0.00    -0.311 N 
ATOM     20  H2  UNL     1      12.327   4.749 -33.831  1.00  0.00     0.187 HD
HETATM   21  C12 UNL     1      11.502   3.281 -31.164  1.00  0.00     0.121 A 
ATOM     22  H3  UNL     1      11.251   2.612 -33.127  1.00  0.00     0.186 HD
BRANCH  14  23
HETATM   23  C9  UNL     1      13.913   8.298 -30.201  1.00  0.00     0.417 C 
HETATM   24  F1  UNL     1      15.122   8.221 -30.911  1.00  0.00    -0.166 F 
HETATM   25  F2  UNL     1      13.082   9.278 -30.673  1.00  0.00    -0.166 F 
HETATM   26  F3  UNL     1      14.279   8.527 -28.881  1.00  0.00    -0.166 F 
ENDBRANCH  14  23
ENDBRANCH   9  12
ENDBRANCH   4   8
BRANCH   7  27
HETATM   27  C17 UNL     1       6.612   3.323 -25.249  1.00  0.00     0.068 C 
HETATM   28  N4  UNL     1       5.510   2.965 -25.960  1.00  0.00    -0.393 N 
HETATM   29  C18 UNL     1       4.642   4.176 -26.216  1.00  0.00     0.122 C 
HETATM   30  C22 UNL     1       4.616   1.912 -25.821  1.00  0.00     0.122 C 
HETATM   31  C19 UNL     1       3.365   4.102 -25.445  1.00  0.00     0.020 C 
HETATM   32  C20 UNL     1       2.475   3.101 -26.176  1.00  0.00     0.003 C 
HETATM   33  C21 UNL     1       3.398   2.090 -26.788  1.00  0.00     0.020 C 
ENDBRANCH   7  27
BRANCH   7  34
HETATM   34  C23 UNL     1       7.867   1.707 -23.770  1.00  0.00    -0.001 C 
HETATM   35  C24 UNL     1       7.432   0.299 -23.812  1.00  0.00     0.006 C 
HETATM   36  C25 UNL     1       8.269  -0.430 -22.728  1.00  0.00     0.000 C 
HETATM   37  C26 UNL     1       7.900   0.197 -21.390  1.00  0.00     0.000 C 
HETATM   38  C27 UNL     1       6.893   1.303 -21.493  1.00  0.00     0.000 C 
HETATM   39  C28 UNL     1       7.259   2.358 -22.523  1.00  0.00     0.006 C 
ENDBRANCH   7  34
TORSDOF 5
ENDMDL
MODEL 4
REMARK VINA RESULT: -7.989168731      0.708      1.316
REMARK  5 active torsions:
REMARK  status: ('A' for Active; 'I' for Inactive)
REMARK    1  A    between atoms: C4_4  and  N1_5 
REMARK       I    between atoms: N1_5  and  C5_7 
REMARK    2  A    between atoms: C5_7  and  C6_9 
REMARK    3  A    between atoms: C8_11  and  C9_12 
REMARK    4  A    between atoms: C16_26  and  C17_27 
REMARK    5  A    between atoms: C16_26  and  C23_34 
ROOT
HETATM    1  C1  UNL     1       9.669   3.304 -23.662  1.00  0.00     0.011 C 
HETATM    2  C2  UNL     1       8.336   3.614 -24.251  1.00  0.00     0.001 C 
HETATM    3  C3  UNL     1       8.600   4.615 -25.386  1.00  0.00     0.057 C 
HETATM    4  C4  UNL     1       9.460   3.923 -26.392  1.00  0.00    -0.010 C 
HETATM    5  C14 UNL     1       8.838   2.718 -26.976  1.00  0.00     0.053 C 
HETATM    6  C15 UNL     1       8.518   1.684 -25.892  1.00  0.00     0.021 C 
HETATM    7  C16 UNL     1       7.657   2.307 -24.807  1.00  0.00    -0.001 C 
ENDROOT
BRANCH   4   8
HETATM    8  N1  UNL     1      10.158   4.757 -27.300  1.00  0.00    -0.330 N 
HETATM    9  C5  UNL     1      11.550   4.978 -27.386  1.00  0.00     0.256 C 
HETATM   10  O1  UNL     1      12.344   4.486 -26.544  1.00  0.00    -0.267 OA
ATOM     11  H1  UNL     1       9.584   5.260 -27.976  1.00  0.00     0.168 HD
BRANCH   9  12
HETATM   12  C6  UNL     1      12.145   5.780 -28.471  1.00  0.00     0.047 A 
HETATM   13  C7  UNL     1      12.273   7.131 -28.190  1.00  0.00     0.034 A 
HETATM   14  C8  UNL     1      12.664   7.986 -29.204  1.00  0.00     0.051 A 
HETATM   15  C10 UNL     1      12.919   7.472 -30.458  1.00  0.00     0.048 A 
HETATM   16  C11 UNL     1      12.791   6.119 -30.717  1.00  0.00     0.061 A 
HETATM   17  N2  UNL     1      12.954   5.335 -31.799  1.00  0.00    -0.300 N 
HETATM   18  C13 UNL     1      12.389   5.222 -29.694  1.00  0.00     0.025 A 
HETATM   19  N3  UNL     1      12.690   4.063 -31.513  1.00  0.00    -0.311 N 
ATOM     20  H2  UNL     1      13.242   5.672 -32.717  1.00  0.00     0.187 HD
HETATM   21  C12 UNL     1      12.339   3.950 -30.235  1.00  0.00     0.121 A 
ATOM     22  H3  UNL     1      12.749   3.289 -32.175  1.00  0.00     0.186 HD
BRANCH  14  23
HETATM   23  C9  UNL     1      12.809   9.438 -28.988  1.00  0.00     0.417 C 
HETATM   24  F1  UNL     1      11.583  10.004 -29.373  1.00  0.00    -0.166 F 
HETATM   25  F2  UNL     1      13.128   9.701 -27.683  1.00  0.00    -0.166 F 
HETATM   26  F3  UNL     1      13.747   9.970 -29.862  1.00  0.00    -0.166 F 
ENDBRANCH  14  23
ENDBRANCH   9  12
ENDBRANCH   4   8
BRANCH   7  27
HETATM   27  C17 UNL     1       6.353   2.747 -25.337  1.00  0.00     0.068 C 
HETATM   28  N4  UNL     1       5.330   3.389 -24.716  1.00  0.00    -0.393 N 
HETATM   29  C18 UNL     1       4.093   3.357 -25.586  1.00  0.00     0.122 C 
HETATM   30  C22 UNL     1       5.263   4.606 -24.051  1.00  0.00     0.122 C 
HETATM   31  C19 UNL     1       3.763   4.716 -26.111  1.00  0.00     0.020 C 
HETATM   32  C20 UNL     1       3.133   5.486 -24.953  1.00  0.00     0.003 C 
HETATM   33  C21 UNL     1       3.780   4.966 -23.704  1.00  0.00     0.020 C 
ENDBRANCH   7  27
BRANCH   7  34
HETATM   34  C23 UNL     1       7.654   1.444 -23.609  1.00  0.00    -0.001 C 
HETATM   35  C24 UNL     1       7.157   0.057 -23.650  1.00  0.00     0.006 C 
HETATM   36  C25 UNL     1       7.973  -0.713 -22.578  1.00  0.00     0.000 C 
HETATM   37  C26 UNL     1       7.648  -0.074 -21.234  1.00  0.00     0.000 C 
HETATM   38  C27 UNL     1       6.690   1.076 -21.322  1.00  0.00     0.000 C 
HETATM   39  C28 UNL     1       7.090   2.117 -22.353  1.00  0.00     0.006 C 
ENDBRANCH   7  34
TORSDOF 5
ENDMDL
MODEL 5
REMARK VINA RESULT: -7.969827654      6.142     10.103
REMARK  5 active torsions:
REMARK  status: ('A' for Active; 'I' for Inactive)
REMARK    1  A    between atoms: C4_4  and  N1_5 
REMARK       I    between atoms: N1_5  and  C5_7 
REMARK    2  A    between atoms: C5_7  and  C6_9 
REMARK    3  A    between atoms: C8_11  and  C9_12 
REMARK    4  A    between atoms: C16_26  and  C17_27 
REMARK    5  A    between atoms: C16_26  and  C23_34 
ROOT
HETATM    1  C1  UNL     1       6.582   5.521 -25.667  1.00  0.00     0.011 C 
HETATM    2  C2  UNL     1       6.611   4.716 -24.414  1.00  0.00     0.001 C 
HETATM    3  C3  UNL     1       5.172   4.719 -23.877  1.00  0.00     0.057 C 
HETATM    4  C4  UNL     1       4.318   4.048 -24.902  1.00  0.00    -0.010 C 
HETATM    5  C14 UNL     1       4.705   2.649 -25.172  1.00  0.00     0.053 C 
HETATM    6  C15 UNL     1       6.146   2.566 -25.685  1.00  0.00     0.021 C 
HETATM    7  C16 UNL     1       7.092   3.246 -24.710  1.00  0.00    -0.001 C 
ENDROOT
BRANCH   4   8
HETATM    8  N1  UNL     1       2.926   4.296 -24.820  1.00  0.00    -0.330 N 
HETATM    9  C5  UNL     1       2.236   5.493 -25.116  1.00  0.00     0.256 C 
HETATM   10  O1  UNL     1       2.852   6.547 -25.416  1.00  0.00    -0.267 OA
ATOM     11  H1  UNL     1       2.351   3.514 -24.508  1.00  0.00     0.168 HD
BRANCH   9  12
HETATM   12  C6  UNL     1       0.763   5.563 -25.105  1.00  0.00     0.047 A 
HETATM   13  C7  UNL     1       0.214   6.019 -23.917  1.00  0.00     0.034 A 
HETATM   14  C8  UNL     1      -1.158   5.963 -23.754  1.00  0.00     0.051 A 
HETATM   15  C10 UNL     1      -1.937   5.461 -24.776  1.00  0.00     0.048 A 
HETATM   16  C11 UNL     1      -1.370   5.015 -25.957  1.00  0.00     0.061 A 
HETATM   17  N2  UNL     1      -1.841   4.483 -27.100  1.00  0.00    -0.300 N 
HETATM   18  C13 UNL     1       0.035   5.061 -26.146  1.00  0.00     0.025 A 
HETATM   19  N3  UNL     1      -0.850   4.213 -27.946  1.00  0.00    -0.311 N 
ATOM     20  H2  UNL     1      -2.827   4.309 -27.292  1.00  0.00     0.187 HD
HETATM   21  C12 UNL     1       0.315   4.551 -27.401  1.00  0.00     0.121 A 
ATOM     22  H3  UNL     1      -0.967   3.808 -28.875  1.00  0.00     0.186 HD
BRANCH  14  23
HETATM   23  C9  UNL     1      -1.817   6.415 -22.514  1.00  0.00     0.417 C 
HETATM   24  F1  UNL     1      -1.872   5.287 -21.679  1.00  0.00    -0.166 F 
HETATM   25  F2  UNL     1      -1.127   7.456 -21.955  1.00  0.00    -0.166 F 
HETATM   26  F3  UNL     1      -3.142   6.751 -22.761  1.00  0.00    -0.166 F 
ENDBRANCH  14  23
ENDBRANCH   9  12
ENDBRANCH   4   8
BRANCH   7  27
HETATM   27  C17 UNL     1       7.094   2.571 -23.399  1.00  0.00     0.068 C 
HETATM   28  N4  UNL     1       6.958   1.254 -23.095  1.00  0.00    -0.393 N 
HETATM   29  C18 UNL     1       6.725   1.085 -21.610  1.00  0.00     0.122 C 
HETATM   30  C22 UNL     1       7.689   0.133 -23.467  1.00  0.00     0.122 C 
HETATM   31  C19 UNL     1       7.900   0.445 -20.946  1.00  0.00     0.020 C 
HETATM   32  C20 UNL     1       7.839  -1.039 -21.294  1.00  0.00     0.003 C 
HETATM   33  C21 UNL     1       7.224  -1.124 -22.659  1.00  0.00     0.020 C 
ENDBRANCH   7  27
BRANCH   7  34
HETATM   34  C23 UNL     1       8.397   3.487 -25.358  1.00  0.00    -0.001 C 
HETATM   35  C24 UNL     1       8.902   2.620 -26.438  1.00  0.00     0.006 C 
HETATM   36  C25 UNL     1       9.779   3.533 -27.333  1.00  0.00     0.000 C 
HETATM   37  C26 UNL     1      10.931   4.024 -26.467  1.00  0.00     0.000 C 
HETATM   38  C27 UNL     1      10.887   3.525 -25.054  1.00  0.00     0.000 C 
HETATM   39  C28 UNL     1       9.545   3.748 -24.377  1.00  0.00     0.006 C 
ENDBRANCH   7  34
TORSDOF 5
ENDMDL
