MODEL 1
REMARK VINA RESULT: -8.323827025      0.000      0.000
REMARK  18 active torsions:
REMARK  status: ('A' for Active; 'I' for Inactive)
REMARK    1  A    between atoms: C2_2  and  C3_3 
REMARK    2  A    between atoms: C3_3  and  C4_4 
REMARK    3  A    between atoms: C4_4  and  C5_5 
REMARK    4  A    between atoms: C5_5  and  C6_6 
REMARK    5  A    between atoms: C6_6  and  C7_7 
REMARK    6  A    between atoms: C7_7  and  C8_8 
REMARK    7  A    between atoms: C8_8  and  O1_9 
REMARK    8  A    between atoms: O1_9  and  C9_10 
REMARK    9  A    between atoms: C9_10  and  C10_12 
REMARK   10  A    between atoms: C10_12  and  C11_13 
REMARK   11  A    between atoms: C11_13  and  C12_14 
REMARK   12  A    between atoms: C12_14  and  N1_15 
REMARK   13  A    between atoms: C12_14  and  C29_36 
REMARK       I    between atoms: N1_15  and  C13_17 
REMARK   14  A    between atoms: C13_17  and  C14_19 
REMARK   15  A    between atoms: C20_26  and  C21_27 
REMARK   16  A    between atoms: C21_27  and  C22_29 
REMARK       I    between atoms: C29_36  and  N3_38 
REMARK   17  A    between atoms: C33_42  and  C34_43 
REMARK       I    between atoms: C34_43  and  N4_45 
REMARK   18  A    between atoms: N4_45  and  C35_47 
ROOT
HETATM    1  C12 UNL     1      10.078  17.428  16.759  1.00  0.00     0.177 C 
ENDROOT
BRANCH   1   2
HETATM    2  C11 UNL     1      10.378  17.528  18.242  1.00  0.00     0.044 C 
BRANCH   2   3
HETATM    3  C10 UNL     1      11.451  18.516  18.498  1.00  0.00     0.113 C 
BRANCH   3   4
HETATM    4  C9  UNL     1      12.018  18.518  19.847  1.00  0.00     0.258 C 
HETATM    5  O2  UNL     1      11.423  18.545  20.929  1.00  0.00    -0.265 OA
BRANCH   4   6
HETATM    6  O1  UNL     1      13.428  18.484  19.922  1.00  0.00    -0.321 OA
BRANCH   6   7
HETATM    7  C8  UNL     1      14.135  19.570  20.472  1.00  0.00     0.178 C 
BRANCH   7   8
HETATM    8  C7  UNL     1      14.458  20.532  19.316  1.00  0.00     0.027 C 
BRANCH   8   9
HETATM    9  C6  UNL     1      15.379  19.829  18.381  1.00  0.00     0.002 C 
BRANCH   9  10
HETATM   10  C5  UNL     1      16.720  20.575  18.214  1.00  0.00     0.000 C 
BRANCH  10  11
HETATM   11  C4  UNL     1      16.668  21.859  18.951  1.00  0.00     0.000 C 
BRANCH  11  12
HETATM   12  C3  UNL     1      17.794  22.794  18.746  1.00  0.00    -0.000 C 
BRANCH  12  13
HETATM   13  C2  UNL     1      17.768  24.129  19.395  1.00  0.00    -0.005 C 
HETATM   14  C1  UNL     1      18.284  24.164  20.792  1.00  0.00     0.005 C 
ENDBRANCH  12  13
ENDBRANCH  11  12
ENDBRANCH  10  11
ENDBRANCH   9  10
ENDBRANCH   8   9
ENDBRANCH   7   8
ENDBRANCH   6   7
ENDBRANCH   4   6
ENDBRANCH   3   4
ENDBRANCH   2   3
ENDBRANCH   1   2
BRANCH   1  15
HETATM   15  N1  UNL     1      10.513  18.698  16.198  1.00  0.00    -0.347 N 
HETATM   16  C13 UNL     1       9.637  19.680  15.667  1.00  0.00     0.225 C 
HETATM   17  O3  UNL     1       8.401  19.336  15.704  1.00  0.00    -0.273 OA
ATOM     18  H1  UNL     1      11.514  18.896  16.186  1.00  0.00     0.163 HD
BRANCH  16  19
HETATM   19  C14 UNL     1      10.022  20.981  15.113  1.00  0.00     0.120 C 
HETATM   20  C15 UNL     1       8.773  21.462  14.326  1.00  0.00     0.052 C 
HETATM   21  C16 UNL     1       9.158  21.196  12.935  1.00  0.00     0.225 C 
HETATM   22  C17 UNL     1       8.170  20.541  12.056  1.00  0.00     0.037 C 
HETATM   23  N2  UNL     1      10.148  20.089  13.096  1.00  0.00     0.105 N 
HETATM   24  C18 UNL     1       9.096  19.824  11.074  1.00  0.00     0.032 C 
HETATM   25  C19 UNL     1      10.457  19.838  11.753  1.00  0.00     0.274 C 
HETATM   26  C20 UNL     1      11.021  20.780  13.951  1.00  0.00     0.305 C 
BRANCH  26  27
HETATM   27  C21 UNL     1      12.294  20.326  14.392  1.00  0.00     0.165 C 
HETATM   28  O4  UNL     1      12.584  19.156  13.990  1.00  0.00    -0.295 OA
BRANCH  27  29
HETATM   29  C22 UNL     1      13.343  20.931  15.225  1.00  0.00     0.061 C 
HETATM   30  C23 UNL     1      14.734  20.475  14.973  1.00  0.00     0.039 C 
HETATM   31  C24 UNL     1      15.780  21.500  14.848  1.00  0.00    -0.024 C 
HETATM   32  C25 UNL     1      15.657  22.705  15.342  1.00  0.00    -0.087 C 
HETATM   33  C26 UNL     1      16.662  23.770  15.254  1.00  0.00     0.043 C 
HETATM   34  C27 UNL     1      14.360  23.008  16.040  1.00  0.00     0.034 C 
HETATM   35  C28 UNL     1      13.303  22.452  15.090  1.00  0.00     0.017 C 
ENDBRANCH  27  29
ENDBRANCH  26  27
ENDBRANCH  16  19
ENDBRANCH   1  15
BRANCH   1  36
HETATM   36  C29 UNL     1      10.863  16.301  16.152  1.00  0.00     0.243 C 
HETATM   37  O5  UNL     1      11.795  15.759  16.750  1.00  0.00    -0.271 OA
HETATM   38  N3  UNL     1      10.549  15.807  14.832  1.00  0.00    -0.337 N 
HETATM   39  C30 UNL     1       9.526  16.319  13.943  1.00  0.00     0.127 C 
HETATM   40  C33 UNL     1      11.175  14.696  14.165  1.00  0.00     0.179 C 
HETATM   41  C31 UNL     1      10.215  16.173  12.575  1.00  0.00     0.022 C 
HETATM   42  C32 UNL     1      10.986  14.882  12.714  1.00  0.00     0.037 C 
BRANCH  40  43
HETATM   43  C34 UNL     1      10.676  13.400  14.675  1.00  0.00     0.246 C 
HETATM   44  O6  UNL     1      11.310  12.795  15.559  1.00  0.00    -0.271 OA
HETATM   45  N4  UNL     1       9.486  12.860  14.159  1.00  0.00    -0.305 N 
ATOM     46  H4  UNL     1       9.222  12.954  13.179  1.00  0.00     0.171 HD
BRANCH  45  47
HETATM   47  C35 UNL     1       8.737  12.222  15.040  1.00  0.00     0.150 A 
HETATM   48  N5  UNL     1       8.361  12.654  16.243  1.00  0.00    -0.346 N 
HETATM   49  C36 UNL     1       7.618  11.880  16.977  1.00  0.00     0.097 A 
ATOM     50  H5  UNL     1       8.651  13.571  16.581  1.00  0.00     0.167 HD
HETATM   51  C37 UNL     1       7.260  10.657  16.470  1.00  0.00     0.070 A 
HETATM   52  S1  UNL     1       8.024  10.680  14.939  1.00  0.00    -0.064 SA
ENDBRANCH  45  47
ENDBRANCH  40  43
ENDBRANCH   1  36
TORSDOF 18
ENDMDL
MODEL 2
REMARK VINA RESULT: -8.054172398      3.187      7.267
REMARK  18 active torsions:
REMARK  status: ('A' for Active; 'I' for Inactive)
REMARK    1  A    between atoms: C2_2  and  C3_3 
REMARK    2  A    between atoms: C3_3  and  C4_4 
REMARK    3  A    between atoms: C4_4  and  C5_5 
REMARK    4  A    between atoms: C5_5  and  C6_6 
REMARK    5  A    between atoms: C6_6  and  C7_7 
REMARK    6  A    between atoms: C7_7  and  C8_8 
REMARK    7  A    between atoms: C8_8  and  O1_9 
REMARK    8  A    between atoms: O1_9  and  C9_10 
REMARK    9  A    between atoms: C9_10  and  C10_12 
REMARK   10  A    between atoms: C10_12  and  C11_13 
REMARK   11  A    between atoms: C11_13  and  C12_14 
REMARK   12  A    between atoms: C12_14  and  N1_15 
REMARK   13  A    between atoms: C12_14  and  C29_36 
REMARK       I    between atoms: N1_15  and  C13_17 
REMARK   14  A    between atoms: C13_17  and  C14_19 
REMARK   15  A    between atoms: C20_26  and  C21_27 
REMARK   16  A    between atoms: C21_27  and  C22_29 
REMARK       I    between atoms: C29_36  and  N3_38 
REMARK   17  A    between atoms: C33_42  and  C34_43 
REMARK       I    between atoms: C34_43  and  N4_45 
REMARK   18  A    between atoms: N4_45  and  C35_47 
ROOT
HETATM    1  C12 UNL     1      13.858  21.180  15.907  1.00  0.00     0.177 C 
ENDROOT
BRANCH   1   2
HETATM    2  C11 UNL     1      13.327  20.418  17.105  1.00  0.00     0.044 C 
BRANCH   2   3
HETATM    3  C10 UNL     1      14.424  19.726  17.821  1.00  0.00     0.113 C 
BRANCH   3   4
HETATM    4  C9  UNL     1      14.352  19.740  19.282  1.00  0.00     0.258 C 
HETATM    5  O2  UNL     1      14.504  20.697  20.048  1.00  0.00    -0.265 OA
BRANCH   4   6
HETATM    6  O1  UNL     1      14.072  18.500  19.897  1.00  0.00    -0.321 OA
BRANCH   6   7
HETATM    7  C8  UNL     1      13.332  18.454  21.094  1.00  0.00     0.178 C 
BRANCH   7   8
HETATM    8  C7  UNL     1      12.148  17.501  20.860  1.00  0.00     0.027 C 
BRANCH   8   9
HETATM    9  C6  UNL     1      11.259  18.121  19.839  1.00  0.00     0.002 C 
BRANCH   9  10
HETATM   10  C5  UNL     1      10.693  17.078  18.852  1.00  0.00     0.000 C 
BRANCH  10  11
HETATM   11  C4  UNL     1      11.453  17.132  17.582  1.00  0.00     0.000 C 
BRANCH  11  12
HETATM   12  C3  UNL     1      11.454  15.911  16.750  1.00  0.00    -0.000 C 
BRANCH  12  13
HETATM   13  C2  UNL     1      10.705  14.712  17.205  1.00  0.00    -0.005 C 
HETATM   14  C1  UNL     1      10.704  13.568  16.250  1.00  0.00     0.005 C 
ENDBRANCH  12  13
ENDBRANCH  11  12
ENDBRANCH  10  11
ENDBRANCH   9  10
ENDBRANCH   8   9
ENDBRANCH   7   8
ENDBRANCH   6   7
ENDBRANCH   4   6
ENDBRANCH   3   4
ENDBRANCH   2   3
ENDBRANCH   1   2
BRANCH   1  15
HETATM   15  N1  UNL     1      15.308  21.124  16.035  1.00  0.00    -0.347 N 
HETATM   16  C13 UNL     1      16.183  22.178  15.668  1.00  0.00     0.225 C 
HETATM   17  O3  UNL     1      15.579  23.200  15.182  1.00  0.00    -0.273 OA
ATOM     18  H1  UNL     1      15.720  20.272  16.414  1.00  0.00     0.163 HD
BRANCH  16  19
HETATM   19  C14 UNL     1      17.644  22.181  15.799  1.00  0.00     0.120 C 
HETATM   20  C15 UNL     1      17.949  21.074  16.845  1.00  0.00     0.052 C 
HETATM   21  C16 UNL     1      18.232  21.857  18.054  1.00  0.00     0.225 C 
HETATM   22  C17 UNL     1      17.608  21.425  19.320  1.00  0.00     0.037 C 
HETATM   23  N2  UNL     1      17.466  23.113  17.794  1.00  0.00     0.105 N 
HETATM   24  C18 UNL     1      17.516  22.758  20.060  1.00  0.00     0.032 C 
HETATM   25  C19 UNL     1      17.726  23.810  18.982  1.00  0.00     0.274 C 
HETATM   26  C20 UNL     1      18.096  23.434  16.582  1.00  0.00     0.305 C 
BRANCH  26  27
HETATM   27  C21 UNL     1      17.924  24.636  15.842  1.00  0.00     0.165 C 
HETATM   28  O4  UNL     1      16.849  25.254  16.119  1.00  0.00    -0.295 OA
BRANCH  27  29
HETATM   29  C22 UNL     1      18.733  25.309  14.816  1.00  0.00     0.061 C 
HETATM   30  C23 UNL     1      18.335  26.695  14.462  1.00  0.00     0.039 C 
HETATM   31  C24 UNL     1      19.390  27.715  14.391  1.00  0.00    -0.024 C 
HETATM   32  C25 UNL     1      20.652  27.422  14.208  1.00  0.00    -0.087 C 
HETATM   33  C26 UNL     1      21.750  28.391  14.125  1.00  0.00     0.043 C 
HETATM   34  C27 UNL     1      20.984  25.960  14.092  1.00  0.00     0.034 C 
HETATM   35  C28 UNL     1      20.202  25.323  15.237  1.00  0.00     0.017 C 
ENDBRANCH  27  29
ENDBRANCH  26  27
ENDBRANCH  16  19
ENDBRANCH   1  15
BRANCH   1  36
HETATM   36  C29 UNL     1      13.428  20.504  14.637  1.00  0.00     0.243 C 
HETATM   37  O5  UNL     1      14.240  19.990  13.864  1.00  0.00    -0.271 OA
HETATM   38  N3  UNL     1      12.033  20.430  14.273  1.00  0.00    -0.337 N 
HETATM   39  C30 UNL     1      10.921  20.996  15.011  1.00  0.00     0.127 C 
HETATM   40  C33 UNL     1      11.484  19.757  13.126  1.00  0.00     0.179 C 
HETATM   41  C31 UNL     1      10.004  21.459  13.865  1.00  0.00     0.022 C 
HETATM   42  C32 UNL     1      10.180  20.378  12.825  1.00  0.00     0.037 C 
BRANCH  40  43
HETATM   43  C34 UNL     1      11.419  18.293  13.331  1.00  0.00     0.246 C 
HETATM   44  O6  UNL     1      10.553  17.808  14.081  1.00  0.00    -0.271 OA
HETATM   45  N4  UNL     1      12.338  17.457  12.674  1.00  0.00    -0.305 N 
ATOM     46  H4  UNL     1      13.309  17.727  12.516  1.00  0.00     0.171 HD
BRANCH  45  47
HETATM   47  C35 UNL     1      11.850  16.296  12.278  1.00  0.00     0.150 A 
HETATM   48  N5  UNL     1      11.615  15.222  13.030  1.00  0.00    -0.346 N 
HETATM   49  C36 UNL     1      11.129  14.158  12.461  1.00  0.00     0.097 A 
ATOM     50  H5  UNL     1      11.812  15.232  14.031  1.00  0.00     0.167 HD
HETATM   51  C37 UNL     1      10.885  14.202  11.111  1.00  0.00     0.070 A 
HETATM   52  S1  UNL     1      11.375  15.794  10.723  1.00  0.00    -0.064 SA
ENDBRANCH  45  47
ENDBRANCH  40  43
ENDBRANCH   1  36
TORSDOF 18
ENDMDL
MODEL 3
REMARK VINA RESULT: -8.038089830      4.337      8.745
REMARK  18 active torsions:
REMARK  status: ('A' for Active; 'I' for Inactive)
REMARK    1  A    between atoms: C2_2  and  C3_3 
REMARK    2  A    between atoms: C3_3  and  C4_4 
REMARK    3  A    between atoms: C4_4  and  C5_5 
REMARK    4  A    between atoms: C5_5  and  C6_6 
REMARK    5  A    between atoms: C6_6  and  C7_7 
REMARK    6  A    between atoms: C7_7  and  C8_8 
REMARK    7  A    between atoms: C8_8  and  O1_9 
REMARK    8  A    between atoms: O1_9  and  C9_10 
REMARK    9  A    between atoms: C9_10  and  C10_12 
REMARK   10  A    between atoms: C10_12  and  C11_13 
REMARK   11  A    between atoms: C11_13  and  C12_14 
REMARK   12  A    between atoms: C12_14  and  N1_15 
REMARK   13  A    between atoms: C12_14  and  C29_36 
REMARK       I    between atoms: N1_15  and  C13_17 
REMARK   14  A    between atoms: C13_17  and  C14_19 
REMARK   15  A    between atoms: C20_26  and  C21_27 
REMARK   16  A    between atoms: C21_27  and  C22_29 
REMARK       I    between atoms: C29_36  and  N3_38 
REMARK   17  A    between atoms: C33_42  and  C34_43 
REMARK       I    between atoms: C34_43  and  N4_45 
REMARK   18  A    between atoms: N4_45  and  C35_47 
ROOT
HETATM    1  C12 UNL     1      14.422  20.492  18.031  1.00  0.00     0.177 C 
ENDROOT
BRANCH   1   2
HETATM    2  C11 UNL     1      15.172  20.478  19.349  1.00  0.00     0.044 C 
BRANCH   2   3
HETATM    3  C10 UNL     1      16.251  21.493  19.354  1.00  0.00     0.113 C 
BRANCH   3   4
HETATM    4  C9  UNL     1      17.538  21.071  18.802  1.00  0.00     0.258 C 
HETATM    5  O2  UNL     1      17.759  20.460  17.752  1.00  0.00    -0.265 OA
BRANCH   4   6
HETATM    6  O1  UNL     1      18.677  21.404  19.569  1.00  0.00    -0.321 OA
BRANCH   6   7
HETATM    7  C8  UNL     1      19.312  22.648  19.391  1.00  0.00     0.178 C 
BRANCH   7   8
HETATM    8  C7  UNL     1      19.121  23.444  20.693  1.00  0.00     0.027 C 
BRANCH   8   9
HETATM    9  C6  UNL     1      19.912  24.700  20.580  1.00  0.00     0.002 C 
BRANCH   9  10
HETATM   10  C5  UNL     1      20.960  24.627  19.449  1.00  0.00     0.000 C 
BRANCH  10  11
HETATM   11  C4  UNL     1      22.248  25.179  19.928  1.00  0.00     0.000 C 
BRANCH  11  12
HETATM   12  C3  UNL     1      22.460  25.210  21.390  1.00  0.00    -0.000 C 
BRANCH  12  13
HETATM   13  C2  UNL     1      22.887  26.473  22.044  1.00  0.00    -0.005 C 
HETATM   14  C1  UNL     1      21.864  27.109  22.920  1.00  0.00     0.005 C 
ENDBRANCH  12  13
ENDBRANCH  11  12
ENDBRANCH  10  11
ENDBRANCH   9  10
ENDBRANCH   8   9
ENDBRANCH   7   8
ENDBRANCH   6   7
ENDBRANCH   4   6
ENDBRANCH   3   4
ENDBRANCH   2   3
ENDBRANCH   1   2
BRANCH   1  15
HETATM   15  N1  UNL     1      13.028  20.267  18.388  1.00  0.00    -0.347 N 
HETATM   16  C13 UNL     1      12.329  19.056  18.148  1.00  0.00     0.225 C 
HETATM   17  O3  UNL     1      13.037  18.164  17.557  1.00  0.00    -0.273 OA
ATOM     18  H1  UNL     1      12.522  21.028  18.839  1.00  0.00     0.163 HD
BRANCH  16  19
HETATM   19  C14 UNL     1      10.936  18.771  18.507  1.00  0.00     0.120 C 
HETATM   20  C15 UNL     1      10.943  17.288  18.970  1.00  0.00     0.052 C 
HETATM   21  C16 UNL     1      10.374  16.595  17.809  1.00  0.00     0.225 C 
HETATM   22  C17 UNL     1      11.041  15.365  17.341  1.00  0.00     0.037 C 
HETATM   23  N2  UNL     1      10.720  17.527  16.694  1.00  0.00     0.105 N 
HETATM   24  C18 UNL     1      10.677  15.391  15.858  1.00  0.00     0.032 C 
HETATM   25  C19 UNL     1      10.200  16.813  15.606  1.00  0.00     0.274 C 
HETATM   26  C20 UNL     1      10.078  18.656  17.226  1.00  0.00     0.305 C 
BRANCH  26  27
HETATM   27  C21 UNL     1       9.901  19.905  16.571  1.00  0.00     0.165 C 
HETATM   28  O4  UNL     1       9.319  20.778  17.287  1.00  0.00    -0.295 OA
BRANCH  27  29
HETATM   29  C22 UNL     1      10.248  20.394  15.229  1.00  0.00     0.061 C 
HETATM   30  C23 UNL     1      11.595  20.030  14.719  1.00  0.00     0.039 C 
HETATM   31  C24 UNL     1      11.691  19.505  13.350  1.00  0.00    -0.024 C 
HETATM   32  C25 UNL     1      10.778  19.722  12.439  1.00  0.00    -0.087 C 
HETATM   33  C26 UNL     1      10.816  19.229  11.057  1.00  0.00     0.043 C 
HETATM   34  C27 UNL     1       9.588  20.533  12.871  1.00  0.00     0.034 C 
HETATM   35  C28 UNL     1       9.207  19.922  14.216  1.00  0.00     0.017 C 
ENDBRANCH  27  29
ENDBRANCH  26  27
ENDBRANCH  16  19
ENDBRANCH   1  15
BRANCH   1  36
HETATM   36  C29 UNL     1      14.573  21.831  17.369  1.00  0.00     0.243 C 
HETATM   37  O5  UNL     1      14.271  22.880  17.942  1.00  0.00    -0.271 OA
HETATM   38  N3  UNL     1      15.084  21.938  16.022  1.00  0.00    -0.337 N 
HETATM   39  C30 UNL     1      15.462  20.839  15.157  1.00  0.00     0.127 C 
HETATM   40  C33 UNL     1      15.340  23.156  15.300  1.00  0.00     0.179 C 
HETATM   41  C31 UNL     1      14.996  21.361  13.787  1.00  0.00     0.022 C 
HETATM   42  C32 UNL     1      15.298  22.839  13.860  1.00  0.00     0.037 C 
BRANCH  40  43
HETATM   43  C34 UNL     1      16.600  23.797  15.738  1.00  0.00     0.246 C 
HETATM   44  O6  UNL     1      17.626  23.109  15.892  1.00  0.00    -0.271 OA
HETATM   45  N4  UNL     1      16.631  25.180  15.978  1.00  0.00    -0.305 N 
ATOM     46  H4  UNL     1      15.844  25.684  16.387  1.00  0.00     0.171 HD
BRANCH  45  47
HETATM   47  C35 UNL     1      17.756  25.780  15.633  1.00  0.00     0.150 A 
HETATM   48  N5  UNL     1      18.811  26.021  16.410  1.00  0.00    -0.346 N 
HETATM   49  C36 UNL     1      19.838  26.629  15.892  1.00  0.00     0.097 A 
ATOM     50  H5  UNL     1      18.814  25.737  17.389  1.00  0.00     0.167 HD
HETATM   51  C37 UNL     1      19.777  26.989  14.570  1.00  0.00     0.070 A 
HETATM   52  S1  UNL     1      18.222  26.428  14.131  1.00  0.00    -0.064 SA
ENDBRANCH  45  47
ENDBRANCH  40  43
ENDBRANCH   1  36
TORSDOF 18
ENDMDL
MODEL 4
REMARK VINA RESULT: -7.952578498      4.964      9.321
REMARK  18 active torsions:
REMARK  status: ('A' for Active; 'I' for Inactive)
REMARK    1  A    between atoms: C2_2  and  C3_3 
REMARK    2  A    between atoms: C3_3  and  C4_4 
REMARK    3  A    between atoms: C4_4  and  C5_5 
REMARK    4  A    between atoms: C5_5  and  C6_6 
REMARK    5  A    between atoms: C6_6  and  C7_7 
REMARK    6  A    between atoms: C7_7  and  C8_8 
REMARK    7  A    between atoms: C8_8  and  O1_9 
REMARK    8  A    between atoms: O1_9  and  C9_10 
REMARK    9  A    between atoms: C9_10  and  C10_12 
REMARK   10  A    between atoms: C10_12  and  C11_13 
REMARK   11  A    between atoms: C11_13  and  C12_14 
REMARK   12  A    between atoms: C12_14  and  N1_15 
REMARK   13  A    between atoms: C12_14  and  C29_36 
REMARK       I    between atoms: N1_15  and  C13_17 
REMARK   14  A    between atoms: C13_17  and  C14_19 
REMARK   15  A    between atoms: C20_26  and  C21_27 
REMARK   16  A    between atoms: C21_27  and  C22_29 
REMARK       I    between atoms: C29_36  and  N3_38 
REMARK   17  A    between atoms: C33_42  and  C34_43 
REMARK       I    between atoms: C34_43  and  N4_45 
REMARK   18  A    between atoms: N4_45  and  C35_47 
ROOT
HETATM    1  C12 UNL     1      15.284  21.647  15.379  1.00  0.00     0.177 C 
ENDROOT
BRANCH   1   2
HETATM    2  C11 UNL     1      16.216  22.201  14.319  1.00  0.00     0.044 C 
BRANCH   2   3
HETATM    3  C10 UNL     1      16.418  23.657  14.502  1.00  0.00     0.113 C 
BRANCH   3   4
HETATM    4  C9  UNL     1      17.677  24.059  15.130  1.00  0.00     0.258 C 
HETATM    5  O2  UNL     1      18.574  23.339  15.580  1.00  0.00    -0.265 OA
BRANCH   4   6
HETATM    6  O1  UNL     1      17.895  25.451  15.237  1.00  0.00    -0.321 OA
BRANCH   6   7
HETATM    7  C8  UNL     1      18.267  26.199  14.104  1.00  0.00     0.178 C 
BRANCH   7   8
HETATM    8  C7  UNL     1      19.790  26.401  14.175  1.00  0.00     0.027 C 
BRANCH   8   9
HETATM    9  C6  UNL     1      20.047  27.842  14.449  1.00  0.00     0.002 C 
BRANCH   9  10
HETATM   10  C5  UNL     1      21.452  28.280  13.981  1.00  0.00     0.000 C 
BRANCH  10  11
HETATM   11  C4  UNL     1      22.178  28.907  15.110  1.00  0.00     0.000 C 
BRANCH  11  12
HETATM   12  C3  UNL     1      22.552  28.026  16.236  1.00  0.00    -0.000 C 
BRANCH  12  13
HETATM   13  C2  UNL     1      23.408  26.838  15.986  1.00  0.00    -0.005 C 
HETATM   14  C1  UNL     1      24.844  27.137  15.723  1.00  0.00     0.005 C 
ENDBRANCH  12  13
ENDBRANCH  11  12
ENDBRANCH  10  11
ENDBRANCH   9  10
ENDBRANCH   8   9
ENDBRANCH   7   8
ENDBRANCH   6   7
ENDBRANCH   4   6
ENDBRANCH   3   4
ENDBRANCH   2   3
ENDBRANCH   1   2
BRANCH   1  15
HETATM   15  N1  UNL     1      14.558  20.571  14.719  1.00  0.00    -0.347 N 
HETATM   16  C13 UNL     1      13.150  20.407  14.772  1.00  0.00     0.225 C 
HETATM   17  O3  UNL     1      12.558  21.295  15.484  1.00  0.00    -0.273 OA
ATOM     18  H1  UNL     1      15.097  19.890  14.184  1.00  0.00     0.163 HD
BRANCH  16  19
HETATM   19  C14 UNL     1      12.371  19.357  14.107  1.00  0.00     0.120 C 
HETATM   20  C15 UNL     1      11.663  20.076  12.927  1.00  0.00     0.052 C 
HETATM   21  C16 UNL     1      10.293  20.229  13.430  1.00  0.00     0.225 C 
HETATM   22  C17 UNL     1       9.634  21.538  13.258  1.00  0.00     0.037 C 
HETATM   23  N2  UNL     1      10.506  20.229  14.909  1.00  0.00     0.105 N 
HETATM   24  C18 UNL     1       8.674  21.530  14.446  1.00  0.00     0.032 C 
HETATM   25  C19 UNL     1       9.189  20.418  15.347  1.00  0.00     0.274 C 
HETATM   26  C20 UNL     1      11.149  18.984  14.977  1.00  0.00     0.305 C 
BRANCH  26  27
HETATM   27  C21 UNL     1      11.510  18.292  16.165  1.00  0.00     0.165 C 
HETATM   28  O4  UNL     1      11.777  17.064  15.978  1.00  0.00    -0.295 OA
BRANCH  27  29
HETATM   29  C22 UNL     1      11.634  18.705  17.570  1.00  0.00     0.061 C 
HETATM   30  C23 UNL     1      10.584  18.217  18.499  1.00  0.00     0.039 C 
HETATM   31  C24 UNL     1      11.016  17.638  19.780  1.00  0.00    -0.024 C 
HETATM   32  C25 UNL     1      12.178  17.897  20.321  1.00  0.00    -0.087 C 
HETATM   33  C26 UNL     1      12.666  17.355  21.594  1.00  0.00     0.043 C 
HETATM   34  C27 UNL     1      13.082  18.816  19.546  1.00  0.00     0.034 C 
HETATM   35  C28 UNL     1      12.996  18.284  18.119  1.00  0.00     0.017 C 
ENDBRANCH  27  29
ENDBRANCH  26  27
ENDBRANCH  16  19
ENDBRANCH   1  15
BRANCH   1  36
HETATM   36  C29 UNL     1      16.080  21.101  16.528  1.00  0.00     0.243 C 
HETATM   37  O5  UNL     1      16.995  20.291  16.362  1.00  0.00    -0.271 OA
HETATM   38  N3  UNL     1      15.800  21.511  17.884  1.00  0.00    -0.337 N 
HETATM   39  C30 UNL     1      14.752  22.416  18.309  1.00  0.00     0.127 C 
HETATM   40  C33 UNL     1      16.527  21.118  19.063  1.00  0.00     0.179 C 
HETATM   41  C31 UNL     1      14.321  21.775  19.640  1.00  0.00     0.022 C 
HETATM   42  C32 UNL     1      15.623  21.273  20.218  1.00  0.00     0.037 C 
BRANCH  40  43
HETATM   43  C34 UNL     1      17.801  21.860  19.192  1.00  0.00     0.246 C 
HETATM   44  O6  UNL     1      18.832  21.424  18.649  1.00  0.00    -0.271 OA
HETATM   45  N4  UNL     1      17.837  23.056  19.927  1.00  0.00    -0.305 N 
ATOM     46  H4  UNL     1      17.285  23.198  20.773  1.00  0.00     0.171 HD
BRANCH  45  47
HETATM   47  C35 UNL     1      18.642  23.983  19.442  1.00  0.00     0.150 A 
HETATM   48  N5  UNL     1      18.433  24.756  18.376  1.00  0.00    -0.346 N 
HETATM   49  C36 UNL     1      19.347  25.619  18.045  1.00  0.00     0.097 A 
ATOM     50  H5  UNL     1      17.575  24.671  17.832  1.00  0.00     0.167 HD
HETATM   51  C37 UNL     1      20.481  25.687  18.814  1.00  0.00     0.070 A 
HETATM   52  S1  UNL     1      20.172  24.487  19.993  1.00  0.00    -0.064 SA
ENDBRANCH  45  47
ENDBRANCH  40  43
ENDBRANCH   1  36
TORSDOF 18
ENDMDL
MODEL 5
REMARK VINA RESULT: -7.899853453      3.095      6.921
REMARK  18 active torsions:
REMARK  status: ('A' for Active; 'I' for Inactive)
REMARK    1  A    between atoms: C2_2  and  C3_3 
REMARK    2  A    between atoms: C3_3  and  C4_4 
REMARK    3  A    between atoms: C4_4  and  C5_5 
REMARK    4  A    between atoms: C5_5  and  C6_6 
REMARK    5  A    between atoms: C6_6  and  C7_7 
REMARK    6  A    between atoms: C7_7  and  C8_8 
REMARK    7  A    between atoms: C8_8  and  O1_9 
REMARK    8  A    between atoms: O1_9  and  C9_10 
REMARK    9  A    between atoms: C9_10  and  C10_12 
REMARK   10  A    between atoms: C10_12  and  C11_13 
REMARK   11  A    between atoms: C11_13  and  C12_14 
REMARK   12  A    between atoms: C12_14  and  N1_15 
REMARK   13  A    between atoms: C12_14  and  C29_36 
REMARK       I    between atoms: N1_15  and  C13_17 
REMARK   14  A    between atoms: C13_17  and  C14_19 
REMARK   15  A    between atoms: C20_26  and  C21_27 
REMARK   16  A    between atoms: C21_27  and  C22_29 
REMARK       I    between atoms: C29_36  and  N3_38 
REMARK   17  A    between atoms: C33_42  and  C34_43 
REMARK       I    between atoms: C34_43  and  N4_45 
REMARK   18  A    between atoms: N4_45  and  C35_47 
ROOT
HETATM    1  C12 UNL     1      11.424  17.849  16.726  1.00  0.00     0.177 C 
ENDROOT
BRANCH   1   2
HETATM    2  C11 UNL     1      10.591  17.627  17.973  1.00  0.00     0.044 C 
BRANCH   2   3
HETATM    3  C10 UNL     1      11.390  16.970  19.032  1.00  0.00     0.113 C 
BRANCH   3   4
HETATM    4  C9  UNL     1      11.737  17.798  20.187  1.00  0.00     0.258 C 
HETATM    5  O2  UNL     1      11.009  18.562  20.830  1.00  0.00    -0.265 OA
BRANCH   4   6
HETATM    6  O1  UNL     1      13.077  17.714  20.626  1.00  0.00    -0.321 OA
BRANCH   6   7
HETATM    7  C8  UNL     1      13.848  18.883  20.776  1.00  0.00     0.178 C 
BRANCH   7   8
HETATM    8  C7  UNL     1      14.215  19.369  19.364  1.00  0.00     0.027 C 
BRANCH   8   9
HETATM    9  C6  UNL     1      14.485  20.831  19.441  1.00  0.00     0.002 C 
BRANCH   9  10
HETATM   10  C5  UNL     1      15.960  21.133  19.780  1.00  0.00     0.000 C 
BRANCH  10  11
HETATM   11  C4  UNL     1      16.812  20.828  18.608  1.00  0.00     0.000 C 
BRANCH  11  12
HETATM   12  C3  UNL     1      18.113  21.523  18.527  1.00  0.00    -0.000 C 
BRANCH  12  13
HETATM   13  C2  UNL     1      18.869  21.814  19.772  1.00  0.00    -0.005 C 
HETATM   14  C1  UNL     1      18.839  23.237  20.211  1.00  0.00     0.005 C 
ENDBRANCH  12  13
ENDBRANCH  11  12
ENDBRANCH  10  11
ENDBRANCH   9  10
ENDBRANCH   8   9
ENDBRANCH   7   8
ENDBRANCH   6   7
ENDBRANCH   4   6
ENDBRANCH   3   4
ENDBRANCH   2   3
ENDBRANCH   1   2
BRANCH   1  15
HETATM   15  N1  UNL     1      10.608  17.346  15.631  1.00  0.00    -0.347 N 
HETATM   16  C13 UNL     1      10.664  16.017  15.138  1.00  0.00     0.225 C 
HETATM   17  O3  UNL     1      11.531  15.285  15.737  1.00  0.00    -0.273 OA
ATOM     18  H1  UNL     1       9.952  17.990  15.189  1.00  0.00     0.163 HD
BRANCH  16  19
HETATM   19  C14 UNL     1       9.849  15.455  14.056  1.00  0.00     0.120 C 
HETATM   20  C15 UNL     1      10.712  14.307  13.465  1.00  0.00     0.052 C 
HETATM   21  C16 UNL     1      11.232  14.909  12.232  1.00  0.00     0.225 C 
HETATM   22  C17 UNL     1      12.666  14.740  11.929  1.00  0.00     0.037 C 
HETATM   23  N2  UNL     1      11.199  16.366  12.562  1.00  0.00     0.105 N 
HETATM   24  C18 UNL     1      12.933  15.998  11.105  1.00  0.00     0.032 C 
HETATM   25  C19 UNL     1      11.738  16.898  11.384  1.00  0.00     0.274 C 
HETATM   26  C20 UNL     1       9.828  16.431  12.857  1.00  0.00     0.305 C 
BRANCH  26  27
HETATM   27  C21 UNL     1       9.084  17.612  13.123  1.00  0.00     0.165 C 
HETATM   28  O4  UNL     1       8.020  17.405  13.786  1.00  0.00    -0.295 OA
BRANCH  27  29
HETATM   29  C22 UNL     1       9.290  19.027  12.784  1.00  0.00     0.061 C 
HETATM   30  C23 UNL     1       8.579  19.531  11.580  1.00  0.00     0.039 C 
HETATM   31  C24 UNL     1       7.854  20.804  11.695  1.00  0.00    -0.024 C 
HETATM   32  C25 UNL     1       8.127  21.698  12.610  1.00  0.00    -0.087 C 
HETATM   33  C26 UNL     1       7.443  22.986  12.775  1.00  0.00     0.043 C 
HETATM   34  C27 UNL     1       9.225  21.347  13.575  1.00  0.00     0.034 C 
HETATM   35  C28 UNL     1       8.909  19.909  13.972  1.00  0.00     0.017 C 
ENDBRANCH  27  29
ENDBRANCH  26  27
ENDBRANCH  16  19
ENDBRANCH   1  15
BRANCH   1  36
HETATM   36  C29 UNL     1      11.687  19.315  16.539  1.00  0.00     0.243 C 
HETATM   37  O5  UNL     1      11.305  20.156  17.356  1.00  0.00    -0.271 OA
HETATM   38  N3  UNL     1      12.407  19.798  15.383  1.00  0.00    -0.337 N 
HETATM   39  C30 UNL     1      12.910  18.994  14.288  1.00  0.00     0.127 C 
HETATM   40  C33 UNL     1      12.782  21.162  15.119  1.00  0.00     0.179 C 
HETATM   41  C31 UNL     1      12.672  19.933  13.092  1.00  0.00     0.022 C 
HETATM   42  C32 UNL     1      12.968  21.299  13.662  1.00  0.00     0.037 C 
BRANCH  40  43
HETATM   43  C34 UNL     1      13.961  21.568  15.916  1.00  0.00     0.246 C 
HETATM   44  O6  UNL     1      14.974  20.846  15.939  1.00  0.00    -0.271 OA
HETATM   45  N4  UNL     1      13.929  22.770  16.642  1.00  0.00    -0.305 N 
ATOM     46  H4  UNL     1      13.085  23.110  17.103  1.00  0.00     0.171 HD
BRANCH  45  47
HETATM   47  C35 UNL     1      15.075  23.425  16.685  1.00  0.00     0.150 A 
HETATM   48  N5  UNL     1      16.019  23.461  15.745  1.00  0.00    -0.346 N 
HETATM   49  C36 UNL     1      17.089  24.165  15.966  1.00  0.00     0.097 A 
ATOM     50  H5  UNL     1      15.904  22.948  14.872  1.00  0.00     0.167 HD
HETATM   51  C37 UNL     1      17.188  24.834  17.160  1.00  0.00     0.070 A 
HETATM   52  S1  UNL     1      15.714  24.410  17.917  1.00  0.00    -0.064 SA
ENDBRANCH  45  47
ENDBRANCH  40  43
ENDBRANCH   1  36
TORSDOF 18
ENDMDL
