MODEL 1
REMARK VINA RESULT: -8.579446706      0.000      0.000
REMARK  3 active torsions:
REMARK  status: ('A' for Active; 'I' for Inactive)
REMARK    1  A    between atoms: C3_3  and  N1_5 
REMARK       I    between atoms: N2_10  and  C7_11 
REMARK    2  A    between atoms: C12_17  and  C13_18 
REMARK    3  A    between atoms: C13_18  and  O2_21 
ROOT
HETATM    1  N1  UNL     1      11.790  45.993  42.872  1.00  0.00    -0.350 N 
HETATM    2  C4  UNL     1      10.538  45.573  43.407  1.00  0.00     0.168 C 
HETATM    3  C5  UNL     1      10.564  45.108  44.845  1.00  0.00     0.106 C 
HETATM    4  C6  UNL     1       9.160  44.606  45.124  1.00  0.00     0.053 C 
HETATM    5 BR1  UNL     1      10.742  46.687  46.005  1.00  0.00    -0.060 Br
HETATM    6  N2  UNL     1      11.567  44.128  45.111  1.00  0.00    -0.327 N 
HETATM    7  C7  UNL     1      11.483  43.432  46.365  1.00  0.00     0.217 C 
HETATM    8  C8  UNL     1      10.520  43.608  47.439  1.00  0.00     0.117 C 
HETATM    9  O1  UNL     1      12.376  42.519  46.597  1.00  0.00    -0.274 OA
HETATM   10  C9  UNL     1      12.723  43.684  44.337  1.00  0.00     0.091 C 
HETATM   11  C10 UNL     1      13.634  44.777  43.895  1.00  0.00     0.051 C 
HETATM   12  C11 UNL     1      13.021  45.250  42.631  1.00  0.00     0.095 C 
HETATM   13  C12 UNL     1      12.692  43.929  41.956  1.00  0.00     0.044 C 
HETATM   14  C16 UNL     1      12.359  42.981  43.074  1.00  0.00     0.035 C 
ENDROOT
BRANCH  13  15
HETATM   15  C13 UNL     1      13.790  43.356  41.143  1.00  0.00     0.056 C 
HETATM   16  C14 UNL     1      14.366  42.080  41.734  1.00  0.00     0.045 C 
HETATM   17  C15 UNL     1      14.952  44.368  41.181  1.00  0.00     0.045 C 
BRANCH  15  18
HETATM   18  O2  UNL     1      13.534  43.149  39.811  1.00  0.00    -0.390 OA
ATOM     19  H2  UNL     1      12.984  42.408  39.588  1.00  0.00     0.210 HD
ENDBRANCH  15  18
ENDBRANCH  13  15
BRANCH   1  20
HETATM   20  C3  UNL     1      11.853  47.344  42.518  1.00  0.00     0.182 C 
HETATM   21  C2  UNL     1      10.768  48.085  42.573  1.00  0.00     0.030 C 
HETATM   22  C1  UNL     1      10.746  49.534  42.213  1.00  0.00     0.041 C 
HETATM   23  F1  UNL     1      13.010  47.905  42.120  1.00  0.00    -0.187 F 
ENDBRANCH   1  20
TORSDOF 3
ENDMDL
MODEL 2
REMARK VINA RESULT: -8.360423819      2.842      5.652
REMARK  3 active torsions:
REMARK  status: ('A' for Active; 'I' for Inactive)
REMARK    1  A    between atoms: C3_3  and  N1_5 
REMARK       I    between atoms: N2_10  and  C7_11 
REMARK    2  A    between atoms: C12_17  and  C13_18 
REMARK    3  A    between atoms: C13_18  and  O2_21 
ROOT
HETATM    1  N1  UNL     1      11.222  45.274  43.708  1.00  0.00    -0.350 N 
HETATM    2  C4  UNL     1      10.519  46.224  42.913  1.00  0.00     0.168 C 
HETATM    3  C5  UNL     1      11.004  47.652  43.018  1.00  0.00     0.106 C 
HETATM    4  C6  UNL     1      10.028  48.464  42.188  1.00  0.00     0.053 C 
HETATM    5 BR1  UNL     1      12.701  47.805  42.034  1.00  0.00    -0.060 Br
HETATM    6  N2  UNL     1      11.116  48.121  44.361  1.00  0.00    -0.327 N 
HETATM    7  C7  UNL     1      11.296  49.534  44.547  1.00  0.00     0.217 C 
HETATM    8  C8  UNL     1      11.415  50.574  43.538  1.00  0.00     0.117 C 
HETATM    9  O1  UNL     1      11.367  49.967  45.768  1.00  0.00    -0.274 OA
HETATM   10  C9  UNL     1      11.099  47.418  45.641  1.00  0.00     0.091 C 
HETATM   11  C10 UNL     1      12.072  46.295  45.747  1.00  0.00     0.051 C 
HETATM   12  C11 UNL     1      11.345  45.147  45.156  1.00  0.00     0.095 C 
HETATM   13  C12 UNL     1       9.977  45.310  45.797  1.00  0.00     0.044 C 
HETATM   14  C16 UNL     1       9.785  46.792  45.960  1.00  0.00     0.035 C 
ENDROOT
BRANCH  13  15
HETATM   15  C13 UNL     1       9.826  44.652  47.116  1.00  0.00     0.056 C 
HETATM   16  C14 UNL     1      10.812  43.517  47.332  1.00  0.00     0.045 C 
HETATM   17  C15 UNL     1       8.440  43.977  47.124  1.00  0.00     0.045 C 
BRANCH  15  18
HETATM   18  O2  UNL     1       9.838  45.464  48.220  1.00  0.00    -0.390 OA
ATOM     19  H2  UNL     1       9.207  45.272  48.903  1.00  0.00     0.210 HD
ENDBRANCH  15  18
ENDBRANCH  13  15
BRANCH   1  20
HETATM   20  C3  UNL     1      11.911  44.298  42.984  1.00  0.00     0.182 C 
HETATM   21  C2  UNL     1      12.583  43.364  43.622  1.00  0.00     0.030 C 
HETATM   22  C1  UNL     1      13.347  42.284  42.928  1.00  0.00     0.041 C 
HETATM   23  F1  UNL     1      11.901  44.293  41.638  1.00  0.00    -0.187 F 
ENDBRANCH   1  20
TORSDOF 3
ENDMDL
MODEL 3
REMARK VINA RESULT: -8.346322091      1.187      1.406
REMARK  3 active torsions:
REMARK  status: ('A' for Active; 'I' for Inactive)
REMARK    1  A    between atoms: C3_3  and  N1_5 
REMARK       I    between atoms: N2_10  and  C7_11 
REMARK    2  A    between atoms: C12_17  and  C13_18 
REMARK    3  A    between atoms: C13_18  and  O2_21 
ROOT
HETATM    1  N1  UNL     1      11.898  45.681  43.280  1.00  0.00    -0.350 N 
HETATM    2  C4  UNL     1      10.545  45.309  43.522  1.00  0.00     0.168 C 
HETATM    3  C5  UNL     1      10.179  45.075  44.970  1.00  0.00     0.106 C 
HETATM    4  C6  UNL     1       8.747  44.577  44.941  1.00  0.00     0.053 C 
HETATM    5 BR1  UNL     1      10.056  46.820  45.870  1.00  0.00    -0.060 Br
HETATM    6  N2  UNL     1      11.064  44.181  45.646  1.00  0.00    -0.327 N 
HETATM    7  C7  UNL     1      10.640  43.686  46.926  1.00  0.00     0.217 C 
HETATM    8  C8  UNL     1       9.425  43.996  47.663  1.00  0.00     0.117 C 
HETATM    9  O1  UNL     1      11.427  42.850  47.529  1.00  0.00    -0.274 OA
HETATM   10  C9  UNL     1      12.380  43.660  45.288  1.00  0.00     0.091 C 
HETATM   11  C10 UNL     1      13.388  44.700  44.937  1.00  0.00     0.051 C 
HETATM   12  C11 UNL     1      13.142  44.950  43.497  1.00  0.00     0.095 C 
HETATM   13  C12 UNL     1      12.992  43.530  42.978  1.00  0.00     0.044 C 
HETATM   14  C16 UNL     1      12.361  42.757  44.102  1.00  0.00     0.035 C 
ENDROOT
BRANCH  13  15
HETATM   15  C13 UNL     1      14.261  42.873  42.588  1.00  0.00     0.056 C 
HETATM   16  C14 UNL     1      15.254  43.827  41.947  1.00  0.00     0.045 C 
HETATM   17  C15 UNL     1      13.918  41.857  41.480  1.00  0.00     0.045 C 
BRANCH  15  18
HETATM   18  O2  UNL     1      14.908  42.148  43.555  1.00  0.00    -0.390 OA
ATOM     19  H2  UNL     1      15.669  41.649  43.283  1.00  0.00     0.210 HD
ENDBRANCH  15  18
ENDBRANCH  13  15
BRANCH   1  20
HETATM   20  C3  UNL     1      12.069  46.961  42.746  1.00  0.00     0.182 C 
HETATM   21  C2  UNL     1      11.047  47.787  42.689  1.00  0.00     0.030 C 
HETATM   22  C1  UNL     1      11.139  49.171  42.135  1.00  0.00     0.041 C 
HETATM   23  F1  UNL     1      13.266  47.370  42.287  1.00  0.00    -0.187 F 
ENDBRANCH   1  20
TORSDOF 3
ENDMDL
MODEL 4
REMARK VINA RESULT: -7.904026751      2.738      5.482
REMARK  3 active torsions:
REMARK  status: ('A' for Active; 'I' for Inactive)
REMARK    1  A    between atoms: C3_3  and  N1_5 
REMARK       I    between atoms: N2_10  and  C7_11 
REMARK    2  A    between atoms: C12_17  and  C13_18 
REMARK    3  A    between atoms: C13_18  and  O2_21 
ROOT
HETATM    1  N1  UNL     1      13.202  44.316  43.976  1.00  0.00    -0.350 N 
HETATM    2  C4  UNL     1      12.335  44.551  42.871  1.00  0.00     0.168 C 
HETATM    3  C5  UNL     1      12.071  46.003  42.544  1.00  0.00     0.106 C 
HETATM    4  C6  UNL     1      11.040  45.978  41.432  1.00  0.00     0.053 C 
HETATM    5 BR1  UNL     1      13.676  46.747  41.683  1.00  0.00    -0.060 Br
HETATM    6  N2  UNL     1      11.656  46.776  43.669  1.00  0.00    -0.327 N 
HETATM    7  C7  UNL     1      11.119  48.082  43.402  1.00  0.00     0.217 C 
HETATM    8  C8  UNL     1      10.964  48.756  42.123  1.00  0.00     0.117 C 
HETATM    9  O1  UNL     1      10.712  48.776  44.420  1.00  0.00    -0.274 OA
HETATM   10  C9  UNL     1      11.684  46.501  45.103  1.00  0.00     0.091 C 
HETATM   11  C10 UNL     1      13.015  46.090  45.632  1.00  0.00     0.051 C 
HETATM   12  C11 UNL     1      13.048  44.628  45.393  1.00  0.00     0.095 C 
HETATM   13  C12 UNL     1      11.657  44.228  45.851  1.00  0.00     0.044 C 
HETATM   14  C16 UNL     1      10.772  45.396  45.515  1.00  0.00     0.035 C 
ENDROOT
BRANCH  13  15
HETATM   15  C13 UNL     1      11.540  43.930  47.298  1.00  0.00     0.056 C 
HETATM   16  C14 UNL     1      11.938  42.506  47.648  1.00  0.00     0.045 C 
HETATM   17  C15 UNL     1      10.043  44.020  47.655  1.00  0.00     0.045 C 
BRANCH  15  18
HETATM   18  O2  UNL     1      12.169  44.790  48.162  1.00  0.00    -0.390 OA
ATOM     19  H2  UNL     1      12.058  44.625  49.091  1.00  0.00     0.210 HD
ENDBRANCH  15  18
ENDBRANCH  13  15
BRANCH   1  20
HETATM   20  C3  UNL     1      14.404  43.680  43.654  1.00  0.00     0.182 C 
HETATM   21  C2  UNL     1      15.260  43.380  44.606  1.00  0.00     0.030 C 
HETATM   22  C1  UNL     1      16.567  42.701  44.352  1.00  0.00     0.041 C 
HETATM   23  F1  UNL     1      14.705  43.365  42.381  1.00  0.00    -0.187 F 
ENDBRANCH   1  20
TORSDOF 3
ENDMDL
MODEL 5
REMARK VINA RESULT: -7.813238011      2.537      4.000
REMARK  3 active torsions:
REMARK  status: ('A' for Active; 'I' for Inactive)
REMARK    1  A    between atoms: C3_3  and  N1_5 
REMARK       I    between atoms: N2_10  and  C7_11 
REMARK    2  A    between atoms: C12_17  and  C13_18 
REMARK    3  A    between atoms: C13_18  and  O2_21 
ROOT
HETATM    1  N1  UNL     1      13.122  44.848  45.086  1.00  0.00    -0.350 N 
HETATM    2  C4  UNL     1      12.377  45.497  46.111  1.00  0.00     0.168 C 
HETATM    3  C5  UNL     1      11.068  44.840  46.485  1.00  0.00     0.106 C 
HETATM    4  C6  UNL     1      10.425  45.779  47.488  1.00  0.00     0.053 C 
HETATM    5 BR1  UNL     1      11.460  43.224  47.535  1.00  0.00    -0.060 Br
HETATM    6  N2  UNL     1      10.227  44.564  45.365  1.00  0.00    -0.327 N 
HETATM    7  C7  UNL     1       8.864  44.204  45.644  1.00  0.00     0.217 C 
HETATM    8  C8  UNL     1       8.213  44.047  46.935  1.00  0.00     0.117 C 
HETATM    9  O1  UNL     1       8.089  43.982  44.628  1.00  0.00    -0.274 OA
HETATM   10  C9  UNL     1      10.490  44.558  43.928  1.00  0.00     0.091 C 
HETATM   11  C10 UNL     1      11.648  43.718  43.512  1.00  0.00     0.051 C 
HETATM   12  C11 UNL     1      12.811  44.622  43.678  1.00  0.00     0.095 C 
HETATM   13  C12 UNL     1      12.272  45.904  43.067  1.00  0.00     0.044 C 
HETATM   14  C16 UNL     1      10.800  45.907  43.374  1.00  0.00     0.035 C 
ENDROOT
BRANCH  13  15
HETATM   15  C13 UNL     1      12.463  46.022  41.602  1.00  0.00     0.056 C 
HETATM   16  C14 UNL     1      13.924  46.120  41.198  1.00  0.00     0.045 C 
HETATM   17  C15 UNL     1      11.845  47.369  41.177  1.00  0.00     0.045 C 
BRANCH  15  18
HETATM   18  O2  UNL     1      11.849  45.080  40.817  1.00  0.00    -0.390 OA
ATOM     19  H2  UNL     1      11.424  45.389  40.026  1.00  0.00     0.210 HD
ENDBRANCH  15  18
ENDBRANCH  13  15
BRANCH   1  20
HETATM   20  C3  UNL     1      14.359  44.340  45.490  1.00  0.00     0.182 C 
HETATM   21  C2  UNL     1      15.004  43.496  44.715  1.00  0.00     0.030 C 
HETATM   22  C1  UNL     1      16.329  42.904  45.070  1.00  0.00     0.041 C 
HETATM   23  F1  UNL     1      14.908  44.700  46.665  1.00  0.00    -0.187 F 
ENDBRANCH   1  20
TORSDOF 3
ENDMDL
