MODEL 1
REMARK VINA RESULT: -9.080637130      0.000      0.000
REMARK  1 active torsions:
REMARK  status: ('A' for Active; 'I' for Inactive)
REMARK    1  A    between atoms: C7_9  and  C9_11 
ROOT
HETATM    1  C1  UNL     1      10.415  51.572  42.658  1.00  0.00     0.036 C 
HETATM    2  C2  UNL     1      10.386  50.139  42.295  1.00  0.00    -0.023 C 
HETATM    3  C3  UNL     1      10.744  49.228  43.178  1.00  0.00    -0.049 C 
HETATM    4  C4  UNL     1      11.195  49.436  44.553  1.00  0.00     0.022 C 
HETATM    5  C5  UNL     1      11.708  48.340  45.069  1.00  0.00     0.038 C 
HETATM    6  C6  UNL     1      12.327  47.686  46.218  1.00  0.00     0.291 C 
HETATM    7  O1  UNL     1      12.665  48.277  47.294  1.00  0.00    -0.260 OA
HETATM    8  O2  UNL     1      12.483  46.335  45.949  1.00  0.00    -0.301 OA
HETATM    9  C7  UNL     1      11.601  46.032  44.884  1.00  0.00     0.107 C 
HETATM   10  C8  UNL     1      12.248  44.899  44.094  1.00  0.00     0.053 C 
HETATM   11  C11 UNL     1      11.651  47.262  44.054  1.00  0.00     0.103 A 
HETATM   12  C12 UNL     1      12.233  47.322  42.744  1.00  0.00     0.154 A 
HETATM   13  O3  UNL     1      13.139  47.182  41.956  1.00  0.00    -0.296 OA
HETATM   14  C13 UNL     1      10.791  47.728  43.029  1.00  0.00     0.113 A 
ENDROOT
BRANCH   9  15
HETATM   15  C9  UNL     1      10.256  45.654  45.336  1.00  0.00     0.039 C 
HETATM   16  C10 UNL     1      10.125  44.718  46.265  1.00  0.00     0.056 C 
HETATM   17 BR1  UNL     1       8.392  44.184  46.892  1.00  0.00    -0.043 Br
HETATM   18 BR2  UNL     1      11.643  43.861  47.019  1.00  0.00    -0.043 Br
ENDBRANCH   9  15
TORSDOF 1
ENDMDL
MODEL 2
REMARK VINA RESULT: -8.068341952      1.000      1.000
REMARK  1 active torsions:
REMARK  status: ('A' for Active; 'I' for Inactive)
REMARK    1  A    between atoms: C7_9  and  C9_11 
ROOT
HETATM    1  C1  UNL     1      10.201  51.226  42.414  1.00  0.00     0.036 C 
HETATM    2  C2  UNL     1      10.202  49.748  42.409  1.00  0.00    -0.023 C 
HETATM    3  C3  UNL     1      10.681  49.086  43.444  1.00  0.00    -0.049 C 
HETATM    4  C4  UNL     1      11.247  49.629  44.676  1.00  0.00     0.022 C 
HETATM    5  C5  UNL     1      11.854  48.701  45.384  1.00  0.00     0.038 C 
HETATM    6  C6  UNL     1      12.605  48.358  46.589  1.00  0.00     0.291 C 
HETATM    7  O1  UNL     1      13.016  49.199  47.452  1.00  0.00    -0.260 OA
HETATM    8  O2  UNL     1      12.795  46.986  46.636  1.00  0.00    -0.301 OA
HETATM    9  C7  UNL     1      11.833  46.416  45.768  1.00  0.00     0.107 C 
HETATM   10  C8  UNL     1      12.453  45.140  45.211  1.00  0.00     0.053 C 
HETATM   11  C11 UNL     1      11.751  47.409  44.667  1.00  0.00     0.103 A 
HETATM   12  C12 UNL     1      12.206  47.163  43.330  1.00  0.00     0.154 A 
HETATM   13  O3  UNL     1      13.040  46.854  42.511  1.00  0.00    -0.296 OA
HETATM   14  C13 UNL     1      10.780  47.595  43.653  1.00  0.00     0.113 A 
ENDROOT
BRANCH   9  15
HETATM   15  C9  UNL     1      10.553  46.131  46.431  1.00  0.00     0.039 C 
HETATM   16  C10 UNL     1       9.790  45.150  45.969  1.00  0.00     0.056 C 
HETATM   17 BR1  UNL     1       8.108  44.735  46.795  1.00  0.00    -0.043 Br
HETATM   18 BR2  UNL     1      10.323  44.110  44.472  1.00  0.00    -0.043 Br
ENDBRANCH   9  15
TORSDOF 1
ENDMDL
MODEL 3
REMARK VINA RESULT: -7.346665475      2.812      4.397
REMARK  1 active torsions:
REMARK  status: ('A' for Active; 'I' for Inactive)
REMARK    1  A    between atoms: C7_9  and  C9_11 
ROOT
HETATM    1  C1  UNL     1      10.764  50.426  43.212  1.00  0.00     0.036 C 
HETATM    2  C2  UNL     1      11.145  49.332  44.132  1.00  0.00    -0.023 C 
HETATM    3  C3  UNL     1      11.365  48.121  43.658  1.00  0.00    -0.049 C 
HETATM    4  C4  UNL     1      11.284  47.668  42.272  1.00  0.00     0.022 C 
HETATM    5  C5  UNL     1      11.319  46.355  42.185  1.00  0.00     0.038 C 
HETATM    6  C6  UNL     1      11.297  45.172  41.330  1.00  0.00     0.291 C 
HETATM    7  O1  UNL     1      11.110  45.189  40.071  1.00  0.00    -0.260 OA
HETATM    8  O2  UNL     1      11.512  44.042  42.105  1.00  0.00    -0.301 OA
HETATM    9  C7  UNL     1      12.101  44.488  43.312  1.00  0.00     0.107 C 
HETATM   10  C8  UNL     1      11.654  43.516  44.398  1.00  0.00     0.053 C 
HETATM   11  C11 UNL     1      11.425  45.789  43.549  1.00  0.00     0.103 A 
HETATM   12  C12 UNL     1      10.506  46.031  44.623  1.00  0.00     0.154 A 
HETATM   13  O3  UNL     1       9.508  45.801  45.265  1.00  0.00    -0.296 OA
HETATM   14  C13 UNL     1      11.760  46.869  44.402  1.00  0.00     0.113 A 
ENDROOT
BRANCH   9  15
HETATM   15  C9  UNL     1      13.566  44.564  43.248  1.00  0.00     0.039 C 
HETATM   16  C10 UNL     1      14.249  43.520  42.799  1.00  0.00     0.056 C 
HETATM   17 BR1  UNL     1      16.164  43.563  42.694  1.00  0.00    -0.043 Br
HETATM   18 BR2  UNL     1      13.366  41.934  42.239  1.00  0.00    -0.043 Br
ENDBRANCH   9  15
TORSDOF 1
ENDMDL
MODEL 4
REMARK VINA RESULT: -6.968579375      2.915      4.989
REMARK  1 active torsions:
REMARK  status: ('A' for Active; 'I' for Inactive)
REMARK    1  A    between atoms: C7_9  and  C9_11 
ROOT
HETATM    1  C1  UNL     1      16.363  43.161  40.882  1.00  0.00     0.036 C 
HETATM    2  C2  UNL     1      15.410  44.292  40.866  1.00  0.00    -0.023 C 
HETATM    3  C3  UNL     1      14.506  44.404  41.819  1.00  0.00    -0.049 C 
HETATM    4  C4  UNL     1      14.290  43.522  42.964  1.00  0.00     0.022 C 
HETATM    5  C5  UNL     1      13.154  43.784  43.574  1.00  0.00     0.038 C 
HETATM    6  C6  UNL     1      12.231  43.464  44.659  1.00  0.00     0.291 C 
HETATM    7  O1  UNL     1      12.365  42.486  45.462  1.00  0.00    -0.260 OA
HETATM    8  O2  UNL     1      11.197  44.388  44.670  1.00  0.00    -0.301 OA
HETATM    9  C7  UNL     1      11.655  45.512  43.941  1.00  0.00     0.107 C 
HETATM   10  C8  UNL     1      10.425  46.140  43.294  1.00  0.00     0.053 C 
HETATM   11  C11 UNL     1      12.480  44.898  42.870  1.00  0.00     0.103 A 
HETATM   12  C12 UNL     1      12.126  44.910  41.480  1.00  0.00     0.154 A 
HETATM   13  O3  UNL     1      11.387  44.683  40.550  1.00  0.00    -0.296 OA
HETATM   14  C13 UNL     1      13.447  45.462  42.003  1.00  0.00     0.113 A 
ENDROOT
BRANCH   9  15
HETATM   15  C9  UNL     1      12.366  46.491  44.774  1.00  0.00     0.039 C 
HETATM   16  C10 UNL     1      11.833  46.867  45.928  1.00  0.00     0.056 C 
HETATM   17 BR1  UNL     1      12.717  48.143  47.056  1.00  0.00    -0.043 Br
HETATM   18 BR2  UNL     1      10.171  46.162  46.520  1.00  0.00    -0.043 Br
ENDBRANCH   9  15
TORSDOF 1
ENDMDL
MODEL 5
REMARK VINA RESULT: -6.902358478      3.864      5.033
REMARK  1 active torsions:
REMARK  status: ('A' for Active; 'I' for Inactive)
REMARK    1  A    between atoms: C7_9  and  C9_11 
ROOT
HETATM    1  C1  UNL     1       8.162  44.392  46.903  1.00  0.00     0.036 C 
HETATM    2  C2  UNL     1       8.465  44.515  45.461  1.00  0.00    -0.023 C 
HETATM    3  C3  UNL     1       9.707  44.387  45.036  1.00  0.00    -0.049 C 
HETATM    4  C4  UNL     1      10.907  44.125  45.828  1.00  0.00     0.022 C 
HETATM    5  C5  UNL     1      12.004  44.307  45.125  1.00  0.00     0.038 C 
HETATM    6  C6  UNL     1      13.463  44.284  45.082  1.00  0.00     0.291 C 
HETATM    7  O1  UNL     1      14.215  44.075  46.087  1.00  0.00    -0.260 OA
HETATM    8  O2  UNL     1      13.888  44.525  43.784  1.00  0.00    -0.301 OA
HETATM    9  C7  UNL     1      12.782  44.258  42.942  1.00  0.00     0.107 C 
HETATM   10  C8  UNL     1      12.921  45.184  41.738  1.00  0.00     0.053 C 
HETATM   11  C11 UNL     1      11.629  44.724  43.754  1.00  0.00     0.103 A 
HETATM   12  C12 UNL     1      10.825  45.865  43.423  1.00  0.00     0.154 A 
HETATM   13  O3  UNL     1      10.661  47.036  43.168  1.00  0.00    -0.296 OA
HETATM   14  C13 UNL     1      10.241  44.472  43.628  1.00  0.00     0.113 A 
ENDROOT
BRANCH   9  15
HETATM   15  C9  UNL     1      12.703  42.854  42.518  1.00  0.00     0.039 C 
HETATM   16  C10 UNL     1      13.791  42.257  42.055  1.00  0.00     0.056 C 
HETATM   17 BR1  UNL     1      13.746  40.424  41.485  1.00  0.00    -0.043 Br
HETATM   18 BR2  UNL     1      15.445  43.182  41.931  1.00  0.00    -0.043 Br
ENDBRANCH   9  15
TORSDOF 1
ENDMDL
