MODEL 1
REMARK VINA RESULT: -7.249478788      0.000      0.000
REMARK  2 active torsions:
REMARK  status: ('A' for Active; 'I' for Inactive)
REMARK    1  A    between atoms: O1_2  and  C2_3 
REMARK    2  A    between atoms: C7_10  and  O2_12 
ROOT
HETATM    1  C2  UNL     1      12.105  45.504  42.950  1.00  0.00     0.135 C 
HETATM    2 BR1  UNL     1      13.753  45.027  42.005  1.00  0.00    -0.053 Br
HETATM    3  C3  UNL     1      12.203  46.927  43.318  1.00  0.00     0.053 C 
HETATM    4  C4  UNL     1      11.406  47.343  44.518  1.00  0.00     0.033 C 
HETATM    5  C5  UNL     1      11.672  46.496  45.738  1.00  0.00     0.083 C 
HETATM    6 BR2  UNL     1      12.858  47.515  46.883  1.00  0.00    -0.077 Br
HETATM    7  C6  UNL     1      10.395  46.283  46.466  1.00  0.00     0.070 C 
HETATM    8  C7  UNL     1       9.879  44.885  46.466  1.00  0.00     0.073 C 
HETATM    9  C8  UNL     1       8.503  44.929  47.126  1.00  0.00     0.050 C 
HETATM   10  C9  UNL     1       9.800  44.184  45.207  1.00  0.00     0.007 C 
HETATM   11  C10 UNL     1      10.671  44.037  44.236  1.00  0.00    -0.007 C 
HETATM   12  C11 UNL     1      12.046  44.576  44.155  1.00  0.00     0.077 C 
HETATM   13  C12 UNL     1      12.989  43.382  43.975  1.00  0.00     0.032 C 
HETATM   14  C13 UNL     1      12.382  45.249  45.399  1.00  0.00     0.162 C 
HETATM   15  O3  UNL     1      13.218  44.811  46.146  1.00  0.00    -0.295 OA
ENDROOT
BRANCH   1  16
HETATM   16  O1  UNL     1      11.075  45.169  42.099  1.00  0.00    -0.372 OA
HETATM   17  C1  UNL     1      11.331  45.183  40.765  1.00  0.00     0.204 C 
ENDBRANCH   1  16
BRANCH   8  18
HETATM   18  O2  UNL     1      10.683  44.129  47.350  1.00  0.00    -0.386 OA
ATOM     19  H2  UNL     1      11.356  43.699  46.836  1.00  0.00     0.211 HD
ENDBRANCH   8  18
TORSDOF 2
ENDMDL
MODEL 2
REMARK VINA RESULT: -7.212031163      1.366      1.584
REMARK  2 active torsions:
REMARK  status: ('A' for Active; 'I' for Inactive)
REMARK    1  A    between atoms: O1_2  and  C2_3 
REMARK    2  A    between atoms: C7_10  and  O2_12 
ROOT
HETATM    1  C2  UNL     1      11.647  46.658  43.322  1.00  0.00     0.135 C 
HETATM    2 BR1  UNL     1      13.005  46.428  41.929  1.00  0.00    -0.053 Br
HETATM    3  C3  UNL     1      12.246  47.475  44.392  1.00  0.00     0.053 C 
HETATM    4  C4  UNL     1      11.668  47.274  45.761  1.00  0.00     0.033 C 
HETATM    5  C5  UNL     1      11.641  45.830  46.196  1.00  0.00     0.083 C 
HETATM    6 BR2  UNL     1      13.131  45.581  47.411  1.00  0.00    -0.077 Br
HETATM    7  C6  UNL     1      10.384  45.574  46.944  1.00  0.00     0.070 C 
HETATM    8  C7  UNL     1       9.411  44.666  46.276  1.00  0.00     0.073 C 
HETATM    9  C8  UNL     1       8.150  44.670  47.138  1.00  0.00     0.050 C 
HETATM   10  C9  UNL     1       9.067  44.924  44.898  1.00  0.00     0.007 C 
HETATM   11  C10 UNL     1       9.813  45.167  43.847  1.00  0.00    -0.007 C 
HETATM   12  C11 UNL     1      11.287  45.249  43.773  1.00  0.00     0.077 C 
HETATM   13  C12 UNL     1      11.747  44.209  42.746  1.00  0.00     0.032 C 
HETATM   14  C13 UNL     1      11.862  44.910  45.065  1.00  0.00     0.162 C 
HETATM   15  O3  UNL     1      12.504  43.904  45.224  1.00  0.00    -0.295 OA
ENDROOT
BRANCH   1  16
HETATM   16  O1  UNL     1      10.550  47.199  42.689  1.00  0.00    -0.372 OA
HETATM   17  C1  UNL     1      10.610  48.510  42.336  1.00  0.00     0.204 C 
ENDBRANCH   1  16
BRANCH   8  18
HETATM   18  O2  UNL     1       9.913  43.348  46.374  1.00  0.00    -0.386 OA
ATOM     19  H2  UNL     1       9.915  42.972  45.501  1.00  0.00     0.211 HD
ENDBRANCH   8  18
TORSDOF 2
ENDMDL
MODEL 3
REMARK VINA RESULT: -7.210624499      2.049      4.547
REMARK  2 active torsions:
REMARK  status: ('A' for Active; 'I' for Inactive)
REMARK    1  A    between atoms: O1_2  and  C2_3 
REMARK    2  A    between atoms: C7_10  and  O2_12 
ROOT
HETATM    1  C2  UNL     1      10.543  45.121  45.656  1.00  0.00     0.135 C 
HETATM    2 BR1  UNL     1      11.443  43.716  46.681  1.00  0.00    -0.053 Br
HETATM    3  C3  UNL     1       9.840  44.469  44.537  1.00  0.00     0.053 C 
HETATM    4  C4  UNL     1       9.616  45.324  43.325  1.00  0.00     0.033 C 
HETATM    5  C5  UNL     1      10.875  45.974  42.808  1.00  0.00     0.083 C 
HETATM    6 BR2  UNL     1      11.449  44.943  41.270  1.00  0.00    -0.077 Br
HETATM    7  C6  UNL     1      10.555  47.351  42.351  1.00  0.00     0.070 C 
HETATM    8  C7  UNL     1      11.150  48.452  43.159  1.00  0.00     0.073 C 
HETATM    9  C8  UNL     1      10.573  49.755  42.611  1.00  0.00     0.050 C 
HETATM   10  C9  UNL     1      10.997  48.410  44.593  1.00  0.00     0.007 C 
HETATM   11  C10 UNL     1      11.194  47.445  45.461  1.00  0.00    -0.007 C 
HETATM   12  C11 UNL     1      11.649  46.063  45.201  1.00  0.00     0.077 C 
HETATM   13  C12 UNL     1      12.926  45.846  46.020  1.00  0.00     0.032 C 
HETATM   14  C13 UNL     1      11.972  45.910  43.791  1.00  0.00     0.162 C 
HETATM   15  O3  UNL     1      13.104  45.737  43.420  1.00  0.00    -0.295 OA
ENDROOT
BRANCH   1  16
HETATM   16  O1  UNL     1       9.750  45.794  46.559  1.00  0.00    -0.372 OA
HETATM   17  C1  UNL     1       8.737  45.104  47.143  1.00  0.00     0.204 C 
ENDBRANCH   1  16
BRANCH   8  18
HETATM   18  O2  UNL     1      12.531  48.512  42.857  1.00  0.00    -0.386 OA
ATOM     19  H2  UNL     1      12.955  49.019  43.539  1.00  0.00     0.211 HD
ENDBRANCH   8  18
TORSDOF 2
ENDMDL
MODEL 4
REMARK VINA RESULT: -7.146036396      2.177      3.041
REMARK  2 active torsions:
REMARK  status: ('A' for Active; 'I' for Inactive)
REMARK    1  A    between atoms: O1_2  and  C2_3 
REMARK    2  A    between atoms: C7_10  and  O2_12 
ROOT
HETATM    1  C2  UNL     1      10.910  45.883  43.395  1.00  0.00     0.135 C 
HETATM    2 BR1  UNL     1      10.715  47.680  42.642  1.00  0.00    -0.053 Br
HETATM    3  C3  UNL     1       9.568  45.278  43.448  1.00  0.00     0.053 C 
HETATM    4  C4  UNL     1       9.372  44.224  44.497  1.00  0.00     0.033 C 
HETATM    5  C5  UNL     1       9.768  44.674  45.881  1.00  0.00     0.083 C 
HETATM    6 BR2  UNL     1       8.129  45.106  46.822  1.00  0.00    -0.077 Br
HETATM    7  C6  UNL     1      10.424  43.545  46.587  1.00  0.00     0.070 C 
HETATM    8  C7  UNL     1      11.876  43.720  46.872  1.00  0.00     0.073 C 
HETATM    9  C8  UNL     1      12.368  42.396  47.453  1.00  0.00     0.050 C 
HETATM   10  C9  UNL     1      12.740  44.137  45.794  1.00  0.00     0.007 C 
HETATM   11  C10 UNL     1      12.628  45.103  44.913  1.00  0.00    -0.007 C 
HETATM   12  C11 UNL     1      11.531  46.085  44.770  1.00  0.00     0.077 C 
HETATM   13  C12 UNL     1      12.154  47.479  44.892  1.00  0.00     0.032 C 
HETATM   14  C13 UNL     1      10.573  45.909  45.850  1.00  0.00     0.162 C 
HETATM   15  O3  UNL     1      10.430  46.743  46.706  1.00  0.00    -0.295 OA
ENDROOT
BRANCH   1  16
HETATM   16  O1  UNL     1      11.833  45.241  42.598  1.00  0.00    -0.372 OA
HETATM   17  C1  UNL     1      11.527  45.084  41.284  1.00  0.00     0.204 C 
ENDBRANCH   1  16
BRANCH   8  18
HETATM   18  O2  UNL     1      11.999  44.649  47.931  1.00  0.00    -0.386 OA
ATOM     19  H2  UNL     1      11.985  44.162  48.747  1.00  0.00     0.211 HD
ENDBRANCH   8  18
TORSDOF 2
ENDMDL
MODEL 5
REMARK VINA RESULT: -7.038733607      1.921      4.546
REMARK  2 active torsions:
REMARK  status: ('A' for Active; 'I' for Inactive)
REMARK    1  A    between atoms: O1_2  and  C2_3 
REMARK    2  A    between atoms: C7_10  and  O2_12 
ROOT
HETATM    1  C2  UNL     1      10.706  45.182  45.971  1.00  0.00     0.135 C 
HETATM    2 BR1  UNL     1       8.968  45.275  46.868  1.00  0.00    -0.053 Br
HETATM    3  C3  UNL     1      11.299  46.530  46.016  1.00  0.00     0.053 C 
HETATM    4  C4  UNL     1      12.272  46.847  44.920  1.00  0.00     0.033 C 
HETATM    5  C5  UNL     1      11.723  46.593  43.538  1.00  0.00     0.083 C 
HETATM    6 BR2  UNL     1      11.216  48.316  42.809  1.00  0.00    -0.077 Br
HETATM    7  C6  UNL     1      12.801  46.028  42.686  1.00  0.00     0.070 C 
HETATM    8  C7  UNL     1      12.612  44.612  42.264  1.00  0.00     0.073 C 
HETATM    9  C8  UNL     1      13.891  44.200  41.539  1.00  0.00     0.050 C 
HETATM   10  C9  UNL     1      12.279  43.634  43.272  1.00  0.00     0.007 C 
HETATM   11  C10 UNL     1      11.379  43.642  44.227  1.00  0.00    -0.007 C 
HETATM   12  C11 UNL     1      10.406  44.706  44.556  1.00  0.00     0.077 C 
HETATM   13  C12 UNL     1       9.009  44.082  44.471  1.00  0.00     0.032 C 
HETATM   14  C13 UNL     1      10.498  45.774  43.573  1.00  0.00     0.162 C 
HETATM   15  O3  UNL     1       9.603  45.995  42.800  1.00  0.00    -0.295 OA
ENDROOT
BRANCH   1  16
HETATM   16  O1  UNL     1      11.409  44.189  46.617  1.00  0.00    -0.372 OA
HETATM   17  C1  UNL     1      10.857  43.655  47.738  1.00  0.00     0.204 C 
ENDBRANCH   1  16
BRANCH   8  18
HETATM   18  O2  UNL     1      11.608  44.589  41.268  1.00  0.00    -0.386 OA
ATOM     19  H2  UNL     1      11.777  43.844  40.703  1.00  0.00     0.211 HD
ENDBRANCH   8  18
TORSDOF 2
ENDMDL
