MODEL 1
REMARK VINA RESULT: -7.313017016      0.000      0.000
REMARK  10 active torsions:
REMARK  status: ('A' for Active; 'I' for Inactive)
REMARK    1  A    between atoms: C3_4  and  C4_5 
REMARK    2  A    between atoms: C4_5  and  N2_6 
REMARK    3  A    between atoms: N2_6  and  C5_7 
REMARK    4  A    between atoms: N2_6  and  C8_12 
REMARK    5  A    between atoms: C5_7  and  C6_8 
REMARK    6  A    between atoms: C6_8  and  C7_9 
REMARK    7  A    between atoms: C7_9  and  O1_10 
REMARK    8  A    between atoms: C8_12  and  C9_13 
REMARK    9  A    between atoms: C9_13  and  C10_14 
REMARK   10  A    between atoms: N3_20  and  N4_21 
ROOT
HETATM    1  N2  UNL     1       7.137  16.383 -29.902  1.00  0.00     0.090 N 
ENDROOT
BRANCH   1   2
HETATM    2  C4  UNL     1       6.152  17.111 -29.231  1.00  0.00     0.301 C 
BRANCH   2   3
HETATM    3  C3  UNL     1       6.412  18.532 -28.855  1.00  0.00     0.172 C 
HETATM    4  C2  UNL     1       7.130  18.475 -27.495  1.00  0.00     0.170 C 
HETATM    5  N1  UNL     1       6.357  19.321 -26.627  1.00  0.00    -0.219 N 
HETATM    6  C1  UNL     1       6.644  19.463 -25.204  1.00  0.00     0.168 C 
HETATM    7  C16 UNL     1       5.330  19.949 -27.377  1.00  0.00     0.690 C 
HETATM    8  N3  UNL     1       5.192  19.260 -28.595  1.00  0.00    -0.123 N 
HETATM    9  N5  UNL     1       4.629  20.999 -26.990  1.00  0.00    -0.233 N 
ATOM     10  H52 UNL     1       4.730  21.499 -26.106  1.00  0.00     0.174 HD
ATOM     11  H51 UNL     1       3.891  21.450 -27.529  1.00  0.00     0.174 HD
BRANCH   8  12
HETATM   12  N4  UNL     1       4.076  19.269 -29.416  1.00  0.00    -0.328 N 
ATOM     13  H42 UNL     1       4.058  19.521 -30.404  1.00  0.00     0.177 HD
ATOM     14  H41 UNL     1       3.130  19.022 -29.126  1.00  0.00     0.177 HD
ENDBRANCH   8  12
ENDBRANCH   2   3
ENDBRANCH   1   2
BRANCH   1  15
HETATM   15  C5  UNL     1       6.514  15.886 -31.168  1.00  0.00     0.274 C 
BRANCH  15  16
HETATM   16  C6  UNL     1       7.459  15.922 -32.316  1.00  0.00     0.056 C 
BRANCH  16  17
HETATM   17  C7  UNL     1       6.864  16.843 -33.381  1.00  0.00     0.165 C 
BRANCH  17  18
HETATM   18  O1  UNL     1       7.857  17.209 -34.293  1.00  0.00    -0.401 OA
ATOM     19  H1  UNL     1       8.206  16.431 -34.714  1.00  0.00     0.209 HD
ENDBRANCH  17  18
ENDBRANCH  16  17
ENDBRANCH  15  16
ENDBRANCH   1  15
BRANCH   1  20
HETATM   20  C8  UNL     1       7.687  15.196 -29.325  1.00  0.00     0.273 C 
BRANCH  20  21
HETATM   21  C9  UNL     1       8.915  15.302 -28.513  1.00  0.00     0.034 C 
BRANCH  21  22
HETATM   22  C10 UNL     1      10.072  14.608 -29.189  1.00  0.00    -0.013 C 
HETATM   23  C11 UNL     1      10.530  15.246 -30.456  1.00  0.00     0.005 C 
HETATM   24  C12 UNL     1      11.822  14.536 -30.863  1.00  0.00     0.000 C 
HETATM   25  C13 UNL     1      12.146  13.381 -29.971  1.00  0.00     0.000 C 
HETATM   26  C14 UNL     1      11.000  12.448 -29.725  1.00  0.00     0.000 C 
HETATM   27  C15 UNL     1       9.676  13.188 -29.512  1.00  0.00     0.005 C 
ENDBRANCH  21  22
ENDBRANCH  20  21
ENDBRANCH   1  20
TORSDOF 10
ENDMDL
MODEL 2
REMARK VINA RESULT: -7.161353473      2.649      7.019
REMARK  10 active torsions:
REMARK  status: ('A' for Active; 'I' for Inactive)
REMARK    1  A    between atoms: C3_4  and  C4_5 
REMARK    2  A    between atoms: C4_5  and  N2_6 
REMARK    3  A    between atoms: N2_6  and  C5_7 
REMARK    4  A    between atoms: N2_6  and  C8_12 
REMARK    5  A    between atoms: C5_7  and  C6_8 
REMARK    6  A    between atoms: C6_8  and  C7_9 
REMARK    7  A    between atoms: C7_9  and  O1_10 
REMARK    8  A    between atoms: C8_12  and  C9_13 
REMARK    9  A    between atoms: C9_13  and  C10_14 
REMARK   10  A    between atoms: N3_20  and  N4_21 
ROOT
HETATM    1  N2  UNL     1       7.612  15.599 -30.295  1.00  0.00     0.090 N 
ENDROOT
BRANCH   1   2
HETATM    2  C4  UNL     1       8.906  15.570 -30.820  1.00  0.00     0.301 C 
BRANCH   2   3
HETATM    3  C3  UNL     1       9.513  14.265 -31.216  1.00  0.00     0.172 C 
HETATM    4  C2  UNL     1      10.546  13.941 -30.123  1.00  0.00     0.170 C 
HETATM    5  N1  UNL     1      11.777  13.710 -30.828  1.00  0.00    -0.219 N 
HETATM    6  C1  UNL     1      13.043  13.469 -30.145  1.00  0.00     0.168 C 
HETATM    7  C16 UNL     1      11.534  13.758 -32.224  1.00  0.00     0.690 C 
HETATM    8  N3  UNL     1      10.285  14.368 -32.432  1.00  0.00    -0.123 N 
HETATM    9  N5  UNL     1      12.347  13.305 -33.161  1.00  0.00    -0.233 N 
ATOM     10  H52 UNL     1      13.253  12.861 -33.010  1.00  0.00     0.174 HD
ATOM     11  H51 UNL     1      12.172  13.339 -34.165  1.00  0.00     0.174 HD
BRANCH   8  12
HETATM   12  N4  UNL     1       9.856  14.974 -33.602  1.00  0.00    -0.328 N 
ATOM     13  H42 UNL     1       8.952  14.836 -34.054  1.00  0.00     0.177 HD
ATOM     14  H41 UNL     1      10.400  15.634 -34.156  1.00  0.00     0.177 HD
ENDBRANCH   8  12
ENDBRANCH   2   3
ENDBRANCH   1   2
BRANCH   1  15
HETATM   15  C5  UNL     1       6.677  15.597 -31.462  1.00  0.00     0.274 C 
BRANCH  15  16
HETATM   16  C6  UNL     1       6.733  16.867 -32.234  1.00  0.00     0.056 C 
BRANCH  16  17
HETATM   17  C7  UNL     1       6.834  16.508 -33.716  1.00  0.00     0.165 C 
BRANCH  17  18
HETATM   18  O1  UNL     1       7.887  17.216 -34.300  1.00  0.00    -0.401 OA
ATOM     19  H1  UNL     1       8.326  17.738 -33.639  1.00  0.00     0.209 HD
ENDBRANCH  17  18
ENDBRANCH  16  17
ENDBRANCH  15  16
ENDBRANCH   1  15
BRANCH   1  20
HETATM   20  C8  UNL     1       7.163  16.715 -29.522  1.00  0.00     0.273 C 
BRANCH  20  21
HETATM   21  C9  UNL     1       5.801  16.685 -28.954  1.00  0.00     0.034 C 
BRANCH  21  22
HETATM   22  C10 UNL     1       5.406  18.042 -28.425  1.00  0.00    -0.013 C 
HETATM   23  C11 UNL     1       5.108  19.060 -29.473  1.00  0.00     0.005 C 
HETATM   24  C12 UNL     1       4.528  20.277 -28.751  1.00  0.00     0.000 C 
HETATM   25  C13 UNL     1       4.557  20.128 -27.264  1.00  0.00     0.000 C 
HETATM   26  C14 UNL     1       5.874  19.674 -26.713  1.00  0.00     0.000 C 
HETATM   27  C15 UNL     1       6.525  18.584 -27.570  1.00  0.00     0.005 C 
ENDBRANCH  21  22
ENDBRANCH  20  21
ENDBRANCH   1  20
TORSDOF 10
ENDMDL
MODEL 3
REMARK VINA RESULT: -7.159354484      3.160      6.811
REMARK  10 active torsions:
REMARK  status: ('A' for Active; 'I' for Inactive)
REMARK    1  A    between atoms: C3_4  and  C4_5 
REMARK    2  A    between atoms: C4_5  and  N2_6 
REMARK    3  A    between atoms: N2_6  and  C5_7 
REMARK    4  A    between atoms: N2_6  and  C8_12 
REMARK    5  A    between atoms: C5_7  and  C6_8 
REMARK    6  A    between atoms: C6_8  and  C7_9 
REMARK    7  A    between atoms: C7_9  and  O1_10 
REMARK    8  A    between atoms: C8_12  and  C9_13 
REMARK    9  A    between atoms: C9_13  and  C10_14 
REMARK   10  A    between atoms: N3_20  and  N4_21 
ROOT
HETATM    1  N2  UNL     1       7.658  15.364 -31.351  1.00  0.00     0.090 N 
ENDROOT
BRANCH   1   2
HETATM    2  C4  UNL     1       9.003  15.568 -31.668  1.00  0.00     0.301 C 
BRANCH   2   3
HETATM    3  C3  UNL     1      10.045  14.691 -31.058  1.00  0.00     0.172 C 
HETATM    4  C2  UNL     1      10.743  15.555 -29.994  1.00  0.00     0.170 C 
HETATM    5  N1  UNL     1      12.143  15.484 -30.312  1.00  0.00    -0.219 N 
HETATM    6  C1  UNL     1      13.154  16.256 -29.597  1.00  0.00     0.168 C 
HETATM    7  C16 UNL     1      12.335  14.577 -31.385  1.00  0.00     0.690 C 
HETATM    8  N3  UNL     1      11.090  14.351 -31.997  1.00  0.00    -0.123 N 
HETATM    9  N5  UNL     1      13.489  14.042 -31.741  1.00  0.00    -0.233 N 
ATOM     10  H52 UNL     1      14.392  14.206 -31.296  1.00  0.00     0.174 HD
ATOM     11  H51 UNL     1      13.626  13.390 -32.512  1.00  0.00     0.174 HD
BRANCH   8  12
HETATM   12  N4  UNL     1      10.885  13.884 -33.285  1.00  0.00    -0.328 N 
ATOM     13  H42 UNL     1      11.473  13.214 -33.782  1.00  0.00     0.177 HD
ATOM     14  H41 UNL     1      10.117  14.158 -33.895  1.00  0.00     0.177 HD
ENDBRANCH   8  12
ENDBRANCH   2   3
ENDBRANCH   1   2
BRANCH   1  15
HETATM   15  C5  UNL     1       6.874  15.702 -32.579  1.00  0.00     0.274 C 
BRANCH  15  16
HETATM   16  C6  UNL     1       7.623  15.403 -33.829  1.00  0.00     0.056 C 
BRANCH  16  17
HETATM   17  C7  UNL     1       7.097  14.079 -34.382  1.00  0.00     0.165 C 
BRANCH  17  18
HETATM   18  O1  UNL     1       7.830  13.019 -33.842  1.00  0.00    -0.401 OA
ATOM     19  H1  UNL     1       7.716  12.245 -34.381  1.00  0.00     0.209 HD
ENDBRANCH  17  18
ENDBRANCH  16  17
ENDBRANCH  15  16
ENDBRANCH   1  15
BRANCH   1  20
HETATM   20  C8  UNL     1       7.021  16.145 -30.336  1.00  0.00     0.273 C 
BRANCH  20  21
HETATM   21  C9  UNL     1       6.059  17.189 -30.740  1.00  0.00     0.034 C 
BRANCH  21  22
HETATM   22  C10 UNL     1       5.743  18.109 -29.587  1.00  0.00    -0.013 C 
HETATM   23  C11 UNL     1       5.396  19.506 -29.977  1.00  0.00     0.005 C 
HETATM   24  C12 UNL     1       4.906  20.206 -28.709  1.00  0.00     0.000 C 
HETATM   25  C13 UNL     1       5.043  19.350 -27.492  1.00  0.00     0.000 C 
HETATM   26  C14 UNL     1       6.385  18.701 -27.339  1.00  0.00     0.000 C 
HETATM   27  C15 UNL     1       6.939  18.177 -28.667  1.00  0.00     0.005 C 
ENDBRANCH  21  22
ENDBRANCH  20  21
ENDBRANCH   1  20
TORSDOF 10
ENDMDL
MODEL 4
REMARK VINA RESULT: -7.147383924      0.504      1.162
REMARK  10 active torsions:
REMARK  status: ('A' for Active; 'I' for Inactive)
REMARK    1  A    between atoms: C3_4  and  C4_5 
REMARK    2  A    between atoms: C4_5  and  N2_6 
REMARK    3  A    between atoms: N2_6  and  C5_7 
REMARK    4  A    between atoms: N2_6  and  C8_12 
REMARK    5  A    between atoms: C5_7  and  C6_8 
REMARK    6  A    between atoms: C6_8  and  C7_9 
REMARK    7  A    between atoms: C7_9  and  O1_10 
REMARK    8  A    between atoms: C8_12  and  C9_13 
REMARK    9  A    between atoms: C9_13  and  C10_14 
REMARK   10  A    between atoms: N3_20  and  N4_21 
ROOT
HETATM    1  N2  UNL     1       6.875  16.473 -29.911  1.00  0.00     0.090 N 
ENDROOT
BRANCH   1   2
HETATM    2  C4  UNL     1       5.885  17.277 -29.342  1.00  0.00     0.301 C 
BRANCH   2   3
HETATM    3  C3  UNL     1       6.222  18.666 -28.909  1.00  0.00     0.172 C 
HETATM    4  C2  UNL     1       7.046  18.509 -27.620  1.00  0.00     0.170 C 
HETATM    5  N1  UNL     1       6.374  19.324 -26.644  1.00  0.00    -0.219 N 
HETATM    6  C1  UNL     1       6.781  19.374 -25.245  1.00  0.00     0.168 C 
HETATM    7  C16 UNL     1       5.310  20.023 -27.270  1.00  0.00     0.690 C 
HETATM    8  N3  UNL     1       5.051  19.411 -28.509  1.00  0.00    -0.123 N 
HETATM    9  N5  UNL     1       4.678  21.068 -26.767  1.00  0.00    -0.233 N 
ATOM     10  H52 UNL     1       4.866  21.512 -25.868  1.00  0.00     0.174 HD
ATOM     11  H51 UNL     1       3.913  21.570 -27.217  1.00  0.00     0.174 HD
BRANCH   8  12
HETATM   12  N4  UNL     1       3.873  19.499 -29.232  1.00  0.00    -0.328 N 
ATOM     13  H42 UNL     1       2.947  19.215 -28.911  1.00  0.00     0.177 HD
ATOM     14  H41 UNL     1       3.791  19.859 -30.182  1.00  0.00     0.177 HD
ENDBRANCH   8  12
ENDBRANCH   2   3
ENDBRANCH   1   2
BRANCH   1  15
HETATM   15  C5  UNL     1       6.391  16.100 -31.276  1.00  0.00     0.274 C 
BRANCH  15  16
HETATM   16  C6  UNL     1       7.498  16.013 -32.265  1.00  0.00     0.056 C 
BRANCH  16  17
HETATM   17  C7  UNL     1       6.944  16.446 -33.623  1.00  0.00     0.165 C 
BRANCH  17  18
HETATM   18  O1  UNL     1       7.882  17.249 -34.278  1.00  0.00    -0.401 OA
ATOM     19  H1  UNL     1       7.668  17.300 -35.202  1.00  0.00     0.209 HD
ENDBRANCH  17  18
ENDBRANCH  16  17
ENDBRANCH  15  16
ENDBRANCH   1  15
BRANCH   1  20
HETATM   20  C8  UNL     1       7.211  15.210 -29.331  1.00  0.00     0.273 C 
BRANCH  20  21
HETATM   21  C9  UNL     1       8.450  15.097 -28.537  1.00  0.00     0.034 C 
BRANCH  21  22
HETATM   22  C10 UNL     1       9.579  14.545 -29.370  1.00  0.00    -0.013 C 
HETATM   23  C11 UNL     1      10.084  13.211 -28.935  1.00  0.00     0.005 C 
HETATM   24  C12 UNL     1      11.057  12.736 -30.014  1.00  0.00     0.000 C 
HETATM   25  C13 UNL     1      11.293  13.770 -31.068  1.00  0.00     0.000 C 
HETATM   26  C14 UNL     1      11.606  15.135 -30.537  1.00  0.00     0.000 C 
HETATM   27  C15 UNL     1      10.742  15.507 -29.328  1.00  0.00     0.005 C 
ENDBRANCH  21  22
ENDBRANCH  20  21
ENDBRANCH   1  20
TORSDOF 10
ENDMDL
MODEL 5
REMARK VINA RESULT: -7.113758031      2.960      6.490
REMARK  10 active torsions:
REMARK  status: ('A' for Active; 'I' for Inactive)
REMARK    1  A    between atoms: C3_4  and  C4_5 
REMARK    2  A    between atoms: C4_5  and  N2_6 
REMARK    3  A    between atoms: N2_6  and  C5_7 
REMARK    4  A    between atoms: N2_6  and  C8_12 
REMARK    5  A    between atoms: C5_7  and  C6_8 
REMARK    6  A    between atoms: C6_8  and  C7_9 
REMARK    7  A    between atoms: C7_9  and  O1_10 
REMARK    8  A    between atoms: C8_12  and  C9_13 
REMARK    9  A    between atoms: C9_13  and  C10_14 
REMARK   10  A    between atoms: N3_20  and  N4_21 
ROOT
HETATM    1  N2  UNL     1       6.480  18.553 -27.019  1.00  0.00     0.090 N 
ENDROOT
BRANCH   1   2
HETATM    2  C4  UNL     1       6.764  18.228 -28.347  1.00  0.00     0.301 C 
BRANCH   2   3
HETATM    3  C3  UNL     1       6.392  16.882 -28.874  1.00  0.00     0.172 C 
HETATM    4  C2  UNL     1       7.584  15.966 -28.547  1.00  0.00     0.170 C 
HETATM    5  N1  UNL     1       7.952  15.368 -29.801  1.00  0.00    -0.219 N 
HETATM    6  C1  UNL     1       9.115  14.501 -29.950  1.00  0.00     0.168 C 
HETATM    7  C16 UNL     1       7.023  15.761 -30.798  1.00  0.00     0.690 C 
HETATM    8  N3  UNL     1       6.300  16.866 -30.315  1.00  0.00    -0.123 N 
HETATM    9  N5  UNL     1       6.871  15.182 -31.976  1.00  0.00    -0.233 N 
ATOM     10  H52 UNL     1       7.395  14.380 -32.326  1.00  0.00     0.174 HD
ATOM     11  H51 UNL     1       6.202  15.465 -32.692  1.00  0.00     0.174 HD
BRANCH   8  12
HETATM   12  N4  UNL     1       5.615  17.792 -31.083  1.00  0.00    -0.328 N 
ATOM     13  H42 UNL     1       5.321  18.722 -30.784  1.00  0.00     0.177 HD
ATOM     14  H41 UNL     1       5.318  17.652 -32.048  1.00  0.00     0.177 HD
ENDBRANCH   8  12
ENDBRANCH   2   3
ENDBRANCH   1   2
BRANCH   1  15
HETATM   15  C5  UNL     1       5.279  19.444 -27.045  1.00  0.00     0.274 C 
BRANCH  15  16
HETATM   16  C6  UNL     1       5.216  20.273 -28.278  1.00  0.00     0.056 C 
BRANCH  16  17
HETATM   17  C7  UNL     1       3.802  20.154 -28.847  1.00  0.00     0.165 C 
BRANCH  17  18
HETATM   18  O1  UNL     1       3.354  21.413 -29.256  1.00  0.00    -0.401 OA
ATOM     19  H1  UNL     1       3.369  21.465 -30.204  1.00  0.00     0.209 HD
ENDBRANCH  17  18
ENDBRANCH  16  17
ENDBRANCH  15  16
ENDBRANCH   1  15
BRANCH   1  20
HETATM   20  C8  UNL     1       7.415  19.295 -26.233  1.00  0.00     0.273 C 
BRANCH  20  21
HETATM   21  C9  UNL     1       8.844  18.929 -26.293  1.00  0.00     0.034 C 
BRANCH  21  22
HETATM   22  C10 UNL     1       9.679  19.868 -25.457  1.00  0.00    -0.013 C 
HETATM   23  C11 UNL     1      10.221  19.275 -24.202  1.00  0.00     0.005 C 
HETATM   24  C12 UNL     1      11.197  20.296 -23.619  1.00  0.00     0.000 C 
HETATM   25  C13 UNL     1      11.211  21.579 -24.387  1.00  0.00     0.000 C 
HETATM   26  C14 UNL     1       9.853  22.143 -24.674  1.00  0.00     0.000 C 
HETATM   27  C15 UNL     1       8.841  21.063 -25.071  1.00  0.00     0.005 C 
ENDBRANCH  21  22
ENDBRANCH  20  21
ENDBRANCH   1  20
TORSDOF 10
ENDMDL
