MODEL 1
REMARK VINA RESULT: -7.479047783      0.000      0.000
REMARK  11 active torsions:
REMARK  status: ('A' for Active; 'I' for Inactive)
REMARK    1  A    between atoms: C4_4  and  N1_5 
REMARK    2  A    between atoms: N1_5  and  C5_7 
REMARK    3  A    between atoms: C5_7  and  C6_8 
REMARK    4  A    between atoms: C6_8  and  N2_9 
REMARK    5  A    between atoms: N2_9  and  C7_12 
REMARK    6  A    between atoms: C7_12  and  C8_13 
REMARK    7  A    between atoms: C8_13  and  O1_14 
REMARK    8  A    between atoms: C9_18  and  N4_19 
REMARK    9  A    between atoms: N4_19  and  C10_21 
REMARK   10  A    between atoms: C10_21  and  C11_22 
REMARK   11  A    between atoms: C11_22  and  C12_23 
ROOT
HETATM    1  C1  UNL     1       7.491  14.973 -34.215  1.00  0.00     0.069 C 
HETATM    2  C2  UNL     1       7.548  15.236 -32.773  1.00  0.00     0.026 A 
HETATM    3  C3  UNL     1       6.580  16.029 -32.188  1.00  0.00     0.073 A 
HETATM    4  C4  UNL     1       6.642  16.270 -30.842  1.00  0.00     0.118 A 
HETATM    5  N3  UNL     1       7.638  15.736 -30.122  1.00  0.00    -0.177 N 
ATOM      6  H3  UNL     1       7.673  15.923 -29.120  1.00  0.00     0.185 HD
HETATM    7  C9  UNL     1       8.611  14.948 -30.677  1.00  0.00     0.679 A 
HETATM    8  N5  UNL     1       8.538  14.719 -31.994  1.00  0.00    -0.196 N 
ATOM      9  H5  UNL     1       9.251  14.135 -32.430  1.00  0.00     0.184 HD
ENDROOT
BRANCH   4  10
HETATM   10  N1  UNL     1       5.784  17.001 -30.212  1.00  0.00    -0.374 N 
ATOM     11  H1  UNL     1       5.193  17.610 -30.778  1.00  0.00     0.161 HD
BRANCH  10  12
HETATM   12  C5  UNL     1       5.581  17.039 -28.795  1.00  0.00     0.148 C 
BRANCH  12  13
HETATM   13  C6  UNL     1       5.858  18.479 -28.361  1.00  0.00     0.251 C 
BRANCH  13  14
HETATM   14  N2  UNL     1       4.935  18.874 -27.353  1.00  0.00    -0.072 N 
ATOM     15  H22 UNL     1       4.143  18.232 -27.293  1.00  0.00     0.277 HD
ATOM     16  H21 UNL     1       5.315  18.737 -26.417  1.00  0.00     0.277 HD
BRANCH  14  17
HETATM   17  C7  UNL     1       4.504  20.237 -27.562  1.00  0.00     0.258 C 
BRANCH  17  18
HETATM   18  C8  UNL     1       4.104  20.311 -29.047  1.00  0.00     0.191 C 
BRANCH  18  19
HETATM   19  O1  UNL     1       3.302  21.432 -29.169  1.00  0.00    -0.399 OA
ATOM     20  H1  UNL     1       3.475  21.784 -30.033  1.00  0.00     0.209 HD
ENDBRANCH  18  19
ENDBRANCH  17  18
ENDBRANCH  14  17
ENDBRANCH  13  14
ENDBRANCH  12  13
ENDBRANCH  10  12
ENDBRANCH   4  10
BRANCH   7  21
HETATM   21  N4  UNL     1       9.520  14.481 -29.908  1.00  0.00    -0.226 N 
ATOM     22  H4  UNL     1       9.730  15.064 -29.098  1.00  0.00     0.177 HD
BRANCH  21  23
HETATM   23  C10 UNL     1      10.281  13.297 -29.991  1.00  0.00     0.138 C 
BRANCH  23  24
HETATM   24  C11 UNL     1      11.777  13.545 -29.965  1.00  0.00     0.025 C 
BRANCH  24  25
HETATM   25  C12 UNL     1      12.182  14.290 -31.229  1.00  0.00    -0.013 C 
HETATM   26  C13 UNL     1      13.672  14.444 -31.254  1.00  0.00     0.005 C 
HETATM   27  C14 UNL     1      14.164  13.236 -32.015  1.00  0.00     0.000 C 
HETATM   28  C15 UNL     1      13.092  13.085 -33.088  1.00  0.00     0.000 C 
HETATM   29  C16 UNL     1      11.822  13.537 -32.450  1.00  0.00     0.005 C 
ENDBRANCH  24  25
ENDBRANCH  23  24
ENDBRANCH  21  23
ENDBRANCH   7  21
TORSDOF 11
ENDMDL
MODEL 2
REMARK VINA RESULT: -7.303985181      0.964      1.111
REMARK  11 active torsions:
REMARK  status: ('A' for Active; 'I' for Inactive)
REMARK    1  A    between atoms: C4_4  and  N1_5 
REMARK    2  A    between atoms: N1_5  and  C5_7 
REMARK    3  A    between atoms: C5_7  and  C6_8 
REMARK    4  A    between atoms: C6_8  and  N2_9 
REMARK    5  A    between atoms: N2_9  and  C7_12 
REMARK    6  A    between atoms: C7_12  and  C8_13 
REMARK    7  A    between atoms: C8_13  and  O1_14 
REMARK    8  A    between atoms: C9_18  and  N4_19 
REMARK    9  A    between atoms: N4_19  and  C10_21 
REMARK   10  A    between atoms: C10_21  and  C11_22 
REMARK   11  A    between atoms: C11_22  and  C12_23 
ROOT
HETATM    1  C1  UNL     1       7.816  16.166 -34.000  1.00  0.00     0.069 C 
HETATM    2  C2  UNL     1       7.642  15.863 -32.576  1.00  0.00     0.026 A 
HETATM    3  C3  UNL     1       6.590  16.430 -31.883  1.00  0.00     0.073 A 
HETATM    4  C4  UNL     1       6.437  16.144 -30.553  1.00  0.00     0.118 A 
HETATM    5  N3  UNL     1       7.309  15.323 -29.953  1.00  0.00    -0.177 N 
ATOM      6  H3  UNL     1       7.185  15.118 -28.961  1.00  0.00     0.185 HD
HETATM    7  C9  UNL     1       8.362  14.749 -30.615  1.00  0.00     0.679 A 
HETATM    8  N5  UNL     1       8.499  15.037 -31.914  1.00  0.00    -0.196 N 
ATOM      9  H5  UNL     1       9.275  14.621 -32.429  1.00  0.00     0.184 HD
ENDROOT
BRANCH   4  10
HETATM   10  N1  UNL     1       5.487  16.630 -29.827  1.00  0.00    -0.374 N 
ATOM     11  H1  UNL     1       4.544  16.287 -30.012  1.00  0.00     0.161 HD
BRANCH  10  12
HETATM   12  C5  UNL     1       5.627  17.605 -28.789  1.00  0.00     0.148 C 
BRANCH  12  13
HETATM   13  C6  UNL     1       4.964  18.882 -29.307  1.00  0.00     0.251 C 
BRANCH  13  14
HETATM   14  N2  UNL     1       4.393  19.611 -28.227  1.00  0.00    -0.072 N 
ATOM     15  H22 UNL     1       4.355  20.612 -28.423  1.00  0.00     0.277 HD
ATOM     16  H21 UNL     1       3.392  19.434 -28.138  1.00  0.00     0.277 HD
BRANCH  14  17
HETATM   17  C7  UNL     1       5.097  19.334 -26.996  1.00  0.00     0.258 C 
BRANCH  17  18
HETATM   18  C8  UNL     1       5.176  20.686 -26.263  1.00  0.00     0.191 C 
BRANCH  18  19
HETATM   19  O1  UNL     1       5.267  21.649 -27.252  1.00  0.00    -0.399 OA
ATOM     20  H1  UNL     1       5.834  22.327 -26.904  1.00  0.00     0.209 HD
ENDBRANCH  18  19
ENDBRANCH  17  18
ENDBRANCH  14  17
ENDBRANCH  13  14
ENDBRANCH  12  13
ENDBRANCH  10  12
ENDBRANCH   4  10
BRANCH   7  21
HETATM   21  N4  UNL     1       9.141  13.977 -29.955  1.00  0.00    -0.226 N 
ATOM     22  H4  UNL     1       8.790  13.028 -29.831  1.00  0.00     0.177 HD
BRANCH  21  23
HETATM   23  C10 UNL     1      10.401  14.217 -29.372  1.00  0.00     0.138 C 
BRANCH  23  24
HETATM   24  C11 UNL     1      11.517  13.409 -30.006  1.00  0.00     0.025 C 
BRANCH  24  25
HETATM   25  C12 UNL     1      12.107  14.197 -31.167  1.00  0.00    -0.013 C 
HETATM   26  C13 UNL     1      13.599  14.225 -31.036  1.00  0.00     0.005 C 
HETATM   27  C14 UNL     1      14.071  13.031 -31.830  1.00  0.00     0.000 C 
HETATM   28  C15 UNL     1      13.107  13.040 -33.010  1.00  0.00     0.000 C 
HETATM   29  C16 UNL     1      11.817  13.556 -32.469  1.00  0.00     0.005 C 
ENDBRANCH  24  25
ENDBRANCH  23  24
ENDBRANCH  21  23
ENDBRANCH   7  21
TORSDOF 11
ENDMDL
MODEL 3
REMARK VINA RESULT: -7.249699305      1.558      1.771
REMARK  11 active torsions:
REMARK  status: ('A' for Active; 'I' for Inactive)
REMARK    1  A    between atoms: C4_4  and  N1_5 
REMARK    2  A    between atoms: N1_5  and  C5_7 
REMARK    3  A    between atoms: C5_7  and  C6_8 
REMARK    4  A    between atoms: C6_8  and  N2_9 
REMARK    5  A    between atoms: N2_9  and  C7_12 
REMARK    6  A    between atoms: C7_12  and  C8_13 
REMARK    7  A    between atoms: C8_13  and  O1_14 
REMARK    8  A    between atoms: C9_18  and  N4_19 
REMARK    9  A    between atoms: N4_19  and  C10_21 
REMARK   10  A    between atoms: C10_21  and  C11_22 
REMARK   11  A    between atoms: C11_22  and  C12_23 
ROOT
HETATM    1  C1  UNL     1       7.314  15.691 -33.972  1.00  0.00     0.069 C 
HETATM    2  C2  UNL     1       7.214  15.808 -32.513  1.00  0.00     0.026 A 
HETATM    3  C3  UNL     1       6.359  16.743 -31.963  1.00  0.00     0.073 A 
HETATM    4  C4  UNL     1       6.274  16.846 -30.600  1.00  0.00     0.118 A 
HETATM    5  N3  UNL     1       7.019  16.041 -29.831  1.00  0.00    -0.177 N 
ATOM      6  H3  UNL     1       6.947  16.127 -28.818  1.00  0.00     0.185 HD
HETATM    7  C9  UNL     1       7.875  15.107 -30.351  1.00  0.00     0.679 A 
HETATM    8  N5  UNL     1       7.949  15.015 -31.684  1.00  0.00    -0.196 N 
ATOM      9  H5  UNL     1       8.579  14.327 -32.094  1.00  0.00     0.184 HD
ENDROOT
BRANCH   4  10
HETATM   10  N1  UNL     1       5.506  17.693 -30.000  1.00  0.00    -0.374 N 
ATOM     11  H1  UNL     1       4.861  17.317 -29.304  1.00  0.00     0.161 HD
BRANCH  10  12
HETATM   12  C5  UNL     1       5.472  19.107 -30.215  1.00  0.00     0.148 C 
BRANCH  12  13
HETATM   13  C6  UNL     1       4.772  19.710 -28.997  1.00  0.00     0.251 C 
BRANCH  13  14
HETATM   14  N2  UNL     1       4.794  18.788 -27.913  1.00  0.00    -0.072 N 
ATOM     15  H22 UNL     1       3.867  18.408 -27.720  1.00  0.00     0.277 HD
ATOM     16  H21 UNL     1       5.267  17.919 -28.165  1.00  0.00     0.277 HD
BRANCH  14  17
HETATM   17  C7  UNL     1       5.379  19.395 -26.739  1.00  0.00     0.258 C 
BRANCH  17  18
HETATM   18  C8  UNL     1       6.874  19.033 -26.800  1.00  0.00     0.191 C 
BRANCH  18  19
HETATM   19  O1  UNL     1       6.932  17.735 -27.278  1.00  0.00    -0.399 OA
ATOM     20  H1  UNL     1       6.274  17.679 -27.960  1.00  0.00     0.209 HD
ENDBRANCH  18  19
ENDBRANCH  17  18
ENDBRANCH  14  17
ENDBRANCH  13  14
ENDBRANCH  12  13
ENDBRANCH  10  12
ENDBRANCH   4  10
BRANCH   7  21
HETATM   21  N4  UNL     1       8.544  14.382 -29.535  1.00  0.00    -0.226 N 
ATOM     22  H4  UNL     1       8.047  13.560 -29.193  1.00  0.00     0.177 HD
BRANCH  21  23
HETATM   23  C10 UNL     1       9.853  14.528 -29.030  1.00  0.00     0.138 C 
BRANCH  23  24
HETATM   24  C11 UNL     1      10.869  13.655 -29.741  1.00  0.00     0.025 C 
BRANCH  24  25
HETATM   25  C12 UNL     1      11.535  14.462 -30.846  1.00  0.00    -0.013 C 
HETATM   26  C13 UNL     1      13.014  14.488 -30.613  1.00  0.00     0.005 C 
HETATM   27  C14 UNL     1      13.541  13.308 -31.393  1.00  0.00     0.000 C 
HETATM   28  C15 UNL     1      12.660  13.337 -32.636  1.00  0.00     0.000 C 
HETATM   29  C16 UNL     1      11.335  13.843 -32.175  1.00  0.00     0.005 C 
ENDBRANCH  24  25
ENDBRANCH  23  24
ENDBRANCH  21  23
ENDBRANCH   7  21
TORSDOF 11
ENDMDL
MODEL 4
REMARK VINA RESULT: -7.163467451      3.386      8.574
REMARK  11 active torsions:
REMARK  status: ('A' for Active; 'I' for Inactive)
REMARK    1  A    between atoms: C4_4  and  N1_5 
REMARK    2  A    between atoms: N1_5  and  C5_7 
REMARK    3  A    between atoms: C5_7  and  C6_8 
REMARK    4  A    between atoms: C6_8  and  N2_9 
REMARK    5  A    between atoms: N2_9  and  C7_12 
REMARK    6  A    between atoms: C7_12  and  C8_13 
REMARK    7  A    between atoms: C8_13  and  O1_14 
REMARK    8  A    between atoms: C9_18  and  N4_19 
REMARK    9  A    between atoms: N4_19  and  C10_21 
REMARK   10  A    between atoms: C10_21  and  C11_22 
REMARK   11  A    between atoms: C11_22  and  C12_23 
ROOT
HETATM    1  C1  UNL     1       8.025  15.004 -28.642  1.00  0.00     0.069 C 
HETATM    2  C2  UNL     1       7.133  15.963 -29.302  1.00  0.00     0.026 A 
HETATM    3  C3  UNL     1       7.085  16.008 -30.682  1.00  0.00     0.073 A 
HETATM    4  C4  UNL     1       6.251  16.908 -31.289  1.00  0.00     0.118 A 
HETATM    5  N3  UNL     1       5.502  17.724 -30.535  1.00  0.00    -0.177 N 
ATOM      6  H3  UNL     1       4.884  18.390 -31.000  1.00  0.00     0.185 HD
HETATM    7  C9  UNL     1       5.532  17.701 -29.167  1.00  0.00     0.679 A 
HETATM    8  N5  UNL     1       6.351  16.817 -28.585  1.00  0.00    -0.196 N 
ATOM      9  H5  UNL     1       6.390  16.780 -27.567  1.00  0.00     0.184 HD
ENDROOT
BRANCH   4  10
HETATM   10  N1  UNL     1       6.143  17.023 -32.571  1.00  0.00    -0.374 N 
ATOM     11  H1  UNL     1       5.533  17.763 -32.918  1.00  0.00     0.161 HD
BRANCH  10  12
HETATM   12  C5  UNL     1       6.798  16.212 -33.552  1.00  0.00     0.148 C 
BRANCH  12  13
HETATM   13  C6  UNL     1       7.995  17.023 -34.050  1.00  0.00     0.251 C 
BRANCH  13  14
HETATM   14  N2  UNL     1       9.210  16.380 -33.682  1.00  0.00    -0.072 N 
ATOM     15  H22 UNL     1       9.981  16.650 -34.293  1.00  0.00     0.277 HD
ATOM     16  H21 UNL     1       9.578  16.741 -32.801  1.00  0.00     0.277 HD
BRANCH  14  17
HETATM   17  C7  UNL     1       9.036  14.946 -33.642  1.00  0.00     0.258 C 
BRANCH  17  18
HETATM   18  C8  UNL     1      10.083  14.441 -32.633  1.00  0.00     0.191 C 
BRANCH  18  19
HETATM   19  O1  UNL     1      11.139  13.962 -33.389  1.00  0.00    -0.399 OA
ATOM     20  H1  UNL     1      10.796  13.837 -34.265  1.00  0.00     0.209 HD
ENDBRANCH  18  19
ENDBRANCH  17  18
ENDBRANCH  14  17
ENDBRANCH  13  14
ENDBRANCH  12  13
ENDBRANCH  10  12
ENDBRANCH   4  10
BRANCH   7  21
HETATM   21  N4  UNL     1       4.778  18.519 -28.533  1.00  0.00    -0.226 N 
ATOM     22  H4  UNL     1       4.348  18.134 -27.692  1.00  0.00     0.177 HD
BRANCH  21  23
HETATM   23  C10 UNL     1       4.441  19.861 -28.801  1.00  0.00     0.138 C 
BRANCH  23  24
HETATM   24  C11 UNL     1       4.793  20.804 -27.667  1.00  0.00     0.025 C 
BRANCH  24  25
HETATM   25  C12 UNL     1       4.561  20.096 -26.339  1.00  0.00    -0.013 C 
HETATM   26  C13 UNL     1       5.641  20.486 -25.378  1.00  0.00     0.005 C 
HETATM   27  C14 UNL     1       5.081  21.681 -24.643  1.00  0.00     0.000 C 
HETATM   28  C15 UNL     1       3.614  21.295 -24.495  1.00  0.00     0.000 C 
HETATM   29  C16 UNL     1       3.283  20.504 -25.715  1.00  0.00     0.005 C 
ENDBRANCH  24  25
ENDBRANCH  23  24
ENDBRANCH  21  23
ENDBRANCH   7  21
TORSDOF 11
ENDMDL
MODEL 5
REMARK VINA RESULT: -7.162161812      2.690      4.033
REMARK  11 active torsions:
REMARK  status: ('A' for Active; 'I' for Inactive)
REMARK    1  A    between atoms: C4_4  and  N1_5 
REMARK    2  A    between atoms: N1_5  and  C5_7 
REMARK    3  A    between atoms: C5_7  and  C6_8 
REMARK    4  A    between atoms: C6_8  and  N2_9 
REMARK    5  A    between atoms: N2_9  and  C7_12 
REMARK    6  A    between atoms: C7_12  and  C8_13 
REMARK    7  A    between atoms: C8_13  and  O1_14 
REMARK    8  A    between atoms: C9_18  and  N4_19 
REMARK    9  A    between atoms: N4_19  and  C10_21 
REMARK   10  A    between atoms: C10_21  and  C11_22 
REMARK   11  A    between atoms: C11_22  and  C12_23 
ROOT
HETATM    1  C1  UNL     1       7.891  15.335 -34.130  1.00  0.00     0.069 C 
HETATM    2  C2  UNL     1       7.567  15.597 -32.724  1.00  0.00     0.026 A 
HETATM    3  C3  UNL     1       6.671  16.600 -32.408  1.00  0.00     0.073 A 
HETATM    4  C4  UNL     1       6.376  16.838 -31.092  1.00  0.00     0.118 A 
HETATM    5  N3  UNL     1       6.961  16.097 -30.142  1.00  0.00    -0.177 N 
ATOM      6  H3  UNL     1       6.732  16.284 -29.166  1.00  0.00     0.185 HD
HETATM    7  C9  UNL     1       7.852  15.098 -30.427  1.00  0.00     0.679 A 
HETATM    8  N5  UNL     1       8.132  14.874 -31.717  1.00  0.00    -0.196 N 
ATOM      9  H5  UNL     1       8.792  14.135 -31.954  1.00  0.00     0.184 HD
ENDROOT
BRANCH   4  10
HETATM   10  N1  UNL     1       5.555  17.757 -30.705  1.00  0.00    -0.374 N 
ATOM     11  H1  UNL     1       4.757  17.947 -31.311  1.00  0.00     0.161 HD
BRANCH  10  12
HETATM   12  C5  UNL     1       5.656  18.533 -29.507  1.00  0.00     0.148 C 
BRANCH  12  13
HETATM   13  C6  UNL     1       4.552  19.589 -29.586  1.00  0.00     0.251 C 
BRANCH  13  14
HETATM   14  N2  UNL     1       4.182  20.010 -28.278  1.00  0.00    -0.072 N 
ATOM     15  H22 UNL     1       4.159  21.027 -28.200  1.00  0.00     0.277 HD
ATOM     16  H21 UNL     1       3.199  19.818 -28.083  1.00  0.00     0.277 HD
BRANCH  14  17
HETATM   17  C7  UNL     1       5.050  19.417 -27.287  1.00  0.00     0.258 C 
BRANCH  17  18
HETATM   18  C8  UNL     1       5.346  20.545 -26.282  1.00  0.00     0.191 C 
BRANCH  18  19
HETATM   19  O1  UNL     1       5.314  21.721 -27.011  1.00  0.00    -0.399 OA
ATOM     20  H1  UNL     1       5.595  22.405 -26.416  1.00  0.00     0.209 HD
ENDBRANCH  18  19
ENDBRANCH  17  18
ENDBRANCH  14  17
ENDBRANCH  13  14
ENDBRANCH  12  13
ENDBRANCH  10  12
ENDBRANCH   4  10
BRANCH   7  21
HETATM   21  N4  UNL     1       8.357  14.442 -29.451  1.00  0.00    -0.226 N 
ATOM     22  H4  UNL     1       7.807  13.637 -29.152  1.00  0.00     0.177 HD
BRANCH  21  23
HETATM   23  C10 UNL     1       9.545  14.645 -28.718  1.00  0.00     0.138 C 
BRANCH  23  24
HETATM   24  C11 UNL     1       9.298  15.117 -27.298  1.00  0.00     0.025 C 
BRANCH  24  25
HETATM   25  C12 UNL     1      10.122  16.371 -27.038  1.00  0.00    -0.013 C 
HETATM   26  C13 UNL     1       9.517  17.521 -27.783  1.00  0.00     0.005 C 
HETATM   27  C14 UNL     1       8.564  18.151 -26.795  1.00  0.00     0.000 C 
HETATM   28  C15 UNL     1       9.336  18.018 -25.489  1.00  0.00     0.000 C 
HETATM   29  C16 UNL     1      10.110  16.749 -25.609  1.00  0.00     0.005 C 
ENDBRANCH  24  25
ENDBRANCH  23  24
ENDBRANCH  21  23
ENDBRANCH   7  21
TORSDOF 11
ENDMDL
