MODEL 1
REMARK VINA RESULT: -6.067741461      0.000      0.000
REMARK  7 active torsions:
REMARK  status: ('A' for Active; 'I' for Inactive)
REMARK    1  A    between atoms: O1_2  and  C2_3 
REMARK    2  A    between atoms: C2_3  and  C3_5 
REMARK    3  A    between atoms: C4_6  and  O3_7 
REMARK    4  A    between atoms: C5_9  and  O4_10 
REMARK    5  A    between atoms: C9_18  and  C10_19 
REMARK    6  A    between atoms: C10_19  and  N2_20 
REMARK    7  A    between atoms: N2_20  and  N3_22 
ROOT
HETATM    1  C3  UNL     1      17.524 -11.278   5.539  1.00  0.00     0.092 C 
HETATM    2  C4  UNL     1      16.475 -10.821   6.345  1.00  0.00     0.122 C 
HETATM    3  C5  UNL     1      16.515  -9.666   7.120  1.00  0.00     0.169 C 
HETATM    4  C6  UNL     1      17.307  -8.580   6.933  1.00  0.00     0.286 C 
HETATM    5  O5  UNL     1      16.948  -7.521   7.510  1.00  0.00    -0.265 OA
HETATM    6  N1  UNL     1      18.432  -8.449   6.223  1.00  0.00    -0.283 N 
HETATM    7  C7  UNL     1      19.297  -7.350   6.544  1.00  0.00     0.163 C 
HETATM    8  C8  UNL     1      18.851  -9.258   5.210  1.00  0.00     0.263 C 
HETATM    9  O6  UNL     1      19.843  -8.869   4.526  1.00  0.00    -0.267 OA
HETATM   10  C9  UNL     1      18.364 -10.481   4.783  1.00  0.00     0.068 C 
ENDROOT
BRANCH  10  11
HETATM   11  C10 UNL     1      18.689 -10.996   3.490  1.00  0.00     0.124 C 
BRANCH  11  12
HETATM   12  N2  UNL     1      19.877 -11.486   3.228  1.00  0.00    -0.317 N 
ATOM     13  H2  UNL     1      20.180 -12.320   3.731  1.00  0.00     0.185 HD
BRANCH  12  14
HETATM   14  N3  UNL     1      20.743 -10.921   2.297  1.00  0.00    -0.345 N 
ATOM     15  H32 UNL     1      20.575 -11.129   1.312  1.00  0.00     0.176 HD
ATOM     16  H31 UNL     1      21.525 -10.319   2.556  1.00  0.00     0.176 HD
ENDBRANCH  12  14
ENDBRANCH  11  12
ENDBRANCH  10  11
BRANCH   1  17
HETATM   17  C2  UNL     1      17.740 -12.704   5.534  1.00  0.00     0.296 C 
HETATM   18  O2  UNL     1      18.843 -13.165   5.901  1.00  0.00    -0.259 OA
BRANCH  17  19
HETATM   19  O1  UNL     1      16.822 -13.666   5.146  1.00  0.00    -0.322 OA
HETATM   20  C1  UNL     1      16.504 -14.811   5.886  1.00  0.00     0.213 C 
ENDBRANCH  17  19
ENDBRANCH   1  17
BRANCH   2  21
HETATM   21  O3  UNL     1      15.313 -11.520   6.400  1.00  0.00    -0.357 OA
ATOM     22  H3  UNL     1      14.939 -11.747   7.243  1.00  0.00     0.218 HD
ENDBRANCH   2  21
BRANCH   3  23
HETATM   23  O4  UNL     1      15.660  -9.600   8.204  1.00  0.00    -0.354 OA
ATOM     24  H4  UNL     1      16.008  -9.244   9.012  1.00  0.00     0.218 HD
ENDBRANCH   3  23
TORSDOF 7
ENDMDL
MODEL 2
REMARK VINA RESULT: -5.635308785      7.760     10.121
REMARK  7 active torsions:
REMARK  status: ('A' for Active; 'I' for Inactive)
REMARK    1  A    between atoms: O1_2  and  C2_3 
REMARK    2  A    between atoms: C2_3  and  C3_5 
REMARK    3  A    between atoms: C4_6  and  O3_7 
REMARK    4  A    between atoms: C5_9  and  O4_10 
REMARK    5  A    between atoms: C9_18  and  C10_19 
REMARK    6  A    between atoms: C10_19  and  N2_20 
REMARK    7  A    between atoms: N2_20  and  N3_22 
ROOT
HETATM    1  C3  UNL     1      13.990 -17.843   1.123  1.00  0.00     0.092 C 
HETATM    2  C4  UNL     1      14.829 -16.959   1.809  1.00  0.00     0.122 C 
HETATM    3  C5  UNL     1      14.486 -16.285   2.977  1.00  0.00     0.169 C 
HETATM    4  C6  UNL     1      13.545 -16.647   3.887  1.00  0.00     0.286 C 
HETATM    5  O5  UNL     1      13.635 -16.116   5.024  1.00  0.00    -0.265 OA
HETATM    6  N1  UNL     1      12.517 -17.492   3.769  1.00  0.00    -0.283 N 
HETATM    7  C7  UNL     1      11.437 -17.361   4.705  1.00  0.00     0.163 C 
HETATM    8  C8  UNL     1      12.381 -18.481   2.842  1.00  0.00     0.263 C 
HETATM    9  O6  UNL     1      11.434 -19.306   3.003  1.00  0.00    -0.267 OA
HETATM   10  C9  UNL     1      13.127 -18.753   1.709  1.00  0.00     0.068 C 
ENDROOT
BRANCH  10  11
HETATM   11  C10 UNL     1      13.068 -20.031   1.071  1.00  0.00     0.124 C 
BRANCH  11  12
HETATM   12  N2  UNL     1      12.051 -20.372   0.317  1.00  0.00    -0.317 N 
ATOM     13  H2  UNL     1      11.145 -20.521   0.762  1.00  0.00     0.185 HD
BRANCH  12  14
HETATM   14  N3  UNL     1      12.151 -20.541  -1.061  1.00  0.00    -0.345 N 
ATOM     15  H32 UNL     1      12.311 -19.706  -1.625  1.00  0.00     0.176 HD
ATOM     16  H31 UNL     1      12.071 -21.449  -1.518  1.00  0.00     0.176 HD
ENDBRANCH  12  14
ENDBRANCH  11  12
ENDBRANCH  10  11
BRANCH   1  17
HETATM   17  C2  UNL     1      14.031 -17.764  -0.317  1.00  0.00     0.296 C 
HETATM   18  O2  UNL     1      12.981 -17.527  -0.955  1.00  0.00    -0.259 OA
BRANCH  17  19
HETATM   19  O1  UNL     1      15.153 -17.932  -1.111  1.00  0.00    -0.322 OA
HETATM   20  C1  UNL     1      15.871 -19.127  -1.235  1.00  0.00     0.213 C 
ENDBRANCH  17  19
ENDBRANCH   1  17
BRANCH   2  21
HETATM   21  O3  UNL     1      16.079 -16.713   1.340  1.00  0.00    -0.357 OA
ATOM     22  H3  UNL     1      16.813 -16.693   1.942  1.00  0.00     0.218 HD
ENDBRANCH   2  21
BRANCH   3  23
HETATM   23  O4  UNL     1      15.169 -15.117   3.259  1.00  0.00    -0.354 OA
ATOM     24  H4  UNL     1      14.947 -14.348   2.748  1.00  0.00     0.218 HD
ENDBRANCH   3  23
TORSDOF 7
ENDMDL
MODEL 3
REMARK VINA RESULT: -5.528452298      5.788      7.586
REMARK  7 active torsions:
REMARK  status: ('A' for Active; 'I' for Inactive)
REMARK    1  A    between atoms: O1_2  and  C2_3 
REMARK    2  A    between atoms: C2_3  and  C3_5 
REMARK    3  A    between atoms: C4_6  and  O3_7 
REMARK    4  A    between atoms: C5_9  and  O4_10 
REMARK    5  A    between atoms: C9_18  and  C10_19 
REMARK    6  A    between atoms: C10_19  and  N2_20 
REMARK    7  A    between atoms: N2_20  and  N3_22 
ROOT
HETATM    1  C3  UNL     1      14.441 -16.894   5.322  1.00  0.00     0.092 C 
HETATM    2  C4  UNL     1      15.606 -17.433   5.879  1.00  0.00     0.122 C 
HETATM    3  C5  UNL     1      16.460 -16.754   6.742  1.00  0.00     0.169 C 
HETATM    4  C6  UNL     1      16.151 -15.697   7.536  1.00  0.00     0.286 C 
HETATM    5  O5  UNL     1      16.944 -15.462   8.485  1.00  0.00    -0.265 OA
HETATM    6  N1  UNL     1      15.123 -14.846   7.474  1.00  0.00    -0.283 N 
HETATM    7  C7  UNL     1      15.265 -13.580   8.135  1.00  0.00     0.163 C 
HETATM    8  C8  UNL     1      13.935 -15.053   6.840  1.00  0.00     0.263 C 
HETATM    9  O6  UNL     1      13.008 -14.217   7.050  1.00  0.00    -0.267 OA
HETATM   10  C9  UNL     1      13.549 -16.059   5.971  1.00  0.00     0.068 C 
ENDROOT
BRANCH  10  11
HETATM   11  C10 UNL     1      12.169 -16.317   5.703  1.00  0.00     0.124 C 
BRANCH  11  12
HETATM   12  N2  UNL     1      11.498 -15.607   4.829  1.00  0.00    -0.317 N 
ATOM     13  H2  UNL     1      11.657 -15.782   3.836  1.00  0.00     0.185 HD
BRANCH  12  14
HETATM   14  N3  UNL     1      10.579 -14.627   5.191  1.00  0.00    -0.345 N 
ATOM     15  H32 UNL     1       9.604 -14.911   5.289  1.00  0.00     0.176 HD
ATOM     16  H31 UNL     1      10.838 -13.655   5.360  1.00  0.00     0.176 HD
ENDBRANCH  12  14
ENDBRANCH  11  12
ENDBRANCH  10  11
BRANCH   1  17
HETATM   17  C2  UNL     1      14.183 -17.237   3.944  1.00  0.00     0.296 C 
HETATM   18  O2  UNL     1      14.082 -18.439   3.613  1.00  0.00    -0.259 OA
BRANCH  17  19
HETATM   19  O1  UNL     1      14.031 -16.344   2.896  1.00  0.00    -0.322 OA
HETATM   20  C1  UNL     1      14.769 -15.165   2.739  1.00  0.00     0.213 C 
ENDBRANCH  17  19
ENDBRANCH   1  17
BRANCH   2  21
HETATM   21  O3  UNL     1      15.965 -18.709   5.587  1.00  0.00    -0.357 OA
ATOM     22  H3  UNL     1      16.180 -19.311   6.289  1.00  0.00     0.218 HD
ENDBRANCH   2  21
BRANCH   3  23
HETATM   23  O4  UNL     1      17.769 -17.190   6.813  1.00  0.00    -0.354 OA
ATOM     24  H4  UNL     1      17.913 -18.104   7.028  1.00  0.00     0.218 HD
ENDBRANCH   3  23
TORSDOF 7
ENDMDL
MODEL 4
REMARK VINA RESULT: -5.519063372      5.932      9.081
REMARK  7 active torsions:
REMARK  status: ('A' for Active; 'I' for Inactive)
REMARK    1  A    between atoms: O1_2  and  C2_3 
REMARK    2  A    between atoms: C2_3  and  C3_5 
REMARK    3  A    between atoms: C4_6  and  O3_7 
REMARK    4  A    between atoms: C5_9  and  O4_10 
REMARK    5  A    between atoms: C9_18  and  C10_19 
REMARK    6  A    between atoms: C10_19  and  N2_20 
REMARK    7  A    between atoms: N2_20  and  N3_22 
ROOT
HETATM    1  C3  UNL     1      14.716 -17.164   5.796  1.00  0.00     0.092 C 
HETATM    2  C4  UNL     1      14.952 -18.459   6.271  1.00  0.00     0.122 C 
HETATM    3  C5  UNL     1      14.282 -19.598   5.836  1.00  0.00     0.169 C 
HETATM    4  C6  UNL     1      13.652 -19.774   4.647  1.00  0.00     0.286 C 
HETATM    5  O5  UNL     1      13.426 -20.964   4.306  1.00  0.00    -0.265 OA
HETATM    6  N1  UNL     1      13.222 -18.872   3.760  1.00  0.00    -0.283 N 
HETATM    7  C7  UNL     1      12.214 -19.284   2.825  1.00  0.00     0.163 C 
HETATM    8  C8  UNL     1      13.644 -17.582   3.645  1.00  0.00     0.263 C 
HETATM    9  O6  UNL     1      13.267 -16.933   2.625  1.00  0.00    -0.267 OA
HETATM   10  C9  UNL     1      14.446 -16.825   4.482  1.00  0.00     0.068 C 
ENDROOT
BRANCH  10  11
HETATM   11  C10 UNL     1      15.079 -15.630   4.021  1.00  0.00     0.124 C 
BRANCH  11  12
HETATM   12  N2  UNL     1      14.389 -14.545   3.767  1.00  0.00    -0.317 N 
ATOM     13  H2  UNL     1      14.719 -13.920   3.031  1.00  0.00     0.185 HD
BRANCH  12  14
HETATM   14  N3  UNL     1      13.226 -14.207   4.453  1.00  0.00    -0.345 N 
ATOM     15  H32 UNL     1      13.326 -13.885   5.416  1.00  0.00     0.176 HD
ATOM     16  H31 UNL     1      12.296 -14.267   4.037  1.00  0.00     0.176 HD
ENDBRANCH  12  14
ENDBRANCH  11  12
ENDBRANCH  10  11
BRANCH   1  17
HETATM   17  C2  UNL     1      14.740 -16.115   6.786  1.00  0.00     0.296 C 
HETATM   18  O2  UNL     1      13.726 -15.402   6.958  1.00  0.00    -0.259 OA
BRANCH  17  19
HETATM   19  O1  UNL     1      15.810 -15.788   7.603  1.00  0.00    -0.322 OA
HETATM   20  C1  UNL     1      16.153 -14.486   7.985  1.00  0.00     0.213 C 
ENDBRANCH  17  19
ENDBRANCH   1  17
BRANCH   2  21
HETATM   21  O3  UNL     1      15.897 -18.666   7.223  1.00  0.00    -0.357 OA
ATOM     22  H3  UNL     1      16.042 -18.011   7.895  1.00  0.00     0.218 HD
ENDBRANCH   2  21
BRANCH   3  23
HETATM   23  O4  UNL     1      14.245 -20.679   6.696  1.00  0.00    -0.354 OA
ATOM     24  H4  UNL     1      15.021 -20.850   7.215  1.00  0.00     0.218 HD
ENDBRANCH   3  23
TORSDOF 7
ENDMDL
MODEL 5
REMARK VINA RESULT: -5.511755978      2.307      5.594
REMARK  7 active torsions:
REMARK  status: ('A' for Active; 'I' for Inactive)
REMARK    1  A    between atoms: O1_2  and  C2_3 
REMARK    2  A    between atoms: C2_3  and  C3_5 
REMARK    3  A    between atoms: C4_6  and  O3_7 
REMARK    4  A    between atoms: C5_9  and  O4_10 
REMARK    5  A    between atoms: C9_18  and  C10_19 
REMARK    6  A    between atoms: C10_19  and  N2_20 
REMARK    7  A    between atoms: N2_20  and  N3_22 
ROOT
HETATM    1  C3  UNL     1      17.195  -8.628   6.846  1.00  0.00     0.092 C 
HETATM    2  C4  UNL     1      18.029  -8.203   5.806  1.00  0.00     0.122 C 
HETATM    3  C5  UNL     1      18.979  -8.999   5.174  1.00  0.00     0.169 C 
HETATM    4  C6  UNL     1      18.992 -10.355   5.098  1.00  0.00     0.286 C 
HETATM    5  O5  UNL     1      19.717 -10.856   4.201  1.00  0.00    -0.265 OA
HETATM    6  N1  UNL     1      18.348 -11.263   5.837  1.00  0.00    -0.283 N 
HETATM    7  C7  UNL     1      18.867 -12.601   5.848  1.00  0.00     0.163 C 
HETATM    8  C8  UNL     1      17.234 -11.053   6.592  1.00  0.00     0.263 C 
HETATM    9  O6  UNL     1      16.652 -12.072   7.069  1.00  0.00    -0.267 OA
HETATM   10  C9  UNL     1      16.602  -9.873   6.945  1.00  0.00     0.068 C 
ENDROOT
BRANCH  10  11
HETATM   11  C10 UNL     1      15.255  -9.869   7.423  1.00  0.00     0.124 C 
BRANCH  11  12
HETATM   12  N2  UNL     1      14.960 -10.261   8.638  1.00  0.00    -0.317 N 
ATOM     13  H2  UNL     1      15.235  -9.667   9.421  1.00  0.00     0.185 HD
BRANCH  12  14
HETATM   14  N3  UNL     1      14.288 -11.449   8.911  1.00  0.00    -0.345 N 
ATOM     15  H32 UNL     1      14.143 -12.095   8.135  1.00  0.00     0.176 HD
ATOM     16  H31 UNL     1      13.942 -11.693   9.839  1.00  0.00     0.176 HD
ENDBRANCH  12  14
ENDBRANCH  11  12
ENDBRANCH  10  11
BRANCH   1  17
HETATM   17  C2  UNL     1      16.971  -7.673   7.904  1.00  0.00     0.296 C 
HETATM   18  O2  UNL     1      17.290  -7.963   9.079  1.00  0.00    -0.259 OA
BRANCH  17  19
HETATM   19  O1  UNL     1      16.411  -6.414   7.762  1.00  0.00    -0.322 OA
HETATM   20  C1  UNL     1      15.172  -6.027   8.286  1.00  0.00     0.213 C 
ENDBRANCH  17  19
ENDBRANCH   1  17
BRANCH   2  21
HETATM   21  O3  UNL     1      17.935  -6.930   5.343  1.00  0.00    -0.357 OA
ATOM     22  H3  UNL     1      17.556  -6.765   4.488  1.00  0.00     0.218 HD
ENDBRANCH   2  21
BRANCH   3  23
HETATM   23  O4  UNL     1      20.031  -8.358   4.550  1.00  0.00    -0.354 OA
ATOM     24  H4  UNL     1      20.870  -8.802   4.542  1.00  0.00     0.218 HD
ENDBRANCH   3  23
TORSDOF 7
ENDMDL
