MODEL 1
REMARK VINA RESULT: -6.154730187      0.000      0.000
REMARK  3 active torsions:
REMARK  status: ('A' for Active; 'I' for Inactive)
REMARK    1  A    between atoms: C2_5  and  C3_6 
REMARK    2  A    between atoms: N6_16  and  C5_17 
REMARK    3  A    between atoms: C7_22  and  N8_23 
ROOT
HETATM    1  C1  UNL     1      17.943 -11.253   5.931  1.00  0.00     0.183 C 
HETATM    2  N1  UNL     1      17.179 -12.473   6.017  1.00  0.00    -0.245 N 
HETATM    3  N2  UNL     1      17.618 -13.718   5.943  1.00  0.00    -0.277 N 
ATOM      4  H2  UNL     1      18.589 -13.999   5.809  1.00  0.00     0.189 HD
HETATM    5  C2  UNL     1      16.588 -14.537   6.071  1.00  0.00     0.164 A 
HETATM    6  N6  UNL     1      15.475 -13.784   6.230  1.00  0.00    -0.239 N 
HETATM    7  C8  UNL     1      15.848 -12.512   6.196  1.00  0.00     0.349 A 
HETATM    8  O3  UNL     1      15.074 -11.514   6.314  1.00  0.00    -0.244 OA
ENDROOT
BRANCH   5   9
HETATM    9  C3  UNL     1      16.558 -16.000   6.056  1.00  0.00     0.147 A 
HETATM   10  N3  UNL     1      16.191 -16.777   5.000  1.00  0.00    -0.234 N 
HETATM   11  O1  UNL     1      16.284 -18.022   5.341  1.00  0.00    -0.155 OA
ATOM     12  H3  UNL     1      15.892 -16.434   4.088  1.00  0.00     0.197 HD
HETATM   13  N4  UNL     1      16.689 -18.167   6.555  1.00  0.00    -0.224 N 
HETATM   14  C4  UNL     1      16.875 -16.900   7.049  1.00  0.00     0.154 A 
ATOM     15  H4  UNL     1      16.840 -19.046   7.050  1.00  0.00     0.198 HD
HETATM   16  N5  UNL     1      17.275 -16.643   8.228  1.00  0.00    -0.382 N 
ATOM     17  H52 UNL     1      17.413 -15.701   8.595  1.00  0.00     0.157 HD
ATOM     18  H51 UNL     1      17.509 -17.310   8.963  1.00  0.00     0.157 HD
ENDBRANCH   5   9
BRANCH   6  19
HETATM   19  C5  UNL     1      14.138 -14.227   6.404  1.00  0.00     0.115 A 
HETATM   20  C6  UNL     1      13.428 -14.450   7.563  1.00  0.00     0.201 A 
HETATM   21  O2  UNL     1      12.215 -14.858   7.264  1.00  0.00    -0.246 OA
HETATM   22  N7  UNL     1      12.109 -14.907   5.954  1.00  0.00    -0.244 N 
HETATM   23  C7  UNL     1      13.264 -14.529   5.385  1.00  0.00     0.149 A 
ATOM     24  H7  UNL     1      11.272 -15.192   5.446  1.00  0.00     0.196 HD
BRANCH  23  25
HETATM   25  N8  UNL     1      13.546 -14.450   4.130  1.00  0.00    -0.382 N 
ATOM     26  H82 UNL     1      13.488 -13.635   3.521  1.00  0.00     0.157 HD
ATOM     27  H81 UNL     1      13.877 -15.228   3.560  1.00  0.00     0.157 HD
ENDBRANCH  23  25
ENDBRANCH   6  19
TORSDOF 3
ENDMDL
MODEL 2
REMARK VINA RESULT: -5.885704928      0.855      1.368
REMARK  3 active torsions:
REMARK  status: ('A' for Active; 'I' for Inactive)
REMARK    1  A    between atoms: C2_5  and  C3_6 
REMARK    2  A    between atoms: N6_16  and  C5_17 
REMARK    3  A    between atoms: C7_22  and  N8_23 
ROOT
HETATM    1  C1  UNL     1      18.181 -11.171   5.972  1.00  0.00     0.183 C 
HETATM    2  N1  UNL     1      17.352 -12.348   6.039  1.00  0.00    -0.245 N 
HETATM    3  N2  UNL     1      17.728 -13.615   5.985  1.00  0.00    -0.277 N 
ATOM      4  H2  UNL     1      18.687 -13.947   5.886  1.00  0.00     0.189 HD
HETATM    5  C2  UNL     1      16.653 -14.379   6.082  1.00  0.00     0.164 A 
HETATM    6  N6  UNL     1      15.577 -13.568   6.200  1.00  0.00    -0.239 N 
HETATM    7  C8  UNL     1      16.016 -12.317   6.172  1.00  0.00     0.349 A 
HETATM    8  O3  UNL     1      15.291 -11.280   6.258  1.00  0.00    -0.244 OA
ENDROOT
BRANCH   5   9
HETATM    9  C3  UNL     1      16.547 -15.838   6.073  1.00  0.00     0.147 A 
HETATM   10  N3  UNL     1      16.131 -16.599   5.024  1.00  0.00    -0.234 N 
HETATM   11  O1  UNL     1      16.163 -17.846   5.368  1.00  0.00    -0.155 OA
ATOM     12  H3  UNL     1      15.842 -16.244   4.113  1.00  0.00     0.197 HD
HETATM   13  N4  UNL     1      16.571 -18.008   6.580  1.00  0.00    -0.224 N 
HETATM   14  C4  UNL     1      16.827 -16.750   7.066  1.00  0.00     0.154 A 
ATOM     15  H4  UNL     1      16.681 -18.891   7.077  1.00  0.00     0.198 HD
HETATM   16  N5  UNL     1      17.250 -16.510   8.241  1.00  0.00    -0.382 N 
ATOM     17  H52 UNL     1      17.441 -15.575   8.603  1.00  0.00     0.157 HD
ATOM     18  H51 UNL     1      17.457 -17.186   8.976  1.00  0.00     0.157 HD
ENDBRANCH   5   9
BRANCH   6  19
HETATM   19  C5  UNL     1      14.213 -13.940   6.329  1.00  0.00     0.115 A 
HETATM   20  C6  UNL     1      13.288 -14.248   5.357  1.00  0.00     0.201 A 
HETATM   21  O2  UNL     1      12.137 -14.538   5.920  1.00  0.00    -0.246 OA
HETATM   22  N7  UNL     1      12.278 -14.430   7.223  1.00  0.00    -0.244 N 
HETATM   23  C7  UNL     1      13.535 -14.065   7.520  1.00  0.00     0.149 A 
ATOM     24  H7  UNL     1      11.540 -14.598   7.907  1.00  0.00     0.196 HD
BRANCH  23  25
HETATM   25  N8  UNL     1      14.051 -13.859   8.683  1.00  0.00    -0.382 N 
ATOM     26  H82 UNL     1      14.939 -13.411   8.908  1.00  0.00     0.157 HD
ATOM     27  H81 UNL     1      13.620 -14.132   9.565  1.00  0.00     0.157 HD
ENDBRANCH  23  25
ENDBRANCH   6  19
TORSDOF 3
ENDMDL
MODEL 3
REMARK VINA RESULT: -5.859004378      2.069      3.833
REMARK  3 active torsions:
REMARK  status: ('A' for Active; 'I' for Inactive)
REMARK    1  A    between atoms: C2_5  and  C3_6 
REMARK    2  A    between atoms: N6_16  and  C5_17 
REMARK    3  A    between atoms: C7_22  and  N8_23 
ROOT
HETATM    1  C1  UNL     1      12.191 -12.383   8.590  1.00  0.00     0.183 C 
HETATM    2  N1  UNL     1      13.442 -12.937   8.137  1.00  0.00    -0.245 N 
HETATM    3  N2  UNL     1      13.892 -14.171   8.291  1.00  0.00    -0.277 N 
ATOM      4  H2  UNL     1      13.401 -14.928   8.767  1.00  0.00     0.189 HD
HETATM    5  C2  UNL     1      15.084 -14.260   7.726  1.00  0.00     0.164 A 
HETATM    6  N6  UNL     1      15.387 -13.049   7.204  1.00  0.00    -0.239 N 
HETATM    7  C8  UNL     1      14.370 -12.238   7.461  1.00  0.00     0.349 A 
HETATM    8  O3  UNL     1      14.297 -11.019   7.124  1.00  0.00    -0.244 OA
ENDROOT
BRANCH   5   9
HETATM    9  C3  UNL     1      15.983 -15.410   7.632  1.00  0.00     0.147 A 
HETATM   10  N3  UNL     1      17.136 -15.578   8.335  1.00  0.00    -0.234 N 
HETATM   11  O1  UNL     1      17.674 -16.707   8.001  1.00  0.00    -0.155 OA
ATOM     12  H3  UNL     1      17.516 -14.920   9.016  1.00  0.00     0.197 HD
HETATM   13  N4  UNL     1      16.978 -17.336   7.118  1.00  0.00    -0.224 N 
HETATM   14  C4  UNL     1      15.889 -16.543   6.854  1.00  0.00     0.154 A 
ATOM     15  H4  UNL     1      17.193 -18.241   6.699  1.00  0.00     0.198 HD
HETATM   16  N5  UNL     1      14.973 -16.839   6.024  1.00  0.00    -0.382 N 
ATOM     17  H52 UNL     1      14.164 -16.249   5.828  1.00  0.00     0.157 HD
ATOM     18  H51 UNL     1      14.904 -17.678   5.448  1.00  0.00     0.157 HD
ENDBRANCH   5   9
BRANCH   6  19
HETATM   19  C5  UNL     1      16.562 -12.670   6.504  1.00  0.00     0.115 A 
HETATM   20  C6  UNL     1      17.683 -12.010   6.958  1.00  0.00     0.201 A 
HETATM   21  O2  UNL     1      18.536 -11.861   5.969  1.00  0.00    -0.246 OA
HETATM   22  N7  UNL     1      18.013 -12.399   4.890  1.00  0.00    -0.244 N 
HETATM   23  C7  UNL     1      16.803 -12.907   5.170  1.00  0.00     0.149 A 
ATOM     24  H7  UNL     1      18.461 -12.426   3.974  1.00  0.00     0.196 HD
BRANCH  23  25
HETATM   25  N8  UNL     1      15.988 -13.510   4.374  1.00  0.00    -0.382 N 
ATOM     26  H82 UNL     1      14.983 -13.646   4.485  1.00  0.00     0.157 HD
ATOM     27  H81 UNL     1      16.255 -13.947   3.493  1.00  0.00     0.157 HD
ENDBRANCH  23  25
ENDBRANCH   6  19
TORSDOF 3
ENDMDL
MODEL 4
REMARK VINA RESULT: -5.803593007      5.809      7.003
REMARK  3 active torsions:
REMARK  status: ('A' for Active; 'I' for Inactive)
REMARK    1  A    between atoms: C2_5  and  C3_6 
REMARK    2  A    between atoms: N6_16  and  C5_17 
REMARK    3  A    between atoms: C7_22  and  N8_23 
ROOT
HETATM    1  C1  UNL     1      15.165 -15.054   2.110  1.00  0.00     0.183 C 
HETATM    2  N1  UNL     1      14.577 -16.347   1.861  1.00  0.00    -0.245 N 
HETATM    3  N2  UNL     1      14.569 -17.036   0.731  1.00  0.00    -0.277 N 
ATOM      4  H2  UNL     1      14.989 -16.740  -0.149  1.00  0.00     0.189 HD
HETATM    5  C2  UNL     1      13.924 -18.172   0.935  1.00  0.00     0.164 A 
HETATM    6  N6  UNL     1      13.519 -18.194   2.225  1.00  0.00    -0.239 N 
HETATM    7  C8  UNL     1      13.926 -17.065   2.790  1.00  0.00     0.349 A 
HETATM    8  O3  UNL     1      13.728 -16.733   3.997  1.00  0.00    -0.244 OA
ENDROOT
BRANCH   5   9
HETATM    9  C3  UNL     1      13.649 -19.263   0.000  1.00  0.00     0.147 A 
HETATM   10  N3  UNL     1      12.414 -19.697  -0.375  1.00  0.00    -0.234 N 
HETATM   11  O1  UNL     1      12.547 -20.675  -1.212  1.00  0.00    -0.155 OA
ATOM     12  H3  UNL     1      11.527 -19.313  -0.049  1.00  0.00     0.197 HD
HETATM   13  N4  UNL     1      13.783 -20.952  -1.447  1.00  0.00    -0.224 N 
HETATM   14  C4  UNL     1      14.520 -20.074  -0.692  1.00  0.00     0.154 A 
ATOM     15  H4  UNL     1      14.141 -21.678  -2.068  1.00  0.00     0.198 HD
HETATM   16  N5  UNL     1      15.791 -20.046  -0.666  1.00  0.00    -0.382 N 
ATOM     17  H52 UNL     1      16.339 -19.393  -0.105  1.00  0.00     0.157 HD
ATOM     18  H51 UNL     1      16.436 -20.647  -1.178  1.00  0.00     0.157 HD
ENDBRANCH   5   9
BRANCH   6  19
HETATM   19  C5  UNL     1      12.791 -19.213   2.895  1.00  0.00     0.115 A 
HETATM   20  C6  UNL     1      13.247 -20.332   3.555  1.00  0.00     0.201 A 
HETATM   21  O2  UNL     1      12.226 -21.008   4.032  1.00  0.00    -0.246 OA
HETATM   22  N7  UNL     1      11.123 -20.371   3.708  1.00  0.00    -0.244 N 
HETATM   23  C7  UNL     1      11.421 -19.263   3.010  1.00  0.00     0.149 A 
ATOM     24  H7  UNL     1      10.180 -20.673   3.951  1.00  0.00     0.196 HD
BRANCH  23  25
HETATM   25  N8  UNL     1      10.611 -18.388   2.521  1.00  0.00    -0.382 N 
ATOM     26  H82 UNL     1      10.769 -17.748   1.743  1.00  0.00     0.157 HD
ATOM     27  H81 UNL     1       9.668 -18.214   2.867  1.00  0.00     0.157 HD
ENDBRANCH  23  25
ENDBRANCH   6  19
TORSDOF 3
ENDMDL
MODEL 5
REMARK VINA RESULT: -5.714420458      2.049      3.912
REMARK  3 active torsions:
REMARK  status: ('A' for Active; 'I' for Inactive)
REMARK    1  A    between atoms: C2_5  and  C3_6 
REMARK    2  A    between atoms: N6_16  and  C5_17 
REMARK    3  A    between atoms: C7_22  and  N8_23 
ROOT
HETATM    1  C1  UNL     1      12.291 -12.466   8.780  1.00  0.00     0.183 C 
HETATM    2  N1  UNL     1      13.453 -13.065   8.171  1.00  0.00    -0.245 N 
HETATM    3  N2  UNL     1      13.986 -14.250   8.420  1.00  0.00    -0.277 N 
ATOM      4  H2  UNL     1      13.640 -14.926   9.100  1.00  0.00     0.189 HD
HETATM    5  C2  UNL     1      15.042 -14.409   7.642  1.00  0.00     0.164 A 
HETATM    6  N6  UNL     1      15.173 -13.295   6.885  1.00  0.00    -0.239 N 
HETATM    7  C8  UNL     1      14.189 -12.471   7.217  1.00  0.00     0.349 A 
HETATM    8  O3  UNL     1      13.987 -11.324   6.715  1.00  0.00    -0.244 OA
ENDROOT
BRANCH   5   9
HETATM    9  C3  UNL     1      15.961 -15.543   7.545  1.00  0.00     0.147 A 
HETATM   10  N3  UNL     1      17.154 -15.659   8.192  1.00  0.00    -0.234 N 
HETATM   11  O1  UNL     1      17.698 -16.789   7.875  1.00  0.00    -0.155 OA
ATOM     12  H3  UNL     1      17.554 -14.966   8.825  1.00  0.00     0.197 HD
HETATM   13  N4  UNL     1      16.972 -17.468   7.056  1.00  0.00    -0.224 N 
HETATM   14  C4  UNL     1      15.853 -16.709   6.819  1.00  0.00     0.154 A 
ATOM     15  H4  UNL     1      17.184 -18.385   6.663  1.00  0.00     0.198 HD
HETATM   16  N5  UNL     1      14.900 -17.058   6.052  1.00  0.00    -0.382 N 
ATOM     17  H52 UNL     1      14.069 -16.493   5.877  1.00  0.00     0.157 HD
ATOM     18  H51 UNL     1      14.821 -17.920   5.515  1.00  0.00     0.157 HD
ENDBRANCH   5   9
BRANCH   6  19
HETATM   19  C5  UNL     1      16.163 -13.015   5.907  1.00  0.00     0.115 A 
HETATM   20  C6  UNL     1      16.183 -13.318   4.563  1.00  0.00     0.201 A 
HETATM   21  O2  UNL     1      17.297 -12.871   4.028  1.00  0.00    -0.246 OA
HETATM   22  N7  UNL     1      18.001 -12.287   4.973  1.00  0.00    -0.244 N 
HETATM   23  C7  UNL     1      17.345 -12.352   6.142  1.00  0.00     0.149 A 
ATOM     24  H7  UNL     1      18.913 -11.850   4.837  1.00  0.00     0.196 HD
BRANCH  23  25
HETATM   25  N8  UNL     1      17.713 -11.895   7.289  1.00  0.00    -0.382 N 
ATOM     26  H82 UNL     1      18.408 -11.175   7.488  1.00  0.00     0.157 HD
ATOM     27  H81 UNL     1      17.341 -12.209   8.185  1.00  0.00     0.157 HD
ENDBRANCH  23  25
ENDBRANCH   6  19
TORSDOF 3
ENDMDL
