MODEL 1
REMARK VINA RESULT: -8.636444447      0.000      0.000
REMARK  9 active torsions:
REMARK  status: ('A' for Active; 'I' for Inactive)
REMARK    1  A    between atoms: C2_2  and  O2_4 
REMARK    2  A    between atoms: O2_4  and  C3_5 
REMARK    3  A    between atoms: C14_17  and  C15_18 
REMARK    4  A    between atoms: C15_18  and  O4_20 
REMARK    5  A    between atoms: O4_20  and  C16_21 
REMARK    6  A    between atoms: C16_21  and  C17_22 
REMARK    7  A    between atoms: C16_21  and  C21_26 
REMARK    8  A    between atoms: C17_22  and  C18_23 
REMARK    9  A    between atoms: C21_26  and  C22_28 
ROOT
HETATM    1  C3  UNL     1     -12.487   0.239  23.275  1.00  0.00     0.174 C 
HETATM    2  C4  UNL     1     -11.293   0.080  24.148  1.00  0.00     0.255 C 
HETATM    3  C5  UNL     1     -10.896   1.497  24.592  1.00  0.00     0.075 C 
HETATM    4  C6  UNL     1      -9.969   1.355  23.403  1.00  0.00     0.243 C 
HETATM    5  C7  UNL     1     -10.403   2.031  22.192  1.00  0.00     0.135 C 
HETATM    6  C8  UNL     1     -10.780   3.417  22.601  1.00  0.00     0.067 C 
HETATM    7  N1  UNL     1     -11.084   4.494  22.919  1.00  0.00    -0.197 NA
HETATM    8  C9  UNL     1     -11.412   1.397  21.302  1.00  0.00    -0.011 C 
HETATM    9  C10 UNL     1     -12.302   2.560  20.829  1.00  0.00     0.018 C 
HETATM   10  C11 UNL     1     -10.728   0.832  20.097  1.00  0.00     0.014 A 
HETATM   11  C12 UNL     1     -11.261   1.013  18.751  1.00  0.00     0.008 A 
HETATM   12  C13 UNL     1     -11.557  -0.485  18.682  1.00  0.00     0.020 A 
HETATM   13  C14 UNL     1     -10.942  -0.649  20.042  1.00  0.00     0.053 A 
HETATM   14  C24 UNL     1     -11.832  -0.992  21.182  1.00  0.00     0.032 C 
HETATM   15  C25 UNL     1     -12.270   0.330  21.820  1.00  0.00    -0.005 C 
HETATM   16  C26 UNL     1     -13.716   0.527  21.309  1.00  0.00     0.019 C 
HETATM   17  N3  UNL     1     -10.038  -0.046  23.485  1.00  0.00     0.097 N 
HETATM   18  C27 UNL     1      -9.051  -0.642  24.386  1.00  0.00     0.311 C 
ENDROOT
BRANCH  13  19
HETATM   19  C15 UNL     1      -9.691  -1.488  20.002  1.00  0.00     0.268 C 
HETATM   20  O3  UNL     1      -8.985  -1.582  21.034  1.00  0.00    -0.264 OA
BRANCH  19  21
HETATM   21  O4  UNL     1      -9.284  -2.160  18.886  1.00  0.00    -0.308 OA
BRANCH  21  22
HETATM   22  C16 UNL     1      -7.973  -1.946  18.302  1.00  0.00     0.202 C 
BRANCH  22  23
HETATM   23  C17 UNL     1      -7.041  -3.026  18.725  1.00  0.00     0.044 C 
BRANCH  23  24
HETATM   24  C18 UNL     1      -6.199  -2.695  19.920  1.00  0.00    -0.020 C 
HETATM   25  C19 UNL     1      -6.236  -3.801  20.965  1.00  0.00     0.009 C 
HETATM   26  C20 UNL     1      -4.742  -2.582  19.409  1.00  0.00     0.009 C 
ENDBRANCH  23  24
ENDBRANCH  22  23
BRANCH  22  27
HETATM   27  C21 UNL     1      -8.136  -1.950  16.840  1.00  0.00     0.169 C 
HETATM   28  O5  UNL     1      -8.851  -1.159  16.275  1.00  0.00    -0.294 OA
BRANCH  27  29
HETATM   29  C22 UNL     1      -7.411  -2.947  16.013  1.00  0.00     0.204 C 
HETATM   30  C23 UNL     1      -6.551  -2.328  15.024  1.00  0.00     0.066 C 
HETATM   31  N2  UNL     1      -5.856  -1.842  14.233  1.00  0.00    -0.197 NA
ENDBRANCH  27  29
ENDBRANCH  22  27
ENDBRANCH  21  22
ENDBRANCH  19  21
ENDBRANCH  13  19
BRANCH   1  32
HETATM   32  O2  UNL     1     -13.274   1.331  23.715  1.00  0.00    -0.313 OA
BRANCH  32  33
HETATM   33  C2  UNL     1     -14.058   1.353  24.835  1.00  0.00     0.255 C 
HETATM   34  C1  UNL     1     -14.203   2.537  25.723  1.00  0.00     0.126 C 
HETATM   35  O1  UNL     1     -14.703   0.323  25.151  1.00  0.00    -0.266 OA
ENDBRANCH  32  33
ENDBRANCH   1  32
TORSDOF 9
ENDMDL
MODEL 2
REMARK VINA RESULT: -8.434774526      1.576      2.616
REMARK  9 active torsions:
REMARK  status: ('A' for Active; 'I' for Inactive)
REMARK    1  A    between atoms: C2_2  and  O2_4 
REMARK    2  A    between atoms: O2_4  and  C3_5 
REMARK    3  A    between atoms: C14_17  and  C15_18 
REMARK    4  A    between atoms: C15_18  and  O4_20 
REMARK    5  A    between atoms: O4_20  and  C16_21 
REMARK    6  A    between atoms: C16_21  and  C17_22 
REMARK    7  A    between atoms: C16_21  and  C21_26 
REMARK    8  A    between atoms: C17_22  and  C18_23 
REMARK    9  A    between atoms: C21_26  and  C22_28 
ROOT
HETATM    1  C3  UNL     1     -12.423   0.248  23.323  1.00  0.00     0.174 C 
HETATM    2  C4  UNL     1     -11.328   0.163  24.327  1.00  0.00     0.255 C 
HETATM    3  C5  UNL     1     -10.988   1.612  24.712  1.00  0.00     0.075 C 
HETATM    4  C6  UNL     1      -9.939   1.401  23.640  1.00  0.00     0.243 C 
HETATM    5  C7  UNL     1     -10.246   1.988  22.346  1.00  0.00     0.135 C 
HETATM    6  C8  UNL     1     -10.672   3.394  22.616  1.00  0.00     0.067 C 
HETATM    7  N1  UNL     1     -11.014   4.486  22.825  1.00  0.00    -0.197 NA
HETATM    8  C9  UNL     1     -11.150   1.282  21.400  1.00  0.00    -0.011 C 
HETATM    9  C10 UNL     1     -11.992   2.398  20.756  1.00  0.00     0.018 C 
HETATM   10  C11 UNL     1     -10.339   0.645  20.316  1.00  0.00     0.014 A 
HETATM   11  C12 UNL     1     -10.726   0.728  18.912  1.00  0.00     0.008 A 
HETATM   12  C13 UNL     1     -11.005  -0.775  18.916  1.00  0.00     0.020 A 
HETATM   13  C14 UNL     1     -10.537  -0.838  20.341  1.00  0.00     0.053 A 
HETATM   14  C24 UNL     1     -11.542  -1.115  21.401  1.00  0.00     0.032 C 
HETATM   15  C25 UNL     1     -12.053   0.242  21.897  1.00  0.00    -0.005 C 
HETATM   16  C26 UNL     1     -13.437   0.385  21.223  1.00  0.00     0.019 C 
HETATM   17  N3  UNL     1     -10.009   0.009  23.811  1.00  0.00     0.097 N 
HETATM   18  C27 UNL     1      -9.121  -0.512  24.850  1.00  0.00     0.311 C 
ENDROOT
BRANCH  13  19
HETATM   19  C15 UNL     1      -9.285  -1.662  20.492  1.00  0.00     0.268 C 
HETATM   20  O3  UNL     1      -9.223  -2.519  21.406  1.00  0.00    -0.264 OA
BRANCH  19  21
HETATM   21  O4  UNL     1      -8.202  -1.523  19.673  1.00  0.00    -0.308 OA
BRANCH  21  22
HETATM   22  C16 UNL     1      -7.799  -2.570  18.753  1.00  0.00     0.202 C 
BRANCH  22  23
HETATM   23  C17 UNL     1      -7.773  -2.049  17.360  1.00  0.00     0.044 C 
BRANCH  23  24
HETATM   24  C18 UNL     1      -8.414  -2.943  16.343  1.00  0.00    -0.020 C 
HETATM   25  C19 UNL     1      -9.651  -2.307  15.726  1.00  0.00     0.009 C 
HETATM   26  C20 UNL     1      -7.373  -3.136  15.214  1.00  0.00     0.009 C 
ENDBRANCH  23  24
ENDBRANCH  22  23
BRANCH  22  27
HETATM   27  C21 UNL     1      -6.459  -3.022  19.160  1.00  0.00     0.169 C 
HETATM   28  O5  UNL     1      -5.534  -3.052  18.385  1.00  0.00    -0.294 OA
BRANCH  27  29
HETATM   29  C22 UNL     1      -6.213  -3.461  20.556  1.00  0.00     0.204 C 
HETATM   30  C23 UNL     1      -5.217  -4.512  20.639  1.00  0.00     0.066 C 
HETATM   31  N2  UNL     1      -4.417  -5.347  20.718  1.00  0.00    -0.197 NA
ENDBRANCH  27  29
ENDBRANCH  22  27
ENDBRANCH  21  22
ENDBRANCH  19  21
ENDBRANCH  13  19
BRANCH   1  32
HETATM   32  O2  UNL     1     -13.258   1.357  23.601  1.00  0.00    -0.313 OA
BRANCH  32  33
HETATM   33  C2  UNL     1     -14.138   1.455  24.643  1.00  0.00     0.255 C 
HETATM   34  C1  UNL     1     -14.417   2.720  25.376  1.00  0.00     0.126 C 
HETATM   35  O1  UNL     1     -14.757   0.431  25.022  1.00  0.00    -0.266 OA
ENDBRANCH  32  33
ENDBRANCH   1  32
TORSDOF 9
ENDMDL
MODEL 3
REMARK VINA RESULT: -8.303374674      2.161      3.371
REMARK  9 active torsions:
REMARK  status: ('A' for Active; 'I' for Inactive)
REMARK    1  A    between atoms: C2_2  and  O2_4 
REMARK    2  A    between atoms: O2_4  and  C3_5 
REMARK    3  A    between atoms: C14_17  and  C15_18 
REMARK    4  A    between atoms: C15_18  and  O4_20 
REMARK    5  A    between atoms: O4_20  and  C16_21 
REMARK    6  A    between atoms: C16_21  and  C17_22 
REMARK    7  A    between atoms: C16_21  and  C21_26 
REMARK    8  A    between atoms: C17_22  and  C18_23 
REMARK    9  A    between atoms: C21_26  and  C22_28 
ROOT
HETATM    1  C3  UNL     1     -12.208  -0.427  24.617  1.00  0.00     0.174 C 
HETATM    2  C4  UNL     1     -11.427  -1.615  25.056  1.00  0.00     0.255 C 
HETATM    3  C5  UNL     1     -10.492  -1.123  26.173  1.00  0.00     0.075 C 
HETATM    4  C6  UNL     1      -9.540  -1.005  25.000  1.00  0.00     0.243 C 
HETATM    5  C7  UNL     1      -9.359   0.340  24.479  1.00  0.00     0.135 C 
HETATM    6  C8  UNL     1      -9.096   1.214  25.660  1.00  0.00     0.067 C 
HETATM    7  N1  UNL     1      -8.901   1.898  26.581  1.00  0.00    -0.197 NA
HETATM    8  C9  UNL     1     -10.359   0.919  23.542  1.00  0.00    -0.011 C 
HETATM    9  C10 UNL     1     -10.476   2.395  23.960  1.00  0.00     0.018 C 
HETATM   10  C11 UNL     1      -9.815   0.885  22.149  1.00  0.00     0.014 A 
HETATM   11  C12 UNL     1      -9.930   2.026  21.248  1.00  0.00     0.008 A 
HETATM   12  C13 UNL     1     -10.888   1.219  20.372  1.00  0.00     0.020 A 
HETATM   13  C14 UNL     1     -10.697   0.041  21.283  1.00  0.00     0.053 A 
HETATM   14  C24 UNL     1     -11.840  -0.388  22.130  1.00  0.00     0.032 C 
HETATM   15  C25 UNL     1     -11.704   0.344  23.468  1.00  0.00    -0.005 C 
HETATM   16  C26 UNL     1     -12.752   1.478  23.379  1.00  0.00     0.019 C 
HETATM   17  N3  UNL     1     -10.286  -1.945  24.270  1.00  0.00     0.097 N 
HETATM   18  C27 UNL     1      -9.896  -3.335  24.509  1.00  0.00     0.311 C 
ENDROOT
BRANCH  13  19
HETATM   19  C15 UNL     1     -10.019  -1.111  20.586  1.00  0.00     0.268 C 
HETATM   20  O3  UNL     1     -10.722  -1.980  20.016  1.00  0.00    -0.264 OA
BRANCH  19  21
HETATM   21  O4  UNL     1      -8.663  -1.258  20.543  1.00  0.00    -0.308 OA
BRANCH  21  22
HETATM   22  C16 UNL     1      -8.039  -2.419  19.937  1.00  0.00     0.202 C 
BRANCH  22  23
HETATM   23  C17 UNL     1      -7.435  -2.053  18.628  1.00  0.00     0.044 C 
BRANCH  23  24
HETATM   24  C18 UNL     1      -8.153  -2.598  17.431  1.00  0.00    -0.020 C 
HETATM   25  C19 UNL     1      -9.047  -1.553  16.780  1.00  0.00     0.009 C 
HETATM   26  C20 UNL     1      -7.059  -2.984  16.406  1.00  0.00     0.009 C 
ENDBRANCH  23  24
ENDBRANCH  22  23
BRANCH  22  27
HETATM   27  C21 UNL     1      -7.003  -2.898  20.867  1.00  0.00     0.169 C 
HETATM   28  O5  UNL     1      -7.263  -3.220  22.000  1.00  0.00    -0.294 OA
BRANCH  27  29
HETATM   29  C22 UNL     1      -5.591  -2.997  20.421  1.00  0.00     0.204 C 
HETATM   30  C23 UNL     1      -5.021  -4.305  20.672  1.00  0.00     0.066 C 
HETATM   31  N2  UNL     1      -4.556  -5.351  20.862  1.00  0.00    -0.197 NA
ENDBRANCH  27  29
ENDBRANCH  22  27
ENDBRANCH  21  22
ENDBRANCH  19  21
ENDBRANCH  13  19
BRANCH   1  32
HETATM   32  O2  UNL     1     -12.444   0.437  25.714  1.00  0.00    -0.313 OA
BRANCH  32  33
HETATM   33  C2  UNL     1     -13.619   0.556  26.402  1.00  0.00     0.255 C 
HETATM   34  C1  UNL     1     -14.002   1.760  27.189  1.00  0.00     0.126 C 
HETATM   35  O1  UNL     1     -14.439  -0.395  26.384  1.00  0.00    -0.266 OA
ENDBRANCH  32  33
ENDBRANCH   1  32
TORSDOF 9
ENDMDL
MODEL 4
REMARK VINA RESULT: -8.246603894      2.743      4.525
REMARK  9 active torsions:
REMARK  status: ('A' for Active; 'I' for Inactive)
REMARK    1  A    between atoms: C2_2  and  O2_4 
REMARK    2  A    between atoms: O2_4  and  C3_5 
REMARK    3  A    between atoms: C14_17  and  C15_18 
REMARK    4  A    between atoms: C15_18  and  O4_20 
REMARK    5  A    between atoms: O4_20  and  C16_21 
REMARK    6  A    between atoms: C16_21  and  C17_22 
REMARK    7  A    between atoms: C16_21  and  C21_26 
REMARK    8  A    between atoms: C17_22  and  C18_23 
REMARK    9  A    between atoms: C21_26  and  C22_28 
ROOT
HETATM    1  C3  UNL     1     -12.131  -1.189  25.317  1.00  0.00     0.174 C 
HETATM    2  C4  UNL     1     -10.881  -1.984  25.170  1.00  0.00     0.255 C 
HETATM    3  C5  UNL     1     -10.069  -1.744  26.453  1.00  0.00     0.075 C 
HETATM    4  C6  UNL     1      -9.431  -0.692  25.570  1.00  0.00     0.243 C 
HETATM    5  C7  UNL     1      -9.886   0.670  25.797  1.00  0.00     0.135 C 
HETATM    6  C8  UNL     1      -9.825   0.889  27.273  1.00  0.00     0.067 C 
HETATM    7  N1  UNL     1      -9.787   1.059  28.423  1.00  0.00    -0.197 NA
HETATM    8  C9  UNL     1     -11.161   1.142  25.195  1.00  0.00    -0.011 C 
HETATM    9  C10 UNL     1     -11.799   2.030  26.278  1.00  0.00     0.018 C 
HETATM   10  C11 UNL     1     -10.864   2.011  24.015  1.00  0.00     0.014 A 
HETATM   11  C12 UNL     1     -11.561   3.273  23.790  1.00  0.00     0.008 A 
HETATM   12  C13 UNL     1     -12.232   2.665  22.558  1.00  0.00     0.020 A 
HETATM   13  C14 UNL     1     -11.450   1.403  22.779  1.00  0.00     0.053 A 
HETATM   14  C24 UNL     1     -12.184   0.185  23.211  1.00  0.00     0.032 C 
HETATM   15  C25 UNL     1     -12.156   0.167  24.743  1.00  0.00    -0.005 C 
HETATM   16  C26 UNL     1     -13.572   0.641  25.144  1.00  0.00     0.019 C 
HETATM   17  N3  UNL     1      -9.835  -1.381  24.415  1.00  0.00     0.097 N 
HETATM   18  C27 UNL     1      -8.888  -2.402  23.965  1.00  0.00     0.311 C 
ENDROOT
BRANCH  13  19
HETATM   19  C15 UNL     1     -10.477   1.134  21.659  1.00  0.00     0.268 C 
HETATM   20  O3  UNL     1      -9.872   2.098  21.131  1.00  0.00    -0.264 OA
BRANCH  19  21
HETATM   21  O4  UNL     1     -10.218  -0.119  21.186  1.00  0.00    -0.308 OA
BRANCH  21  22
HETATM   22  C16 UNL     1     -10.287  -0.430  19.770  1.00  0.00     0.202 C 
BRANCH  22  23
HETATM   23  C17 UNL     1      -9.707  -1.775  19.511  1.00  0.00     0.044 C 
BRANCH  23  24
HETATM   24  C18 UNL     1      -8.218  -1.796  19.348  1.00  0.00    -0.020 C 
HETATM   25  C19 UNL     1      -7.540  -2.638  20.419  1.00  0.00     0.009 C 
HETATM   26  C20 UNL     1      -7.939  -2.464  17.979  1.00  0.00     0.009 C 
ENDBRANCH  23  24
ENDBRANCH  22  23
BRANCH  22  27
HETATM   27  C21 UNL     1     -11.706  -0.397  19.381  1.00  0.00     0.169 C 
HETATM   28  O5  UNL     1     -12.524  -1.127  19.887  1.00  0.00    -0.294 OA
BRANCH  27  29
HETATM   29  C22 UNL     1     -12.170   0.550  18.337  1.00  0.00     0.204 C 
HETATM   30  C23 UNL     1     -13.001   1.608  18.878  1.00  0.00     0.066 C 
HETATM   31  N2  UNL     1     -13.661   2.462  19.301  1.00  0.00    -0.197 NA
ENDBRANCH  27  29
ENDBRANCH  22  27
ENDBRANCH  21  22
ENDBRANCH  19  21
ENDBRANCH  13  19
BRANCH   1  32
HETATM   32  O2  UNL     1     -12.528  -1.147  26.675  1.00  0.00    -0.313 OA
BRANCH  32  33
HETATM   33  C2  UNL     1     -13.283  -2.088  27.319  1.00  0.00     0.255 C 
HETATM   34  C1  UNL     1     -13.640  -3.408  26.731  1.00  0.00     0.126 C 
HETATM   35  O1  UNL     1     -13.712  -1.846  28.473  1.00  0.00    -0.266 OA
ENDBRANCH  32  33
ENDBRANCH   1  32
TORSDOF 9
ENDMDL
MODEL 5
REMARK VINA RESULT: -8.131404556      1.905      2.831
REMARK  9 active torsions:
REMARK  status: ('A' for Active; 'I' for Inactive)
REMARK    1  A    between atoms: C2_2  and  O2_4 
REMARK    2  A    between atoms: O2_4  and  C3_5 
REMARK    3  A    between atoms: C14_17  and  C15_18 
REMARK    4  A    between atoms: C15_18  and  O4_20 
REMARK    5  A    between atoms: O4_20  and  C16_21 
REMARK    6  A    between atoms: C16_21  and  C17_22 
REMARK    7  A    between atoms: C16_21  and  C21_26 
REMARK    8  A    between atoms: C17_22  and  C18_23 
REMARK    9  A    between atoms: C21_26  and  C22_28 
ROOT
HETATM    1  C3  UNL     1     -11.027   1.531  24.180  1.00  0.00     0.174 C 
HETATM    2  C4  UNL     1     -10.203   2.706  23.787  1.00  0.00     0.255 C 
HETATM    3  C5  UNL     1     -11.010   3.949  24.196  1.00  0.00     0.075 C 
HETATM    4  C6  UNL     1     -11.448   3.849  22.749  1.00  0.00     0.243 C 
HETATM    5  C7  UNL     1     -12.762   3.266  22.536  1.00  0.00     0.135 C 
HETATM    6  C8  UNL     1     -13.686   3.962  23.481  1.00  0.00     0.067 C 
HETATM    7  N1  UNL     1     -14.404   4.496  24.224  1.00  0.00    -0.197 NA
HETATM    8  C9  UNL     1     -12.935   1.789  22.542  1.00  0.00    -0.011 C 
HETATM    9  C10 UNL     1     -14.275   1.555  23.261  1.00  0.00     0.018 C 
HETATM   10  C11 UNL     1     -13.083   1.298  21.137  1.00  0.00     0.014 A 
HETATM   11  C12 UNL     1     -14.097   0.318  20.764  1.00  0.00     0.008 A 
HETATM   12  C13 UNL     1     -12.991  -0.699  20.485  1.00  0.00     0.020 A 
HETATM   13  C14 UNL     1     -11.969   0.352  20.811  1.00  0.00     0.053 A 
HETATM   14  C24 UNL     1     -11.169   0.196  22.053  1.00  0.00     0.032 C 
HETATM   15  C25 UNL     1     -11.916   0.941  23.164  1.00  0.00    -0.005 C 
HETATM   16  C26 UNL     1     -12.597  -0.187  23.973  1.00  0.00     0.019 C 
HETATM   17  N3  UNL     1     -10.296   3.115  22.425  1.00  0.00     0.097 N 
HETATM   18  C27 UNL     1      -9.140   3.939  22.069  1.00  0.00     0.311 C 
ENDROOT
BRANCH  13  19
HETATM   19  C15 UNL     1     -11.130   0.719  19.615  1.00  0.00     0.268 C 
HETATM   20  O3  UNL     1     -10.620   1.864  19.553  1.00  0.00    -0.264 OA
BRANCH  19  21
HETATM   21  O4  UNL     1     -10.893  -0.142  18.583  1.00  0.00    -0.308 OA
BRANCH  21  22
HETATM   22  C16 UNL     1      -9.620  -0.823  18.432  1.00  0.00     0.202 C 
BRANCH  22  23
HETATM   23  C17 UNL     1      -9.500  -1.914  19.436  1.00  0.00     0.044 C 
BRANCH  23  24
HETATM   24  C18 UNL     1      -8.412  -1.720  20.448  1.00  0.00    -0.020 C 
HETATM   25  C19 UNL     1      -8.764  -2.346  21.789  1.00  0.00     0.009 C 
HETATM   26  C20 UNL     1      -7.168  -2.459  19.897  1.00  0.00     0.009 C 
ENDBRANCH  23  24
ENDBRANCH  22  23
BRANCH  22  27
HETATM   27  C21 UNL     1      -9.572  -1.370  17.067  1.00  0.00     0.169 C 
HETATM   28  O5  UNL     1     -10.429  -1.129  16.252  1.00  0.00    -0.294 OA
BRANCH  27  29
HETATM   29  C22 UNL     1      -8.447  -2.247  16.657  1.00  0.00     0.204 C 
HETATM   30  C23 UNL     1      -7.790  -1.779  15.453  1.00  0.00     0.066 C 
HETATM   31  N2  UNL     1      -7.252  -1.409  14.494  1.00  0.00    -0.197 NA
ENDBRANCH  27  29
ENDBRANCH  22  27
ENDBRANCH  21  22
ENDBRANCH  19  21
ENDBRANCH  13  19
BRANCH   1  32
HETATM   32  O2  UNL     1     -11.762   1.818  25.356  1.00  0.00    -0.313 OA
BRANCH  32  33
HETATM   33  C2  UNL     1     -11.329   1.621  26.638  1.00  0.00     0.255 C 
HETATM   34  C1  UNL     1     -10.276   0.641  27.017  1.00  0.00     0.126 C 
HETATM   35  O1  UNL     1     -11.838   2.295  27.567  1.00  0.00    -0.266 OA
ENDBRANCH  32  33
ENDBRANCH   1  32
TORSDOF 9
ENDMDL
