MODEL 1
REMARK VINA RESULT: -7.061725515      0.000      0.000
REMARK  10 active torsions:
REMARK  status: ('A' for Active; 'I' for Inactive)
REMARK    1  A    between atoms: C2_2  and  O1_3 
REMARK    2  A    between atoms: O1_3  and  C3_4 
REMARK    3  A    between atoms: C3_4  and  O3_6 
REMARK    4  A    between atoms: O3_6  and  C4_7 
REMARK    5  A    between atoms: C5_8  and  C6_9 
REMARK    6  A    between atoms: N1_23  and  C18_24 
REMARK    7  A    between atoms: C18_24  and  C19_25 
REMARK    8  A    between atoms: C19_25  and  N2_26 
REMARK    9  A    between atoms: N2_26  and  C20_27 
REMARK   10  A    between atoms: N2_26  and  C22_29 
ROOT
HETATM    1  C6  UNL     1     -10.787  -0.271  20.652  1.00  0.00     0.107 C 
HETATM    2  C7  UNL     1     -10.337  -0.790  19.271  1.00  0.00     0.053 C 
HETATM    3  O4  UNL     1     -12.179  -0.482  20.768  1.00  0.00    -0.335 OA
HETATM    4  C8  UNL     1     -12.825   0.697  20.417  1.00  0.00     0.181 C 
HETATM    5  C9  UNL     1     -13.122   0.503  18.909  1.00  0.00     0.084 C 
HETATM    6  C10 UNL     1     -14.120   0.869  21.123  1.00  0.00     0.041 C 
HETATM    7  C11 UNL     1     -14.532   1.613  22.100  1.00  0.00     0.009 C 
HETATM    8  C12 UNL     1     -13.930   2.642  22.982  1.00  0.00    -0.049 C 
HETATM    9  C13 UNL     1     -13.098   3.679  22.346  1.00  0.00    -0.017 C 
HETATM   10  C14 UNL     1     -11.662   3.510  22.145  1.00  0.00     0.053 C 
HETATM   11  C15 UNL     1     -11.036   2.264  22.698  1.00  0.00     0.093 C 
HETATM   12  C16 UNL     1      -9.923   1.769  21.902  1.00  0.00     0.061 C 
HETATM   13  C17 UNL     1     -10.607   1.195  20.632  1.00  0.00     0.165 C 
HETATM   14  O5  UNL     1     -11.902   1.651  20.486  1.00  0.00    -0.343 OA
HETATM   15  N1  UNL     1     -10.982   2.486  24.118  1.00  0.00    -0.345 N 
HETATM   16  C24 UNL     1     -12.215   2.544  24.860  1.00  0.00     0.228 C 
HETATM   17  O6  UNL     1     -12.090   2.919  26.058  1.00  0.00    -0.273 OA
HETATM   18  C25 UNL     1     -13.609   2.213  24.378  1.00  0.00     0.106 C 
HETATM   19  C26 UNL     1     -13.859   0.720  24.552  1.00  0.00     0.025 C 
ENDROOT
BRANCH   1  20
HETATM   20  C5  UNL     1     -10.062  -1.033  21.664  1.00  0.00     0.038 C 
HETATM   21  C4  UNL     1      -9.113  -1.914  21.525  1.00  0.00     0.147 C 
BRANCH  21  22
HETATM   22  O3  UNL     1      -8.527  -2.556  22.637  1.00  0.00    -0.268 OA
BRANCH  22  23
HETATM   23  C3  UNL     1      -7.339  -3.257  22.437  1.00  0.00     0.410 C 
HETATM   24  O2  UNL     1      -7.131  -4.254  23.174  1.00  0.00    -0.229 OA
BRANCH  23  25
HETATM   25  O1  UNL     1      -6.384  -2.941  21.504  1.00  0.00    -0.298 OA
BRANCH  25  26
HETATM   26  C2  UNL     1      -6.153  -3.771  20.367  1.00  0.00     0.176 C 
HETATM   27  C1  UNL     1      -6.585  -3.117  19.093  1.00  0.00     0.034 C 
ENDBRANCH  25  26
ENDBRANCH  23  25
ENDBRANCH  22  23
ENDBRANCH  21  22
ENDBRANCH   1  20
BRANCH  15  28
HETATM   28  C18 UNL     1      -9.755   2.692  24.803  1.00  0.00     0.156 C 
BRANCH  28  29
HETATM   29  C19 UNL     1      -8.992   1.449  25.158  1.00  0.00     0.292 C 
BRANCH  29  30
HETATM   30  N2  UNL     1      -9.560   1.000  26.493  1.00  0.00     0.089 N 
BRANCH  30  31
HETATM   31  C20 UNL     1      -9.508  -0.478  26.361  1.00  0.00     0.268 C 
HETATM   32  C21 UNL     1     -10.501  -0.910  25.331  1.00  0.00     0.037 C 
ENDBRANCH  30  31
BRANCH  30  33
HETATM   33  C22 UNL     1      -8.499   1.379  27.468  1.00  0.00     0.268 C 
HETATM   34  C23 UNL     1      -8.498   0.394  28.596  1.00  0.00     0.037 C 
ENDBRANCH  30  33
ENDBRANCH  29  30
ENDBRANCH  28  29
ENDBRANCH  15  28
TORSDOF 10
ENDMDL
MODEL 2
REMARK VINA RESULT: -7.056792716      1.364      2.045
REMARK  10 active torsions:
REMARK  status: ('A' for Active; 'I' for Inactive)
REMARK    1  A    between atoms: C2_2  and  O1_3 
REMARK    2  A    between atoms: O1_3  and  C3_4 
REMARK    3  A    between atoms: C3_4  and  O3_6 
REMARK    4  A    between atoms: O3_6  and  C4_7 
REMARK    5  A    between atoms: C5_8  and  C6_9 
REMARK    6  A    between atoms: N1_23  and  C18_24 
REMARK    7  A    between atoms: C18_24  and  C19_25 
REMARK    8  A    between atoms: C19_25  and  N2_26 
REMARK    9  A    between atoms: N2_26  and  C20_27 
REMARK   10  A    between atoms: N2_26  and  C22_29 
ROOT
HETATM    1  C6  UNL     1     -11.110   0.591  21.618  1.00  0.00     0.107 C 
HETATM    2  C7  UNL     1     -10.704   0.656  20.131  1.00  0.00     0.053 C 
HETATM    3  O4  UNL     1     -12.513   0.438  21.684  1.00  0.00    -0.335 OA
HETATM    4  C8  UNL     1     -13.075   1.696  21.866  1.00  0.00     0.181 C 
HETATM    5  C9  UNL     1     -13.393   2.155  20.422  1.00  0.00     0.084 C 
HETATM    6  C10 UNL     1     -14.352   1.643  22.623  1.00  0.00     0.041 C 
HETATM    7  C11 UNL     1     -14.706   1.946  23.832  1.00  0.00     0.009 C 
HETATM    8  C12 UNL     1     -14.029   2.484  25.037  1.00  0.00    -0.049 C 
HETATM    9  C13 UNL     1     -13.129   3.637  24.852  1.00  0.00    -0.017 C 
HETATM   10  C14 UNL     1     -11.709   3.476  24.552  1.00  0.00     0.053 C 
HETATM   11  C15 UNL     1     -11.170   2.076  24.527  1.00  0.00     0.093 C 
HETATM   12  C16 UNL     1     -10.099   1.882  23.562  1.00  0.00     0.061 C 
HETATM   13  C17 UNL     1     -10.827   1.922  22.192  1.00  0.00     0.165 C 
HETATM   14  O5  UNL     1     -12.088   2.478  22.288  1.00  0.00    -0.343 OA
HETATM   15  N1  UNL     1     -11.094   1.693  25.911  1.00  0.00    -0.345 N 
HETATM   16  C24 UNL     1     -12.316   1.519  26.654  1.00  0.00     0.228 C 
HETATM   17  O6  UNL     1     -12.159   1.363  27.895  1.00  0.00    -0.273 OA
HETATM   18  C25 UNL     1     -13.732   1.502  26.124  1.00  0.00     0.106 C 
HETATM   19  C26 UNL     1     -14.086   0.087  25.682  1.00  0.00     0.025 C 
ENDROOT
BRANCH   1  20
HETATM   20  C5  UNL     1     -10.435  -0.562  22.206  1.00  0.00     0.038 C 
HETATM   21  C4  UNL     1      -9.556  -1.371  21.686  1.00  0.00     0.147 C 
BRANCH  21  22
HETATM   22  O3  UNL     1      -9.011  -2.446  22.419  1.00  0.00    -0.268 OA
BRANCH  22  23
HETATM   23  C3  UNL     1      -7.747  -2.908  22.060  1.00  0.00     0.410 C 
HETATM   24  O2  UNL     1      -7.221  -3.776  22.803  1.00  0.00    -0.229 OA
BRANCH  23  25
HETATM   25  O1  UNL     1      -7.035  -2.490  20.964  1.00  0.00    -0.298 OA
BRANCH  25  26
HETATM   26  C2  UNL     1      -6.576  -3.413  19.979  1.00  0.00     0.176 C 
HETATM   27  C1  UNL     1      -6.957  -2.998  18.593  1.00  0.00     0.034 C 
ENDBRANCH  25  26
ENDBRANCH  23  25
ENDBRANCH  22  23
ENDBRANCH  21  22
ENDBRANCH   1  20
BRANCH  15  28
HETATM   28  C18 UNL     1      -9.852   1.524  26.580  1.00  0.00     0.156 C 
BRANCH  28  29
HETATM   29  C19 UNL     1      -9.380   0.106  26.725  1.00  0.00     0.292 C 
BRANCH  29  30
HETATM   30  N2  UNL     1      -8.547   0.090  27.994  1.00  0.00     0.089 N 
BRANCH  30  31
HETATM   31  C20 UNL     1      -8.381   1.541  28.263  1.00  0.00     0.268 C 
HETATM   32  C21 UNL     1      -7.666   1.717  29.564  1.00  0.00     0.037 C 
ENDBRANCH  30  31
BRANCH  30  33
HETATM   33  C22 UNL     1      -9.490  -0.428  29.024  1.00  0.00     0.268 C 
HETATM   34  C23 UNL     1     -10.226  -1.607  28.463  1.00  0.00     0.037 C 
ENDBRANCH  30  33
ENDBRANCH  29  30
ENDBRANCH  28  29
ENDBRANCH  15  28
TORSDOF 10
ENDMDL
MODEL 3
REMARK VINA RESULT: -7.013690110      2.127      5.299
REMARK  10 active torsions:
REMARK  status: ('A' for Active; 'I' for Inactive)
REMARK    1  A    between atoms: C2_2  and  O1_3 
REMARK    2  A    between atoms: O1_3  and  C3_4 
REMARK    3  A    between atoms: C3_4  and  O3_6 
REMARK    4  A    between atoms: O3_6  and  C4_7 
REMARK    5  A    between atoms: C5_8  and  C6_9 
REMARK    6  A    between atoms: N1_23  and  C18_24 
REMARK    7  A    between atoms: C18_24  and  C19_25 
REMARK    8  A    between atoms: C19_25  and  N2_26 
REMARK    9  A    between atoms: N2_26  and  C20_27 
REMARK   10  A    between atoms: N2_26  and  C22_29 
ROOT
HETATM    1  C6  UNL     1     -12.626   2.815  22.234  1.00  0.00     0.107 C 
HETATM    2  C7  UNL     1     -12.960   4.152  21.541  1.00  0.00     0.053 C 
HETATM    3  O4  UNL     1     -13.583   2.595  23.250  1.00  0.00    -0.335 OA
HETATM    4  C8  UNL     1     -13.046   3.040  24.452  1.00  0.00     0.181 C 
HETATM    5  C9  UNL     1     -13.565   4.496  24.554  1.00  0.00     0.084 C 
HETATM    6  C10 UNL     1     -13.564   2.284  25.620  1.00  0.00     0.041 C 
HETATM    7  C11 UNL     1     -13.076   1.375  26.405  1.00  0.00     0.009 C 
HETATM    8  C12 UNL     1     -11.786   0.654  26.526  1.00  0.00    -0.049 C 
HETATM    9  C13 UNL     1     -10.550   1.451  26.435  1.00  0.00    -0.017 C 
HETATM   10  C14 UNL     1      -9.885   1.715  25.162  1.00  0.00     0.053 C 
HETATM   11  C15 UNL     1     -10.462   1.061  23.941  1.00  0.00     0.093 C 
HETATM   12  C16 UNL     1     -10.323   1.858  22.732  1.00  0.00     0.061 C 
HETATM   13  C17 UNL     1     -11.340   3.012  22.935  1.00  0.00     0.165 C 
HETATM   14  O5  UNL     1     -11.736   3.134  24.252  1.00  0.00    -0.343 OA
HETATM   15  N1  UNL     1     -10.073  -0.319  24.052  1.00  0.00    -0.345 N 
HETATM   16  C24 UNL     1     -10.640  -1.121  25.105  1.00  0.00     0.228 C 
HETATM   17  O6  UNL     1     -10.114  -2.258  25.242  1.00  0.00    -0.273 OA
HETATM   18  C25 UNL     1     -11.772  -0.761  26.041  1.00  0.00     0.106 C 
HETATM   19  C26 UNL     1     -13.100  -1.119  25.385  1.00  0.00     0.025 C 
ENDROOT
BRANCH   1  20
HETATM   20  C5  UNL     1     -12.696   1.767  21.221  1.00  0.00     0.038 C 
HETATM   21  C4  UNL     1     -12.946   1.853  19.945  1.00  0.00     0.147 C 
BRANCH  21  22
HETATM   22  O3  UNL     1     -12.973   0.712  19.115  1.00  0.00    -0.268 OA
BRANCH  22  23
HETATM   23  C3  UNL     1     -12.287   0.768  17.904  1.00  0.00     0.410 C 
HETATM   24  O2  UNL     1     -12.303   1.864  17.286  1.00  0.00    -0.229 OA
BRANCH  23  25
HETATM   25  O1  UNL     1     -11.602  -0.275  17.336  1.00  0.00    -0.298 OA
BRANCH  25  26
HETATM   26  C2  UNL     1     -10.379  -0.752  17.895  1.00  0.00     0.176 C 
HETATM   27  C1  UNL     1      -9.579  -1.546  16.911  1.00  0.00     0.034 C 
ENDBRANCH  25  26
ENDBRANCH  23  25
ENDBRANCH  22  23
ENDBRANCH  21  22
ENDBRANCH   1  20
BRANCH  15  28
HETATM   28  C18 UNL     1      -9.112  -0.905  23.183  1.00  0.00     0.156 C 
BRANCH  28  29
HETATM   29  C19 UNL     1      -9.660  -1.506  21.921  1.00  0.00     0.292 C 
BRANCH  29  30
HETATM   30  N2  UNL     1      -8.651  -2.565  21.514  1.00  0.00     0.089 N 
BRANCH  30  31
HETATM   31  C20 UNL     1      -7.937  -1.888  20.402  1.00  0.00     0.268 C 
HETATM   32  C21 UNL     1      -7.106  -2.894  19.672  1.00  0.00     0.037 C 
ENDBRANCH  30  31
BRANCH  30  33
HETATM   33  C22 UNL     1      -7.705  -2.606  22.665  1.00  0.00     0.268 C 
HETATM   34  C23 UNL     1      -7.524  -4.029  23.097  1.00  0.00     0.037 C 
ENDBRANCH  30  33
ENDBRANCH  29  30
ENDBRANCH  28  29
ENDBRANCH  15  28
TORSDOF 10
ENDMDL
MODEL 4
REMARK VINA RESULT: -7.013025221      2.107      5.454
REMARK  10 active torsions:
REMARK  status: ('A' for Active; 'I' for Inactive)
REMARK    1  A    between atoms: C2_2  and  O1_3 
REMARK    2  A    between atoms: O1_3  and  C3_4 
REMARK    3  A    between atoms: C3_4  and  O3_6 
REMARK    4  A    between atoms: O3_6  and  C4_7 
REMARK    5  A    between atoms: C5_8  and  C6_9 
REMARK    6  A    between atoms: N1_23  and  C18_24 
REMARK    7  A    between atoms: C18_24  and  C19_25 
REMARK    8  A    between atoms: C19_25  and  N2_26 
REMARK    9  A    between atoms: N2_26  and  C20_27 
REMARK   10  A    between atoms: N2_26  and  C22_29 
ROOT
HETATM    1  C6  UNL     1     -12.625   2.571  22.282  1.00  0.00     0.107 C 
HETATM    2  C7  UNL     1     -12.888   3.917  21.575  1.00  0.00     0.053 C 
HETATM    3  O4  UNL     1     -13.316   2.580  23.514  1.00  0.00    -0.335 OA
HETATM    4  C8  UNL     1     -12.423   2.965  24.506  1.00  0.00     0.181 C 
HETATM    5  C9  UNL     1     -12.638   4.496  24.602  1.00  0.00     0.084 C 
HETATM    6  C10 UNL     1     -12.749   2.371  25.827  1.00  0.00     0.041 C 
HETATM    7  C11 UNL     1     -12.244   1.420  26.548  1.00  0.00     0.009 C 
HETATM    8  C12 UNL     1     -11.111   0.472  26.416  1.00  0.00    -0.049 C 
HETATM    9  C13 UNL     1      -9.819   1.015  25.959  1.00  0.00    -0.017 C 
HETATM   10  C14 UNL     1      -9.465   1.094  24.545  1.00  0.00     0.053 C 
HETATM   11  C15 UNL     1     -10.437   0.511  23.562  1.00  0.00     0.093 C 
HETATM   12  C16 UNL     1     -10.473   1.216  22.290  1.00  0.00     0.061 C 
HETATM   13  C17 UNL     1     -11.190   2.550  22.630  1.00  0.00     0.165 C 
HETATM   14  O5  UNL     1     -11.211   2.799  23.988  1.00  0.00    -0.343 OA
HETATM   15  N1  UNL     1     -10.277  -0.912  23.697  1.00  0.00    -0.345 N 
HETATM   16  C24 UNL     1     -10.689  -1.546  24.923  1.00  0.00     0.228 C 
HETATM   17  O6  UNL     1     -10.350  -2.756  25.028  1.00  0.00    -0.273 OA
HETATM   18  C25 UNL     1     -11.466  -0.939  26.069  1.00  0.00     0.106 C 
HETATM   19  C26 UNL     1     -12.958  -1.065  25.788  1.00  0.00     0.025 C 
ENDROOT
BRANCH   1  20
HETATM   20  C5  UNL     1     -13.131   1.514  21.412  1.00  0.00     0.038 C 
HETATM   21  C4  UNL     1     -13.900   1.591  20.363  1.00  0.00     0.147 C 
BRANCH  21  22
HETATM   22  O3  UNL     1     -14.290   0.443  19.642  1.00  0.00    -0.268 OA
BRANCH  22  23
HETATM   23  C3  UNL     1     -13.289  -0.366  19.109  1.00  0.00     0.410 C 
HETATM   24  O2  UNL     1     -12.996  -1.412  19.744  1.00  0.00    -0.229 OA
BRANCH  23  25
HETATM   25  O1  UNL     1     -12.599  -0.108  17.951  1.00  0.00    -0.298 OA
BRANCH  25  26
HETATM   26  C2  UNL     1     -11.238   0.319  17.976  1.00  0.00     0.176 C 
HETATM   27  C1  UNL     1     -10.304  -0.742  17.487  1.00  0.00     0.034 C 
ENDBRANCH  25  26
ENDBRANCH  23  25
ENDBRANCH  22  23
ENDBRANCH  21  22
ENDBRANCH   1  20
BRANCH  15  28
HETATM   28  C18 UNL     1      -9.686  -1.705  22.677  1.00  0.00     0.156 C 
BRANCH  28  29
HETATM   29  C19 UNL     1      -8.201  -1.900  22.785  1.00  0.00     0.292 C 
BRANCH  29  30
HETATM   30  N2  UNL     1      -7.855  -2.922  21.717  1.00  0.00     0.089 N 
BRANCH  30  31
HETATM   31  C20 UNL     1      -8.098  -2.151  20.472  1.00  0.00     0.268 C 
HETATM   32  C21 UNL     1      -7.084  -2.547  19.447  1.00  0.00     0.037 C 
ENDBRANCH  30  31
BRANCH  30  33
HETATM   33  C22 UNL     1      -6.377  -3.071  21.844  1.00  0.00     0.268 C 
HETATM   34  C23 UNL     1      -6.072  -4.396  22.472  1.00  0.00     0.037 C 
ENDBRANCH  30  33
ENDBRANCH  29  30
ENDBRANCH  28  29
ENDBRANCH  15  28
TORSDOF 10
ENDMDL
MODEL 5
REMARK VINA RESULT: -7.006942003      1.350      1.630
REMARK  10 active torsions:
REMARK  status: ('A' for Active; 'I' for Inactive)
REMARK    1  A    between atoms: C2_2  and  O1_3 
REMARK    2  A    between atoms: O1_3  and  C3_4 
REMARK    3  A    between atoms: C3_4  and  O3_6 
REMARK    4  A    between atoms: O3_6  and  C4_7 
REMARK    5  A    between atoms: C5_8  and  C6_9 
REMARK    6  A    between atoms: N1_23  and  C18_24 
REMARK    7  A    between atoms: C18_24  and  C19_25 
REMARK    8  A    between atoms: C19_25  and  N2_26 
REMARK    9  A    between atoms: N2_26  and  C20_27 
REMARK   10  A    between atoms: N2_26  and  C22_29 
ROOT
HETATM    1  C6  UNL     1     -11.203   0.753  21.354  1.00  0.00     0.107 C 
HETATM    2  C7  UNL     1     -10.835   0.812  19.857  1.00  0.00     0.053 C 
HETATM    3  O4  UNL     1     -12.600   0.569  21.456  1.00  0.00    -0.335 OA
HETATM    4  C8  UNL     1     -13.188   1.814  21.639  1.00  0.00     0.181 C 
HETATM    5  C9  UNL     1     -13.551   2.250  20.198  1.00  0.00     0.084 C 
HETATM    6  C10 UNL     1     -14.444   1.740  22.428  1.00  0.00     0.041 C 
HETATM    7  C11 UNL     1     -14.775   2.048  23.643  1.00  0.00     0.009 C 
HETATM    8  C12 UNL     1     -14.082   2.615  24.824  1.00  0.00    -0.049 C 
HETATM    9  C13 UNL     1     -13.214   3.786  24.605  1.00  0.00    -0.017 C 
HETATM   10  C14 UNL     1     -11.798   3.656  24.272  1.00  0.00     0.053 C 
HETATM   11  C15 UNL     1     -11.227   2.268  24.248  1.00  0.00     0.093 C 
HETATM   12  C16 UNL     1     -10.176   2.089  23.259  1.00  0.00     0.061 C 
HETATM   13  C17 UNL     1     -10.938   2.097  21.907  1.00  0.00     0.165 C 
HETATM   14  O5  UNL     1     -12.209   2.624  22.028  1.00  0.00    -0.343 OA
HETATM   15  N1  UNL     1     -11.108   1.903  25.634  1.00  0.00    -0.345 N 
HETATM   16  C24 UNL     1     -12.307   1.709  26.408  1.00  0.00     0.228 C 
HETATM   17  O6  UNL     1     -12.116   1.569  27.647  1.00  0.00    -0.273 OA
HETATM   18  C25 UNL     1     -13.735   1.652  25.914  1.00  0.00     0.106 C 
HETATM   19  C26 UNL     1     -14.066   0.225  25.496  1.00  0.00     0.025 C 
ENDROOT
BRANCH   1  20
HETATM   20  C5  UNL     1     -10.487  -0.377  21.937  1.00  0.00     0.038 C 
HETATM   21  C4  UNL     1      -9.580  -1.152  21.414  1.00  0.00     0.147 C 
BRANCH  21  22
HETATM   22  O3  UNL     1      -8.996  -2.209  22.142  1.00  0.00    -0.268 OA
BRANCH  22  23
HETATM   23  C3  UNL     1      -7.769  -2.704  21.707  1.00  0.00     0.410 C 
HETATM   24  O2  UNL     1      -7.161  -3.490  22.478  1.00  0.00    -0.229 OA
BRANCH  23  25
HETATM   25  O1  UNL     1      -7.175  -2.399  20.508  1.00  0.00    -0.298 OA
BRANCH  25  26
HETATM   26  C2  UNL     1      -6.608  -3.413  19.681  1.00  0.00     0.176 C 
HETATM   27  C1  UNL     1      -6.753  -3.101  18.224  1.00  0.00     0.034 C 
ENDBRANCH  25  26
ENDBRANCH  23  25
ENDBRANCH  22  23
ENDBRANCH  21  22
ENDBRANCH   1  20
BRANCH  15  28
HETATM   28  C18 UNL     1      -9.846   1.770  26.274  1.00  0.00     0.156 C 
BRANCH  28  29
HETATM   29  C19 UNL     1      -9.431   0.366  26.605  1.00  0.00     0.292 C 
BRANCH  29  30
HETATM   30  N2  UNL     1      -9.122   0.383  28.092  1.00  0.00     0.089 N 
BRANCH  30  31
HETATM   31  C20 UNL     1      -8.441  -0.924  28.272  1.00  0.00     0.268 C 
HETATM   32  C21 UNL     1      -8.916  -1.871  27.217  1.00  0.00     0.037 C 
ENDBRANCH  30  31
BRANCH  30  33
HETATM   33  C22 UNL     1      -8.072   1.432  28.218  1.00  0.00     0.268 C 
HETATM   34  C23 UNL     1      -7.704   1.584  29.662  1.00  0.00     0.037 C 
ENDBRANCH  30  33
ENDBRANCH  29  30
ENDBRANCH  28  29
ENDBRANCH  15  28
TORSDOF 10
ENDMDL
