MODEL 1
REMARK VINA RESULT: -5.221586534      0.000      0.000
REMARK  1 active torsions:
REMARK  status: ('A' for Active; 'I' for Inactive)
REMARK       I    between atoms: C1_4  and  N2_5 
REMARK       I    between atoms: C1_4  and  N4_9 
REMARK       I    between atoms: N2_5  and  C2_6 
REMARK    1  A    between atoms: N4_9  and  N5_11 
ROOT
HETATM    1  N1  UNL     1     -50.682 -62.225 -43.321  1.00  0.00    -0.358 N 
ATOM      2  H11 UNL     1     -51.575 -61.907 -43.699  1.00  0.00     0.160 HD
ATOM      3  H12 UNL     1     -49.879 -61.672 -43.024  1.00  0.00     0.160 HD
HETATM    4  C1  UNL     1     -50.454 -63.558 -43.200  1.00  0.00     0.277 C 
HETATM    5  N2  UNL     1     -49.257 -63.984 -42.693  1.00  0.00    -0.318 NA
HETATM    6  C2  UNL     1     -48.091 -64.401 -42.199  1.00  0.00     0.408 C 
HETATM    7  N3  UNL     1     -47.059 -63.444 -41.779  1.00  0.00    -0.025 NA
HETATM    8  O1  UNL     1     -47.714 -65.595 -42.022  1.00  0.00    -0.234 OA
HETATM    9  N4  UNL     1     -51.564 -64.321 -43.611  1.00  0.00    -0.199 N 
ATOM     10  H4  UNL     1     -52.001 -64.917 -42.907  1.00  0.00     0.197 HD
ENDROOT
BRANCH   9  11
HETATM   11  N5  UNL     1     -52.115 -64.338 -44.878  1.00  0.00    -0.035 N 
HETATM   12  O2  UNL     1     -51.367 -64.269 -45.895  1.00  0.00    -0.516 OA
HETATM   13  O3  UNL     1     -53.469 -64.430 -45.123  1.00  0.00    -0.516 OA
ENDBRANCH   9  11
TORSDOF 1
ENDMDL
MODEL 2
REMARK VINA RESULT: -4.588714108      6.841      8.165
REMARK  1 active torsions:
REMARK  status: ('A' for Active; 'I' for Inactive)
REMARK       I    between atoms: C1_4  and  N2_5 
REMARK       I    between atoms: C1_4  and  N4_9 
REMARK       I    between atoms: N2_5  and  C2_6 
REMARK    1  A    between atoms: N4_9  and  N5_11 
ROOT
HETATM    1  N1  UNL     1     -57.859 -65.268 -43.104  1.00  0.00    -0.358 N 
ATOM      2  H11 UNL     1     -57.526 -66.181 -42.792  1.00  0.00     0.160 HD
ATOM      3  H12 UNL     1     -58.680 -64.747 -42.798  1.00  0.00     0.160 HD
HETATM    4  C1  UNL     1     -57.179 -64.615 -44.081  1.00  0.00     0.277 C 
HETATM    5  N2  UNL     1     -57.625 -63.392 -44.498  1.00  0.00    -0.318 NA
HETATM    6  C2  UNL     1     -58.059 -62.199 -44.906  1.00  0.00     0.408 C 
HETATM    7  N3  UNL     1     -59.251 -61.581 -44.311  1.00  0.00    -0.025 NA
HETATM    8  O1  UNL     1     -57.552 -61.462 -45.799  1.00  0.00    -0.234 OA
HETATM    9  N4  UNL     1     -56.044 -65.335 -44.503  1.00  0.00    -0.199 N 
ATOM     10  H4  UNL     1     -55.137 -64.888 -44.370  1.00  0.00     0.197 HD
ENDROOT
BRANCH   9  11
HETATM   11  N5  UNL     1     -56.047 -66.592 -45.080  1.00  0.00    -0.035 N 
HETATM   12  O2  UNL     1     -55.494 -66.775 -46.202  1.00  0.00    -0.516 OA
HETATM   13  O3  UNL     1     -56.626 -67.699 -44.498  1.00  0.00    -0.516 OA
ENDBRANCH   9  11
TORSDOF 1
ENDMDL
MODEL 3
REMARK VINA RESULT: -4.053524997      7.524      8.005
REMARK  1 active torsions:
REMARK  status: ('A' for Active; 'I' for Inactive)
REMARK       I    between atoms: C1_4  and  N2_5 
REMARK       I    between atoms: C1_4  and  N4_9 
REMARK       I    between atoms: N2_5  and  C2_6 
REMARK    1  A    between atoms: N4_9  and  N5_11 
ROOT
HETATM    1  N1  UNL     1     -56.288 -62.415 -38.331  1.00  0.00    -0.358 N 
ATOM      2  H11 UNL     1     -57.283 -62.321 -38.534  1.00  0.00     0.160 HD
ATOM      3  H12 UNL     1     -55.520 -61.792 -38.583  1.00  0.00     0.160 HD
HETATM    4  C1  UNL     1     -55.851 -63.513 -37.663  1.00  0.00     0.277 C 
HETATM    5  N2  UNL     1     -54.516 -63.639 -37.391  1.00  0.00    -0.318 NA
HETATM    6  C2  UNL     1     -53.216 -63.763 -37.126  1.00  0.00     0.408 C 
HETATM    7  N3  UNL     1     -52.255 -62.731 -37.535  1.00  0.00    -0.025 NA
HETATM    8  O1  UNL     1     -52.643 -64.715 -36.521  1.00  0.00    -0.234 OA
HETATM    9  N4  UNL     1     -56.910 -64.373 -37.314  1.00  0.00    -0.199 N 
ATOM     10  H4  UNL     1     -57.064 -64.538 -36.319  1.00  0.00     0.197 HD
ENDROOT
BRANCH   9  11
HETATM   11  N5  UNL     1     -57.762 -65.013 -38.196  1.00  0.00    -0.035 N 
HETATM   12  O2  UNL     1     -58.532 -65.926 -37.783  1.00  0.00    -0.516 OA
HETATM   13  O3  UNL     1     -57.837 -64.714 -39.540  1.00  0.00    -0.516 OA
ENDBRANCH   9  11
TORSDOF 1
ENDMDL
MODEL 4
REMARK VINA RESULT: -4.043442374      8.115      9.344
REMARK  1 active torsions:
REMARK  status: ('A' for Active; 'I' for Inactive)
REMARK       I    between atoms: C1_4  and  N2_5 
REMARK       I    between atoms: C1_4  and  N4_9 
REMARK       I    between atoms: N2_5  and  C2_6 
REMARK    1  A    between atoms: N4_9  and  N5_11 
ROOT
HETATM    1  N1  UNL     1     -55.802 -62.392 -37.998  1.00  0.00    -0.358 N 
ATOM      2  H11 UNL     1     -54.970 -61.861 -38.256  1.00  0.00     0.160 HD
ATOM      3  H12 UNL     1     -56.753 -62.058 -37.841  1.00  0.00     0.160 HD
HETATM    4  C1  UNL     1     -55.694 -63.730 -37.791  1.00  0.00     0.277 C 
HETATM    5  N2  UNL     1     -56.810 -64.442 -37.446  1.00  0.00    -0.318 NA
HETATM    6  C2  UNL     1     -57.897 -65.137 -37.110  1.00  0.00     0.408 C 
HETATM    7  N3  UNL     1     -59.203 -64.482 -36.970  1.00  0.00    -0.025 NA
HETATM    8  O1  UNL     1     -57.974 -66.377 -36.878  1.00  0.00    -0.234 OA
HETATM    9  N4  UNL     1     -54.381 -64.191 -38.009  1.00  0.00    -0.199 N 
ATOM     10  H4  UNL     1     -54.250 -64.879 -38.751  1.00  0.00     0.197 HD
ENDROOT
BRANCH   9  11
HETATM   11  N5  UNL     1     -53.255 -63.799 -37.310  1.00  0.00    -0.035 N 
HETATM   12  O2  UNL     1     -52.781 -62.639 -37.473  1.00  0.00    -0.516 OA
HETATM   13  O3  UNL     1     -52.590 -64.609 -36.414  1.00  0.00    -0.516 OA
ENDBRANCH   9  11
TORSDOF 1
ENDMDL
MODEL 5
REMARK VINA RESULT: -3.868581893      6.704      8.049
REMARK  1 active torsions:
REMARK  status: ('A' for Active; 'I' for Inactive)
REMARK       I    between atoms: C1_4  and  N2_5 
REMARK       I    between atoms: C1_4  and  N4_9 
REMARK       I    between atoms: N2_5  and  C2_6 
REMARK    1  A    between atoms: N4_9  and  N5_11 
ROOT
HETATM    1  N1  UNL     1     -56.285 -66.047 -42.621  1.00  0.00    -0.358 N 
ATOM      2  H11 UNL     1     -55.549 -66.711 -42.866  1.00  0.00     0.160 HD
ATOM      3  H12 UNL     1     -56.794 -65.950 -41.743  1.00  0.00     0.160 HD
HETATM    4  C1  UNL     1     -56.714 -65.162 -43.556  1.00  0.00     0.277 C 
HETATM    5  N2  UNL     1     -57.699 -64.272 -43.228  1.00  0.00    -0.318 NA
HETATM    6  C2  UNL     1     -58.659 -63.404 -42.909  1.00  0.00     0.408 C 
HETATM    7  N3  UNL     1     -59.250 -63.385 -41.565  1.00  0.00    -0.025 NA
HETATM    8  O1  UNL     1     -59.174 -62.521 -43.653  1.00  0.00    -0.234 OA
HETATM    9  N4  UNL     1     -56.010 -65.296 -44.769  1.00  0.00    -0.199 N 
ATOM     10  H4  UNL     1     -55.473 -64.488 -45.084  1.00  0.00     0.197 HD
ENDROOT
BRANCH   9  11
HETATM   11  N5  UNL     1     -55.980 -66.421 -45.572  1.00  0.00    -0.035 N 
HETATM   12  O2  UNL     1     -55.260 -66.439 -46.610  1.00  0.00    -0.516 OA
HETATM   13  O3  UNL     1     -56.701 -67.567 -45.310  1.00  0.00    -0.516 OA
ENDBRANCH   9  11
TORSDOF 1
ENDMDL
