MODEL 1
REMARK VINA RESULT: -4.741779454      0.000      0.000
REMARK  3 active torsions:
REMARK  status: ('A' for Active; 'I' for Inactive)
REMARK    1  A    between atoms: N1_1  and  N2_4 
REMARK    2  A    between atoms: N2_4  and  O1_5 
REMARK    3  A    between atoms: N2_4  and  C1_7 
REMARK       I    between atoms: N5_13  and  C3_15 
ROOT
HETATM    1  C1  UNL     1     -54.579 -64.207 -36.969  1.00  0.00     0.265 A 
HETATM    2  N3  UNL     1     -53.783 -65.273 -36.773  1.00  0.00    -0.263 N 
ATOM      3  H3  UNL     1     -52.763 -65.256 -36.755  1.00  0.00     0.190 HD
HETATM    4  N4  UNL     1     -54.545 -66.359 -36.604  1.00  0.00    -0.262 N 
ATOM      5  H4  UNL     1     -54.216 -67.310 -36.438  1.00  0.00     0.190 HD
HETATM    6  C2  UNL     1     -55.817 -65.962 -36.695  1.00  0.00     0.248 A 
HETATM    7  N5  UNL     1     -56.867 -66.736 -36.583  1.00  0.00    -0.295 N 
ATOM      8  H5  UNL     1     -56.767 -67.736 -36.412  1.00  0.00     0.172 HD
HETATM    9  C3  UNL     1     -58.167 -66.134 -36.710  1.00  0.00     0.189 C 
HETATM   10  N6  UNL     1     -58.894 -65.876 -35.677  1.00  0.00    -0.373 N 
ATOM     11  H61 UNL     1     -59.816 -65.450 -35.768  1.00  0.00     0.158 HD
ATOM     12  H62 UNL     1     -58.519 -66.114 -34.759  1.00  0.00     0.158 HD
HETATM   13  N7  UNL     1     -58.690 -65.802 -37.992  1.00  0.00    -0.064 NA
HETATM   14  O2  UNL     1     -55.801 -64.669 -36.914  1.00  0.00    -0.246 OA
ENDROOT
BRANCH   1  15
HETATM   15  N2  UNL     1     -54.141 -62.856 -37.189  1.00  0.00    -0.033 NA
BRANCH  15  16
HETATM   16  N1  UNL     1     -52.741 -62.852 -37.301  1.00  0.00    -0.333 NA
ATOM     17  H12 UNL     1     -52.481 -62.265 -38.094  1.00  0.00     0.173 HD
ATOM     18  H11 UNL     1     -52.344 -63.787 -37.385  1.00  0.00     0.173 HD
ENDBRANCH  15  16
BRANCH  15  19
HETATM   19  O1  UNL     1     -54.590 -62.040 -36.238  1.00  0.00    -0.287 OA
ATOM     20  H1  UNL     1     -55.505 -61.811 -36.346  1.00  0.00     0.239 HD
ENDBRANCH  15  19
ENDBRANCH   1  15
TORSDOF 3
ENDMDL
MODEL 2
REMARK VINA RESULT: -4.394554433      6.034      6.995
REMARK  3 active torsions:
REMARK  status: ('A' for Active; 'I' for Inactive)
REMARK    1  A    between atoms: N1_1  and  N2_4 
REMARK    2  A    between atoms: N2_4  and  O1_5 
REMARK    3  A    between atoms: N2_4  and  C1_7 
REMARK       I    between atoms: N5_13  and  C3_15 
ROOT
HETATM    1  C1  UNL     1     -57.840 -63.171 -43.675  1.00  0.00     0.265 A 
HETATM    2  N3  UNL     1     -58.621 -64.136 -44.189  1.00  0.00    -0.263 N 
ATOM      3  H3  UNL     1     -58.719 -64.354 -45.181  1.00  0.00     0.190 HD
HETATM    4  N4  UNL     1     -59.251 -64.764 -43.190  1.00  0.00    -0.262 N 
ATOM      5  H4  UNL     1     -59.909 -65.538 -43.280  1.00  0.00     0.190 HD
HETATM    6  C2  UNL     1     -58.856 -64.185 -42.054  1.00  0.00     0.248 A 
HETATM    7  N5  UNL     1     -59.250 -64.518 -40.850  1.00  0.00    -0.295 N 
ATOM      8  H5  UNL     1     -59.914 -65.278 -40.707  1.00  0.00     0.172 HD
HETATM    9  C3  UNL     1     -58.717 -63.781 -39.736  1.00  0.00     0.189 C 
HETATM   10  N6  UNL     1     -57.777 -64.262 -38.997  1.00  0.00    -0.373 N 
ATOM     11  H61 UNL     1     -57.400 -63.739 -38.207  1.00  0.00     0.158 HD
ATOM     12  H62 UNL     1     -57.418 -65.189 -39.226  1.00  0.00     0.158 HD
HETATM   13  N7  UNL     1     -59.218 -62.487 -39.418  1.00  0.00    -0.064 NA
HETATM   14  O2  UNL     1     -58.012 -63.235 -42.380  1.00  0.00    -0.246 OA
ENDROOT
BRANCH   1  15
HETATM   15  N2  UNL     1     -57.002 -62.274 -44.424  1.00  0.00    -0.033 NA
BRANCH  15  16
HETATM   16  N1  UNL     1     -57.813 -61.525 -45.293  1.00  0.00    -0.333 NA
ATOM     17  H12 UNL     1     -58.220 -62.157 -45.982  1.00  0.00     0.173 HD
ATOM     18  H11 UNL     1     -57.314 -60.757 -45.741  1.00  0.00     0.173 HD
ENDBRANCH  15  16
BRANCH  15  19
HETATM   19  O1  UNL     1     -56.030 -62.930 -45.052  1.00  0.00    -0.287 OA
ATOM     20  H1  UNL     1     -56.354 -63.613 -45.627  1.00  0.00     0.239 HD
ENDBRANCH  15  19
ENDBRANCH   1  15
TORSDOF 3
ENDMDL
MODEL 3
REMARK VINA RESULT: -4.322339966      2.486      4.708
REMARK  3 active torsions:
REMARK  status: ('A' for Active; 'I' for Inactive)
REMARK    1  A    between atoms: N1_1  and  N2_4 
REMARK    2  A    between atoms: N2_4  and  O1_5 
REMARK    3  A    between atoms: N2_4  and  C1_7 
REMARK       I    between atoms: N5_13  and  C3_15 
ROOT
HETATM    1  C1  UNL     1     -58.086 -63.870 -38.760  1.00  0.00     0.265 A 
HETATM    2  N3  UNL     1     -58.238 -65.166 -38.436  1.00  0.00    -0.263 N 
ATOM      3  H3  UNL     1     -59.055 -65.739 -38.651  1.00  0.00     0.190 HD
HETATM    4  N4  UNL     1     -57.146 -65.582 -37.787  1.00  0.00    -0.262 N 
ATOM      5  H4  UNL     1     -56.980 -66.519 -37.419  1.00  0.00     0.190 HD
HETATM    6  C2  UNL     1     -56.315 -64.540 -37.710  1.00  0.00     0.248 A 
HETATM    7  N5  UNL     1     -55.133 -64.545 -37.145  1.00  0.00    -0.295 N 
ATOM      8  H5  UNL     1     -54.764 -65.390 -36.710  1.00  0.00     0.172 HD
HETATM    9  C3  UNL     1     -54.373 -63.325 -37.157  1.00  0.00     0.189 C 
HETATM   10  N6  UNL     1     -53.402 -63.143 -37.984  1.00  0.00    -0.373 N 
ATOM     11  H61 UNL     1     -52.862 -62.278 -37.992  1.00  0.00     0.158 HD
ATOM     12  H62 UNL     1     -53.184 -63.897 -38.636  1.00  0.00     0.158 HD
HETATM   13  N7  UNL     1     -54.677 -62.273 -36.246  1.00  0.00    -0.064 NA
HETATM   14  O2  UNL     1     -56.909 -63.531 -38.302  1.00  0.00    -0.246 OA
ENDROOT
BRANCH   1  15
HETATM   15  N2  UNL     1     -59.041 -63.058 -39.465  1.00  0.00    -0.033 NA
BRANCH  15  16
HETATM   16  N1  UNL     1     -58.797 -63.175 -40.843  1.00  0.00    -0.333 NA
ATOM     17  H12 UNL     1     -58.177 -63.970 -40.997  1.00  0.00     0.173 HD
ATOM     18  H11 UNL     1     -58.418 -62.323 -41.256  1.00  0.00     0.173 HD
ENDBRANCH  15  16
BRANCH  15  19
HETATM   19  O1  UNL     1     -59.017 -61.799 -39.036  1.00  0.00    -0.287 OA
ATOM     20  H1  UNL     1     -58.171 -61.383 -39.151  1.00  0.00     0.239 HD
ENDBRANCH  15  19
ENDBRANCH   1  15
TORSDOF 3
ENDMDL
MODEL 4
REMARK VINA RESULT: -4.319577995      2.232      3.230
REMARK  3 active torsions:
REMARK  status: ('A' for Active; 'I' for Inactive)
REMARK    1  A    between atoms: N1_1  and  N2_4 
REMARK    2  A    between atoms: N2_4  and  O1_5 
REMARK    3  A    between atoms: N2_4  and  C1_7 
REMARK       I    between atoms: N5_13  and  C3_15 
ROOT
HETATM    1  C1  UNL     1     -53.517 -64.256 -36.653  1.00  0.00     0.265 A 
HETATM    2  N3  UNL     1     -52.861 -63.516 -37.562  1.00  0.00    -0.263 N 
ATOM      3  H3  UNL     1     -51.847 -63.477 -37.675  1.00  0.00     0.190 HD
HETATM    4  N4  UNL     1     -53.750 -62.840 -38.297  1.00  0.00    -0.262 N 
ATOM      5  H4  UNL     1     -53.542 -62.198 -39.061  1.00  0.00     0.190 HD
HETATM    6  C2  UNL     1     -54.962 -63.165 -37.839  1.00  0.00     0.248 A 
HETATM    7  N5  UNL     1     -56.100 -62.709 -38.301  1.00  0.00    -0.295 N 
ATOM      8  H5  UNL     1     -56.124 -62.047 -39.076  1.00  0.00     0.172 HD
HETATM    9  C3  UNL     1     -57.313 -63.170 -37.683  1.00  0.00     0.189 C 
HETATM   10  N6  UNL     1     -58.049 -64.074 -38.234  1.00  0.00    -0.373 N 
ATOM     11  H61 UNL     1     -58.910 -64.400 -37.796  1.00  0.00     0.158 HD
ATOM     12  H62 UNL     1     -57.745 -64.456 -39.129  1.00  0.00     0.158 HD
HETATM   13  N7  UNL     1     -57.738 -62.636 -36.434  1.00  0.00    -0.064 NA
HETATM   14  O2  UNL     1     -54.786 -64.014 -36.855  1.00  0.00    -0.246 OA
ENDROOT
BRANCH   1  15
HETATM   15  N2  UNL     1     -52.916 -65.123 -35.676  1.00  0.00    -0.033 NA
BRANCH  15  16
HETATM   16  N1  UNL     1     -51.528 -64.905 -35.678  1.00  0.00    -0.333 NA
ATOM     17  H12 UNL     1     -51.118 -65.411 -34.894  1.00  0.00     0.173 HD
ATOM     18  H11 UNL     1     -51.279 -63.916 -35.653  1.00  0.00     0.173 HD
ENDBRANCH  15  16
BRANCH  15  19
HETATM   19  O1  UNL     1     -53.244 -66.394 -35.889  1.00  0.00    -0.287 OA
ATOM     20  H1  UNL     1     -52.890 -66.739 -36.700  1.00  0.00     0.239 HD
ENDBRANCH  15  19
ENDBRANCH   1  15
TORSDOF 3
ENDMDL
MODEL 5
REMARK VINA RESULT: -4.263115700      1.526      1.621
REMARK  3 active torsions:
REMARK  status: ('A' for Active; 'I' for Inactive)
REMARK    1  A    between atoms: N1_1  and  N2_4 
REMARK    2  A    between atoms: N2_4  and  O1_5 
REMARK    3  A    between atoms: N2_4  and  C1_7 
REMARK       I    between atoms: N5_13  and  C3_15 
ROOT
HETATM    1  C1  UNL     1     -53.641 -64.166 -37.108  1.00  0.00     0.265 A 
HETATM    2  N3  UNL     1     -53.315 -65.343 -36.547  1.00  0.00    -0.263 N 
ATOM      3  H3  UNL     1     -52.389 -65.600 -36.202  1.00  0.00     0.190 HD
HETATM    4  N4  UNL     1     -54.400 -66.124 -36.512  1.00  0.00    -0.262 N 
ATOM      5  H4  UNL     1     -54.452 -67.073 -36.143  1.00  0.00     0.190 HD
HETATM    6  C2  UNL     1     -55.401 -65.426 -37.055  1.00  0.00     0.248 A 
HETATM    7  N5  UNL     1     -56.632 -65.847 -37.203  1.00  0.00    -0.295 N 
ATOM      8  H5  UNL     1     -56.909 -66.780 -36.897  1.00  0.00     0.172 HD
HETATM    9  C3  UNL     1     -57.583 -64.956 -37.811  1.00  0.00     0.189 C 
HETATM   10  N6  UNL     1     -58.442 -64.304 -37.106  1.00  0.00    -0.373 N 
ATOM     11  H61 UNL     1     -59.116 -63.672 -37.537  1.00  0.00     0.158 HD
ATOM     12  H62 UNL     1     -58.431 -64.439 -36.095  1.00  0.00     0.158 HD
HETATM   13  N7  UNL     1     -57.598 -64.766 -39.222  1.00  0.00    -0.064 NA
HETATM   14  O2  UNL     1     -54.912 -64.259 -37.401  1.00  0.00    -0.246 OA
ENDROOT
BRANCH   1  15
HETATM   15  N2  UNL     1     -52.750 -63.059 -37.325  1.00  0.00    -0.033 NA
BRANCH  15  16
HETATM   16  N1  UNL     1     -52.883 -62.632 -38.657  1.00  0.00    -0.333 NA
ATOM     17  H12 UNL     1     -52.301 -61.806 -38.792  1.00  0.00     0.173 HD
ATOM     18  H11 UNL     1     -53.850 -62.454 -38.925  1.00  0.00     0.173 HD
ENDBRANCH  15  16
BRANCH  15  19
HETATM   19  O1  UNL     1     -51.499 -63.373 -37.001  1.00  0.00    -0.287 OA
ATOM     20  H1  UNL     1     -50.892 -63.283 -37.726  1.00  0.00     0.239 HD
ENDBRANCH  15  19
ENDBRANCH   1  15
TORSDOF 3
ENDMDL
