MODEL 1
REMARK VINA RESULT: -5.996140384      0.000      0.000
REMARK  4 active torsions:
REMARK  status: ('A' for Active; 'I' for Inactive)
REMARK    1  A    between atoms: N1_2  and  N2_4 
REMARK    2  A    between atoms: C2_6  and  N3_7 
REMARK    3  A    between atoms: C2_6  and  C3_12 
REMARK    4  A    between atoms: N3_7  and  N4_9 
ROOT
HETATM    1  N2  UNL     1     -48.245 -62.985 -42.136  1.00  0.00    -0.286 N 
ATOM      2  H2  UNL     1     -47.743 -62.429 -41.444  1.00  0.00     0.188 HD
HETATM    3  C2  UNL     1     -49.410 -62.587 -42.503  1.00  0.00     0.180 C 
ENDROOT
BRANCH   3   4
HETATM    4  N3  UNL     1     -49.928 -61.405 -41.927  1.00  0.00    -0.288 N 
ATOM      5  H3  UNL     1     -50.845 -61.445 -41.482  1.00  0.00     0.188 HD
BRANCH   4   6
HETATM    6  N4  UNL     1     -49.251 -60.188 -41.933  1.00  0.00    -0.343 N 
ATOM      7  H42 UNL     1     -48.623 -60.008 -42.716  1.00  0.00     0.176 HD
ATOM      8  H41 UNL     1     -49.354 -59.484 -41.203  1.00  0.00     0.176 HD
ENDBRANCH   4   6
ENDBRANCH   3   4
BRANCH   3   9
HETATM    9  C3  UNL     1     -50.209 -63.307 -43.483  1.00  0.00     0.168 A 
HETATM   10  N5  UNL     1     -49.959 -63.477 -44.804  1.00  0.00    -0.333 N 
HETATM   11  C4  UNL     1     -50.946 -64.210 -45.366  1.00  0.00     0.199 A 
ATOM     12  H5  UNL     1     -49.148 -63.108 -45.299  1.00  0.00     0.168 HD
HETATM   13  N6  UNL     1     -51.822 -64.500 -44.379  1.00  0.00    -0.294 N 
HETATM   14  N7  UNL     1     -51.371 -63.956 -43.261  1.00  0.00    -0.281 N 
ATOM     15  H6  UNL     1     -52.680 -65.043 -44.479  1.00  0.00     0.187 HD
ATOM     16  H7  UNL     1     -51.837 -64.019 -42.356  1.00  0.00     0.188 HD
ENDBRANCH   3   9
BRANCH   1  17
HETATM   17  N1  UNL     1     -47.625 -64.133 -42.629  1.00  0.00    -0.339 N 
HETATM   18  C1  UNL     1     -48.219 -65.408 -42.267  1.00  0.00     0.167 C 
ATOM     19  H1  UNL     1     -46.792 -64.080 -43.215  1.00  0.00     0.179 HD
ENDBRANCH   1  17
TORSDOF 4
ENDMDL
MODEL 2
REMARK VINA RESULT: -5.251948076      1.197      2.877
REMARK  4 active torsions:
REMARK  status: ('A' for Active; 'I' for Inactive)
REMARK    1  A    between atoms: N1_2  and  N2_4 
REMARK    2  A    between atoms: C2_6  and  N3_7 
REMARK    3  A    between atoms: C2_6  and  C3_12 
REMARK    4  A    between atoms: N3_7  and  N4_9 
ROOT
HETATM    1  N2  UNL     1     -48.853 -62.077 -42.171  1.00  0.00    -0.286 N 
ATOM      2  H2  UNL     1     -48.149 -61.868 -41.463  1.00  0.00     0.188 HD
HETATM    3  C2  UNL     1     -49.072 -63.310 -42.460  1.00  0.00     0.180 C 
ENDROOT
BRANCH   3   4
HETATM    4  N3  UNL     1     -48.327 -64.301 -41.783  1.00  0.00    -0.288 N 
ATOM      5  H3  UNL     1     -47.763 -64.018 -40.980  1.00  0.00     0.188 HD
BRANCH   4   6
HETATM    6  N4  UNL     1     -48.320 -65.644 -42.153  1.00  0.00    -0.343 N 
ATOM      7  H42 UNL     1     -48.621 -65.867 -43.101  1.00  0.00     0.176 HD
ATOM      8  H41 UNL     1     -48.034 -66.397 -41.528  1.00  0.00     0.176 HD
ENDBRANCH   4   6
ENDBRANCH   3   4
BRANCH   3   9
HETATM    9  C3  UNL     1     -50.053 -63.716 -43.454  1.00  0.00     0.168 A 
HETATM   10  N5  UNL     1     -49.901 -63.794 -44.799  1.00  0.00    -0.333 N 
HETATM   11  C4  UNL     1     -51.052 -64.215 -45.368  1.00  0.00     0.199 A 
ATOM     12  H5  UNL     1     -49.044 -63.569 -45.305  1.00  0.00     0.168 HD
HETATM   13  N6  UNL     1     -51.935 -64.401 -44.361  1.00  0.00    -0.294 N 
HETATM   14  N7  UNL     1     -51.326 -64.100 -43.225  1.00  0.00    -0.281 N 
ATOM     15  H6  UNL     1     -52.900 -64.717 -44.460  1.00  0.00     0.187 HD
ATOM     16  H7  UNL     1     -51.760 -64.153 -42.304  1.00  0.00     0.188 HD
ENDBRANCH   3   9
BRANCH   1  17
HETATM   17  N1  UNL     1     -49.521 -61.008 -42.768  1.00  0.00    -0.339 N 
HETATM   18  C1  UNL     1     -49.481 -59.735 -42.069  1.00  0.00     0.167 C 
ATOM     19  H1  UNL     1     -50.014 -61.115 -43.654  1.00  0.00     0.179 HD
ENDBRANCH   1  17
TORSDOF 4
ENDMDL
MODEL 3
REMARK VINA RESULT: -4.730566551      1.441      3.725
REMARK  4 active torsions:
REMARK  status: ('A' for Active; 'I' for Inactive)
REMARK    1  A    between atoms: N1_2  and  N2_4 
REMARK    2  A    between atoms: C2_6  and  N3_7 
REMARK    3  A    between atoms: C2_6  and  C3_12 
REMARK    4  A    between atoms: N3_7  and  N4_9 
ROOT
HETATM    1  N2  UNL     1     -50.374 -61.555 -43.301  1.00  0.00    -0.286 N 
ATOM      2  H2  UNL     1     -51.067 -60.871 -43.606  1.00  0.00     0.188 HD
HETATM    3  C2  UNL     1     -50.462 -62.751 -43.764  1.00  0.00     0.180 C 
ENDROOT
BRANCH   3   4
HETATM    4  N3  UNL     1     -51.510 -63.048 -44.663  1.00  0.00    -0.288 N 
ATOM      5  H3  UNL     1     -51.824 -62.314 -45.299  1.00  0.00     0.188 HD
BRANCH   4   6
HETATM    6  N4  UNL     1     -52.138 -64.289 -44.729  1.00  0.00    -0.343 N 
ATOM      7  H42 UNL     1     -52.729 -64.471 -45.539  1.00  0.00     0.176 HD
ATOM      8  H41 UNL     1     -52.034 -65.010 -44.014  1.00  0.00     0.176 HD
ENDBRANCH   4   6
ENDBRANCH   3   4
BRANCH   3   9
HETATM    9  C3  UNL     1     -49.526 -63.801 -43.393  1.00  0.00     0.168 A 
HETATM   10  N5  UNL     1     -49.194 -64.227 -42.150  1.00  0.00    -0.333 N 
HETATM   11  C4  UNL     1     -48.286 -65.224 -42.234  1.00  0.00     0.199 A 
ATOM     12  H5  UNL     1     -49.573 -63.850 -41.281  1.00  0.00     0.168 HD
HETATM   13  N6  UNL     1     -48.050 -65.422 -43.550  1.00  0.00    -0.294 N 
HETATM   14  N7  UNL     1     -48.796 -64.567 -44.231  1.00  0.00    -0.281 N 
ATOM     15  H6  UNL     1     -47.409 -66.109 -43.949  1.00  0.00     0.187 HD
ATOM     16  H7  UNL     1     -48.816 -64.497 -45.248  1.00  0.00     0.188 HD
ENDBRANCH   3   9
BRANCH   1  17
HETATM   17  N1  UNL     1     -49.389 -61.137 -42.408  1.00  0.00    -0.339 N 
HETATM   18  C1  UNL     1     -49.406 -59.738 -42.018  1.00  0.00     0.167 C 
ATOM     19  H1  UNL     1     -48.688 -61.783 -42.046  1.00  0.00     0.179 HD
ENDBRANCH   1  17
TORSDOF 4
ENDMDL
MODEL 4
REMARK VINA RESULT: -4.646216701      0.997      3.259
REMARK  4 active torsions:
REMARK  status: ('A' for Active; 'I' for Inactive)
REMARK    1  A    between atoms: N1_2  and  N2_4 
REMARK    2  A    between atoms: C2_6  and  N3_7 
REMARK    3  A    between atoms: C2_6  and  C3_12 
REMARK    4  A    between atoms: N3_7  and  N4_9 
ROOT
HETATM    1  N2  UNL     1     -51.135 -62.492 -43.620  1.00  0.00    -0.286 N 
ATOM      2  H2  UNL     1     -51.818 -61.752 -43.783  1.00  0.00     0.188 HD
HETATM    3  C2  UNL     1     -49.961 -62.155 -43.222  1.00  0.00     0.180 C 
ENDROOT
BRANCH   3   4
HETATM    4  N3  UNL     1     -49.685 -60.782 -43.034  1.00  0.00    -0.288 N 
ATOM      5  H3  UNL     1     -49.744 -60.162 -43.842  1.00  0.00     0.188 HD
BRANCH   4   6
HETATM    6  N4  UNL     1     -49.336 -60.230 -41.804  1.00  0.00    -0.343 N 
ATOM      7  H42 UNL     1     -49.779 -60.624 -40.974  1.00  0.00     0.176 HD
ATOM      8  H41 UNL     1     -48.670 -59.465 -41.699  1.00  0.00     0.176 HD
ENDBRANCH   4   6
ENDBRANCH   3   4
BRANCH   3   9
HETATM    9  C3  UNL     1     -48.915 -63.131 -42.961  1.00  0.00     0.168 A 
HETATM   10  N5  UNL     1     -48.744 -64.348 -43.533  1.00  0.00    -0.333 N 
HETATM   11  C4  UNL     1     -47.649 -64.949 -43.015  1.00  0.00     0.199 A 
ATOM     12  H5  UNL     1     -49.351 -64.750 -44.247  1.00  0.00     0.168 HD
HETATM   13  N6  UNL     1     -47.132 -64.091 -42.107  1.00  0.00    -0.294 N 
HETATM   14  N7  UNL     1     -47.895 -63.012 -42.085  1.00  0.00    -0.281 N 
ATOM     15  H6  UNL     1     -46.299 -64.249 -41.539  1.00  0.00     0.187 HD
ATOM     16  H7  UNL     1     -47.736 -62.200 -41.488  1.00  0.00     0.188 HD
ENDBRANCH   3   9
BRANCH   1  17
HETATM   17  N1  UNL     1     -51.532 -63.811 -43.842  1.00  0.00    -0.339 N 
HETATM   18  C1  UNL     1     -51.667 -64.232 -45.226  1.00  0.00     0.167 C 
ATOM     19  H1  UNL     1     -51.719 -64.449 -43.070  1.00  0.00     0.179 HD
ENDBRANCH   1  17
TORSDOF 4
ENDMDL
MODEL 5
REMARK VINA RESULT: -4.558336366      1.264      3.364
REMARK  4 active torsions:
REMARK  status: ('A' for Active; 'I' for Inactive)
REMARK    1  A    between atoms: N1_2  and  N2_4 
REMARK    2  A    between atoms: C2_6  and  N3_7 
REMARK    3  A    between atoms: C2_6  and  C3_12 
REMARK    4  A    between atoms: N3_7  and  N4_9 
ROOT
HETATM    1  N2  UNL     1     -49.664 -65.048 -43.839  1.00  0.00    -0.286 N 
ATOM      2  H2  UNL     1     -50.023 -65.945 -44.165  1.00  0.00     0.188 HD
HETATM    3  C2  UNL     1     -50.511 -64.117 -43.577  1.00  0.00     0.180 C 
ENDROOT
BRANCH   3   4
HETATM    4  N3  UNL     1     -51.886 -64.391 -43.755  1.00  0.00    -0.288 N 
ATOM      5  H3  UNL     1     -52.440 -64.638 -42.935  1.00  0.00     0.188 HD
BRANCH   4   6
HETATM    6  N4  UNL     1     -52.524 -64.342 -44.992  1.00  0.00    -0.343 N 
ATOM      7  H42 UNL     1     -53.157 -63.559 -45.159  1.00  0.00     0.176 HD
ATOM      8  H41 UNL     1     -52.390 -65.041 -45.722  1.00  0.00     0.176 HD
ENDBRANCH   4   6
ENDBRANCH   3   4
BRANCH   3   9
HETATM    9  C3  UNL     1     -50.105 -62.802 -43.107  1.00  0.00     0.168 A 
HETATM   10  N5  UNL     1     -49.906 -61.677 -43.837  1.00  0.00    -0.333 N 
HETATM   11  C4  UNL     1     -49.533 -60.663 -43.024  1.00  0.00     0.199 A 
ATOM     12  H5  UNL     1     -50.020 -61.606 -44.848  1.00  0.00     0.168 HD
HETATM   13  N6  UNL     1     -49.500 -61.166 -41.770  1.00  0.00    -0.294 N 
HETATM   14  N7  UNL     1     -49.843 -62.442 -41.833  1.00  0.00    -0.281 N 
ATOM     15  H6  UNL     1     -49.254 -60.652 -40.923  1.00  0.00     0.187 HD
ATOM     16  H7  UNL     1     -49.902 -63.068 -41.030  1.00  0.00     0.188 HD
ENDBRANCH   3   9
BRANCH   1  17
HETATM   17  N1  UNL     1     -48.284 -64.903 -43.705  1.00  0.00    -0.339 N 
HETATM   18  C1  UNL     1     -47.735 -65.041 -42.367  1.00  0.00     0.167 C 
ATOM     19  H1  UNL     1     -47.687 -64.709 -44.510  1.00  0.00     0.179 HD
ENDBRANCH   1  17
TORSDOF 4
ENDMDL
