MODEL 1
REMARK VINA RESULT: -4.942148113      0.000      0.000
REMARK  3 active torsions:
REMARK  status: ('A' for Active; 'I' for Inactive)
REMARK    1  A    between atoms: N2_4  and  N3_6 
REMARK    2  A    between atoms: N3_6  and  S1_8 
REMARK    3  A    between atoms: S1_8  and  N4_9 
ROOT
HETATM    1  N3  UNL     1     -48.775 -64.371 -44.060  1.00  0.00    -0.209 N 
ATOM      2  H3  UNL     1     -48.072 -64.094 -44.744  1.00  0.00     0.201 HD
ENDROOT
BRANCH   1   3
HETATM    3  N2  UNL     1     -50.054 -64.759 -44.441  1.00  0.00    -0.281 N 
HETATM    4  C2  UNL     1     -50.994 -63.924 -44.696  1.00  0.00     0.104 C 
HETATM    5  C1  UNL     1     -50.679 -62.476 -44.573  1.00  0.00     0.086 C 
HETATM    6  N1  UNL     1     -52.273 -64.385 -45.079  1.00  0.00    -0.087 NA
ATOM      7  H2  UNL     1     -50.255 -65.756 -44.523  1.00  0.00     0.188 HD
ENDBRANCH   1   3
BRANCH   1   8
HETATM    8  S1  UNL     1     -48.442 -64.383 -42.372  1.00  0.00     0.330 S 
HETATM    9  O1  UNL     1     -48.576 -65.790 -41.842  1.00  0.00    -0.181 OA
HETATM   10  O2  UNL     1     -47.052 -63.929 -42.068  1.00  0.00    -0.181 OA
BRANCH   8  11
HETATM   11  N4  UNL     1     -49.552 -63.304 -41.629  1.00  0.00    -0.310 N 
ATOM     12  H42 UNL     1     -49.474 -62.288 -41.616  1.00  0.00     0.170 HD
ATOM     13  H41 UNL     1     -50.289 -63.872 -41.211  1.00  0.00     0.170 HD
ENDBRANCH   8  11
ENDBRANCH   1   8
TORSDOF 3
ENDMDL
MODEL 2
REMARK VINA RESULT: -4.829039381      3.181      4.056
REMARK  3 active torsions:
REMARK  status: ('A' for Active; 'I' for Inactive)
REMARK    1  A    between atoms: N2_4  and  N3_6 
REMARK    2  A    between atoms: N3_6  and  S1_8 
REMARK    3  A    between atoms: S1_8  and  N4_9 
ROOT
HETATM    1  N3  UNL     1     -51.090 -64.583 -43.094  1.00  0.00    -0.209 N 
ATOM      2  H3  UNL     1     -51.777 -64.462 -42.351  1.00  0.00     0.201 HD
ENDROOT
BRANCH   1   3
HETATM    3  N2  UNL     1     -49.912 -65.294 -42.894  1.00  0.00    -0.281 N 
HETATM    4  C2  UNL     1     -48.838 -64.759 -42.443  1.00  0.00     0.104 C 
HETATM    5  C1  UNL     1     -48.875 -63.307 -42.122  1.00  0.00     0.086 C 
HETATM    6  N1  UNL     1     -47.674 -65.538 -42.262  1.00  0.00    -0.087 NA
ATOM      7  H2  UNL     1     -49.902 -66.289 -43.117  1.00  0.00     0.188 HD
ENDBRANCH   1   3
BRANCH   1   8
HETATM    8  S1  UNL     1     -51.327 -63.919 -44.664  1.00  0.00     0.330 S 
HETATM    9  O1  UNL     1     -51.173 -62.419 -44.605  1.00  0.00    -0.181 OA
HETATM   10  O2  UNL     1     -50.326 -64.427 -45.649  1.00  0.00    -0.181 OA
BRANCH   8  11
HETATM   11  N4  UNL     1     -52.896 -64.387 -45.179  1.00  0.00    -0.310 N 
ATOM     12  H42 UNL     1     -53.699 -64.547 -44.571  1.00  0.00     0.170 HD
ATOM     13  H41 UNL     1     -52.866 -64.473 -46.195  1.00  0.00     0.170 HD
ENDBRANCH   8  11
ENDBRANCH   1   8
TORSDOF 3
ENDMDL
MODEL 3
REMARK VINA RESULT: -4.756292968      1.255      1.375
REMARK  3 active torsions:
REMARK  status: ('A' for Active; 'I' for Inactive)
REMARK    1  A    between atoms: N2_4  and  N3_6 
REMARK    2  A    between atoms: N3_6  and  S1_8 
REMARK    3  A    between atoms: S1_8  and  N4_9 
ROOT
HETATM    1  N3  UNL     1     -50.022 -64.220 -42.368  1.00  0.00    -0.209 N 
ATOM      2  H3  UNL     1     -50.382 -63.753 -41.535  1.00  0.00     0.201 HD
ENDROOT
BRANCH   1   3
HETATM    3  N2  UNL     1     -50.854 -64.580 -43.422  1.00  0.00    -0.281 N 
HETATM    4  C2  UNL     1     -51.232 -63.757 -44.329  1.00  0.00     0.104 C 
HETATM    5  C1  UNL     1     -50.745 -62.355 -44.232  1.00  0.00     0.086 C 
HETATM    6  N1  UNL     1     -52.078 -64.188 -45.374  1.00  0.00    -0.087 NA
ATOM      7  H2  UNL     1     -51.179 -65.545 -43.475  1.00  0.00     0.188 HD
ENDBRANCH   1   3
BRANCH   1   8
HETATM    8  S1  UNL     1     -48.354 -64.604 -42.541  1.00  0.00     0.330 S 
HETATM    9  O1  UNL     1     -48.030 -65.828 -41.720  1.00  0.00    -0.181 OA
HETATM   10  O2  UNL     1     -47.990 -64.914 -43.956  1.00  0.00    -0.181 OA
BRANCH   8  11
HETATM   11  N4  UNL     1     -47.462 -63.229 -42.030  1.00  0.00    -0.310 N 
ATOM     12  H42 UNL     1     -47.470 -62.831 -41.091  1.00  0.00     0.170 HD
ATOM     13  H41 UNL     1     -46.934 -62.896 -42.836  1.00  0.00     0.170 HD
ENDBRANCH   8  11
ENDBRANCH   1   8
TORSDOF 3
ENDMDL
MODEL 4
REMARK VINA RESULT: -4.587693192      0.756      1.811
REMARK  3 active torsions:
REMARK  status: ('A' for Active; 'I' for Inactive)
REMARK    1  A    between atoms: N2_4  and  N3_6 
REMARK    2  A    between atoms: N3_6  and  S1_8 
REMARK    3  A    between atoms: S1_8  and  N4_9 
ROOT
HETATM    1  N3  UNL     1     -49.766 -63.950 -42.342  1.00  0.00    -0.209 N 
ATOM      2  H3  UNL     1     -50.044 -63.258 -41.647  1.00  0.00     0.201 HD
ENDROOT
BRANCH   1   3
HETATM    3  N2  UNL     1     -50.656 -64.426 -43.297  1.00  0.00    -0.281 N 
HETATM    4  C2  UNL     1     -51.141 -63.693 -44.231  1.00  0.00     0.104 C 
HETATM    5  C1  UNL     1     -50.716 -62.268 -44.278  1.00  0.00     0.086 C 
HETATM    6  N1  UNL     1     -52.042 -64.240 -45.171  1.00  0.00    -0.087 NA
ATOM      7  H2  UNL     1     -50.937 -65.405 -43.253  1.00  0.00     0.188 HD
ENDBRANCH   1   3
BRANCH   1   8
HETATM    8  S1  UNL     1     -48.170 -64.589 -42.395  1.00  0.00     0.330 S 
HETATM    9  O1  UNL     1     -47.211 -63.605 -41.771  1.00  0.00    -0.181 OA
HETATM   10  O2  UNL     1     -48.047 -65.867 -41.632  1.00  0.00    -0.181 OA
BRANCH   8  11
HETATM   11  N4  UNL     1     -47.801 -64.893 -44.044  1.00  0.00    -0.310 N 
ATOM     12  H42 UNL     1     -46.866 -64.903 -44.452  1.00  0.00     0.170 HD
ATOM     13  H41 UNL     1     -48.685 -65.058 -44.525  1.00  0.00     0.170 HD
ENDBRANCH   8  11
ENDBRANCH   1   8
TORSDOF 3
ENDMDL
MODEL 5
REMARK VINA RESULT: -4.582452209      3.164      4.171
REMARK  3 active torsions:
REMARK  status: ('A' for Active; 'I' for Inactive)
REMARK    1  A    between atoms: N2_4  and  N3_6 
REMARK    2  A    between atoms: N3_6  and  S1_8 
REMARK    3  A    between atoms: S1_8  and  N4_9 
ROOT
HETATM    1  N3  UNL     1     -50.489 -64.154 -42.818  1.00  0.00    -0.209 N 
ATOM      2  H3  UNL     1     -51.028 -64.882 -42.348  1.00  0.00     0.201 HD
ENDROOT
BRANCH   1   3
HETATM    3  N2  UNL     1     -49.358 -63.593 -42.238  1.00  0.00    -0.281 N 
HETATM    4  C2  UNL     1     -48.186 -64.101 -42.351  1.00  0.00     0.104 C 
HETATM    5  C1  UNL     1     -48.052 -65.352 -43.145  1.00  0.00     0.086 C 
HETATM    6  N1  UNL     1     -47.077 -63.480 -41.737  1.00  0.00    -0.087 NA
ATOM      7  H2  UNL     1     -49.464 -62.735 -41.697  1.00  0.00     0.188 HD
ENDBRANCH   1   3
BRANCH   1   8
HETATM    8  S1  UNL     1     -50.933 -63.558 -44.369  1.00  0.00     0.330 S 
HETATM    9  O1  UNL     1     -51.084 -62.058 -44.308  1.00  0.00    -0.181 OA
HETATM   10  O2  UNL     1     -49.898 -63.855 -45.405  1.00  0.00    -0.181 OA
BRANCH   8  11
HETATM   11  N4  UNL     1     -52.397 -64.337 -44.812  1.00  0.00    -0.310 N 
ATOM     12  H42 UNL     1     -53.333 -64.048 -44.528  1.00  0.00     0.170 HD
ATOM     13  H41 UNL     1     -52.149 -65.131 -45.402  1.00  0.00     0.170 HD
ENDBRANCH   8  11
ENDBRANCH   1   8
TORSDOF 3
ENDMDL
