MODEL 1
REMARK VINA RESULT: -4.001267803      0.000      0.000
REMARK  3 active torsions:
REMARK  status: ('A' for Active; 'I' for Inactive)
REMARK    1  A    between atoms: N1_1  and  N2_4 
REMARK    2  A    between atoms: C1_6  and  C2_7 
REMARK       I    between atoms: C2_7  and  N3_9 
REMARK    3  A    between atoms: N3_9  and  N4_11 
REMARK       I    between atoms: N4_11  and  C3_13 
ROOT
HETATM    1  C2  UNL     1     -50.445 -63.731 -44.682  1.00  0.00     0.276 C 
HETATM    2  O1  UNL     1     -49.601 -64.244 -45.452  1.00  0.00    -0.265 OA
HETATM    3  N3  UNL     1     -50.111 -63.201 -43.450  1.00  0.00    -0.262 N 
ATOM      4  H3  UNL     1     -50.914 -62.825 -42.946  1.00  0.00     0.190 HD
ENDROOT
BRANCH   1   5
HETATM    5  C1  UNL     1     -51.861 -63.715 -45.164  1.00  0.00     0.182 C 
HETATM    6  N2  UNL     1     -52.697 -64.557 -44.739  1.00  0.00    -0.313 N 
ATOM      7  H2  UNL     1     -52.415 -65.260 -44.057  1.00  0.00     0.185 HD
BRANCH   6   8
HETATM    8  N1  UNL     1     -54.033 -64.520 -45.216  1.00  0.00    -0.345 N 
ATOM      9  H12 UNL     1     -54.799 -64.694 -44.565  1.00  0.00     0.176 HD
ATOM     10  H11 UNL     1     -54.212 -64.321 -46.200  1.00  0.00     0.176 HD
ENDBRANCH   6   8
ENDBRANCH   1   5
BRANCH   3  11
HETATM   11  N4  UNL     1     -48.955 -63.072 -42.771  1.00  0.00    -0.251 N 
HETATM   12  C3  UNL     1     -48.054 -64.088 -42.433  1.00  0.00     0.347 C 
HETATM   13  N5  UNL     1     -46.872 -63.680 -41.698  1.00  0.00    -0.038 NA
HETATM   14  O2  UNL     1     -48.106 -65.297 -42.667  1.00  0.00    -0.249 OA
ATOM     15  H4  UNL     1     -48.709 -62.129 -42.468  1.00  0.00     0.191 HD
ENDBRANCH   3  11
TORSDOF 3
ENDMDL
MODEL 2
REMARK VINA RESULT: -3.937501053      8.253      8.318
REMARK  3 active torsions:
REMARK  status: ('A' for Active; 'I' for Inactive)
REMARK    1  A    between atoms: N1_1  and  N2_4 
REMARK    2  A    between atoms: C1_6  and  C2_7 
REMARK       I    between atoms: C2_7  and  N3_9 
REMARK    3  A    between atoms: N3_9  and  N4_11 
REMARK       I    between atoms: N4_11  and  C3_13 
ROOT
HETATM    1  C2  UNL     1     -55.773 -63.426 -37.645  1.00  0.00     0.276 C 
HETATM    2  O1  UNL     1     -55.694 -62.239 -37.252  1.00  0.00    -0.265 OA
HETATM    3  N3  UNL     1     -54.744 -64.336 -37.493  1.00  0.00    -0.262 N 
ATOM      4  H3  UNL     1     -54.967 -65.257 -37.870  1.00  0.00     0.190 HD
ENDROOT
BRANCH   1   5
HETATM    5  C1  UNL     1     -57.058 -63.825 -38.297  1.00  0.00     0.182 C 
HETATM    6  N2  UNL     1     -57.680 -63.021 -39.043  1.00  0.00    -0.313 N 
ATOM      7  H2  UNL     1     -57.309 -62.086 -39.211  1.00  0.00     0.185 HD
BRANCH   6   8
HETATM    8  N1  UNL     1     -58.899 -63.425 -39.648  1.00  0.00    -0.345 N 
ATOM      9  H12 UNL     1     -59.441 -64.176 -39.222  1.00  0.00     0.176 HD
ATOM     10  H11 UNL     1     -59.217 -62.961 -40.499  1.00  0.00     0.176 HD
ENDBRANCH   6   8
ENDBRANCH   1   5
BRANCH   3  11
HETATM   11  N4  UNL     1     -53.509 -64.270 -36.957  1.00  0.00    -0.251 N 
HETATM   12  C3  UNL     1     -52.903 -65.207 -36.113  1.00  0.00     0.347 C 
HETATM   13  N5  UNL     1     -51.554 -64.899 -35.676  1.00  0.00    -0.038 NA
HETATM   14  O2  UNL     1     -53.340 -66.273 -35.676  1.00  0.00    -0.249 OA
ATOM     15  H4  UNL     1     -52.956 -63.446 -37.191  1.00  0.00     0.191 HD
ENDBRANCH   3  11
TORSDOF 3
ENDMDL
MODEL 3
REMARK VINA RESULT: -3.902705414      8.358      9.393
REMARK  3 active torsions:
REMARK  status: ('A' for Active; 'I' for Inactive)
REMARK    1  A    between atoms: N1_1  and  N2_4 
REMARK    2  A    between atoms: C1_6  and  C2_7 
REMARK       I    between atoms: C2_7  and  N3_9 
REMARK    3  A    between atoms: N3_9  and  N4_11 
REMARK       I    between atoms: N4_11  and  C3_13 
ROOT
HETATM    1  C2  UNL     1     -54.276 -63.967 -36.888  1.00  0.00     0.276 C 
HETATM    2  O1  UNL     1     -54.421 -63.685 -35.676  1.00  0.00    -0.265 OA
HETATM    3  N3  UNL     1     -55.237 -64.637 -37.622  1.00  0.00    -0.262 N 
ATOM      4  H3  UNL     1     -54.963 -64.791 -38.592  1.00  0.00     0.190 HD
ENDROOT
BRANCH   1   5
HETATM    5  C1  UNL     1     -52.991 -63.537 -37.521  1.00  0.00     0.182 C 
HETATM    6  N2  UNL     1     -52.983 -62.685 -38.450  1.00  0.00    -0.313 N 
ATOM      7  H2  UNL     1     -53.858 -62.277 -38.780  1.00  0.00     0.185 HD
BRANCH   6   8
HETATM    8  N1  UNL     1     -51.750 -62.296 -39.034  1.00  0.00    -0.345 N 
ATOM      9  H12 UNL     1     -51.690 -61.402 -39.522  1.00  0.00     0.176 HD
ATOM     10  H11 UNL     1     -50.940 -62.912 -38.960  1.00  0.00     0.176 HD
ENDBRANCH   6   8
ENDBRANCH   1   5
BRANCH   3  11
HETATM   11  N4  UNL     1     -56.457 -65.130 -37.334  1.00  0.00    -0.251 N 
HETATM   12  C3  UNL     1     -56.752 -66.332 -36.682  1.00  0.00     0.347 C 
HETATM   13  N5  UNL     1     -58.158 -66.631 -36.489  1.00  0.00    -0.038 NA
HETATM   14  O2  UNL     1     -55.991 -67.194 -36.236  1.00  0.00    -0.249 OA
ATOM     15  H4  UNL     1     -57.256 -64.564 -37.624  1.00  0.00     0.191 HD
ENDBRANCH   3  11
TORSDOF 3
ENDMDL
MODEL 4
REMARK VINA RESULT: -3.880885111      8.948      9.287
REMARK  3 active torsions:
REMARK  status: ('A' for Active; 'I' for Inactive)
REMARK    1  A    between atoms: N1_1  and  N2_4 
REMARK    2  A    between atoms: C1_6  and  C2_7 
REMARK       I    between atoms: C2_7  and  N3_9 
REMARK    3  A    between atoms: N3_9  and  N4_11 
REMARK       I    between atoms: N4_11  and  C3_13 
ROOT
HETATM    1  C2  UNL     1     -55.444 -66.216 -36.333  1.00  0.00     0.276 C 
HETATM    2  O1  UNL     1     -54.523 -66.756 -35.677  1.00  0.00    -0.265 OA
HETATM    3  N3  UNL     1     -55.223 -65.177 -37.217  1.00  0.00    -0.262 N 
ATOM      4  H3  UNL     1     -56.078 -64.848 -37.668  1.00  0.00     0.190 HD
ENDROOT
BRANCH   1   5
HETATM    5  C1  UNL     1     -56.821 -66.757 -36.114  1.00  0.00     0.182 C 
HETATM    6  N2  UNL     1     -57.822 -66.205 -36.643  1.00  0.00    -0.313 N 
ATOM      7  H2  UNL     1     -57.703 -65.379 -37.231  1.00  0.00     0.185 HD
BRANCH   6   8
HETATM    8  N1  UNL     1     -59.118 -66.738 -36.417  1.00  0.00    -0.345 N 
ATOM      9  H12 UNL     1     -59.710 -66.320 -35.700  1.00  0.00     0.176 HD
ATOM     10  H11 UNL     1     -59.441 -67.530 -36.973  1.00  0.00     0.176 HD
ENDBRANCH   6   8
ENDBRANCH   1   5
BRANCH   3  11
HETATM   11  N4  UNL     1     -54.126 -64.504 -37.614  1.00  0.00    -0.251 N 
HETATM   12  C3  UNL     1     -53.751 -63.207 -37.249  1.00  0.00     0.347 C 
HETATM   13  N5  UNL     1     -52.510 -62.713 -37.815  1.00  0.00    -0.038 NA
HETATM   14  O2  UNL     1     -54.318 -62.402 -36.506  1.00  0.00    -0.249 OA
ATOM     15  H4  UNL     1     -53.499 -64.994 -38.252  1.00  0.00     0.191 HD
ENDBRANCH   3  11
TORSDOF 3
ENDMDL
MODEL 5
REMARK VINA RESULT: -3.848624719      9.233      9.452
REMARK  3 active torsions:
REMARK  status: ('A' for Active; 'I' for Inactive)
REMARK    1  A    between atoms: N1_1  and  N2_4 
REMARK    2  A    between atoms: C1_6  and  C2_7 
REMARK       I    between atoms: C2_7  and  N3_9 
REMARK    3  A    between atoms: N3_9  and  N4_11 
REMARK       I    between atoms: N4_11  and  C3_13 
ROOT
HETATM    1  C2  UNL     1     -55.948 -62.567 -36.339  1.00  0.00     0.276 C 
HETATM    2  O1  UNL     1     -55.108 -61.898 -35.693  1.00  0.00    -0.265 OA
HETATM    3  N3  UNL     1     -55.863 -63.938 -36.483  1.00  0.00    -0.262 N 
ATOM      4  H3  UNL     1     -56.623 -64.329 -37.040  1.00  0.00     0.190 HD
ENDROOT
BRANCH   1   5
HETATM    5  C1  UNL     1     -57.073 -61.799 -36.957  1.00  0.00     0.182 C 
HETATM    6  N2  UNL     1     -57.027 -60.543 -37.042  1.00  0.00    -0.313 N 
ATOM      7  H2  UNL     1     -56.217 -60.034 -36.689  1.00  0.00     0.185 HD
BRANCH   6   8
HETATM    8  N1  UNL     1     -58.110 -59.839 -37.631  1.00  0.00    -0.345 N 
ATOM      9  H12 UNL     1     -58.094 -59.650 -38.633  1.00  0.00     0.176 HD
ATOM     10  H11 UNL     1     -58.888 -59.532 -37.048  1.00  0.00     0.176 HD
ENDBRANCH   6   8
ENDBRANCH   1   5
BRANCH   3  11
HETATM   11  N4  UNL     1     -54.994 -64.872 -36.049  1.00  0.00    -0.251 N 
HETATM   12  C3  UNL     1     -53.611 -64.903 -36.259  1.00  0.00     0.347 C 
HETATM   13  N5  UNL     1     -52.898 -66.024 -35.676  1.00  0.00    -0.038 NA
HETATM   14  O2  UNL     1     -52.889 -64.113 -36.871  1.00  0.00    -0.249 OA
ATOM     15  H4  UNL     1     -55.388 -65.642 -35.507  1.00  0.00     0.191 HD
ENDBRANCH   3  11
TORSDOF 3
ENDMDL
