MODEL 1
REMARK VINA RESULT: -7.156604393      0.000      0.000
REMARK  7 active torsions:
REMARK  status: ('A' for Active; 'I' for Inactive)
REMARK    1  A    between atoms: C2_2  and  O1_3 
REMARK    2  A    between atoms: O1_3  and  C3_4 
REMARK    3  A    between atoms: C3_4  and  C4_5 
REMARK    4  A    between atoms: C7_10  and  C8_11 
REMARK    5  A    between atoms: C11_18  and  N4_19 
REMARK    6  A    between atoms: N6_25  and  C13_27 
REMARK    7  A    between atoms: C13_27  and  C14_28 
ROOT
HETATM    1  C4  UNL     1     -16.943  13.644  23.410  1.00  0.00     0.009 A 
HETATM    2  C5  UNL     1     -16.041  14.657  23.057  1.00  0.00     0.099 A 
HETATM    3  N1  UNL     1     -14.715  14.491  23.113  1.00  0.00    -0.374 N 
ATOM      4  H1  UNL     1     -14.088  15.251  22.849  1.00  0.00     0.164 HD
HETATM    5  C6  UNL     1     -14.219  13.313  23.522  1.00  0.00     0.105 A 
HETATM    6  C7  UNL     1     -15.044  12.267  23.888  1.00  0.00     0.051 A 
HETATM    7  C12 UNL     1     -16.437  12.449  23.827  1.00  0.00     0.057 A 
HETATM    8  N6  UNL     1     -17.125  11.491  24.196  1.00  0.00    -0.360 N 
ATOM      9  H6  UNL     1     -16.567  10.682  24.469  1.00  0.00     0.165 HD
ENDROOT
BRANCH   6  10
HETATM   10  C8  UNL     1     -14.472  11.024  24.307  1.00  0.00     0.136 A 
HETATM   11  N2  UNL     1     -13.940  10.885  25.570  1.00  0.00    -0.331 N 
HETATM   12  C9  UNL     1     -13.385   9.753  26.002  1.00  0.00     0.095 A 
ATOM     13  H2  UNL     1     -13.973  11.684  26.202  1.00  0.00     0.168 HD
HETATM   14  C10 UNL     1     -12.810   9.600  27.367  1.00  0.00     0.089 C 
HETATM   15  N3  UNL     1     -13.332   8.702  25.194  1.00  0.00    -0.181 N 
HETATM   16  C11 UNL     1     -13.839   8.778  23.936  1.00  0.00     0.678 A 
ATOM     17  H3  UNL     1     -12.908   7.833  25.518  1.00  0.00     0.185 HD
HETATM   18  N5  UNL     1     -14.389   9.945  23.552  1.00  0.00    -0.176 N 
ATOM     19  H5  UNL     1     -14.770  10.000  22.607  1.00  0.00     0.186 HD
BRANCH  16  20
HETATM   20  N4  UNL     1     -13.757   7.725  23.201  1.00  0.00    -0.234 N 
ATOM     21  H42 UNL     1     -13.970   6.778  23.512  1.00  0.00     0.174 HD
ATOM     22  H41 UNL     1     -13.455   7.851  22.234  1.00  0.00     0.174 HD
ENDBRANCH  16  20
ENDBRANCH   6  10
BRANCH   1  23
HETATM   23  C3  UNL     1     -18.355  13.970  23.263  1.00  0.00     0.210 C 
BRANCH  23  24
HETATM   24  O1  UNL     1     -18.608  15.310  23.682  1.00  0.00    -0.387 OA
BRANCH  24  25
HETATM   25  C2  UNL     1     -18.781  15.333  25.066  1.00  0.00     0.163 C 
HETATM   26  C1  UNL     1     -17.926  16.408  25.712  1.00  0.00     0.033 C 
ENDBRANCH  24  25
ENDBRANCH  23  24
ENDBRANCH   1  23
BRANCH   8  27
HETATM   27  C13 UNL     1     -18.494  11.274  24.319  1.00  0.00     0.177 C 
BRANCH  27  28
HETATM   28  C14 UNL     1     -19.030  10.020  23.602  1.00  0.00     0.422 C 
HETATM   29  F1  UNL     1     -19.832  10.453  22.578  1.00  0.00    -0.166 F 
HETATM   30  F2  UNL     1     -17.922   9.392  23.019  1.00  0.00    -0.166 F 
HETATM   31  F3  UNL     1     -19.722   9.195  24.423  1.00  0.00    -0.166 F 
ENDBRANCH  27  28
ENDBRANCH   8  27
TORSDOF 7
ENDMDL
MODEL 2
REMARK VINA RESULT: -7.153005942      0.553      1.825
REMARK  7 active torsions:
REMARK  status: ('A' for Active; 'I' for Inactive)
REMARK    1  A    between atoms: C2_2  and  O1_3 
REMARK    2  A    between atoms: O1_3  and  C3_4 
REMARK    3  A    between atoms: C3_4  and  C4_5 
REMARK    4  A    between atoms: C7_10  and  C8_11 
REMARK    5  A    between atoms: C11_18  and  N4_19 
REMARK    6  A    between atoms: N6_25  and  C13_27 
REMARK    7  A    between atoms: C13_27  and  C14_28 
ROOT
HETATM    1  C4  UNL     1     -16.919  13.635  23.409  1.00  0.00     0.009 A 
HETATM    2  C5  UNL     1     -16.029  14.651  23.036  1.00  0.00     0.099 A 
HETATM    3  N1  UNL     1     -14.701  14.507  23.109  1.00  0.00    -0.374 N 
ATOM      4  H1  UNL     1     -14.084  15.270  22.829  1.00  0.00     0.164 HD
HETATM    5  C6  UNL     1     -14.191  13.350  23.556  1.00  0.00     0.105 A 
HETATM    6  C7  UNL     1     -15.003  12.301  23.944  1.00  0.00     0.051 A 
HETATM    7  C12 UNL     1     -16.398  12.460  23.865  1.00  0.00     0.057 A 
HETATM    8  N6  UNL     1     -17.075  11.502  24.254  1.00  0.00    -0.360 N 
ATOM      9  H6  UNL     1     -16.507  10.710  24.555  1.00  0.00     0.165 HD
ENDROOT
BRANCH   6  10
HETATM   10  C8  UNL     1     -14.416  11.080  24.402  1.00  0.00     0.136 A 
HETATM   11  N2  UNL     1     -14.269  10.007  23.552  1.00  0.00    -0.331 N 
HETATM   12  C9  UNL     1     -13.740   8.845  23.934  1.00  0.00     0.095 A 
ATOM     13  H2  UNL     1     -14.580  10.106  22.585  1.00  0.00     0.168 HD
HETATM   14  C10 UNL     1     -13.580   7.684  23.017  1.00  0.00     0.089 C 
HETATM   15  N3  UNL     1     -13.331   8.696  25.188  1.00  0.00    -0.181 N 
HETATM   16  C11 UNL     1     -13.450   9.719  26.074  1.00  0.00     0.678 A 
ATOM     17  H3  UNL     1     -12.926   7.810  25.488  1.00  0.00     0.185 HD
HETATM   18  N5  UNL     1     -13.990  10.870  25.633  1.00  0.00    -0.176 N 
ATOM     19  H5  UNL     1     -14.078  11.637  26.301  1.00  0.00     0.186 HD
BRANCH  16  20
HETATM   20  N4  UNL     1     -13.035   9.512  27.275  1.00  0.00    -0.234 N 
ATOM     21  H42 UNL     1     -13.563   9.028  28.000  1.00  0.00     0.174 HD
ATOM     22  H41 UNL     1     -12.107   9.859  27.516  1.00  0.00     0.174 HD
ENDBRANCH  16  20
ENDBRANCH   6  10
BRANCH   1  23
HETATM   23  C3  UNL     1     -18.334  13.933  23.240  1.00  0.00     0.210 C 
BRANCH  23  24
HETATM   24  O1  UNL     1     -18.622  15.264  23.670  1.00  0.00    -0.387 OA
BRANCH  24  25
HETATM   25  C2  UNL     1     -18.797  15.272  25.054  1.00  0.00     0.163 C 
HETATM   26  C1  UNL     1     -17.966  16.360  25.708  1.00  0.00     0.033 C 
ENDBRANCH  24  25
ENDBRANCH  23  24
ENDBRANCH   1  23
BRANCH   8  27
HETATM   27  C13 UNL     1     -18.441  11.267  24.372  1.00  0.00     0.177 C 
BRANCH  27  28
HETATM   28  C14 UNL     1     -18.977  10.074  23.556  1.00  0.00     0.422 C 
HETATM   29  F1  UNL     1     -19.705   9.293  24.416  1.00  0.00    -0.166 F 
HETATM   30  F2  UNL     1     -19.875  10.602  22.621  1.00  0.00    -0.166 F 
HETATM   31  F3  UNL     1     -17.994   9.344  22.978  1.00  0.00    -0.166 F 
ENDBRANCH  27  28
ENDBRANCH   8  27
TORSDOF 7
ENDMDL
MODEL 3
REMARK VINA RESULT: -7.033071338      2.608      5.659
REMARK  7 active torsions:
REMARK  status: ('A' for Active; 'I' for Inactive)
REMARK    1  A    between atoms: C2_2  and  O1_3 
REMARK    2  A    between atoms: O1_3  and  C3_4 
REMARK    3  A    between atoms: C3_4  and  C4_5 
REMARK    4  A    between atoms: C7_10  and  C8_11 
REMARK    5  A    between atoms: C11_18  and  N4_19 
REMARK    6  A    between atoms: N6_25  and  C13_27 
REMARK    7  A    between atoms: C13_27  and  C14_28 
ROOT
HETATM    1  C4  UNL     1     -14.437  10.324  24.122  1.00  0.00     0.009 A 
HETATM    2  C5  UNL     1     -13.090  10.712  24.092  1.00  0.00     0.099 A 
HETATM    3  N1  UNL     1     -12.713  11.994  24.046  1.00  0.00    -0.374 N 
ATOM      4  H1  UNL     1     -11.723  12.239  24.024  1.00  0.00     0.164 HD
HETATM    5  C6  UNL     1     -13.650  12.954  24.028  1.00  0.00     0.105 A 
HETATM    6  C7  UNL     1     -14.998  12.650  24.055  1.00  0.00     0.051 A 
HETATM    7  C12 UNL     1     -15.388  11.300  24.103  1.00  0.00     0.057 A 
HETATM    8  N6  UNL     1     -16.605  11.087  24.093  1.00  0.00    -0.360 N 
ATOM      9  H6  UNL     1     -17.159  11.944  24.080  1.00  0.00     0.165 HD
ENDROOT
BRANCH   6  10
HETATM   10  C8  UNL     1     -15.964  13.706  24.047  1.00  0.00     0.136 A 
HETATM   11  N2  UNL     1     -16.076  14.564  25.118  1.00  0.00    -0.331 N 
HETATM   12  C9  UNL     1     -16.968  15.554  25.164  1.00  0.00     0.095 A 
ATOM     13  H2  UNL     1     -15.450  14.436  25.912  1.00  0.00     0.168 HD
HETATM   14  C10 UNL     1     -17.092  16.483  26.320  1.00  0.00     0.089 C 
HETATM   15  N3  UNL     1     -17.793  15.736  24.140  1.00  0.00    -0.181 N 
HETATM   16  C11 UNL     1     -17.730  14.921  23.055  1.00  0.00     0.678 A 
ATOM     17  H3  UNL     1     -18.478  16.491  24.169  1.00  0.00     0.185 HD
HETATM   18  N5  UNL     1     -16.811  13.939  23.063  1.00  0.00    -0.176 N 
ATOM     19  H5  UNL     1     -16.765  13.328  22.246  1.00  0.00     0.186 HD
BRANCH  16  20
HETATM   20  N4  UNL     1     -18.558  15.150  22.097  1.00  0.00    -0.234 N 
ATOM     21  H42 UNL     1     -19.507  15.501  22.216  1.00  0.00     0.174 HD
ATOM     22  H41 UNL     1     -18.236  14.963  21.146  1.00  0.00     0.174 HD
ENDBRANCH  16  20
ENDBRANCH   6  10
BRANCH   1  23
HETATM   23  C3  UNL     1     -14.684   8.891  24.204  1.00  0.00     0.210 C 
BRANCH  23  24
HETATM   24  O1  UNL     1     -13.460   8.163  24.114  1.00  0.00    -0.387 OA
BRANCH  24  25
HETATM   25  C2  UNL     1     -13.603   7.138  23.179  1.00  0.00     0.163 C 
HETATM   26  C1  UNL     1     -13.538   7.673  21.760  1.00  0.00     0.033 C 
ENDBRANCH  24  25
ENDBRANCH  23  24
ENDBRANCH   1  23
BRANCH   8  27
HETATM   27  C13 UNL     1     -17.386   9.935  24.095  1.00  0.00     0.177 C 
BRANCH  27  28
HETATM   28  C14 UNL     1     -18.806  10.101  23.520  1.00  0.00     0.422 C 
HETATM   29  F1  UNL     1     -19.685   9.915  24.556  1.00  0.00    -0.166 F 
HETATM   30  F2  UNL     1     -18.919  11.438  23.119  1.00  0.00    -0.166 F 
HETATM   31  F3  UNL     1     -19.075   9.233  22.516  1.00  0.00    -0.166 F 
ENDBRANCH  27  28
ENDBRANCH   8  27
TORSDOF 7
ENDMDL
MODEL 4
REMARK VINA RESULT: -6.881490759      3.139      5.575
REMARK  7 active torsions:
REMARK  status: ('A' for Active; 'I' for Inactive)
REMARK    1  A    between atoms: C2_2  and  O1_3 
REMARK    2  A    between atoms: O1_3  and  C3_4 
REMARK    3  A    between atoms: C3_4  and  C4_5 
REMARK    4  A    between atoms: C7_10  and  C8_11 
REMARK    5  A    between atoms: C11_18  and  N4_19 
REMARK    6  A    between atoms: N6_25  and  C13_27 
REMARK    7  A    between atoms: C13_27  and  C14_28 
ROOT
HETATM    1  C4  UNL     1     -16.871  11.955  26.275  1.00  0.00     0.009 A 
HETATM    2  C5  UNL     1     -15.979  11.154  27.001  1.00  0.00     0.099 A 
HETATM    3  N1  UNL     1     -14.769  11.583  27.375  1.00  0.00    -0.374 N 
ATOM      4  H1  UNL     1     -14.146  10.972  27.903  1.00  0.00     0.164 HD
HETATM    5  C6  UNL     1     -14.384  12.826  27.048  1.00  0.00     0.105 A 
HETATM    6  C7  UNL     1     -15.207  13.675  26.333  1.00  0.00     0.051 A 
HETATM    7  C12 UNL     1     -16.478  13.217  25.942  1.00  0.00     0.057 A 
HETATM    8  N6  UNL     1     -17.157  14.007  25.278  1.00  0.00    -0.360 N 
ATOM      9  H6  UNL     1     -16.696  14.905  25.133  1.00  0.00     0.165 HD
ENDROOT
BRANCH   6  10
HETATM   10  C8  UNL     1     -14.761  14.997  26.016  1.00  0.00     0.136 A 
HETATM   11  N2  UNL     1     -14.386  15.870  27.013  1.00  0.00    -0.331 N 
HETATM   12  C9  UNL     1     -13.975  17.114  26.770  1.00  0.00     0.095 A 
ATOM     13  H2  UNL     1     -14.424  15.550  27.980  1.00  0.00     0.168 HD
HETATM   14  C10 UNL     1     -13.569  18.061  27.846  1.00  0.00     0.089 C 
HETATM   15  N3  UNL     1     -13.919  17.550  25.518  1.00  0.00    -0.181 N 
HETATM   16  C11 UNL     1     -14.277  16.735  24.492  1.00  0.00     0.678 A 
ATOM     17  H3  UNL     1     -13.606  18.502  25.325  1.00  0.00     0.185 HD
HETATM   18  N5  UNL     1     -14.683  15.488  24.794  1.00  0.00    -0.176 N 
ATOM     19  H5  UNL     1     -14.950  14.878  24.022  1.00  0.00     0.186 HD
BRANCH  16  20
HETATM   20  N4  UNL     1     -14.201  17.217  23.301  1.00  0.00    -0.234 N 
ATOM     21  H42 UNL     1     -14.790  17.963  22.934  1.00  0.00     0.174 HD
ATOM     22  H41 UNL     1     -13.496  16.820  22.679  1.00  0.00     0.174 HD
ENDBRANCH  16  20
ENDBRANCH   6  10
BRANCH   1  23
HETATM   23  C3  UNL     1     -18.163  11.355  25.972  1.00  0.00     0.210 C 
BRANCH  23  24
HETATM   24  O1  UNL     1     -18.047  10.429  24.891  1.00  0.00    -0.387 OA
BRANCH  24  25
HETATM   25  C2  UNL     1     -19.317  10.145  24.391  1.00  0.00     0.163 C 
HETATM   26  C1  UNL     1     -19.249   9.670  22.951  1.00  0.00     0.033 C 
ENDBRANCH  24  25
ENDBRANCH  23  24
ENDBRANCH   1  23
BRANCH   8  27
HETATM   27  C13 UNL     1     -18.415  13.939  24.685  1.00  0.00     0.177 C 
BRANCH  27  28
HETATM   28  C14 UNL     1     -18.412  13.675  23.166  1.00  0.00     0.422 C 
HETATM   29  F1  UNL     1     -17.384  12.806  22.910  1.00  0.00    -0.166 F 
HETATM   30  F2  UNL     1     -19.604  12.998  22.878  1.00  0.00    -0.166 F 
HETATM   31  F3  UNL     1     -18.266  14.804  22.433  1.00  0.00    -0.166 F 
ENDBRANCH  27  28
ENDBRANCH   8  27
TORSDOF 7
ENDMDL
MODEL 5
REMARK VINA RESULT: -6.869859019      1.182      2.083
REMARK  7 active torsions:
REMARK  status: ('A' for Active; 'I' for Inactive)
REMARK    1  A    between atoms: C2_2  and  O1_3 
REMARK    2  A    between atoms: O1_3  and  C3_4 
REMARK    3  A    between atoms: C3_4  and  C4_5 
REMARK    4  A    between atoms: C7_10  and  C8_11 
REMARK    5  A    between atoms: C11_18  and  N4_19 
REMARK    6  A    between atoms: N6_25  and  C13_27 
REMARK    7  A    between atoms: C13_27  and  C14_28 
ROOT
HETATM    1  C4  UNL     1     -16.816  13.750  23.300  1.00  0.00     0.009 A 
HETATM    2  C5  UNL     1     -15.890  14.768  23.031  1.00  0.00     0.099 A 
HETATM    3  N1  UNL     1     -14.574  14.605  23.202  1.00  0.00    -0.374 N 
ATOM      4  H1  UNL     1     -13.929  15.369  22.996  1.00  0.00     0.164 HD
HETATM    5  C6  UNL     1     -14.111  13.427  23.646  1.00  0.00     0.105 A 
HETATM    6  C7  UNL     1     -14.961  12.376  23.934  1.00  0.00     0.051 A 
HETATM    7  C12 UNL     1     -16.344  12.554  23.753  1.00  0.00     0.057 A 
HETATM    8  N6  UNL     1     -17.058  11.592  24.057  1.00  0.00    -0.360 N 
ATOM      9  H6  UNL     1     -16.523  10.784  24.373  1.00  0.00     0.165 HD
ENDROOT
BRANCH   6  10
HETATM   10  C8  UNL     1     -14.423  11.133  24.394  1.00  0.00     0.136 A 
HETATM   11  N2  UNL     1     -14.272  10.070  23.532  1.00  0.00    -0.331 N 
HETATM   12  C9  UNL     1     -13.788   8.888  23.915  1.00  0.00     0.095 A 
ATOM     13  H2  UNL     1     -14.544  10.191  22.557  1.00  0.00     0.168 HD
HETATM   14  C10 UNL     1     -13.624   7.737  22.986  1.00  0.00     0.089 C 
HETATM   15  N3  UNL     1     -13.430   8.710  25.181  1.00  0.00    -0.181 N 
HETATM   16  C11 UNL     1     -13.555   9.721  26.078  1.00  0.00     0.678 A 
ATOM     17  H3  UNL     1     -13.059   7.808  25.481  1.00  0.00     0.185 HD
HETATM   18  N5  UNL     1     -14.049  10.893  25.637  1.00  0.00    -0.176 N 
ATOM     19  H5  UNL     1     -14.142  11.651  26.313  1.00  0.00     0.186 HD
BRANCH  16  20
HETATM   20  N4  UNL     1     -13.191   9.485  27.290  1.00  0.00    -0.234 N 
ATOM     21  H42 UNL     1     -12.392   9.914  27.754  1.00  0.00     0.174 HD
ATOM     22  H41 UNL     1     -13.747   8.816  27.823  1.00  0.00     0.174 HD
ENDBRANCH  16  20
ENDBRANCH   6  10
BRANCH   1  23
HETATM   23  C3  UNL     1     -18.211  14.072  23.033  1.00  0.00     0.210 C 
BRANCH  23  24
HETATM   24  O1  UNL     1     -18.520  15.387  23.493  1.00  0.00    -0.387 OA
BRANCH  24  25
HETATM   25  C2  UNL     1     -18.844  15.336  24.848  1.00  0.00     0.163 C 
HETATM   26  C1  UNL     1     -17.999  16.305  25.655  1.00  0.00     0.033 C 
ENDBRANCH  24  25
ENDBRANCH  23  24
ENDBRANCH   1  23
BRANCH   8  27
HETATM   27  C13 UNL     1     -18.432  11.371  24.060  1.00  0.00     0.177 C 
BRANCH  27  28
HETATM   28  C14 UNL     1     -19.079  11.277  25.456  1.00  0.00     0.422 C 
HETATM   29  F1  UNL     1     -19.847  12.401  25.620  1.00  0.00    -0.166 F 
HETATM   30  F2  UNL     1     -19.954  10.184  25.416  1.00  0.00    -0.166 F 
HETATM   31  F3  UNL     1     -18.172  11.180  26.455  1.00  0.00    -0.166 F 
ENDBRANCH  27  28
ENDBRANCH   8  27
TORSDOF 7
ENDMDL
