MODEL 1
REMARK VINA RESULT: -7.087213871      0.000      0.000
REMARK  9 active torsions:
REMARK  status: ('A' for Active; 'I' for Inactive)
REMARK    1  A    between atoms: O1_1  and  C1_3 
REMARK    2  A    between atoms: N1_5  and  C3_6 
REMARK    3  A    between atoms: C3_6  and  C4_7 
REMARK    4  A    between atoms: C4_7  and  C5_8 
REMARK    5  A    between atoms: C5_8  and  C6_9 
REMARK    6  A    between atoms: C7_14  and  C8_15 
REMARK    7  A    between atoms: C8_15  and  N2_16 
REMARK    8  A    between atoms: N2_16  and  C9_18 
REMARK    9  A    between atoms: C15_24  and  O3_25 
ROOT
HETATM    1  C1  UNL     1     -15.636  16.571  24.451  1.00  0.00     0.190 C 
HETATM    2  C2  UNL     1     -15.603  16.280  25.949  1.00  0.00     0.129 C 
HETATM    3  N1  UNL     1     -15.882  14.966  26.206  1.00  0.00    -0.245 N 
HETATM    4  O2  UNL     1     -16.999  14.406  25.681  1.00  0.00    -0.261 OA
HETATM    5  C7  UNL     1     -17.684  15.377  24.900  1.00  0.00     0.222 C 
HETATM    6  C15 UNL     1     -16.730  15.678  23.799  1.00  0.00     0.188 C 
ENDROOT
BRANCH   5   7
HETATM    7  C8  UNL     1     -19.070  15.030  24.595  1.00  0.00     0.093 C 
BRANCH   7   8
HETATM    8  N2  UNL     1     -19.808  14.074  25.286  1.00  0.00    -0.395 N 
ATOM      9  H2  UNL     1     -20.246  14.319  26.175  1.00  0.00     0.159 HD
BRANCH   8  10
HETATM   10  C9  UNL     1     -19.958  12.757  24.766  1.00  0.00     0.080 C 
HETATM   11  C10 UNL     1     -19.393  11.713  25.726  1.00  0.00     0.025 C 
HETATM   12  C11 UNL     1     -19.431  10.365  25.048  1.00  0.00     0.002 C 
HETATM   13  C12 UNL     1     -18.515  10.290  23.865  1.00  0.00     0.000 C 
HETATM   14  C13 UNL     1     -18.087  11.669  23.469  1.00  0.00     0.002 C 
HETATM   15  C14 UNL     1     -19.211  12.661  23.456  1.00  0.00     0.025 C 
ENDBRANCH   8  10
ENDBRANCH   7   8
ENDBRANCH   5   7
BRANCH   6  16
HETATM   16  O3  UNL     1     -16.067  14.454  23.473  1.00  0.00    -0.390 OA
ATOM     17  H3  UNL     1     -16.696  13.771  23.673  1.00  0.00     0.210 HD
ENDBRANCH   6  16
BRANCH   3  18
HETATM   18  C3  UNL     1     -15.081  14.171  26.999  1.00  0.00     0.122 C 
BRANCH  18  19
HETATM   19  C4  UNL     1     -15.054  12.746  27.183  1.00  0.00     0.024 C 
BRANCH  19  20
HETATM   20  C5  UNL     1     -15.507  11.612  26.430  1.00  0.00     0.090 C 
BRANCH  20  21
HETATM   21  C6  UNL     1     -15.615  10.215  26.812  1.00  0.00     0.408 C 
HETATM   22  F1  UNL     1     -16.031   9.282  25.939  1.00  0.00    -0.167 F 
HETATM   23  F2  UNL     1     -14.389   9.753  27.406  1.00  0.00    -0.167 F 
HETATM   24  F3  UNL     1     -16.504  10.091  27.930  1.00  0.00    -0.167 F 
ENDBRANCH  20  21
ENDBRANCH  19  20
ENDBRANCH  18  19
ENDBRANCH   3  18
BRANCH   1  25
HETATM   25  O1  UNL     1     -15.809  17.904  24.144  1.00  0.00    -0.388 OA
ATOM     26  H1  UNL     1     -16.598  18.086  23.648  1.00  0.00     0.210 HD
ENDBRANCH   1  25
TORSDOF 9
ENDMDL
MODEL 2
REMARK VINA RESULT: -7.028121080      2.758      5.363
REMARK  9 active torsions:
REMARK  status: ('A' for Active; 'I' for Inactive)
REMARK    1  A    between atoms: O1_1  and  C1_3 
REMARK    2  A    between atoms: N1_5  and  C3_6 
REMARK    3  A    between atoms: C3_6  and  C4_7 
REMARK    4  A    between atoms: C4_7  and  C5_8 
REMARK    5  A    between atoms: C5_8  and  C6_9 
REMARK    6  A    between atoms: C7_14  and  C8_15 
REMARK    7  A    between atoms: C8_15  and  N2_16 
REMARK    8  A    between atoms: N2_16  and  C9_18 
REMARK    9  A    between atoms: C15_24  and  O3_25 
ROOT
HETATM    1  C1  UNL     1     -18.187  14.446  22.931  1.00  0.00     0.190 C 
HETATM    2  C2  UNL     1     -16.928  13.733  23.415  1.00  0.00     0.129 C 
HETATM    3  N1  UNL     1     -17.044  13.354  24.725  1.00  0.00    -0.245 N 
HETATM    4  O2  UNL     1     -17.406  14.272  25.654  1.00  0.00    -0.261 OA
HETATM    5  C7  UNL     1     -17.621  15.523  25.014  1.00  0.00     0.222 C 
HETATM    6  C15 UNL     1     -18.778  15.263  24.116  1.00  0.00     0.188 C 
ENDROOT
BRANCH   5   7
HETATM    7  C8  UNL     1     -17.644  16.665  25.926  1.00  0.00     0.093 C 
BRANCH   7   8
HETATM    8  N2  UNL     1     -16.562  17.512  26.147  1.00  0.00    -0.395 N 
ATOM      9  H2  UNL     1     -16.703  18.523  26.145  1.00  0.00     0.159 HD
BRANCH   8  10
HETATM   10  C9  UNL     1     -15.260  16.982  26.376  1.00  0.00     0.080 C 
HETATM   11  C10 UNL     1     -15.156  16.348  27.761  1.00  0.00     0.025 C 
HETATM   12  C11 UNL     1     -13.717  15.959  28.003  1.00  0.00     0.002 C 
HETATM   13  C12 UNL     1     -12.806  17.145  28.088  1.00  0.00     0.000 C 
HETATM   14  C13 UNL     1     -13.505  18.358  27.556  1.00  0.00     0.002 C 
HETATM   15  C14 UNL     1     -14.253  18.104  26.283  1.00  0.00     0.025 C 
ENDBRANCH   8  10
ENDBRANCH   7   8
ENDBRANCH   5   7
BRANCH   6  16
HETATM   16  O3  UNL     1     -19.644  14.354  24.799  1.00  0.00    -0.390 OA
ATOM     17  H3  UNL     1     -19.184  13.523  24.795  1.00  0.00     0.210 HD
ENDBRANCH   6  16
BRANCH   3  18
HETATM   18  C3  UNL     1     -16.791  12.069  25.159  1.00  0.00     0.122 C 
BRANCH  18  19
HETATM   19  C4  UNL     1     -16.618  10.845  24.428  1.00  0.00     0.024 C 
BRANCH  19  20
HETATM   20  C5  UNL     1     -17.496   9.877  23.837  1.00  0.00     0.090 C 
BRANCH  20  21
HETATM   21  C6  UNL     1     -18.918   9.953  23.546  1.00  0.00     0.408 C 
HETATM   22  F1  UNL     1     -19.837   9.578  24.452  1.00  0.00    -0.167 F 
HETATM   23  F2  UNL     1     -19.270  11.264  23.071  1.00  0.00    -0.167 F 
HETATM   24  F3  UNL     1     -19.211   9.171  22.382  1.00  0.00    -0.167 F 
ENDBRANCH  20  21
ENDBRANCH  19  20
ENDBRANCH  18  19
ENDBRANCH   3  18
BRANCH   1  25
HETATM   25  O1  UNL     1     -17.991  15.229  21.812  1.00  0.00    -0.388 OA
ATOM     26  H1  UNL     1     -17.620  16.084  22.001  1.00  0.00     0.210 HD
ENDBRANCH   1  25
TORSDOF 9
ENDMDL
MODEL 3
REMARK VINA RESULT: -6.781309468      2.507      5.408
REMARK  9 active torsions:
REMARK  status: ('A' for Active; 'I' for Inactive)
REMARK    1  A    between atoms: O1_1  and  C1_3 
REMARK    2  A    between atoms: N1_5  and  C3_6 
REMARK    3  A    between atoms: C3_6  and  C4_7 
REMARK    4  A    between atoms: C4_7  and  C5_8 
REMARK    5  A    between atoms: C5_8  and  C6_9 
REMARK    6  A    between atoms: C7_14  and  C8_15 
REMARK    7  A    between atoms: C8_15  and  N2_16 
REMARK    8  A    between atoms: N2_16  and  C9_18 
REMARK    9  A    between atoms: C15_24  and  O3_25 
ROOT
HETATM    1  C1  UNL     1     -16.996  13.897  23.688  1.00  0.00     0.190 C 
HETATM    2  C2  UNL     1     -17.294  13.137  24.977  1.00  0.00     0.129 C 
HETATM    3  N1  UNL     1     -18.506  13.498  25.499  1.00  0.00    -0.245 N 
HETATM    4  O2  UNL     1     -18.781  14.810  25.697  1.00  0.00    -0.261 OA
HETATM    5  C7  UNL     1     -17.671  15.589  25.270  1.00  0.00     0.222 C 
HETATM    6  C15 UNL     1     -17.600  15.326  23.807  1.00  0.00     0.188 C 
ENDROOT
BRANCH   5   7
HETATM    7  C8  UNL     1     -17.677  16.964  25.767  1.00  0.00     0.093 C 
BRANCH   7   8
HETATM    8  N2  UNL     1     -16.530  17.703  26.039  1.00  0.00    -0.395 N 
ATOM      9  H2  UNL     1     -16.574  18.722  26.035  1.00  0.00     0.159 HD
BRANCH   8  10
HETATM   10  C9  UNL     1     -15.296  17.051  26.321  1.00  0.00     0.080 C 
HETATM   11  C10 UNL     1     -15.286  16.471  27.734  1.00  0.00     0.025 C 
HETATM   12  C11 UNL     1     -13.902  15.945  28.027  1.00  0.00     0.002 C 
HETATM   13  C12 UNL     1     -12.873  17.033  28.085  1.00  0.00     0.000 C 
HETATM   14  C13 UNL     1     -13.430  18.287  27.487  1.00  0.00     0.002 C 
HETATM   15  C14 UNL     1     -14.174  18.057  26.207  1.00  0.00     0.025 C 
ENDBRANCH   8  10
ENDBRANCH   7   8
ENDBRANCH   5   7
BRANCH   6  16
HETATM   16  O3  UNL     1     -18.944  15.202  23.338  1.00  0.00    -0.390 OA
ATOM     17  H3  UNL     1     -19.344  16.048  23.504  1.00  0.00     0.210 HD
ENDBRANCH   6  16
BRANCH   3  18
HETATM   18  C3  UNL     1     -19.472  12.581  25.855  1.00  0.00     0.122 C 
BRANCH  18  19
HETATM   19  C4  UNL     1     -19.480  11.146  25.787  1.00  0.00     0.024 C 
BRANCH  19  20
HETATM   20  C5  UNL     1     -19.530  10.176  24.732  1.00  0.00     0.090 C 
BRANCH  20  21
HETATM   21  C6  UNL     1     -18.992  10.227  23.383  1.00  0.00     0.408 C 
HETATM   22  F1  UNL     1     -19.307   9.294  22.469  1.00  0.00    -0.167 F 
HETATM   23  F2  UNL     1     -19.217  11.520  22.795  1.00  0.00    -0.167 F 
HETATM   24  F3  UNL     1     -17.560  10.216  23.438  1.00  0.00    -0.167 F 
ENDBRANCH  20  21
ENDBRANCH  19  20
ENDBRANCH  18  19
ENDBRANCH   3  18
BRANCH   1  25
HETATM   25  O1  UNL     1     -15.658  13.930  23.355  1.00  0.00    -0.388 OA
ATOM     26  H1  UNL     1     -15.322  14.804  23.191  1.00  0.00     0.210 HD
ENDBRANCH   1  25
TORSDOF 9
ENDMDL
MODEL 4
REMARK VINA RESULT: -6.740867829      1.370      1.824
REMARK  9 active torsions:
REMARK  status: ('A' for Active; 'I' for Inactive)
REMARK    1  A    between atoms: O1_1  and  C1_3 
REMARK    2  A    between atoms: N1_5  and  C3_6 
REMARK    3  A    between atoms: C3_6  and  C4_7 
REMARK    4  A    between atoms: C4_7  and  C5_8 
REMARK    5  A    between atoms: C5_8  and  C6_9 
REMARK    6  A    between atoms: C7_14  and  C8_15 
REMARK    7  A    between atoms: C8_15  and  N2_16 
REMARK    8  A    between atoms: N2_16  and  C9_18 
REMARK    9  A    between atoms: C15_24  and  O3_25 
ROOT
HETATM    1  C1  UNL     1     -15.537  17.319  24.514  1.00  0.00     0.190 C 
HETATM    2  C2  UNL     1     -15.712  17.497  26.020  1.00  0.00     0.129 C 
HETATM    3  N1  UNL     1     -15.848  16.291  26.651  1.00  0.00    -0.245 N 
HETATM    4  O2  UNL     1     -16.778  15.410  26.209  1.00  0.00    -0.261 OA
HETATM    5  C7  UNL     1     -17.451  15.966  25.086  1.00  0.00     0.222 C 
HETATM    6  C15 UNL     1     -16.379  16.091  24.062  1.00  0.00     0.188 C 
ENDROOT
BRANCH   5   7
HETATM    7  C8  UNL     1     -18.709  15.300  24.753  1.00  0.00     0.093 C 
BRANCH   7   8
HETATM    8  N2  UNL     1     -18.814  14.211  23.893  1.00  0.00    -0.395 N 
ATOM      9  H2  UNL     1     -19.089  14.360  22.921  1.00  0.00     0.159 HD
BRANCH   8  10
HETATM   10  C9  UNL     1     -18.542  12.892  24.355  1.00  0.00     0.080 C 
HETATM   11  C10 UNL     1     -17.373  12.268  23.595  1.00  0.00     0.025 C 
HETATM   12  C11 UNL     1     -17.246  10.823  24.013  1.00  0.00     0.002 C 
HETATM   13  C12 UNL     1     -18.422   9.996  23.593  1.00  0.00     0.000 C 
HETATM   14  C13 UNL     1     -19.553  10.893  23.195  1.00  0.00     0.002 C 
HETATM   15  C14 UNL     1     -19.768  12.036  24.139  1.00  0.00     0.025 C 
ENDBRANCH   8  10
ENDBRANCH   7   8
ENDBRANCH   5   7
BRANCH   6  16
HETATM   16  O3  UNL     1     -15.512  14.966  24.222  1.00  0.00    -0.390 OA
ATOM     17  H3  UNL     1     -15.972  14.381  24.813  1.00  0.00     0.210 HD
ENDBRANCH   6  16
BRANCH   3  18
HETATM   18  C3  UNL     1     -15.087  15.925  27.742  1.00  0.00     0.122 C 
BRANCH  18  19
HETATM   19  C4  UNL     1     -14.718  14.629  28.241  1.00  0.00     0.024 C 
BRANCH  19  20
HETATM   20  C5  UNL     1     -14.342  13.378  27.649  1.00  0.00     0.090 C 
BRANCH  20  21
HETATM   21  C6  UNL     1     -15.142  12.403  26.927  1.00  0.00     0.408 C 
HETATM   22  F1  UNL     1     -16.482  12.496  26.879  1.00  0.00    -0.167 F 
HETATM   23  F2  UNL     1     -14.658  12.245  25.582  1.00  0.00    -0.167 F 
HETATM   24  F3  UNL     1     -14.884  11.093  27.447  1.00  0.00    -0.167 F 
ENDBRANCH  20  21
ENDBRANCH  19  20
ENDBRANCH  18  19
ENDBRANCH   3  18
BRANCH   1  25
HETATM   25  O1  UNL     1     -15.836  18.447  23.779  1.00  0.00    -0.388 OA
ATOM     26  H1  UNL     1     -16.173  18.263  22.911  1.00  0.00     0.210 HD
ENDBRANCH   1  25
TORSDOF 9
ENDMDL
MODEL 5
REMARK VINA RESULT: -6.702140494      2.758      5.503
REMARK  9 active torsions:
REMARK  status: ('A' for Active; 'I' for Inactive)
REMARK    1  A    between atoms: O1_1  and  C1_3 
REMARK    2  A    between atoms: N1_5  and  C3_6 
REMARK    3  A    between atoms: C3_6  and  C4_7 
REMARK    4  A    between atoms: C4_7  and  C5_8 
REMARK    5  A    between atoms: C5_8  and  C6_9 
REMARK    6  A    between atoms: C7_14  and  C8_15 
REMARK    7  A    between atoms: C8_15  and  N2_16 
REMARK    8  A    between atoms: N2_16  and  C9_18 
REMARK    9  A    between atoms: C15_24  and  O3_25 
ROOT
HETATM    1  C1  UNL     1     -18.414  14.392  23.035  1.00  0.00     0.190 C 
HETATM    2  C2  UNL     1     -17.169  13.591  23.405  1.00  0.00     0.129 C 
HETATM    3  N1  UNL     1     -17.137  13.315  24.745  1.00  0.00    -0.245 N 
HETATM    4  O2  UNL     1     -17.284  14.324  25.637  1.00  0.00    -0.261 OA
HETATM    5  C7  UNL     1     -17.473  15.545  24.933  1.00  0.00     0.222 C 
HETATM    6  C15 UNL     1     -18.761  15.341  24.217  1.00  0.00     0.188 C 
ENDROOT
BRANCH   5   7
HETATM    7  C8  UNL     1     -17.268  16.742  25.746  1.00  0.00     0.093 C 
BRANCH   7   8
HETATM    8  N2  UNL     1     -16.190  17.610  25.603  1.00  0.00    -0.395 N 
ATOM      9  H2  UNL     1     -16.051  18.102  24.720  1.00  0.00     0.159 HD
BRANCH   8  10
HETATM   10  C9  UNL     1     -15.278  17.818  26.677  1.00  0.00     0.080 C 
HETATM   11  C10 UNL     1     -13.898  18.222  26.163  1.00  0.00     0.025 C 
HETATM   12  C11 UNL     1     -12.944  18.263  27.331  1.00  0.00     0.002 C 
HETATM   13  C12 UNL     1     -12.714  16.912  27.936  1.00  0.00     0.000 C 
HETATM   14  C13 UNL     1     -13.760  15.957  27.449  1.00  0.00     0.002 C 
HETATM   15  C14 UNL     1     -15.143  16.533  27.459  1.00  0.00     0.025 C 
ENDBRANCH   8  10
ENDBRANCH   7   8
ENDBRANCH   5   7
BRANCH   6  16
HETATM   16  O3  UNL     1     -19.602  14.570  25.079  1.00  0.00    -0.390 OA
ATOM     17  H3  UNL     1     -19.289  13.677  24.996  1.00  0.00     0.210 HD
ENDBRANCH   6  16
BRANCH   3  18
HETATM   18  C3  UNL     1     -16.942  12.043  25.244  1.00  0.00     0.122 C 
BRANCH  18  19
HETATM   19  C4  UNL     1     -16.750  10.787  24.573  1.00  0.00     0.024 C 
BRANCH  19  20
HETATM   20  C5  UNL     1     -17.591   9.882  23.844  1.00  0.00     0.090 C 
BRANCH  20  21
HETATM   21  C6  UNL     1     -18.974  10.019  23.422  1.00  0.00     0.408 C 
HETATM   22  F1  UNL     1     -19.506  11.223  23.151  1.00  0.00    -0.167 F 
HETATM   23  F2  UNL     1     -19.256   9.147  22.313  1.00  0.00    -0.167 F 
HETATM   24  F3  UNL     1     -19.837   9.453  24.418  1.00  0.00    -0.167 F 
ENDBRANCH  20  21
ENDBRANCH  19  20
ENDBRANCH  18  19
ENDBRANCH   3  18
BRANCH   1  25
HETATM   25  O1  UNL     1     -18.305  15.075  21.841  1.00  0.00    -0.388 OA
ATOM     26  H1  UNL     1     -18.866  14.739  21.152  1.00  0.00     0.210 HD
ENDBRANCH   1  25
TORSDOF 9
ENDMDL
