MODEL 1
REMARK VINA RESULT: -6.959649900      0.000      0.000
REMARK  7 active torsions:
REMARK  status: ('A' for Active; 'I' for Inactive)
REMARK    1  A    between atoms: N1_1  and  C1_4 
REMARK    2  A    between atoms: C5_11  and  N3_12 
REMARK    3  A    between atoms: N5_22  and  C12_23 
REMARK    4  A    between atoms: C12_23  and  O1_24 
REMARK    5  A    between atoms: O1_24  and  C13_25 
REMARK    6  A    between atoms: C13_25  and  C14_26 
REMARK    7  A    between atoms: C14_26  and  C15_27 
ROOT
HETATM    1  C1  UNL     1     -19.340  13.299  24.154  1.00  0.00     0.680 A 
HETATM    2  N2  UNL     1     -19.328  14.626  24.365  1.00  0.00    -0.190 N 
ATOM      3  H2  UNL     1     -20.064  15.261  24.059  1.00  0.00     0.184 HD
HETATM    4  C2  UNL     1     -18.223  15.014  25.032  1.00  0.00     0.079 A 
HETATM    5  C3  UNL     1     -17.731  16.219  25.488  1.00  0.00     0.077 A 
HETATM    6  C4  UNL     1     -16.528  16.262  26.156  1.00  0.00     0.145 A 
HETATM    7  F1  UNL     1     -16.097  17.478  26.580  1.00  0.00    -0.204 F 
HETATM    8  C5  UNL     1     -15.819  15.098  26.367  1.00  0.00     0.071 A 
HETATM    9  C10 UNL     1     -16.310  13.893  25.911  1.00  0.00     0.065 A 
HETATM   10  C11 UNL     1     -17.515  13.823  25.238  1.00  0.00     0.083 A 
HETATM   11  N5  UNL     1     -18.215  12.811  24.697  1.00  0.00    -0.160 N 
ENDROOT
BRANCH   8  12
HETATM   12  N3  UNL     1     -14.582  15.204  27.063  1.00  0.00    -0.375 N 
HETATM   13  C6  UNL     1     -14.418  14.646  28.391  1.00  0.00     0.150 C 
HETATM   14  C7  UNL     1     -12.983  14.186  28.508  1.00  0.00     0.252 C 
HETATM   15  N4  UNL     1     -12.060  15.290  28.432  1.00  0.00    -0.072 N 
HETATM   16  C8  UNL     1     -12.523  16.362  27.594  1.00  0.00     0.252 C 
ATOM     17  H42 UNL     1     -11.828  15.633  29.364  1.00  0.00     0.277 HD
ATOM     18  H41 UNL     1     -11.138  14.971  28.135  1.00  0.00     0.277 HD
HETATM   19  C9  UNL     1     -13.437  15.869  26.477  1.00  0.00     0.150 C 
ENDBRANCH   8  12
BRANCH  11  20
HETATM   20  C12 UNL     1     -17.818  11.401  24.698  1.00  0.00     0.317 C 
BRANCH  20  21
HETATM   21  O1  UNL     1     -16.803  11.242  23.762  1.00  0.00    -0.371 OA
BRANCH  21  22
HETATM   22  C13 UNL     1     -15.685  10.597  24.238  1.00  0.00     0.172 C 
BRANCH  22  23
HETATM   23  C14 UNL     1     -15.999   9.623  25.351  1.00  0.00     0.057 C 
BRANCH  23  24
HETATM   24  C15 UNL     1     -15.174   9.957  26.583  1.00  0.00     0.224 C 
HETATM   25  F2  UNL     1     -15.997   9.936  27.675  1.00  0.00    -0.255 F 
ENDBRANCH  23  24
ENDBRANCH  22  23
ENDBRANCH  21  22
ENDBRANCH  20  21
ENDBRANCH  11  20
BRANCH   1  26
HETATM   26  N1  UNL     1     -20.281  12.641  23.537  1.00  0.00    -0.234 N 
ATOM     27  H12 UNL     1     -21.209  12.973  23.275  1.00  0.00     0.174 HD
ATOM     28  H11 UNL     1     -20.216  11.673  23.219  1.00  0.00     0.174 HD
ENDBRANCH   1  26
TORSDOF 7
ENDMDL
MODEL 2
REMARK VINA RESULT: -6.921544466      1.452      1.871
REMARK  7 active torsions:
REMARK  status: ('A' for Active; 'I' for Inactive)
REMARK    1  A    between atoms: N1_1  and  C1_4 
REMARK    2  A    between atoms: C5_11  and  N3_12 
REMARK    3  A    between atoms: N5_22  and  C12_23 
REMARK    4  A    between atoms: C12_23  and  O1_24 
REMARK    5  A    between atoms: O1_24  and  C13_25 
REMARK    6  A    between atoms: C13_25  and  C14_26 
REMARK    7  A    between atoms: C14_26  and  C15_27 
ROOT
HETATM    1  C1  UNL     1     -18.965  12.653  23.685  1.00  0.00     0.680 A 
HETATM    2  N2  UNL     1     -19.533  13.816  24.047  1.00  0.00    -0.190 N 
ATOM      3  H2  UNL     1     -20.503  14.063  23.854  1.00  0.00     0.184 HD
HETATM    4  C2  UNL     1     -18.663  14.615  24.696  1.00  0.00     0.079 A 
HETATM    5  C3  UNL     1     -18.727  15.871  25.261  1.00  0.00     0.077 A 
HETATM    6  C4  UNL     1     -17.614  16.410  25.867  1.00  0.00     0.145 A 
HETATM    7  F1  UNL     1     -17.740  17.650  26.404  1.00  0.00    -0.204 F 
HETATM    8  C5  UNL     1     -16.439  15.691  25.905  1.00  0.00     0.071 A 
HETATM    9  C10 UNL     1     -16.374  14.434  25.340  1.00  0.00     0.065 A 
HETATM   10  C11 UNL     1     -17.477  13.871  24.727  1.00  0.00     0.083 A 
HETATM   11  N5  UNL     1     -17.693  12.696  24.110  1.00  0.00    -0.160 N 
ENDROOT
BRANCH   8  12
HETATM   12  N3  UNL     1     -15.321  16.298  26.543  1.00  0.00    -0.375 N 
HETATM   13  C6  UNL     1     -14.438  17.192  25.820  1.00  0.00     0.150 C 
HETATM   14  C7  UNL     1     -13.946  18.226  26.806  1.00  0.00     0.252 C 
HETATM   15  N4  UNL     1     -13.138  17.635  27.843  1.00  0.00    -0.072 N 
HETATM   16  C8  UNL     1     -13.530  16.293  28.174  1.00  0.00     0.252 C 
ATOM     17  H42 UNL     1     -12.149  17.673  27.597  1.00  0.00     0.277 HD
ATOM     18  H41 UNL     1     -13.127  18.225  28.674  1.00  0.00     0.277 HD
HETATM   19  C9  UNL     1     -15.018  16.051  27.938  1.00  0.00     0.150 C 
ENDBRANCH   8  12
BRANCH  11  20
HETATM   20  C12 UNL     1     -16.704  11.631  23.929  1.00  0.00     0.317 C 
BRANCH  20  21
HETATM   21  O1  UNL     1     -17.107  10.539  24.688  1.00  0.00    -0.371 OA
BRANCH  21  22
HETATM   22  C13 UNL     1     -16.163  10.087  25.580  1.00  0.00     0.172 C 
BRANCH  22  23
HETATM   23  C14 UNL     1     -16.159  10.867  26.876  1.00  0.00     0.057 C 
BRANCH  23  24
HETATM   24  C15 UNL     1     -14.787  11.479  27.110  1.00  0.00     0.224 C 
HETATM   25  F2  UNL     1     -14.950  12.673  27.756  1.00  0.00    -0.255 F 
ENDBRANCH  23  24
ENDBRANCH  22  23
ENDBRANCH  21  22
ENDBRANCH  20  21
ENDBRANCH  11  20
BRANCH   1  26
HETATM   26  N1  UNL     1     -19.562  11.687  23.046  1.00  0.00    -0.234 N 
ATOM     27  H12 UNL     1     -20.416  11.738  22.491  1.00  0.00     0.174 HD
ATOM     28  H11 UNL     1     -19.247  10.717  23.011  1.00  0.00     0.174 HD
ENDBRANCH   1  26
TORSDOF 7
ENDMDL
MODEL 3
REMARK VINA RESULT: -6.889678573      1.438      1.568
REMARK  7 active torsions:
REMARK  status: ('A' for Active; 'I' for Inactive)
REMARK    1  A    between atoms: N1_1  and  C1_4 
REMARK    2  A    between atoms: C5_11  and  N3_12 
REMARK    3  A    between atoms: N5_22  and  C12_23 
REMARK    4  A    between atoms: C12_23  and  O1_24 
REMARK    5  A    between atoms: O1_24  and  C13_25 
REMARK    6  A    between atoms: C13_25  and  C14_26 
REMARK    7  A    between atoms: C14_26  and  C15_27 
ROOT
HETATM    1  C1  UNL     1     -18.948  12.655  23.692  1.00  0.00     0.680 A 
HETATM    2  N2  UNL     1     -19.525  13.816  24.047  1.00  0.00    -0.190 N 
ATOM      3  H2  UNL     1     -20.495  14.057  23.848  1.00  0.00     0.184 HD
HETATM    4  C2  UNL     1     -18.664  14.622  24.698  1.00  0.00     0.079 A 
HETATM    5  C3  UNL     1     -18.738  15.880  25.259  1.00  0.00     0.077 A 
HETATM    6  C4  UNL     1     -17.632  16.427  25.870  1.00  0.00     0.145 A 
HETATM    7  F1  UNL     1     -17.769  17.668  26.403  1.00  0.00    -0.204 F 
HETATM    8  C5  UNL     1     -16.453  15.714  25.918  1.00  0.00     0.071 A 
HETATM    9  C10 UNL     1     -16.377  14.456  25.357  1.00  0.00     0.065 A 
HETATM   10  C11 UNL     1     -17.473  13.885  24.739  1.00  0.00     0.083 A 
HETATM   11  N5  UNL     1     -17.679  12.707  24.124  1.00  0.00    -0.160 N 
ENDROOT
BRANCH   8  12
HETATM   12  N3  UNL     1     -15.343  16.330  26.560  1.00  0.00    -0.375 N 
HETATM   13  C6  UNL     1     -15.017  16.035  27.942  1.00  0.00     0.150 C 
HETATM   14  C7  UNL     1     -13.513  16.123  28.074  1.00  0.00     0.252 C 
HETATM   15  N4  UNL     1     -13.034  17.461  27.838  1.00  0.00    -0.072 N 
HETATM   16  C8  UNL     1     -13.828  18.191  26.889  1.00  0.00     0.252 C 
ATOM     17  H42 UNL     1     -12.952  17.976  28.715  1.00  0.00     0.277 HD
ATOM     18  H41 UNL     1     -12.053  17.450  27.557  1.00  0.00     0.277 HD
HETATM   19  C9  UNL     1     -14.493  17.276  25.866  1.00  0.00     0.150 C 
ENDBRANCH   8  12
BRANCH  11  20
HETATM   20  C12 UNL     1     -16.682  11.648  23.952  1.00  0.00     0.317 C 
BRANCH  20  21
HETATM   21  O1  UNL     1     -17.084  10.555  24.711  1.00  0.00    -0.371 OA
BRANCH  21  22
HETATM   22  C13 UNL     1     -16.135  10.093  25.592  1.00  0.00     0.172 C 
BRANCH  22  23
HETATM   23  C14 UNL     1     -16.113  10.867  26.891  1.00  0.00     0.057 C 
BRANCH  23  24
HETATM   24  C15 UNL     1     -14.740  11.482  27.108  1.00  0.00     0.224 C 
HETATM   25  F2  UNL     1     -14.896  12.671  27.766  1.00  0.00    -0.255 F 
ENDBRANCH  23  24
ENDBRANCH  22  23
ENDBRANCH  21  22
ENDBRANCH  20  21
ENDBRANCH  11  20
BRANCH   1  26
HETATM   26  N1  UNL     1     -19.536  11.683  23.053  1.00  0.00    -0.234 N 
ATOM     27  H12 UNL     1     -19.914  10.819  23.440  1.00  0.00     0.174 HD
ATOM     28  H11 UNL     1     -19.704  11.653  22.047  1.00  0.00     0.174 HD
ENDBRANCH   1  26
TORSDOF 7
ENDMDL
MODEL 4
REMARK VINA RESULT: -6.885398843      1.644      2.092
REMARK  7 active torsions:
REMARK  status: ('A' for Active; 'I' for Inactive)
REMARK    1  A    between atoms: N1_1  and  C1_4 
REMARK    2  A    between atoms: C5_11  and  N3_12 
REMARK    3  A    between atoms: N5_22  and  C12_23 
REMARK    4  A    between atoms: C12_23  and  O1_24 
REMARK    5  A    between atoms: O1_24  and  C13_25 
REMARK    6  A    between atoms: C13_25  and  C14_26 
REMARK    7  A    between atoms: C14_26  and  C15_27 
ROOT
HETATM    1  C1  UNL     1     -18.941  13.404  23.650  1.00  0.00     0.680 A 
HETATM    2  N2  UNL     1     -19.427  14.561  24.131  1.00  0.00    -0.190 N 
ATOM      3  H2  UNL     1     -20.396  14.860  24.031  1.00  0.00     0.184 HD
HETATM    4  C2  UNL     1     -18.476  15.277  24.762  1.00  0.00     0.079 A 
HETATM    5  C3  UNL     1     -18.440  16.493  25.412  1.00  0.00     0.077 A 
HETATM    6  C4  UNL     1     -17.262  16.943  25.965  1.00  0.00     0.145 A 
HETATM    7  F1  UNL     1     -17.291  18.147  26.592  1.00  0.00    -0.204 F 
HETATM    8  C5  UNL     1     -16.121  16.176  25.864  1.00  0.00     0.071 A 
HETATM    9  C10 UNL     1     -16.155  14.960  25.214  1.00  0.00     0.065 A 
HETATM   10  C11 UNL     1     -17.326  14.485  24.652  1.00  0.00     0.083 A 
HETATM   11  N5  UNL     1     -17.640  13.366  23.977  1.00  0.00    -0.160 N 
ENDROOT
BRANCH   8  12
HETATM   12  N3  UNL     1     -14.933  16.692  26.453  1.00  0.00    -0.375 N 
HETATM   13  C6  UNL     1     -14.101  17.649  25.750  1.00  0.00     0.150 C 
HETATM   14  C7  UNL     1     -13.491  18.559  26.791  1.00  0.00     0.252 C 
HETATM   15  N4  UNL     1     -12.602  17.844  27.671  1.00  0.00    -0.072 N 
HETATM   16  C8  UNL     1     -12.994  16.478  27.889  1.00  0.00     0.252 C 
ATOM     17  H42 UNL     1     -11.640  17.896  27.335  1.00  0.00     0.277 HD
ATOM     18  H41 UNL     1     -12.497  18.336  28.558  1.00  0.00     0.277 HD
HETATM   19  C9  UNL     1     -14.503  16.285  27.775  1.00  0.00     0.150 C 
ENDBRANCH   8  12
BRANCH  11  20
HETATM   20  C12 UNL     1     -16.716  12.278  23.649  1.00  0.00     0.317 C 
BRANCH  20  21
HETATM   21  O1  UNL     1     -17.206  11.113  24.227  1.00  0.00    -0.371 OA
BRANCH  21  22
HETATM   22  C13 UNL     1     -16.480  10.662  25.304  1.00  0.00     0.172 C 
BRANCH  22  23
HETATM   23  C14 UNL     1     -16.928  11.275  26.612  1.00  0.00     0.057 C 
BRANCH  23  24
HETATM   24  C15 UNL     1     -18.445  11.241  26.710  1.00  0.00     0.224 C 
HETATM   25  F2  UNL     1     -18.903  12.526  26.798  1.00  0.00    -0.255 F 
ENDBRANCH  23  24
ENDBRANCH  22  23
ENDBRANCH  21  22
ENDBRANCH  20  21
ENDBRANCH  11  20
BRANCH   1  26
HETATM   26  N1  UNL     1     -19.627  12.509  22.996  1.00  0.00    -0.234 N 
ATOM     27  H12 UNL     1     -19.904  11.580  23.312  1.00  0.00     0.174 HD
ATOM     28  H11 UNL     1     -19.995  12.620  22.051  1.00  0.00     0.174 HD
ENDBRANCH   1  26
TORSDOF 7
ENDMDL
MODEL 5
REMARK VINA RESULT: -6.826604542      1.851      2.236
REMARK  7 active torsions:
REMARK  status: ('A' for Active; 'I' for Inactive)
REMARK    1  A    between atoms: N1_1  and  C1_4 
REMARK    2  A    between atoms: C5_11  and  N3_12 
REMARK    3  A    between atoms: N5_22  and  C12_23 
REMARK    4  A    between atoms: C12_23  and  O1_24 
REMARK    5  A    between atoms: O1_24  and  C13_25 
REMARK    6  A    between atoms: C13_25  and  C14_26 
REMARK    7  A    between atoms: C14_26  and  C15_27 
ROOT
HETATM    1  C1  UNL     1     -18.942  12.743  23.723  1.00  0.00     0.680 A 
HETATM    2  N2  UNL     1     -19.509  13.906  24.086  1.00  0.00    -0.190 N 
ATOM      3  H2  UNL     1     -20.479  14.154  23.896  1.00  0.00     0.184 HD
HETATM    4  C2  UNL     1     -18.637  14.705  24.732  1.00  0.00     0.079 A 
HETATM    5  C3  UNL     1     -18.699  15.962  25.297  1.00  0.00     0.077 A 
HETATM    6  C4  UNL     1     -17.584  16.501  25.900  1.00  0.00     0.145 A 
HETATM    7  F1  UNL     1     -17.709  17.741  26.437  1.00  0.00    -0.204 F 
HETATM    8  C5  UNL     1     -16.409  15.781  25.936  1.00  0.00     0.071 A 
HETATM    9  C10 UNL     1     -16.346  14.524  25.371  1.00  0.00     0.065 A 
HETATM   10  C11 UNL     1     -17.451  13.961  24.760  1.00  0.00     0.083 A 
HETATM   11  N5  UNL     1     -17.669  12.786  24.144  1.00  0.00    -0.160 N 
ENDROOT
BRANCH   8  12
HETATM   12  N3  UNL     1     -15.290  16.388  26.570  1.00  0.00    -0.375 N 
HETATM   13  C6  UNL     1     -14.418  17.295  25.849  1.00  0.00     0.150 C 
HETATM   14  C7  UNL     1     -13.924  18.322  26.842  1.00  0.00     0.252 C 
HETATM   15  N4  UNL     1     -13.104  17.725  27.865  1.00  0.00    -0.072 N 
HETATM   16  C8  UNL     1     -13.485  16.377  28.185  1.00  0.00     0.252 C 
ATOM     17  H42 UNL     1     -12.117  17.771  27.611  1.00  0.00     0.277 HD
ATOM     18  H41 UNL     1     -13.089  18.306  28.703  1.00  0.00     0.277 HD
HETATM   19  C9  UNL     1     -14.973  16.129  27.960  1.00  0.00     0.150 C 
ENDBRANCH   8  12
BRANCH  11  20
HETATM   20  C12 UNL     1     -16.680  11.721  23.961  1.00  0.00     0.317 C 
BRANCH  20  21
HETATM   21  O1  UNL     1     -17.147  10.587  24.615  1.00  0.00    -0.371 OA
BRANCH  21  22
HETATM   22  C13 UNL     1     -16.210   9.592  24.768  1.00  0.00     0.172 C 
BRANCH  22  23
HETATM   23  C14 UNL     1     -14.985   9.801  23.906  1.00  0.00     0.057 C 
BRANCH  23  24
HETATM   24  C15 UNL     1     -14.325   8.465  23.607  1.00  0.00     0.224 C 
HETATM   25  F2  UNL     1     -14.308   8.283  22.252  1.00  0.00    -0.255 F 
ENDBRANCH  23  24
ENDBRANCH  22  23
ENDBRANCH  21  22
ENDBRANCH  20  21
ENDBRANCH  11  20
BRANCH   1  26
HETATM   26  N1  UNL     1     -19.541  11.777  23.086  1.00  0.00    -0.234 N 
ATOM     27  H12 UNL     1     -19.798  10.857  23.443  1.00  0.00     0.174 HD
ATOM     28  H11 UNL     1     -19.847  11.809  22.113  1.00  0.00     0.174 HD
ENDBRANCH   1  26
TORSDOF 7
ENDMDL
