MODEL 1
REMARK VINA RESULT: -6.520374950      0.000      0.000
REMARK  7 active torsions:
REMARK  status: ('A' for Active; 'I' for Inactive)
REMARK    1  A    between atoms: S1_2  and  C2_3 
REMARK    2  A    between atoms: C3_6  and  C4_7 
REMARK    3  A    between atoms: C4_7  and  C5_8 
REMARK    4  A    between atoms: C7_12  and  C8_13 
REMARK    5  A    between atoms: C8_13  and  C9_14 
REMARK    6  A    between atoms: C9_14  and  C10_15 
REMARK    7  A    between atoms: C12_21  and  N4_22 
ROOT
HETATM    1  C2  UNL     1     -15.302  15.918  26.507  1.00  0.00     0.160 A 
HETATM    2  N1  UNL     1     -16.605  15.693  26.270  1.00  0.00    -0.325 N 
ATOM      3  H1  UNL     1     -17.183  15.322  27.025  1.00  0.00     0.169 HD
HETATM    4  C3  UNL     1     -17.182  15.938  25.076  1.00  0.00     0.105 A 
HETATM    5  N3  UNL     1     -16.411  16.423  24.096  1.00  0.00    -0.180 N 
ATOM      6  H3  UNL     1     -16.813  16.619  23.180  1.00  0.00     0.185 HD
HETATM    7  C12 UNL     1     -15.089  16.656  24.324  1.00  0.00     0.679 A 
HETATM    8  N5  UNL     1     -14.546  16.402  25.524  1.00  0.00    -0.171 N 
ATOM      9  H5  UNL     1     -13.555  16.579  25.683  1.00  0.00     0.186 HD
ENDROOT
BRANCH   4  10
HETATM   10  C4  UNL     1     -18.617  15.690  24.810  1.00  0.00     0.139 C 
BRANCH  10  11
HETATM   11  C5  UNL     1     -18.804  14.341  24.219  1.00  0.00     0.084 A 
HETATM   12  C6  UNL     1     -18.605  14.043  22.881  1.00  0.00     0.255 A 
HETATM   13  F1  UNL     1     -18.217  14.882  21.895  1.00  0.00    -0.176 F 
HETATM   14  O1  UNL     1     -18.861  12.789  22.738  1.00  0.00    -0.269 OA
HETATM   15  C7  UNL     1     -19.211  12.256  23.882  1.00  0.00     0.129 A 
HETATM   16  N2  UNL     1     -19.180  13.208  24.821  1.00  0.00    -0.334 N 
HETATM   17  C11 UNL     1     -19.496  13.078  26.247  1.00  0.00     0.158 C 
BRANCH  15  18
HETATM   18  C8  UNL     1     -19.566  10.840  24.045  1.00  0.00     0.087 C 
BRANCH  18  19
HETATM   19  C9  UNL     1     -18.543   9.903  23.455  1.00  0.00     0.039 C 
BRANCH  19  20
HETATM   20  C10 UNL     1     -17.279  10.056  24.304  1.00  0.00     0.222 C 
HETATM   21  F2  UNL     1     -16.168   9.606  23.641  1.00  0.00    -0.255 F 
ENDBRANCH  19  20
ENDBRANCH  18  19
ENDBRANCH  15  18
ENDBRANCH  10  11
ENDBRANCH   4  10
BRANCH   1  22
HETATM   22  S1  UNL     1     -14.538  15.594  28.092  1.00  0.00    -0.098 SA
HETATM   23  C1  UNL     1     -14.273  13.831  28.320  1.00  0.00     0.099 C 
ENDBRANCH   1  22
BRANCH   7  24
HETATM   24  N4  UNL     1     -14.379  17.119  23.373  1.00  0.00    -0.234 N 
ATOM     25  H42 UNL     1     -14.228  18.124  23.276  1.00  0.00     0.174 HD
ATOM     26  H41 UNL     1     -13.964  16.464  22.710  1.00  0.00     0.174 HD
ENDBRANCH   7  24
TORSDOF 7
ENDMDL
MODEL 2
REMARK VINA RESULT: -6.361712354      3.056      5.844
REMARK  7 active torsions:
REMARK  status: ('A' for Active; 'I' for Inactive)
REMARK    1  A    between atoms: S1_2  and  C2_3 
REMARK    2  A    between atoms: C3_6  and  C4_7 
REMARK    3  A    between atoms: C4_7  and  C5_8 
REMARK    4  A    between atoms: C7_12  and  C8_13 
REMARK    5  A    between atoms: C8_13  and  C9_14 
REMARK    6  A    between atoms: C9_14  and  C10_15 
REMARK    7  A    between atoms: C12_21  and  N4_22 
ROOT
HETATM    1  C2  UNL     1     -17.325  11.458  23.811  1.00  0.00     0.160 A 
HETATM    2  N1  UNL     1     -16.780  12.671  23.617  1.00  0.00    -0.325 N 
ATOM      3  H1  UNL     1     -15.766  12.766  23.671  1.00  0.00     0.169 HD
HETATM    4  C3  UNL     1     -17.518  13.768  23.353  1.00  0.00     0.105 A 
HETATM    5  N3  UNL     1     -18.847  13.626  23.286  1.00  0.00    -0.180 N 
ATOM      6  H3  UNL     1     -19.437  14.435  23.090  1.00  0.00     0.185 HD
HETATM    7  C12 UNL     1     -19.411  12.403  23.481  1.00  0.00     0.679 A 
HETATM    8  N5  UNL     1     -18.647  11.331  23.741  1.00  0.00    -0.171 N 
ATOM      9  H5  UNL     1     -19.081  10.419  23.886  1.00  0.00     0.186 HD
ENDROOT
BRANCH   4  10
HETATM   10  C4  UNL     1     -16.924  15.106  23.140  1.00  0.00     0.139 C 
BRANCH  10  11
HETATM   11  C5  UNL     1     -16.585  15.731  24.444  1.00  0.00     0.084 A 
HETATM   12  C6  UNL     1     -17.523  16.146  25.375  1.00  0.00     0.255 A 
HETATM   13  F1  UNL     1     -18.868  16.066  25.286  1.00  0.00    -0.176 F 
HETATM   14  O1  UNL     1     -16.867  16.635  26.370  1.00  0.00    -0.269 OA
HETATM   15  C7  UNL     1     -15.577  16.567  26.151  1.00  0.00     0.129 A 
HETATM   16  N2  UNL     1     -15.379  16.004  24.954  1.00  0.00    -0.334 N 
HETATM   17  C11 UNL     1     -14.103  15.727  24.288  1.00  0.00     0.158 C 
BRANCH  15  18
HETATM   18  C8  UNL     1     -14.565  17.045  27.101  1.00  0.00     0.087 C 
BRANCH  18  19
HETATM   19  C9  UNL     1     -14.681  16.405  28.460  1.00  0.00     0.039 C 
BRANCH  19  20
HETATM   20  C10 UNL     1     -14.280  14.939  28.282  1.00  0.00     0.222 C 
HETATM   21  F2  UNL     1     -14.681  14.173  29.343  1.00  0.00    -0.255 F 
ENDBRANCH  19  20
ENDBRANCH  18  19
ENDBRANCH  15  18
ENDBRANCH  10  11
ENDBRANCH   4  10
BRANCH   1  22
HETATM   22  S1  UNL     1     -16.344  10.004  24.160  1.00  0.00    -0.098 SA
HETATM   23  C1  UNL     1     -15.807   9.997  25.876  1.00  0.00     0.099 C 
ENDBRANCH   1  22
BRANCH   7  24
HETATM   24  N4  UNL     1     -20.679  12.298  23.410  1.00  0.00    -0.234 N 
ATOM     25  H42 UNL     1     -21.284  13.038  23.769  1.00  0.00     0.174 HD
ATOM     26  H41 UNL     1     -21.077  11.460  22.988  1.00  0.00     0.174 HD
ENDBRANCH   7  24
TORSDOF 7
ENDMDL
MODEL 3
REMARK VINA RESULT: -6.307638453      4.035      6.202
REMARK  7 active torsions:
REMARK  status: ('A' for Active; 'I' for Inactive)
REMARK    1  A    between atoms: S1_2  and  C2_3 
REMARK    2  A    between atoms: C3_6  and  C4_7 
REMARK    3  A    between atoms: C4_7  and  C5_8 
REMARK    4  A    between atoms: C7_12  and  C8_13 
REMARK    5  A    between atoms: C8_13  and  C9_14 
REMARK    6  A    between atoms: C9_14  and  C10_15 
REMARK    7  A    between atoms: C12_21  and  N4_22 
ROOT
HETATM    1  C2  UNL     1     -16.842  13.283  23.494  1.00  0.00     0.160 A 
HETATM    2  N1  UNL     1     -16.411  12.058  23.837  1.00  0.00    -0.325 N 
ATOM      3  H1  UNL     1     -15.412  11.914  23.985  1.00  0.00     0.169 HD
HETATM    4  C3  UNL     1     -17.245  11.009  23.993  1.00  0.00     0.105 A 
HETATM    5  N3  UNL     1     -18.552  11.215  23.794  1.00  0.00    -0.180 N 
ATOM      6  H3  UNL     1     -19.211  10.445  23.902  1.00  0.00     0.185 HD
HETATM    7  C12 UNL     1     -19.001  12.452  23.447  1.00  0.00     0.679 A 
HETATM    8  N5  UNL     1     -18.144  13.474  23.299  1.00  0.00    -0.171 N 
ATOM      9  H5  UNL     1     -18.491  14.397  23.038  1.00  0.00     0.186 HD
ENDROOT
BRANCH   4  10
HETATM   10  C4  UNL     1     -16.776   9.657  24.369  1.00  0.00     0.139 C 
BRANCH  10  11
HETATM   11  C5  UNL     1     -15.629   9.754  25.307  1.00  0.00     0.084 A 
HETATM   12  C6  UNL     1     -15.740  10.125  26.637  1.00  0.00     0.255 A 
HETATM   13  F1  UNL     1     -16.863  10.455  27.313  1.00  0.00    -0.176 F 
HETATM   14  O1  UNL     1     -14.551  10.099  27.131  1.00  0.00    -0.269 OA
HETATM   15  C7  UNL     1     -13.681   9.740  26.220  1.00  0.00     0.129 A 
HETATM   16  N2  UNL     1     -14.334   9.519  25.074  1.00  0.00    -0.334 N 
HETATM   17  C11 UNL     1     -13.775   9.101  23.784  1.00  0.00     0.158 C 
BRANCH  15  18
HETATM   18  C8  UNL     1     -12.240   9.617  26.476  1.00  0.00     0.087 C 
BRANCH  18  19
HETATM   19  C9  UNL     1     -11.871   8.331  27.168  1.00  0.00     0.039 C 
BRANCH  19  20
HETATM   20  C10 UNL     1     -11.403   7.370  26.073  1.00  0.00     0.222 C 
HETATM   21  F2  UNL     1     -11.670   6.067  26.396  1.00  0.00    -0.255 F 
ENDBRANCH  19  20
ENDBRANCH  18  19
ENDBRANCH  15  18
ENDBRANCH  10  11
ENDBRANCH   4  10
BRANCH   1  22
HETATM   22  S1  UNL     1     -15.734  14.673  23.287  1.00  0.00    -0.098 SA
HETATM   23  C1  UNL     1     -16.287  16.076  24.266  1.00  0.00     0.099 C 
ENDBRANCH   1  22
BRANCH   7  24
HETATM   24  N4  UNL     1     -20.251  12.618  23.264  1.00  0.00    -0.234 N 
ATOM     25  H42 UNL     1     -20.854  11.827  23.039  1.00  0.00     0.174 HD
ATOM     26  H41 UNL     1     -20.635  13.558  23.349  1.00  0.00     0.174 HD
ENDBRANCH   7  24
TORSDOF 7
ENDMDL
MODEL 4
REMARK VINA RESULT: -6.261792275      3.316      6.424
REMARK  7 active torsions:
REMARK  status: ('A' for Active; 'I' for Inactive)
REMARK    1  A    between atoms: S1_2  and  C2_3 
REMARK    2  A    between atoms: C3_6  and  C4_7 
REMARK    3  A    between atoms: C4_7  and  C5_8 
REMARK    4  A    between atoms: C7_12  and  C8_13 
REMARK    5  A    between atoms: C8_13  and  C9_14 
REMARK    6  A    between atoms: C9_14  and  C10_15 
REMARK    7  A    between atoms: C12_21  and  N4_22 
ROOT
HETATM    1  C2  UNL     1     -17.288  11.493  23.835  1.00  0.00     0.160 A 
HETATM    2  N1  UNL     1     -16.710  12.676  23.566  1.00  0.00    -0.325 N 
ATOM      3  H1  UNL     1     -15.693  12.742  23.600  1.00  0.00     0.169 HD
HETATM    4  C3  UNL     1     -17.419  13.779  23.252  1.00  0.00     0.105 A 
HETATM    5  N3  UNL     1     -18.753  13.675  23.212  1.00  0.00    -0.180 N 
ATOM      6  H3  UNL     1     -19.321  14.489  22.980  1.00  0.00     0.185 HD
HETATM    7  C12 UNL     1     -19.350  12.482  23.482  1.00  0.00     0.679 A 
HETATM    8  N5  UNL     1     -18.615  11.403  23.792  1.00  0.00    -0.171 N 
ATOM      9  H5  UNL     1     -19.073  10.514  23.993  1.00  0.00     0.186 HD
ENDROOT
BRANCH   4  10
HETATM   10  C4  UNL     1     -16.788  15.084  22.956  1.00  0.00     0.139 C 
BRANCH  10  11
HETATM   11  C5  UNL     1     -16.312  15.720  24.210  1.00  0.00     0.084 A 
HETATM   12  C6  UNL     1     -17.148  16.216  25.197  1.00  0.00     0.255 A 
HETATM   13  F1  UNL     1     -18.499  16.218  25.214  1.00  0.00    -0.176 F 
HETATM   14  O1  UNL     1     -16.388  16.689  26.124  1.00  0.00    -0.269 OA
HETATM   15  C7  UNL     1     -15.126  16.536  25.809  1.00  0.00     0.129 A 
HETATM   16  N2  UNL     1     -15.056  15.932  24.618  1.00  0.00    -0.334 N 
HETATM   17  C11 UNL     1     -13.854  15.558  23.865  1.00  0.00     0.158 C 
BRANCH  15  18
HETATM   18  C8  UNL     1     -14.016  16.976  26.664  1.00  0.00     0.087 C 
BRANCH  18  19
HETATM   19  C9  UNL     1     -13.791  18.465  26.620  1.00  0.00     0.039 C 
BRANCH  19  20
HETATM   20  C10 UNL     1     -12.734  18.710  25.542  1.00  0.00     0.222 C 
HETATM   21  F2  UNL     1     -12.396  20.034  25.458  1.00  0.00    -0.255 F 
ENDBRANCH  19  20
ENDBRANCH  18  19
ENDBRANCH  15  18
ENDBRANCH  10  11
ENDBRANCH   4  10
BRANCH   1  22
HETATM   22  S1  UNL     1     -16.346  10.030  24.251  1.00  0.00    -0.098 SA
HETATM   23  C1  UNL     1     -15.862  10.057  25.982  1.00  0.00     0.099 C 
ENDBRANCH   1  22
BRANCH   7  24
HETATM   24  N4  UNL     1     -20.621  12.413  23.437  1.00  0.00    -0.234 N 
ATOM     25  H42 UNL     1     -21.085  11.718  22.850  1.00  0.00     0.174 HD
ATOM     26  H41 UNL     1     -21.166  13.065  23.999  1.00  0.00     0.174 HD
ENDBRANCH   7  24
TORSDOF 7
ENDMDL
MODEL 5
REMARK VINA RESULT: -6.182673280      3.274      6.069
REMARK  7 active torsions:
REMARK  status: ('A' for Active; 'I' for Inactive)
REMARK    1  A    between atoms: S1_2  and  C2_3 
REMARK    2  A    between atoms: C3_6  and  C4_7 
REMARK    3  A    between atoms: C4_7  and  C5_8 
REMARK    4  A    between atoms: C7_12  and  C8_13 
REMARK    5  A    between atoms: C8_13  and  C9_14 
REMARK    6  A    between atoms: C9_14  and  C10_15 
REMARK    7  A    between atoms: C12_21  and  N4_22 
ROOT
HETATM    1  C2  UNL     1     -16.684  11.250  24.018  1.00  0.00     0.160 A 
HETATM    2  N1  UNL     1     -16.590  12.557  23.720  1.00  0.00    -0.325 N 
ATOM      3  H1  UNL     1     -15.698  13.030  23.870  1.00  0.00     0.169 HD
HETATM    4  C3  UNL     1     -17.625  13.270  23.232  1.00  0.00     0.105 A 
HETATM    5  N3  UNL     1     -18.788  12.636  23.043  1.00  0.00    -0.180 N 
ATOM      6  H3  UNL     1     -19.592  13.144  22.676  1.00  0.00     0.185 HD
HETATM    7  C12 UNL     1     -18.896  11.312  23.339  1.00  0.00     0.679 A 
HETATM    8  N5  UNL     1     -17.846  10.631  23.824  1.00  0.00    -0.171 N 
ATOM      9  H5  UNL     1     -17.938   9.639  24.043  1.00  0.00     0.186 HD
ENDROOT
BRANCH   4  10
HETATM   10  C4  UNL     1     -17.527  14.710  22.905  1.00  0.00     0.139 C 
BRANCH  10  11
HETATM   11  C5  UNL     1     -17.211  15.494  24.126  1.00  0.00     0.084 A 
HETATM   12  C6  UNL     1     -18.143  15.842  25.090  1.00  0.00     0.255 A 
HETATM   13  F1  UNL     1     -19.462  15.549  25.110  1.00  0.00    -0.176 F 
HETATM   14  O1  UNL     1     -17.513  16.513  25.991  1.00  0.00    -0.269 OA
HETATM   15  C7  UNL     1     -16.245  16.624  25.680  1.00  0.00     0.129 A 
HETATM   16  N2  UNL     1     -16.035  15.994  24.520  1.00  0.00    -0.334 N 
HETATM   17  C11 UNL     1     -14.775  15.856  23.783  1.00  0.00     0.158 C 
BRANCH  15  18
HETATM   18  C8  UNL     1     -15.264  17.336  26.510  1.00  0.00     0.087 C 
BRANCH  18  19
HETATM   19  C9  UNL     1     -14.761  16.511  27.667  1.00  0.00     0.039 C 
BRANCH  19  20
HETATM   20  C10 UNL     1     -13.516  17.225  28.197  1.00  0.00     0.222 C 
HETATM   21  F2  UNL     1     -13.760  17.840  29.396  1.00  0.00    -0.255 F 
ENDBRANCH  19  20
ENDBRANCH  18  19
ENDBRANCH  15  18
ENDBRANCH  10  11
ENDBRANCH   4  10
BRANCH   1  22
HETATM   22  S1  UNL     1     -15.310  10.306  24.665  1.00  0.00    -0.098 SA
HETATM   23  C1  UNL     1     -15.537   9.972  26.416  1.00  0.00     0.099 C 
ENDBRANCH   1  22
BRANCH   7  24
HETATM   24  N4  UNL     1     -20.015  10.733  23.148  1.00  0.00    -0.234 N 
ATOM     25  H42 UNL     1     -20.157  10.127  22.339  1.00  0.00     0.174 HD
ATOM     26  H41 UNL     1     -20.765  10.888  23.820  1.00  0.00     0.174 HD
ENDBRANCH   7  24
TORSDOF 7
ENDMDL
