MODEL 1
REMARK VINA RESULT: -8.748052863      0.000      0.000
REMARK  9 active torsions:
REMARK  status: ('A' for Active; 'I' for Inactive)
REMARK    1  A    between atoms: C2_2  and  C3_3 
REMARK    2  A    between atoms: C3_3  and  C4_4 
REMARK    3  A    between atoms: C4_4  and  O1_5 
REMARK    4  A    between atoms: C4_4  and  C5_7 
REMARK    5  A    between atoms: C8_10  and  C9_11 
REMARK    6  A    between atoms: C9_11  and  C10_12 
REMARK    7  A    between atoms: C10_12  and  C11_13 
REMARK    8  A    between atoms: C16_20  and  O2_21 
REMARK    9  A    between atoms: C22_29  and  O4_30 
ROOT
HETATM    1  C5  UNL     1      24.789   6.394  -2.567  1.00  0.00     0.038 A 
HETATM    2  C6  UNL     1      24.365   7.668  -2.910  1.00  0.00    -0.033 A 
HETATM    3  C7  UNL     1      23.809   8.647  -1.929  1.00  0.00     0.050 C 
HETATM    4  C8  UNL     1      24.546   8.104  -4.201  1.00  0.00     0.017 A 
HETATM    5  C16 UNL     1      25.125   7.331  -5.142  1.00  0.00     0.086 A 
HETATM    6  C17 UNL     1      25.567   6.044  -4.836  1.00  0.00     0.017 A 
HETATM    7  C18 UNL     1      25.393   5.602  -3.564  1.00  0.00     0.093 A 
HETATM    8  O3  UNL     1      25.837   4.306  -3.229  1.00  0.00    -0.337 OA
HETATM    9  C19 UNL     1      27.035   3.854  -3.868  1.00  0.00     0.087 C 
HETATM   10  C20 UNL     1      28.225   4.610  -3.335  1.00  0.00     0.049 C 
HETATM   11  C21 UNL     1      27.194   2.399  -3.489  1.00  0.00     0.049 C 
HETATM   12  C22 UNL     1      26.856   3.988  -5.336  1.00  0.00     0.160 C 
HETATM   13  C23 UNL     1      26.177   5.180  -5.865  1.00  0.00     0.052 C 
HETATM   14  C24 UNL     1      25.103   4.686  -6.849  1.00  0.00     0.018 C 
ENDROOT
BRANCH   4  15
HETATM   15  C9  UNL     1      24.037   9.431  -4.608  1.00  0.00     0.027 C 
HETATM   16  C15 UNL     1      22.909   9.599  -5.200  1.00  0.00     0.274 C 
HETATM   17  F1  UNL     1      22.428  10.786  -5.574  1.00  0.00    -0.172 F 
HETATM   18  F2  UNL     1      22.109   8.523  -5.521  1.00  0.00    -0.172 F 
BRANCH  15  19
HETATM   19  C10 UNL     1      24.909  10.571  -4.272  1.00  0.00     0.072 C 
BRANCH  19  20
HETATM   20  C11 UNL     1      26.237  10.609  -4.882  1.00  0.00    -0.020 C 
HETATM   21  C12 UNL     1      27.366  10.339  -4.236  1.00  0.00    -0.091 C 
HETATM   22  C13 UNL     1      28.693  10.391  -4.901  1.00  0.00     0.042 C 
HETATM   23  C14 UNL     1      27.294   9.978  -2.809  1.00  0.00     0.042 C 
ENDBRANCH  19  20
ENDBRANCH  15  19
ENDBRANCH   4  15
BRANCH   5  24
HETATM   24  O2  UNL     1      25.315   7.757  -6.447  1.00  0.00    -0.359 OA
ATOM     25  H2  UNL     1      25.927   8.446  -6.679  1.00  0.00     0.217 HD
ENDBRANCH   5  24
BRANCH   1  26
HETATM   26  C4  UNL     1      24.588   5.806  -1.284  1.00  0.00     0.079 C 
BRANCH  26  27
HETATM   27  C3  UNL     1      25.493   5.394  -0.268  1.00  0.00     0.033 C 
BRANCH  27  28
HETATM   28  C2  UNL     1      25.128   4.261   0.420  1.00  0.00    -0.028 C 
HETATM   29  C1  UNL     1      25.488   2.946  -0.138  1.00  0.00     0.036 C 
ENDBRANCH  27  28
ENDBRANCH  26  27
BRANCH  26  30
HETATM   30  O1  UNL     1      23.307   5.616  -1.000  1.00  0.00    -0.360 OA
ATOM     31  H1  UNL     1      22.707   5.809  -1.712  1.00  0.00     0.217 HD
ENDBRANCH  26  30
ENDBRANCH   1  26
BRANCH  12  32
HETATM   32  O4  UNL     1      26.256   2.778  -5.795  1.00  0.00    -0.392 OA
ATOM     33  H4  UNL     1      26.295   2.790  -6.744  1.00  0.00     0.210 HD
ENDBRANCH  12  32
TORSDOF 9
ENDMDL
MODEL 2
REMARK VINA RESULT: -8.321268399      3.184      5.919
REMARK  9 active torsions:
REMARK  status: ('A' for Active; 'I' for Inactive)
REMARK    1  A    between atoms: C2_2  and  C3_3 
REMARK    2  A    between atoms: C3_3  and  C4_4 
REMARK    3  A    between atoms: C4_4  and  O1_5 
REMARK    4  A    between atoms: C4_4  and  C5_7 
REMARK    5  A    between atoms: C8_10  and  C9_11 
REMARK    6  A    between atoms: C9_11  and  C10_12 
REMARK    7  A    between atoms: C10_12  and  C11_13 
REMARK    8  A    between atoms: C16_20  and  O2_21 
REMARK    9  A    between atoms: C22_29  and  O4_30 
ROOT
HETATM    1  C5  UNL     1      25.967   7.018  -2.452  1.00  0.00     0.038 A 
HETATM    2  C6  UNL     1      27.221   6.461  -2.645  1.00  0.00    -0.033 A 
HETATM    3  C7  UNL     1      27.686   5.215  -1.965  1.00  0.00     0.050 C 
HETATM    4  C8  UNL     1      28.061   7.019  -3.579  1.00  0.00     0.017 A 
HETATM    5  C16 UNL     1      27.700   8.090  -4.314  1.00  0.00     0.086 A 
HETATM    6  C17 UNL     1      26.445   8.679  -4.152  1.00  0.00     0.017 A 
HETATM    7  C18 UNL     1      25.608   8.136  -3.232  1.00  0.00     0.093 A 
HETATM    8  O3  UNL     1      24.332   8.711  -3.052  1.00  0.00    -0.337 OA
HETATM    9  C19 UNL     1      23.692   9.226  -4.224  1.00  0.00     0.087 C 
HETATM   10  C20 UNL     1      23.270   8.094  -5.126  1.00  0.00     0.049 C 
HETATM   11  C21 UNL     1      22.446   9.937  -3.747  1.00  0.00     0.049 C 
HETATM   12  C22 UNL     1      24.618  10.188  -4.873  1.00  0.00     0.160 C 
HETATM   13  C23 UNL     1      26.052   9.868  -4.932  1.00  0.00     0.052 C 
HETATM   14  C24 UNL     1      26.811  11.108  -4.431  1.00  0.00     0.018 C 
ENDROOT
BRANCH   4  15
HETATM   15  C9  UNL     1      29.429   6.486  -3.751  1.00  0.00     0.027 C 
HETATM   16  C15 UNL     1      30.395   6.764  -2.951  1.00  0.00     0.274 C 
HETATM   17  F1  UNL     1      31.637   6.293  -3.084  1.00  0.00    -0.172 F 
HETATM   18  F2  UNL     1      30.210   7.616  -1.883  1.00  0.00    -0.172 F 
BRANCH  15  19
HETATM   19  C10 UNL     1      29.615   5.589  -4.905  1.00  0.00     0.072 C 
BRANCH  19  20
HETATM   20  C11 UNL     1      29.697   4.153  -4.638  1.00  0.00    -0.020 C 
HETATM   21  C12 UNL     1      28.687   3.304  -4.797  1.00  0.00    -0.091 C 
HETATM   22  C13 UNL     1      28.820   1.853  -4.513  1.00  0.00     0.042 C 
HETATM   23  C14 UNL     1      27.393   3.826  -5.269  1.00  0.00     0.042 C 
ENDBRANCH  19  20
ENDBRANCH  15  19
ENDBRANCH   4  15
BRANCH   5  24
HETATM   24  O2  UNL     1      28.535   8.664  -5.261  1.00  0.00    -0.359 OA
ATOM     25  H2  UNL     1      28.447   9.567  -5.542  1.00  0.00     0.217 HD
ENDBRANCH   5  24
BRANCH   1  26
HETATM   26  C4  UNL     1      25.041   6.575  -1.463  1.00  0.00     0.079 C 
BRANCH  26  27
HETATM   27  C3  UNL     1      23.988   5.621  -1.497  1.00  0.00     0.033 C 
BRANCH  27  28
HETATM   28  C2  UNL     1      24.385   4.305  -1.486  1.00  0.00    -0.028 C 
HETATM   29  C1  UNL     1      24.786   3.697  -0.206  1.00  0.00     0.036 C 
ENDBRANCH  27  28
ENDBRANCH  26  27
BRANCH  26  30
HETATM   30  O1  UNL     1      25.211   7.176  -0.293  1.00  0.00    -0.360 OA
ATOM     31  H1  UNL     1      25.846   7.883  -0.295  1.00  0.00     0.217 HD
ENDBRANCH  26  30
ENDBRANCH   1  26
BRANCH  12  32
HETATM   32  O4  UNL     1      24.375  11.464  -4.283  1.00  0.00    -0.392 OA
ATOM     33  H4  UNL     1      25.171  11.719  -3.833  1.00  0.00     0.210 HD
ENDBRANCH  12  32
TORSDOF 9
ENDMDL
MODEL 3
REMARK VINA RESULT: -8.263368068      3.120      5.261
REMARK  9 active torsions:
REMARK  status: ('A' for Active; 'I' for Inactive)
REMARK    1  A    between atoms: C2_2  and  C3_3 
REMARK    2  A    between atoms: C3_3  and  C4_4 
REMARK    3  A    between atoms: C4_4  and  O1_5 
REMARK    4  A    between atoms: C4_4  and  C5_7 
REMARK    5  A    between atoms: C8_10  and  C9_11 
REMARK    6  A    between atoms: C9_11  and  C10_12 
REMARK    7  A    between atoms: C10_12  and  C11_13 
REMARK    8  A    between atoms: C16_20  and  O2_21 
REMARK    9  A    between atoms: C22_29  and  O4_30 
ROOT
HETATM    1  C5  UNL     1      26.032   6.609  -2.471  1.00  0.00     0.038 A 
HETATM    2  C6  UNL     1      27.239   6.083  -2.906  1.00  0.00    -0.033 A 
HETATM    3  C7  UNL     1      27.883   4.880  -2.300  1.00  0.00     0.050 C 
HETATM    4  C8  UNL     1      27.841   6.630  -4.014  1.00  0.00     0.017 A 
HETATM    5  C16 UNL     1      27.293   7.659  -4.690  1.00  0.00     0.086 A 
HETATM    6  C17 UNL     1      26.079   8.215  -4.286  1.00  0.00     0.017 A 
HETATM    7  C18 UNL     1      25.475   7.684  -3.192  1.00  0.00     0.093 A 
HETATM    8  O3  UNL     1      24.244   8.225  -2.766  1.00  0.00    -0.337 OA
HETATM    9  C19 UNL     1      23.353   8.673  -3.793  1.00  0.00     0.087 C 
HETATM   10  C20 UNL     1      22.795   7.495  -4.548  1.00  0.00     0.049 C 
HETATM   11  C21 UNL     1      22.208   9.363  -3.086  1.00  0.00     0.049 C 
HETATM   12  C22 UNL     1      24.084   9.638  -4.653  1.00  0.00     0.160 C 
HETATM   13  C23 UNL     1      25.485   9.360  -5.002  1.00  0.00     0.052 C 
HETATM   14  C24 UNL     1      26.284  10.641  -4.713  1.00  0.00     0.018 C 
ENDROOT
BRANCH   4  15
HETATM   15  C9  UNL     1      29.162   6.134  -4.453  1.00  0.00     0.027 C 
HETATM   16  C15 UNL     1      29.308   5.241  -5.365  1.00  0.00     0.274 C 
HETATM   17  F1  UNL     1      30.489   4.779  -5.781  1.00  0.00    -0.172 F 
HETATM   18  F2  UNL     1      28.214   4.664  -5.975  1.00  0.00    -0.172 F 
BRANCH  15  19
HETATM   19  C10 UNL     1      30.322   6.748  -3.783  1.00  0.00     0.072 C 
BRANCH  19  20
HETATM   20  C11 UNL     1      30.716   8.091  -4.208  1.00  0.00    -0.020 C 
HETATM   21  C12 UNL     1      31.702   8.346  -5.061  1.00  0.00    -0.091 C 
HETATM   22  C13 UNL     1      32.065   9.729  -5.463  1.00  0.00     0.042 C 
HETATM   23  C14 UNL     1      32.461   7.215  -5.623  1.00  0.00     0.042 C 
ENDBRANCH  19  20
ENDBRANCH  15  19
ENDBRANCH   4  15
BRANCH   5  24
HETATM   24  O2  UNL     1      27.888   8.221  -5.809  1.00  0.00    -0.359 OA
ATOM     25  H2  UNL     1      28.193   9.121  -5.831  1.00  0.00     0.217 HD
ENDBRANCH   5  24
BRANCH   1  26
HETATM   26  C4  UNL     1      25.352   6.177  -1.295  1.00  0.00     0.079 C 
BRANCH  26  27
HETATM   27  C3  UNL     1      24.546   5.039  -1.019  1.00  0.00     0.033 C 
BRANCH  27  28
HETATM   28  C2  UNL     1      24.934   4.292   0.068  1.00  0.00    -0.028 C 
HETATM   29  C1  UNL     1      25.467   2.937  -0.157  1.00  0.00     0.036 C 
ENDBRANCH  27  28
ENDBRANCH  26  27
BRANCH  26  30
HETATM   30  O1  UNL     1      25.517   7.004  -0.272  1.00  0.00    -0.360 OA
ATOM     31  H1  UNL     1      26.420   7.142  -0.010  1.00  0.00     0.217 HD
ENDBRANCH  26  30
ENDBRANCH   1  26
BRANCH  12  32
HETATM   32  O4  UNL     1      23.921  10.928  -4.066  1.00  0.00    -0.392 OA
ATOM     33  H4  UNL     1      24.314  10.892  -3.203  1.00  0.00     0.210 HD
ENDBRANCH  12  32
TORSDOF 9
ENDMDL
MODEL 4
REMARK VINA RESULT: -8.220257316      3.486      6.203
REMARK  9 active torsions:
REMARK  status: ('A' for Active; 'I' for Inactive)
REMARK    1  A    between atoms: C2_2  and  C3_3 
REMARK    2  A    between atoms: C3_3  and  C4_4 
REMARK    3  A    between atoms: C4_4  and  O1_5 
REMARK    4  A    between atoms: C4_4  and  C5_7 
REMARK    5  A    between atoms: C8_10  and  C9_11 
REMARK    6  A    between atoms: C9_11  and  C10_12 
REMARK    7  A    between atoms: C10_12  and  C11_13 
REMARK    8  A    between atoms: C16_20  and  O2_21 
REMARK    9  A    between atoms: C22_29  and  O4_30 
ROOT
HETATM    1  C5  UNL     1      26.880   5.572  -4.381  1.00  0.00     0.038 A 
HETATM    2  C6  UNL     1      28.258   5.673  -4.272  1.00  0.00    -0.033 A 
HETATM    3  C7  UNL     1      29.197   5.455  -5.412  1.00  0.00     0.050 C 
HETATM    4  C8  UNL     1      28.802   6.087  -3.079  1.00  0.00     0.017 A 
HETATM    5  C16 UNL     1      28.036   6.399  -2.015  1.00  0.00     0.086 A 
HETATM    6  C17 UNL     1      26.645   6.312  -2.085  1.00  0.00     0.017 A 
HETATM    7  C18 UNL     1      26.097   5.904  -3.258  1.00  0.00     0.093 A 
HETATM    8  O3  UNL     1      24.693   5.813  -3.356  1.00  0.00    -0.337 OA
HETATM    9  C19 UNL     1      23.937   6.798  -2.644  1.00  0.00     0.087 C 
HETATM   10  C20 UNL     1      24.089   8.145  -3.302  1.00  0.00     0.049 C 
HETATM   11  C21 UNL     1      22.487   6.381  -2.758  1.00  0.00     0.049 C 
HETATM   12  C22 UNL     1      24.369   6.778  -1.224  1.00  0.00     0.160 C 
HETATM   13  C23 UNL     1      25.799   6.625  -0.917  1.00  0.00     0.052 C 
HETATM   14  C24 UNL     1      25.916   5.513   0.138  1.00  0.00     0.018 C 
ENDROOT
BRANCH   4  15
HETATM   15  C9  UNL     1      30.271   6.133  -2.916  1.00  0.00     0.027 C 
HETATM   16  C15 UNL     1      30.997   5.080  -2.798  1.00  0.00     0.274 C 
HETATM   17  F1  UNL     1      32.323   5.097  -2.653  1.00  0.00    -0.172 F 
HETATM   18  F2  UNL     1      30.429   3.824  -2.787  1.00  0.00    -0.172 F 
BRANCH  15  19
HETATM   19  C10 UNL     1      30.862   7.483  -2.915  1.00  0.00     0.072 C 
BRANCH  19  20
HETATM   20  C11 UNL     1      31.726   7.843  -4.038  1.00  0.00    -0.020 C 
HETATM   21  C12 UNL     1      31.336   8.570  -5.080  1.00  0.00    -0.091 C 
HETATM   22  C13 UNL     1      32.252   8.911  -6.197  1.00  0.00     0.042 C 
HETATM   23  C14 UNL     1      29.943   9.052  -5.123  1.00  0.00     0.042 C 
ENDBRANCH  19  20
ENDBRANCH  15  19
ENDBRANCH   4  15
BRANCH   5  24
HETATM   24  O2  UNL     1      28.569   6.819  -0.806  1.00  0.00    -0.359 OA
ATOM     25  H2  UNL     1      28.509   6.300  -0.011  1.00  0.00     0.217 HD
ENDBRANCH   5  24
BRANCH   1  26
HETATM   26  C4  UNL     1      26.207   5.083  -5.538  1.00  0.00     0.079 C 
BRANCH  26  27
HETATM   27  C3  UNL     1      25.779   5.718  -6.736  1.00  0.00     0.033 C 
BRANCH  27  28
HETATM   28  C2  UNL     1      25.376   7.025  -6.598  1.00  0.00    -0.028 C 
HETATM   29  C1  UNL     1      26.402   8.080  -6.540  1.00  0.00     0.036 C 
ENDBRANCH  27  28
ENDBRANCH  26  27
BRANCH  26  30
HETATM   30  O1  UNL     1      25.938   3.786  -5.469  1.00  0.00    -0.360 OA
ATOM     31  H1  UNL     1      26.424   3.244  -6.079  1.00  0.00     0.217 HD
ENDBRANCH  26  30
ENDBRANCH   1  26
BRANCH  12  32
HETATM   32  O4  UNL     1      23.567   5.805  -0.557  1.00  0.00    -0.392 OA
ATOM     33  H4  UNL     1      22.724   6.207  -0.388  1.00  0.00     0.210 HD
ENDBRANCH  12  32
TORSDOF 9
ENDMDL
MODEL 5
REMARK VINA RESULT: -8.200178978      1.963      3.025
REMARK  9 active torsions:
REMARK  status: ('A' for Active; 'I' for Inactive)
REMARK    1  A    between atoms: C2_2  and  C3_3 
REMARK    2  A    between atoms: C3_3  and  C4_4 
REMARK    3  A    between atoms: C4_4  and  O1_5 
REMARK    4  A    between atoms: C4_4  and  C5_7 
REMARK    5  A    between atoms: C8_10  and  C9_11 
REMARK    6  A    between atoms: C9_11  and  C10_12 
REMARK    7  A    between atoms: C10_12  and  C11_13 
REMARK    8  A    between atoms: C16_20  and  O2_21 
REMARK    9  A    between atoms: C22_29  and  O4_30 
ROOT
HETATM    1  C5  UNL     1      26.968   6.810  -2.616  1.00  0.00     0.038 A 
HETATM    2  C6  UNL     1      26.785   8.144  -2.945  1.00  0.00    -0.033 A 
HETATM    3  C7  UNL     1      26.992   9.270  -1.986  1.00  0.00     0.050 C 
HETATM    4  C8  UNL     1      26.488   8.473  -4.247  1.00  0.00     0.017 A 
HETATM    5  C16 UNL     1      26.372   7.538  -5.211  1.00  0.00     0.086 A 
HETATM    6  C17 UNL     1      26.550   6.185  -4.920  1.00  0.00     0.017 A 
HETATM    7  C18 UNL     1      26.843   5.849  -3.638  1.00  0.00     0.093 A 
HETATM    8  O3  UNL     1      27.033   4.488  -3.320  1.00  0.00    -0.337 OA
HETATM    9  C19 UNL     1      27.666   3.680  -4.318  1.00  0.00     0.087 C 
HETATM   10  C20 UNL     1      29.120   4.054  -4.445  1.00  0.00     0.049 C 
HETATM   11  C21 UNL     1      27.589   2.255  -3.818  1.00  0.00     0.049 C 
HETATM   12  C22 UNL     1      26.903   3.824  -5.583  1.00  0.00     0.160 C 
HETATM   13  C23 UNL     1      26.398   5.152  -5.963  1.00  0.00     0.052 C 
HETATM   14  C24 UNL     1      24.914   4.981  -6.329  1.00  0.00     0.018 C 
ENDROOT
BRANCH   4  15
HETATM   15  C9  UNL     1      26.218   9.881  -4.607  1.00  0.00     0.027 C 
HETATM   16  C15 UNL     1      27.148  10.741  -4.821  1.00  0.00     0.274 C 
HETATM   17  F1  UNL     1      26.930  12.015  -5.150  1.00  0.00    -0.172 F 
HETATM   18  F2  UNL     1      28.477  10.395  -4.695  1.00  0.00    -0.172 F 
BRANCH  15  19
HETATM   19  C10 UNL     1      24.794  10.240  -4.724  1.00  0.00     0.072 C 
BRANCH  19  20
HETATM   20  C11 UNL     1      23.915   9.895  -3.607  1.00  0.00    -0.020 C 
HETATM   21  C12 UNL     1      23.004   8.928  -3.642  1.00  0.00    -0.091 C 
HETATM   22  C13 UNL     1      22.135   8.615  -2.480  1.00  0.00     0.042 C 
HETATM   23  C14 UNL     1      22.855   8.143  -4.881  1.00  0.00     0.042 C 
ENDBRANCH  19  20
ENDBRANCH  15  19
ENDBRANCH   4  15
BRANCH   5  24
HETATM   24  O2  UNL     1      26.073   7.854  -6.528  1.00  0.00    -0.359 OA
ATOM     25  H2  UNL     1      25.406   7.396  -7.026  1.00  0.00     0.217 HD
ENDBRANCH   5  24
BRANCH   1  26
HETATM   26  C4  UNL     1      27.204   6.342  -1.290  1.00  0.00     0.079 C 
BRANCH  26  27
HETATM   27  C3  UNL     1      26.338   6.121  -0.184  1.00  0.00     0.033 C 
BRANCH  27  28
HETATM   28  C2  UNL     1      25.222   5.366  -0.452  1.00  0.00    -0.028 C 
HETATM   29  C1  UNL     1      25.170   3.980   0.045  1.00  0.00     0.036 C 
ENDBRANCH  27  28
ENDBRANCH  26  27
BRANCH  26  30
HETATM   30  O1  UNL     1      28.480   6.061  -1.064  1.00  0.00    -0.360 OA
ATOM     31  H1  UNL     1      28.904   5.551  -1.744  1.00  0.00     0.217 HD
ENDBRANCH  26  30
ENDBRANCH   1  26
BRANCH  12  32
HETATM   32  O4  UNL     1      25.870   2.840  -5.563  1.00  0.00    -0.392 OA
ATOM     33  H4  UNL     1      26.290   1.994  -5.660  1.00  0.00     0.210 HD
ENDBRANCH  12  32
TORSDOF 9
ENDMDL
