MODEL 1
REMARK VINA RESULT: -7.789922889      0.000      0.000
REMARK  7 active torsions:
REMARK  status: ('A' for Active; 'I' for Inactive)
REMARK    1  A    between atoms: O1_2  and  C2_3 
REMARK    2  A    between atoms: C5_6  and  N1_7 
REMARK    3  A    between atoms: N1_7  and  C6_9 
REMARK    4  A    between atoms: C7_12  and  C8_13 
REMARK    5  A    between atoms: C10_15  and  C11_16 
REMARK    6  A    between atoms: C11_16  and  N3_17 
REMARK    7  A    between atoms: N3_17  and  C12_19 
ROOT
HETATM    1  C6  UNL     1      26.517   6.214  -3.880  1.00  0.00     0.152 A 
HETATM    2  N2  UNL     1      27.576   6.546  -4.579  1.00  0.00    -0.332 N 
ATOM      3  H2  UNL     1      27.473   7.170  -5.380  1.00  0.00     0.168 HD
HETATM    4  C7  UNL     1      28.788   6.083  -4.262  1.00  0.00     0.098 A 
HETATM    5  C18 UNL     1      28.829   5.248  -3.180  1.00  0.00     0.188 A 
HETATM    6  F1  UNL     1      29.901   4.618  -2.592  1.00  0.00    -0.196 F 
HETATM    7  S2  UNL     1      27.194   5.189  -2.693  1.00  0.00    -0.021 SA
ENDROOT
BRANCH   4   8
HETATM    8  C8  UNL     1      29.974   6.759  -4.844  1.00  0.00     0.036 A 
HETATM    9  C9  UNL     1      31.176   6.456  -5.336  1.00  0.00     0.035 A 
HETATM   10  C10 UNL     1      32.041   7.487  -5.656  1.00  0.00    -0.007 A 
HETATM   11  C16 UNL     1      31.529   8.781  -5.387  1.00  0.00    -0.009 A 
HETATM   12  C17 UNL     1      32.312  10.077  -5.504  1.00  0.00     0.057 C 
HETATM   13  S1  UNL     1      30.011   8.516  -4.785  1.00  0.00    -0.092 SA
BRANCH  10  14
HETATM   14  C11 UNL     1      33.265   7.410  -6.492  1.00  0.00     0.096 C 
BRANCH  14  15
HETATM   15  N3  UNL     1      33.917   6.182  -6.682  1.00  0.00    -0.390 N 
ATOM     16  H3  UNL     1      33.930   5.445  -5.976  1.00  0.00     0.159 HD
BRANCH  15  17
HETATM   17  C12 UNL     1      34.569   6.055  -7.971  1.00  0.00     0.018 C 
HETATM   18  C13 UNL     1      35.406   7.362  -8.198  1.00  0.00     0.037 C 
HETATM   19  C14 UNL     1      35.665   5.012  -7.936  1.00  0.00     0.037 C 
HETATM   20  C15 UNL     1      33.760   5.861  -9.173  1.00  0.00     0.037 C 
ENDBRANCH  15  17
ENDBRANCH  14  15
ENDBRANCH  10  14
ENDBRANCH   4   8
BRANCH   1  21
HETATM   21  N1  UNL     1      25.326   6.592  -4.042  1.00  0.00    -0.336 N 
ATOM     22  H1  UNL     1      24.643   5.834  -4.019  1.00  0.00     0.168 HD
BRANCH  21  23
HETATM   23  C5  UNL     1      24.767   7.851  -4.248  1.00  0.00     0.037 A 
HETATM   24  C4  UNL     1      23.466   7.831  -4.838  1.00  0.00     0.032 A 
HETATM   25  C3  UNL     1      22.829   8.971  -5.141  1.00  0.00     0.042 A 
HETATM   26  C2  UNL     1      23.377  10.222  -4.903  1.00  0.00     0.106 A 
HETATM   27  C20 UNL     1      24.627  10.225  -4.332  1.00  0.00     0.151 A 
HETATM   28  C19 UNL     1      25.322   9.056  -4.012  1.00  0.00     0.074 A 
HETATM   29  F2  UNL     1      25.196  11.468  -4.084  1.00  0.00    -0.203 F 
BRANCH  26  30
HETATM   30  O1  UNL     1      22.630  11.268  -5.258  1.00  0.00    -0.353 OA
HETATM   31  C1  UNL     1      21.433  11.806  -5.346  1.00  0.00     0.210 C 
ENDBRANCH  26  30
ENDBRANCH  21  23
ENDBRANCH   1  21
TORSDOF 7
ENDMDL
MODEL 2
REMARK VINA RESULT: -7.684892030      3.495      9.041
REMARK  7 active torsions:
REMARK  status: ('A' for Active; 'I' for Inactive)
REMARK    1  A    between atoms: O1_2  and  C2_3 
REMARK    2  A    between atoms: C5_6  and  N1_7 
REMARK    3  A    between atoms: N1_7  and  C6_9 
REMARK    4  A    between atoms: C7_12  and  C8_13 
REMARK    5  A    between atoms: C10_15  and  C11_16 
REMARK    6  A    between atoms: C11_16  and  N3_17 
REMARK    7  A    between atoms: N3_17  and  C12_19 
ROOT
HETATM    1  C6  UNL     1      29.643   5.072  -4.182  1.00  0.00     0.152 A 
HETATM    2  N2  UNL     1      28.443   5.491  -3.857  1.00  0.00    -0.332 N 
ATOM      3  H2  UNL     1      28.335   6.394  -3.396  1.00  0.00     0.168 HD
HETATM    4  C7  UNL     1      27.359   4.756  -4.120  1.00  0.00     0.098 A 
HETATM    5  C18 UNL     1      27.599   3.558  -4.731  1.00  0.00     0.188 A 
HETATM    6  F1  UNL     1      26.718   2.584  -5.143  1.00  0.00    -0.196 F 
HETATM    7  S2  UNL     1      29.298   3.560  -4.900  1.00  0.00    -0.021 SA
ENDROOT
BRANCH   4   8
HETATM    8  C8  UNL     1      26.031   5.418  -4.065  1.00  0.00     0.036 A 
HETATM    9  C9  UNL     1      25.353   6.387  -4.682  1.00  0.00     0.035 A 
HETATM   10  C10 UNL     1      24.124   6.765  -4.173  1.00  0.00    -0.007 A 
HETATM   11  C16 UNL     1      23.738   6.064  -3.003  1.00  0.00    -0.009 A 
HETATM   12  C17 UNL     1      22.516   6.373  -2.156  1.00  0.00     0.057 C 
HETATM   13  S1  UNL     1      24.978   5.004  -2.720  1.00  0.00    -0.092 SA
BRANCH  10  14
HETATM   14  C11 UNL     1      23.076   7.568  -4.849  1.00  0.00     0.096 C 
BRANCH  14  15
HETATM   15  N3  UNL     1      23.422   8.722  -5.568  1.00  0.00    -0.390 N 
ATOM     16  H3  UNL     1      23.690   8.705  -6.553  1.00  0.00     0.159 HD
BRANCH  15  17
HETATM   17  C12 UNL     1      23.364   9.942  -4.785  1.00  0.00     0.018 C 
HETATM   18  C13 UNL     1      22.493  10.969  -5.589  1.00  0.00     0.037 C 
HETATM   19  C14 UNL     1      22.523   9.760  -3.540  1.00  0.00     0.037 C 
HETATM   20  C15 UNL     1      24.604  10.631  -4.430  1.00  0.00     0.037 C 
ENDBRANCH  15  17
ENDBRANCH  14  15
ENDBRANCH  10  14
ENDBRANCH   4   8
BRANCH   1  21
HETATM   21  N1  UNL     1      30.744   5.663  -4.024  1.00  0.00    -0.336 N 
ATOM     22  H1  UNL     1      31.080   5.664  -3.062  1.00  0.00     0.168 HD
BRANCH  21  23
HETATM   23  C5  UNL     1      31.588   6.315  -4.920  1.00  0.00     0.037 A 
HETATM   24  C4  UNL     1      32.487   5.452  -5.620  1.00  0.00     0.032 A 
HETATM   25  C3  UNL     1      33.392   5.949  -6.476  1.00  0.00     0.042 A 
HETATM   26  C2  UNL     1      33.512   7.304  -6.737  1.00  0.00     0.106 A 
HETATM   27  C20 UNL     1      32.638   8.121  -6.060  1.00  0.00     0.151 A 
HETATM   28  C19 UNL     1      31.689   7.638  -5.155  1.00  0.00     0.074 A 
HETATM   29  F2  UNL     1      32.740   9.485  -6.307  1.00  0.00    -0.203 F 
BRANCH  26  30
HETATM   30  O1  UNL     1      34.458   7.654  -7.609  1.00  0.00    -0.353 OA
HETATM   31  C1  UNL     1      35.562   7.329  -8.249  1.00  0.00     0.210 C 
ENDBRANCH  26  30
ENDBRANCH  21  23
ENDBRANCH   1  21
TORSDOF 7
ENDMDL
MODEL 3
REMARK VINA RESULT: -7.572380324      3.561      9.301
REMARK  7 active torsions:
REMARK  status: ('A' for Active; 'I' for Inactive)
REMARK    1  A    between atoms: O1_2  and  C2_3 
REMARK    2  A    between atoms: C5_6  and  N1_7 
REMARK    3  A    between atoms: N1_7  and  C6_9 
REMARK    4  A    between atoms: C7_12  and  C8_13 
REMARK    5  A    between atoms: C10_15  and  C11_16 
REMARK    6  A    between atoms: C11_16  and  N3_17 
REMARK    7  A    between atoms: N3_17  and  C12_19 
ROOT
HETATM    1  C6  UNL     1      30.780   7.658  -4.164  1.00  0.00     0.152 A 
HETATM    2  N2  UNL     1      29.502   7.730  -4.452  1.00  0.00    -0.332 N 
ATOM      3  H2  UNL     1      29.209   8.171  -5.324  1.00  0.00     0.168 HD
HETATM    4  C7  UNL     1      28.578   7.237  -3.623  1.00  0.00     0.098 A 
HETATM    5  C18 UNL     1      29.062   6.674  -2.476  1.00  0.00     0.188 A 
HETATM    6  F1  UNL     1      28.391   6.074  -1.436  1.00  0.00    -0.196 F 
HETATM    7  S2  UNL     1      30.749   6.864  -2.651  1.00  0.00    -0.021 SA
ENDROOT
BRANCH   4   8
HETATM    8  C8  UNL     1      27.206   7.021  -4.149  1.00  0.00     0.036 A 
HETATM    9  C9  UNL     1      25.950   7.385  -3.888  1.00  0.00     0.035 A 
HETATM   10  C10 UNL     1      24.925   6.796  -4.607  1.00  0.00    -0.007 A 
HETATM   11  C16 UNL     1      25.357   5.828  -5.548  1.00  0.00    -0.009 A 
HETATM   12  C17 UNL     1      24.445   4.928  -6.364  1.00  0.00     0.057 C 
HETATM   13  S1  UNL     1      27.006   5.812  -5.409  1.00  0.00    -0.092 SA
BRANCH  10  14
HETATM   14  C11 UNL     1      23.519   7.257  -4.717  1.00  0.00     0.096 C 
BRANCH  14  15
HETATM   15  N3  UNL     1      23.217   8.450  -5.390  1.00  0.00    -0.390 N 
ATOM     16  H3  UNL     1      23.238   8.535  -6.407  1.00  0.00     0.159 HD
BRANCH  15  17
HETATM   17  C12 UNL     1      22.870   9.551  -4.511  1.00  0.00     0.018 C 
HETATM   18  C13 UNL     1      24.072  10.558  -4.533  1.00  0.00     0.037 C 
HETATM   19  C14 UNL     1      21.768  10.403  -5.101  1.00  0.00     0.037 C 
HETATM   20  C15 UNL     1      22.571   9.284  -3.105  1.00  0.00     0.037 C 
ENDBRANCH  15  17
ENDBRANCH  14  15
ENDBRANCH  10  14
ENDBRANCH   4   8
BRANCH   1  21
HETATM   21  N1  UNL     1      31.758   8.051  -4.855  1.00  0.00    -0.336 N 
ATOM     22  H1  UNL     1      32.074   8.994  -4.628  1.00  0.00     0.168 HD
BRANCH  21  23
HETATM   23  C5  UNL     1      32.488   7.437  -5.871  1.00  0.00     0.037 A 
HETATM   24  C4  UNL     1      32.243   6.036  -6.010  1.00  0.00     0.032 A 
HETATM   25  C3  UNL     1      32.914   5.306  -6.913  1.00  0.00     0.042 A 
HETATM   26  C2  UNL     1      33.867   5.851  -7.758  1.00  0.00     0.106 A 
HETATM   27  C20 UNL     1      34.089   7.200  -7.614  1.00  0.00     0.151 A 
HETATM   28  C19 UNL     1      33.414   7.989  -6.679  1.00  0.00     0.074 A 
HETATM   29  F2  UNL     1      35.041   7.768  -8.452  1.00  0.00    -0.203 F 
BRANCH  26  30
HETATM   30  O1  UNL     1      34.456   5.005  -8.603  1.00  0.00    -0.353 OA
HETATM   31  C1  UNL     1      34.492   4.473  -9.807  1.00  0.00     0.210 C 
ENDBRANCH  26  30
ENDBRANCH  21  23
ENDBRANCH   1  21
TORSDOF 7
ENDMDL
MODEL 4
REMARK VINA RESULT: -7.467875671      1.405      1.666
REMARK  7 active torsions:
REMARK  status: ('A' for Active; 'I' for Inactive)
REMARK    1  A    between atoms: O1_2  and  C2_3 
REMARK    2  A    between atoms: C5_6  and  N1_7 
REMARK    3  A    between atoms: N1_7  and  C6_9 
REMARK    4  A    between atoms: C7_12  and  C8_13 
REMARK    5  A    between atoms: C10_15  and  C11_16 
REMARK    6  A    between atoms: C11_16  and  N3_17 
REMARK    7  A    between atoms: N3_17  and  C12_19 
ROOT
HETATM    1  C6  UNL     1      25.520   5.258  -4.187  1.00  0.00     0.152 A 
HETATM    2  N2  UNL     1      26.652   5.686  -4.692  1.00  0.00    -0.332 N 
ATOM      3  H2  UNL     1      26.774   6.682  -4.876  1.00  0.00     0.168 HD
HETATM    4  C7  UNL     1      27.649   4.842  -4.970  1.00  0.00     0.098 A 
HETATM    5  C18 UNL     1      27.394   3.527  -4.700  1.00  0.00     0.188 A 
HETATM    6  F1  UNL     1      28.198   2.421  -4.856  1.00  0.00    -0.196 F 
HETATM    7  S2  UNL     1      25.806   3.576  -4.075  1.00  0.00    -0.021 SA
ENDROOT
BRANCH   4   8
HETATM    8  C8  UNL     1      29.005   5.404  -5.191  1.00  0.00     0.036 A 
HETATM    9  C9  UNL     1      30.211   5.014  -5.607  1.00  0.00     0.035 A 
HETATM   10  C10 UNL     1      31.265   5.904  -5.513  1.00  0.00    -0.007 A 
HETATM   11  C16 UNL     1      30.922   7.156  -4.943  1.00  0.00    -0.009 A 
HETATM   12  C17 UNL     1      31.904   8.259  -4.589  1.00  0.00     0.057 C 
HETATM   13  S1  UNL     1      29.302   7.041  -4.624  1.00  0.00    -0.092 SA
BRANCH  10  14
HETATM   14  C11 UNL     1      32.584   5.814  -6.188  1.00  0.00     0.096 C 
BRANCH  14  15
HETATM   15  N3  UNL     1      32.698   6.093  -7.559  1.00  0.00    -0.390 N 
ATOM     16  H3  UNL     1      31.896   6.311  -8.150  1.00  0.00     0.159 HD
BRANCH  15  17
HETATM   17  C12 UNL     1      34.059   6.044  -8.058  1.00  0.00     0.018 C 
HETATM   18  C13 UNL     1      34.892   5.176  -7.051  1.00  0.00     0.037 C 
HETATM   19  C14 UNL     1      34.157   5.204  -9.313  1.00  0.00     0.037 C 
HETATM   20  C15 UNL     1      34.802   7.288  -8.254  1.00  0.00     0.037 C 
ENDBRANCH  15  17
ENDBRANCH  14  15
ENDBRANCH  10  14
ENDBRANCH   4   8
BRANCH   1  21
HETATM   21  N1  UNL     1      24.510   5.933  -3.852  1.00  0.00    -0.336 N 
ATOM     22  H1  UNL     1      23.814   5.405  -3.326  1.00  0.00     0.168 HD
BRANCH  21  23
HETATM   23  C5  UNL     1      24.168   7.266  -4.066  1.00  0.00     0.037 A 
HETATM   24  C4  UNL     1      22.952   7.454  -4.794  1.00  0.00     0.032 A 
HETATM   25  C3  UNL     1      22.527   8.684  -5.118  1.00  0.00     0.042 A 
HETATM   26  C2  UNL     1      23.221   9.832  -4.772  1.00  0.00     0.106 A 
HETATM   27  C20 UNL     1      24.385   9.635  -4.070  1.00  0.00     0.151 A 
HETATM   28  C19 UNL     1      24.862   8.368  -3.723  1.00  0.00     0.074 A 
HETATM   29  F2  UNL     1      25.098  10.774  -3.712  1.00  0.00    -0.203 F 
BRANCH  26  30
HETATM   30  O1  UNL     1      22.680  10.986  -5.164  1.00  0.00    -0.353 OA
HETATM   31  C1  UNL     1      21.625  11.774  -5.187  1.00  0.00     0.210 C 
ENDBRANCH  26  30
ENDBRANCH  21  23
ENDBRANCH   1  21
TORSDOF 7
ENDMDL
MODEL 5
REMARK VINA RESULT: -7.451617384      3.427      8.796
REMARK  7 active torsions:
REMARK  status: ('A' for Active; 'I' for Inactive)
REMARK    1  A    between atoms: O1_2  and  C2_3 
REMARK    2  A    between atoms: C5_6  and  N1_7 
REMARK    3  A    between atoms: N1_7  and  C6_9 
REMARK    4  A    between atoms: C7_12  and  C8_13 
REMARK    5  A    between atoms: C10_15  and  C11_16 
REMARK    6  A    between atoms: C11_16  and  N3_17 
REMARK    7  A    between atoms: N3_17  and  C12_19 
ROOT
HETATM    1  C6  UNL     1      28.512  10.010  -4.918  1.00  0.00     0.152 A 
HETATM    2  N2  UNL     1      27.682   9.006  -4.764  1.00  0.00    -0.332 N 
ATOM      3  H2  UNL     1      28.030   8.051  -4.851  1.00  0.00     0.168 HD
HETATM    4  C7  UNL     1      26.390   9.210  -4.495  1.00  0.00     0.098 A 
HETATM    5  C18 UNL     1      26.012  10.521  -4.406  1.00  0.00     0.188 A 
HETATM    6  F1  UNL     1      24.780  11.068  -4.134  1.00  0.00    -0.196 F 
HETATM    7  S2  UNL     1      27.477  11.351  -4.687  1.00  0.00    -0.021 SA
ENDROOT
BRANCH   4   8
HETATM    8  C8  UNL     1      25.590   8.070  -3.981  1.00  0.00     0.036 A 
HETATM    9  C9  UNL     1      25.556   6.739  -4.053  1.00  0.00     0.035 A 
HETATM   10  C10 UNL     1      24.487   6.070  -3.485  1.00  0.00    -0.007 A 
HETATM   11  C16 UNL     1      23.516   6.919  -2.897  1.00  0.00    -0.009 A 
HETATM   12  C17 UNL     1      22.180   6.468  -2.334  1.00  0.00     0.057 C 
HETATM   13  S1  UNL     1      24.102   8.450  -3.126  1.00  0.00    -0.092 SA
BRANCH  10  14
HETATM   14  C11 UNL     1      24.395   4.624  -3.166  1.00  0.00     0.096 C 
BRANCH  14  15
HETATM   15  N3  UNL     1      24.409   4.192  -1.831  1.00  0.00    -0.390 N 
ATOM     16  H3  UNL     1      23.563   4.090  -1.270  1.00  0.00     0.159 HD
BRANCH  15  17
HETATM   17  C12 UNL     1      25.736   3.903  -1.321  1.00  0.00     0.018 C 
HETATM   18  C13 UNL     1      26.198   5.153  -0.494  1.00  0.00     0.037 C 
HETATM   19  C14 UNL     1      25.695   2.841  -0.243  1.00  0.00     0.037 C 
HETATM   20  C15 UNL     1      26.818   3.595  -2.256  1.00  0.00     0.037 C 
ENDBRANCH  15  17
ENDBRANCH  14  15
ENDBRANCH  10  14
ENDBRANCH   4   8
BRANCH   1  21
HETATM   21  N1  UNL     1      29.751   9.971  -5.145  1.00  0.00    -0.336 N 
ATOM     22  H1  UNL     1      30.180  10.888  -5.266  1.00  0.00     0.168 HD
BRANCH  21  23
HETATM   23  C5  UNL     1      30.643   8.907  -5.261  1.00  0.00     0.037 A 
HETATM   24  C4  UNL     1      31.857   9.228  -5.944  1.00  0.00     0.032 A 
HETATM   25  C3  UNL     1      32.786   8.288  -6.175  1.00  0.00     0.042 A 
HETATM   26  C2  UNL     1      32.636   6.971  -5.771  1.00  0.00     0.106 A 
HETATM   27  C20 UNL     1      31.466   6.680  -5.111  1.00  0.00     0.151 A 
HETATM   28  C19 UNL     1      30.474   7.632  -4.862  1.00  0.00     0.074 A 
HETATM   29  F2  UNL     1      31.295   5.365  -4.696  1.00  0.00    -0.203 F 
BRANCH  26  30
HETATM   30  O1  UNL     1      33.640   6.147  -6.070  1.00  0.00    -0.353 OA
HETATM   31  C1  UNL     1      34.574   5.790  -6.927  1.00  0.00     0.210 C 
ENDBRANCH  26  30
ENDBRANCH  21  23
ENDBRANCH   1  21
TORSDOF 7
ENDMDL
