MODEL 1
REMARK VINA RESULT: -8.605298703      0.000      0.000
REMARK  12 active torsions:
REMARK  status: ('A' for Active; 'I' for Inactive)
REMARK    1  A    between atoms: C2_2  and  C3_3 
REMARK    2  A    between atoms: C3_3  and  N1_4 
REMARK    3  A    between atoms: N1_4  and  C4_5 
REMARK    4  A    between atoms: C6_15  and  C7_16 
REMARK       I    between atoms: C7_16  and  N5_18 
REMARK    5  A    between atoms: N5_18  and  C8_20 
REMARK    6  A    between atoms: C8_20  and  C9_21 
REMARK    7  A    between atoms: C9_21  and  C10_22 
REMARK    8  A    between atoms: C11_25  and  C12_26 
REMARK    9  A    between atoms: C14_28  and  C15_29 
REMARK   10  A    between atoms: C15_29  and  O4_31 
REMARK   11  A    between atoms: C18_36  and  N8_37 
REMARK   12  A    between atoms: C19_43  and  N11_44 
ROOT
HETATM    1  C10 UNL     1      29.026 -17.042 -43.475  1.00  0.00     0.099 A 
HETATM    2  N6  UNL     1      28.947 -18.301 -42.947  1.00  0.00    -0.328 N 
ATOM      3  H6  UNL     1      29.091 -19.171 -43.458  1.00  0.00     0.169 HD
HETATM    4  C11 UNL     1      28.647 -18.197 -41.641  1.00  0.00     0.149 A 
HETATM    5  N13 UNL     1      28.546 -16.889 -41.386  1.00  0.00    -0.282 N 
ATOM      6  H13 UNL     1      28.325 -16.490 -40.474  1.00  0.00     0.188 HD
HETATM    7  N14 UNL     1      28.773 -16.181 -42.487  1.00  0.00    -0.287 N 
ATOM      8  H14 UNL     1      28.757 -15.164 -42.564  1.00  0.00     0.188 HD
ENDROOT
BRANCH   4   9
HETATM    9  C12 UNL     1      28.477 -19.332 -40.748  1.00  0.00     0.095 C 
HETATM   10  C13 UNL     1      29.222 -20.476 -41.033  1.00  0.00     0.055 C 
HETATM   11  C14 UNL     1      28.941 -21.796 -40.747  1.00  0.00     0.088 C 
HETATM   12  C17 UNL     1      27.742 -22.289 -40.224  1.00  0.00     0.177 A 
HETATM   13  N7  UNL     1      27.343 -23.547 -40.382  1.00  0.00    -0.172 N 
HETATM   14  N10 UNL     1      26.858 -21.572 -39.519  1.00  0.00    -0.054 N 
HETATM   15  C18 UNL     1      26.148 -23.630 -39.744  1.00  0.00     0.693 A 
ATOM     16  H7  UNL     1      27.833 -24.292 -40.876  1.00  0.00     0.186 HD
HETATM   17  N9  UNL     1      25.861 -22.422 -39.224  1.00  0.00    -0.110 N 
ATOM     18  H9  UNL     1      25.023 -22.189 -38.691  1.00  0.00     0.207 HD
HETATM   19  C19 UNL     1      26.894 -20.265 -39.146  1.00  0.00     0.700 C 
HETATM   20  N12 UNL     1      27.633 -19.253 -39.703  1.00  0.00    -0.186 N 
ATOM     21  H12 UNL     1      27.531 -18.332 -39.276  1.00  0.00     0.184 HD
BRANCH  11  22
HETATM   22  C15 UNL     1      29.987 -22.767 -41.018  1.00  0.00     0.296 C 
HETATM   23  O3  UNL     1      31.145 -22.520 -40.601  1.00  0.00    -0.259 OA
BRANCH  22  24
HETATM   24  O4  UNL     1      29.755 -23.923 -41.702  1.00  0.00    -0.322 OA
HETATM   25  C16 UNL     1      30.457 -25.136 -41.392  1.00  0.00     0.213 C 
ENDBRANCH  22  24
ENDBRANCH  11  22
BRANCH  15  26
HETATM   26  N8  UNL     1      25.367 -24.664 -39.624  1.00  0.00    -0.233 N 
ATOM     27  H82 UNL     1      25.427 -25.326 -38.850  1.00  0.00     0.174 HD
ATOM     28  H81 UNL     1      24.613 -24.964 -40.243  1.00  0.00     0.174 HD
ENDBRANCH  15  26
BRANCH  19  29
HETATM   29  N11 UNL     1      26.147 -19.957 -38.150  1.00  0.00    -0.233 N 
ATOM     30 2H11 UNL     1      26.574 -19.991 -37.224  1.00  0.00     0.174 HD
ATOM     31 1H11 UNL     1      25.186 -19.708 -38.386  1.00  0.00     0.174 HD
ENDBRANCH  19  29
ENDBRANCH   4   9
BRANCH   1  32
HETATM   32  C9  UNL     1      29.329 -16.759 -44.916  1.00  0.00     0.097 C 
BRANCH  32  33
HETATM   33  C8  UNL     1      28.358 -15.704 -45.373  1.00  0.00     0.130 C 
BRANCH  33  34
HETATM   34  N5  UNL     1      27.111 -16.362 -45.854  1.00  0.00    -0.355 N 
HETATM   35  C7  UNL     1      25.892 -15.789 -45.510  1.00  0.00     0.275 C 
HETATM   36  O2  UNL     1      25.979 -14.720 -44.775  1.00  0.00    -0.266 OA
ATOM     37  H5  UNL     1      27.150 -17.209 -46.421  1.00  0.00     0.162 HD
BRANCH  35  38
HETATM   38  C6  UNL     1      24.538 -16.184 -45.825  1.00  0.00     0.180 A 
HETATM   39  C4  UNL     1      24.052 -17.446 -45.592  1.00  0.00     0.215 A 
HETATM   40  N2  UNL     1      22.705 -17.637 -45.892  1.00  0.00    -0.294 N 
HETATM   41  C5  UNL     1      21.928 -16.697 -46.368  1.00  0.00     0.243 A 
ATOM     42  H2  UNL     1      22.302 -18.561 -45.733  1.00  0.00     0.172 HD
HETATM   43  N3  UNL     1      20.661 -16.906 -46.643  1.00  0.00    -0.364 N 
HETATM   44  O1  UNL     1      22.452 -15.504 -46.574  1.00  0.00    -0.200 OA
ATOM     45  H32 UNL     1      20.255 -17.828 -46.483  1.00  0.00     0.159 HD
ATOM     46  H31 UNL     1      20.055 -16.173 -47.013  1.00  0.00     0.159 HD
HETATM   47  N4  UNL     1      23.677 -15.251 -46.322  1.00  0.00    -0.248 N 
ATOM     48  H4  UNL     1      24.028 -14.310 -46.501  1.00  0.00     0.195 HD
BRANCH  39  49
HETATM   49  N1  UNL     1      24.634 -18.425 -45.200  1.00  0.00    -0.401 NA
BRANCH  49  50
HETATM   50  C3  UNL     1      25.279 -19.511 -44.766  1.00  0.00     0.157 C 
BRANCH  50  51
HETATM   51  C2  UNL     1      25.661 -19.514 -43.269  1.00  0.00     0.055 C 
HETATM   52  C1  UNL     1      25.171 -20.752 -42.582  1.00  0.00     0.011 C 
ENDBRANCH  50  51
ENDBRANCH  49  50
ENDBRANCH  39  49
ENDBRANCH  35  38
ENDBRANCH  33  34
ENDBRANCH  32  33
ENDBRANCH   1  32
TORSDOF 12
ENDMDL
MODEL 2
REMARK VINA RESULT: -8.430040807      3.468     10.716
REMARK  12 active torsions:
REMARK  status: ('A' for Active; 'I' for Inactive)
REMARK    1  A    between atoms: C2_2  and  C3_3 
REMARK    2  A    between atoms: C3_3  and  N1_4 
REMARK    3  A    between atoms: N1_4  and  C4_5 
REMARK    4  A    between atoms: C6_15  and  C7_16 
REMARK       I    between atoms: C7_16  and  N5_18 
REMARK    5  A    between atoms: N5_18  and  C8_20 
REMARK    6  A    between atoms: C8_20  and  C9_21 
REMARK    7  A    between atoms: C9_21  and  C10_22 
REMARK    8  A    between atoms: C11_25  and  C12_26 
REMARK    9  A    between atoms: C14_28  and  C15_29 
REMARK   10  A    between atoms: C15_29  and  O4_31 
REMARK   11  A    between atoms: C18_36  and  N8_37 
REMARK   12  A    between atoms: C19_43  and  N11_44 
ROOT
HETATM    1  C10 UNL     1      25.059 -17.836 -45.060  1.00  0.00     0.099 A 
HETATM    2  N6  UNL     1      25.057 -16.501 -44.764  1.00  0.00    -0.328 N 
ATOM      3  H6  UNL     1      25.633 -16.047 -44.056  1.00  0.00     0.169 HD
HETATM    4  C11 UNL     1      24.169 -15.888 -45.566  1.00  0.00     0.149 A 
HETATM    5  N13 UNL     1      23.641 -16.845 -46.334  1.00  0.00    -0.282 N 
ATOM      6  H13 UNL     1      22.930 -16.690 -47.049  1.00  0.00     0.188 HD
HETATM    7  N14 UNL     1      24.172 -18.027 -46.038  1.00  0.00    -0.287 N 
ATOM      8  H14 UNL     1      23.943 -18.918 -46.479  1.00  0.00     0.188 HD
ENDROOT
BRANCH   4   9
HETATM    9  C12 UNL     1      23.889 -14.461 -45.536  1.00  0.00     0.095 C 
HETATM   10  C13 UNL     1      22.628 -14.075 -45.085  1.00  0.00     0.055 C 
HETATM   11  C14 UNL     1      21.894 -12.949 -45.399  1.00  0.00     0.088 C 
HETATM   12  C17 UNL     1      22.213 -12.004 -46.378  1.00  0.00     0.177 A 
HETATM   13  N7  UNL     1      21.308 -11.220 -46.953  1.00  0.00    -0.172 N 
HETATM   14  N10 UNL     1      23.443 -11.777 -46.856  1.00  0.00    -0.054 N 
HETATM   15  C18 UNL     1      21.999 -10.458 -47.839  1.00  0.00     0.693 A 
ATOM     16  H7  UNL     1      20.305 -11.195 -46.768  1.00  0.00     0.186 HD
HETATM   17  N9  UNL     1      23.298 -10.807 -47.773  1.00  0.00    -0.110 N 
ATOM     18  H9  UNL     1      24.050 -10.400 -48.329  1.00  0.00     0.207 HD
HETATM   19  C19 UNL     1      24.626 -12.363 -46.532  1.00  0.00     0.700 C 
HETATM   20  N12 UNL     1      24.824 -13.579 -45.930  1.00  0.00    -0.186 N 
ATOM     21  H12 UNL     1      25.794 -13.846 -45.760  1.00  0.00     0.184 HD
BRANCH  11  22
HETATM   22  C15 UNL     1      20.672 -12.726 -44.645  1.00  0.00     0.296 C 
HETATM   23  O3  UNL     1      20.745 -12.716 -43.392  1.00  0.00    -0.259 OA
BRANCH  22  24
HETATM   24  O4  UNL     1      19.465 -12.530 -45.246  1.00  0.00    -0.322 OA
HETATM   25  C16 UNL     1      18.489 -11.629 -44.702  1.00  0.00     0.213 C 
ENDBRANCH  22  24
ENDBRANCH  11  22
BRANCH  15  26
HETATM   26  N8  UNL     1      21.545  -9.540 -48.641  1.00  0.00    -0.233 N 
ATOM     27  H82 UNL     1      21.793  -8.554 -48.563  1.00  0.00     0.174 HD
ATOM     28  H81 UNL     1      20.909  -9.647 -49.431  1.00  0.00     0.174 HD
ENDBRANCH  15  26
BRANCH  19  29
HETATM   29  N11 UNL     1      25.674 -11.685 -46.828  1.00  0.00    -0.233 N 
ATOM     30 2H11 UNL     1      25.533 -10.828 -47.364  1.00  0.00     0.174 HD
ATOM     31 1H11 UNL     1      26.556 -12.076 -46.495  1.00  0.00     0.174 HD
ENDBRANCH  19  29
ENDBRANCH   4   9
BRANCH   1  32
HETATM   32  C9  UNL     1      25.918 -18.845 -44.358  1.00  0.00     0.097 C 
BRANCH  32  33
HETATM   33  C8  UNL     1      24.992 -19.835 -43.705  1.00  0.00     0.130 C 
BRANCH  33  34
HETATM   34  N5  UNL     1      25.590 -20.290 -42.419  1.00  0.00    -0.355 N 
HETATM   35  C7  UNL     1      25.074 -21.436 -41.824  1.00  0.00     0.275 C 
HETATM   36  O2  UNL     1      24.092 -21.991 -42.470  1.00  0.00    -0.266 OA
ATOM     37  H5  UNL     1      26.357 -19.776 -41.986  1.00  0.00     0.162 HD
BRANCH  35  38
HETATM   38  C6  UNL     1      25.441 -22.115 -40.603  1.00  0.00     0.180 A 
HETATM   39  C4  UNL     1      26.693 -22.036 -40.048  1.00  0.00     0.215 A 
HETATM   40  N2  UNL     1      26.857 -22.698 -38.833  1.00  0.00    -0.294 N 
HETATM   41  C5  UNL     1      25.900 -23.362 -38.234  1.00  0.00     0.243 A 
ATOM     42  H2  UNL     1      27.773 -22.664 -38.384  1.00  0.00     0.172 HD
HETATM   43  N3  UNL     1      26.083 -23.977 -37.089  1.00  0.00    -0.364 N 
HETATM   44  O1  UNL     1      24.717 -23.405 -38.817  1.00  0.00    -0.200 OA
ATOM     45  H32 UNL     1      26.997 -23.943 -36.638  1.00  0.00     0.159 HD
ATOM     46  H31 UNL     1      25.336 -24.494 -36.623  1.00  0.00     0.159 HD
HETATM   47  N4  UNL     1      24.489 -22.823 -39.930  1.00  0.00    -0.248 N 
ATOM     48  H4  UNL     1      23.555 -22.890 -40.334  1.00  0.00     0.195 HD
BRANCH  39  49
HETATM   49  N1  UNL     1      27.685 -21.507 -40.481  1.00  0.00    -0.401 NA
BRANCH  49  50
HETATM   50  C3  UNL     1      28.784 -20.921 -40.961  1.00  0.00     0.157 C 
BRANCH  50  51
HETATM   51  C2  UNL     1      29.917 -20.673 -39.939  1.00  0.00     0.055 C 
HETATM   52  C1  UNL     1      30.007 -19.227 -39.561  1.00  0.00     0.011 C 
ENDBRANCH  50  51
ENDBRANCH  49  50
ENDBRANCH  39  49
ENDBRANCH  35  38
ENDBRANCH  33  34
ENDBRANCH  32  33
ENDBRANCH   1  32
TORSDOF 12
ENDMDL
MODEL 3
REMARK VINA RESULT: -8.319948069      1.429      2.736
REMARK  12 active torsions:
REMARK  status: ('A' for Active; 'I' for Inactive)
REMARK    1  A    between atoms: C2_2  and  C3_3 
REMARK    2  A    between atoms: C3_3  and  N1_4 
REMARK    3  A    between atoms: N1_4  and  C4_5 
REMARK    4  A    between atoms: C6_15  and  C7_16 
REMARK       I    between atoms: C7_16  and  N5_18 
REMARK    5  A    between atoms: N5_18  and  C8_20 
REMARK    6  A    between atoms: C8_20  and  C9_21 
REMARK    7  A    between atoms: C9_21  and  C10_22 
REMARK    8  A    between atoms: C11_25  and  C12_26 
REMARK    9  A    between atoms: C14_28  and  C15_29 
REMARK   10  A    between atoms: C15_29  and  O4_31 
REMARK   11  A    between atoms: C18_36  and  N8_37 
REMARK   12  A    between atoms: C19_43  and  N11_44 
ROOT
HETATM    1  C10 UNL     1      28.891 -17.091 -43.801  1.00  0.00     0.099 A 
HETATM    2  N6  UNL     1      28.902 -18.320 -43.202  1.00  0.00    -0.328 N 
ATOM      3  H6  UNL     1      29.054 -19.212 -43.674  1.00  0.00     0.169 HD
HETATM    4  C11 UNL     1      28.678 -18.156 -41.887  1.00  0.00     0.149 A 
HETATM    5  N13 UNL     1      28.534 -16.841 -41.697  1.00  0.00    -0.282 N 
ATOM      6  H13 UNL     1      28.351 -16.401 -40.794  1.00  0.00     0.188 HD
HETATM    7  N14 UNL     1      28.662 -16.188 -42.846  1.00  0.00    -0.287 N 
ATOM      8  H14 UNL     1      28.596 -15.178 -42.976  1.00  0.00     0.188 HD
ENDROOT
BRANCH   4   9
HETATM    9  C12 UNL     1      28.613 -19.246 -40.925  1.00  0.00     0.095 C 
HETATM   10  C13 UNL     1      29.430 -20.349 -41.168  1.00  0.00     0.055 C 
HETATM   11  C14 UNL     1      29.252 -21.667 -40.798  1.00  0.00     0.088 C 
HETATM   12  C17 UNL     1      28.106 -22.210 -40.211  1.00  0.00     0.177 A 
HETATM   13  N7  UNL     1      27.794 -23.500 -40.283  1.00  0.00    -0.172 N 
HETATM   14  N10 UNL     1      27.192 -21.516 -39.520  1.00  0.00    -0.054 N 
HETATM   15  C18 UNL     1      26.625 -23.628 -39.605  1.00  0.00     0.693 A 
ATOM     16  H7  UNL     1      28.321 -24.237 -40.750  1.00  0.00     0.186 HD
HETATM   17  N9  UNL     1      26.267 -22.414 -39.145  1.00  0.00    -0.110 N 
ATOM     18  H9  UNL     1      25.429 -22.209 -38.601  1.00  0.00     0.207 HD
HETATM   19  C19 UNL     1      27.146 -20.190 -39.223  1.00  0.00     0.700 C 
HETATM   20  N12 UNL     1      27.795 -19.163 -39.861  1.00  0.00    -0.186 N 
ATOM     21  H12 UNL     1      27.640 -18.228 -39.484  1.00  0.00     0.184 HD
BRANCH  11  22
HETATM   22  C15 UNL     1      30.356 -22.577 -41.046  1.00  0.00     0.296 C 
HETATM   23  O3  UNL     1      31.495 -22.254 -40.626  1.00  0.00    -0.259 OA
BRANCH  22  24
HETATM   24  O4  UNL     1      30.200 -23.756 -41.712  1.00  0.00    -0.322 OA
HETATM   25  C16 UNL     1      30.969 -24.920 -41.375  1.00  0.00     0.213 C 
ENDBRANCH  22  24
ENDBRANCH  11  22
BRANCH  15  26
HETATM   26  N8  UNL     1      25.923 -24.705 -39.401  1.00  0.00    -0.233 N 
ATOM     27  H82 UNL     1      25.254 -25.074 -40.077  1.00  0.00     0.174 HD
ATOM     28  H81 UNL     1      25.927 -25.319 -38.587  1.00  0.00     0.174 HD
ENDBRANCH  15  26
BRANCH  19  29
HETATM   29  N11 UNL     1      26.406 -19.876 -38.224  1.00  0.00    -0.233 N 
ATOM     30 2H11 UNL     1      25.397 -19.883 -38.377  1.00  0.00     0.174 HD
ATOM     31 1H11 UNL     1      26.906 -19.645 -37.366  1.00  0.00     0.174 HD
ENDBRANCH  19  29
ENDBRANCH   4   9
BRANCH   1  32
HETATM   32  C9  UNL     1      29.093 -16.878 -45.270  1.00  0.00     0.097 C 
BRANCH  32  33
HETATM   33  C8  UNL     1      28.301 -15.656 -45.652  1.00  0.00     0.130 C 
BRANCH  33  34
HETATM   34  N5  UNL     1      26.998 -16.080 -46.236  1.00  0.00    -0.355 N 
HETATM   35  C7  UNL     1      25.838 -15.803 -45.522  1.00  0.00     0.275 C 
HETATM   36  O2  UNL     1      26.027 -15.199 -44.387  1.00  0.00    -0.266 OA
ATOM     37  H5  UNL     1      26.958 -16.560 -47.135  1.00  0.00     0.162 HD
BRANCH  35  38
HETATM   38  C6  UNL     1      24.452 -16.079 -45.824  1.00  0.00     0.180 A 
HETATM   39  C4  UNL     1      23.700 -15.300 -46.667  1.00  0.00     0.215 A 
HETATM   40  N2  UNL     1      22.401 -15.747 -46.901  1.00  0.00    -0.294 N 
HETATM   41  C5  UNL     1      21.901 -16.834 -46.368  1.00  0.00     0.243 A 
ATOM     42  H2  UNL     1      21.806 -15.198 -47.523  1.00  0.00     0.172 HD
HETATM   43  N3  UNL     1      20.672 -17.232 -46.606  1.00  0.00    -0.364 N 
HETATM   44  O1  UNL     1      22.672 -17.541 -45.563  1.00  0.00    -0.200 OA
ATOM     45  H32 UNL     1      20.077 -16.685 -47.228  1.00  0.00     0.159 HD
ATOM     46  H31 UNL     1      20.283 -18.078 -46.190  1.00  0.00     0.159 HD
HETATM   47  N4  UNL     1      23.872 -17.196 -45.301  1.00  0.00    -0.248 N 
ATOM     48  H4  UNL     1      24.422 -17.782 -44.673  1.00  0.00     0.195 HD
BRANCH  39  49
HETATM   49  N1  UNL     1      23.989 -14.261 -47.204  1.00  0.00    -0.401 NA
BRANCH  49  50
HETATM   50  C3  UNL     1      24.308 -13.110 -47.798  1.00  0.00     0.157 C 
BRANCH  50  51
HETATM   51  C2  UNL     1      24.045 -11.829 -46.974  1.00  0.00     0.055 C 
HETATM   52  C1  UNL     1      22.609 -11.730 -46.560  1.00  0.00     0.011 C 
ENDBRANCH  50  51
ENDBRANCH  49  50
ENDBRANCH  39  49
ENDBRANCH  35  38
ENDBRANCH  33  34
ENDBRANCH  32  33
ENDBRANCH   1  32
TORSDOF 12
ENDMDL
MODEL 4
REMARK VINA RESULT: -8.273222050      4.019      6.318
REMARK  12 active torsions:
REMARK  status: ('A' for Active; 'I' for Inactive)
REMARK    1  A    between atoms: C2_2  and  C3_3 
REMARK    2  A    between atoms: C3_3  and  N1_4 
REMARK    3  A    between atoms: N1_4  and  C4_5 
REMARK    4  A    between atoms: C6_15  and  C7_16 
REMARK       I    between atoms: C7_16  and  N5_18 
REMARK    5  A    between atoms: N5_18  and  C8_20 
REMARK    6  A    between atoms: C8_20  and  C9_21 
REMARK    7  A    between atoms: C9_21  and  C10_22 
REMARK    8  A    between atoms: C11_25  and  C12_26 
REMARK    9  A    between atoms: C14_28  and  C15_29 
REMARK   10  A    between atoms: C15_29  and  O4_31 
REMARK   11  A    between atoms: C18_36  and  N8_37 
REMARK   12  A    between atoms: C19_43  and  N11_44 
ROOT
HETATM    1  C10 UNL     1      23.360 -16.926 -45.366  1.00  0.00     0.099 A 
HETATM    2  N6  UNL     1      24.079 -17.543 -44.379  1.00  0.00    -0.328 N 
ATOM      3  H6  UNL     1      24.033 -17.325 -43.384  1.00  0.00     0.169 HD
HETATM    4  C11 UNL     1      24.857 -18.484 -44.942  1.00  0.00     0.149 A 
HETATM    5  N13 UNL     1      24.609 -18.434 -46.254  1.00  0.00    -0.282 N 
ATOM      6  H13 UNL     1      25.051 -19.031 -46.953  1.00  0.00     0.188 HD
HETATM    7  N14 UNL     1      23.706 -17.497 -46.522  1.00  0.00    -0.287 N 
ATOM      8  H14 UNL     1      23.342 -17.256 -47.445  1.00  0.00     0.188 HD
ENDROOT
BRANCH   4   9
HETATM    9  C12 UNL     1      25.767 -19.343 -44.202  1.00  0.00     0.095 C 
HETATM   10  C13 UNL     1      25.206 -20.158 -43.220  1.00  0.00     0.055 C 
HETATM   11  C14 UNL     1      25.777 -20.657 -42.066  1.00  0.00     0.088 C 
HETATM   12  C17 UNL     1      27.033 -20.318 -41.556  1.00  0.00     0.177 A 
HETATM   13  N7  UNL     1      27.355 -20.449 -40.273  1.00  0.00    -0.172 N 
HETATM   14  N10 UNL     1      28.048 -19.823 -42.274  1.00  0.00    -0.054 N 
HETATM   15  C18 UNL     1      28.637 -20.015 -40.175  1.00  0.00     0.693 A 
ATOM     16  H7  UNL     1      26.763 -20.801 -39.521  1.00  0.00     0.186 HD
HETATM   17  N9  UNL     1      29.049 -19.636 -41.400  1.00  0.00    -0.110 N 
ATOM     18  H9  UNL     1      29.972 -19.265 -41.627  1.00  0.00     0.207 HD
HETATM   19  C19 UNL     1      28.121 -19.544 -43.603  1.00  0.00     0.700 C 
HETATM   20  N12 UNL     1      27.083 -19.331 -44.475  1.00  0.00    -0.186 N 
ATOM     21  H12 UNL     1      27.340 -19.142 -45.444  1.00  0.00     0.184 HD
BRANCH  11  22
HETATM   22  C15 UNL     1      24.999 -21.623 -41.309  1.00  0.00     0.296 C 
HETATM   23  O3  UNL     1      23.748 -21.515 -41.322  1.00  0.00    -0.259 OA
BRANCH  22  24
HETATM   24  O4  UNL     1      25.576 -22.629 -40.593  1.00  0.00    -0.322 OA
HETATM   25  C16 UNL     1      25.018 -23.088 -39.353  1.00  0.00     0.213 C 
ENDBRANCH  22  24
ENDBRANCH  11  22
BRANCH  15  26
HETATM   26  N8  UNL     1      29.390 -19.951 -39.116  1.00  0.00    -0.233 N 
ATOM     27  H82 UNL     1      29.065 -19.591 -38.218  1.00  0.00     0.174 HD
ATOM     28  H81 UNL     1      30.364 -20.232 -39.013  1.00  0.00     0.174 HD
ENDBRANCH  15  26
BRANCH  19  29
HETATM   29  N11 UNL     1      29.307 -19.480 -44.087  1.00  0.00    -0.233 N 
ATOM     30 2H11 UNL     1      29.668 -18.550 -44.300  1.00  0.00     0.174 HD
ATOM     31 1H11 UNL     1      29.776 -20.376 -44.214  1.00  0.00     0.174 HD
ENDBRANCH  19  29
ENDBRANCH   4   9
BRANCH   1  32
HETATM   32  C9  UNL     1      22.392 -15.810 -45.119  1.00  0.00     0.097 C 
BRANCH  32  33
HETATM   33  C8  UNL     1      23.202 -14.592 -44.765  1.00  0.00     0.130 C 
BRANCH  33  34
HETATM   34  N5  UNL     1      22.393 -13.370 -45.030  1.00  0.00    -0.355 N 
HETATM   35  C7  UNL     1      22.736 -12.580 -46.121  1.00  0.00     0.275 C 
HETATM   36  O2  UNL     1      23.761 -13.001 -46.800  1.00  0.00    -0.266 OA
ATOM     37  H5  UNL     1      21.608 -13.120 -44.429  1.00  0.00     0.162 HD
BRANCH  35  38
HETATM   38  C6  UNL     1      22.148 -11.361 -46.628  1.00  0.00     0.180 A 
HETATM   39  C4  UNL     1      20.873 -10.960 -46.321  1.00  0.00     0.215 A 
HETATM   40  N2  UNL     1      20.488  -9.725 -46.841  1.00  0.00    -0.294 N 
HETATM   41  C5  UNL     1      21.268  -8.974 -47.577  1.00  0.00     0.243 A 
ATOM     42  H2  UNL     1      19.547  -9.387 -46.636  1.00  0.00     0.172 HD
HETATM   43  N3  UNL     1      20.879  -7.814 -48.054  1.00  0.00    -0.364 N 
HETATM   44  O1  UNL     1      22.484  -9.414 -47.842  1.00  0.00    -0.200 OA
ATOM     45  H32 UNL     1      19.939  -7.474 -47.850  1.00  0.00     0.159 HD
ATOM     46  H31 UNL     1      21.487  -7.229 -48.629  1.00  0.00     0.159 HD
HETATM   47  N4  UNL     1      22.908 -10.534 -47.401  1.00  0.00    -0.248 N 
ATOM     48  H4  UNL     1      23.857 -10.823 -47.637  1.00  0.00     0.195 HD
BRANCH  39  49
HETATM   49  N1  UNL     1      20.021 -11.541 -45.697  1.00  0.00    -0.401 NA
BRANCH  49  50
HETATM   50  C3  UNL     1      19.078 -12.184 -45.006  1.00  0.00     0.157 C 
BRANCH  50  51
HETATM   51  C2  UNL     1      19.077 -11.941 -43.479  1.00  0.00     0.055 C 
HETATM   52  C1  UNL     1      18.077 -10.895 -43.092  1.00  0.00     0.011 C 
ENDBRANCH  50  51
ENDBRANCH  49  50
ENDBRANCH  39  49
ENDBRANCH  35  38
ENDBRANCH  33  34
ENDBRANCH  32  33
ENDBRANCH   1  32
TORSDOF 12
ENDMDL
MODEL 5
REMARK VINA RESULT: -8.231105040      1.477      1.804
REMARK  12 active torsions:
REMARK  status: ('A' for Active; 'I' for Inactive)
REMARK    1  A    between atoms: C2_2  and  C3_3 
REMARK    2  A    between atoms: C3_3  and  N1_4 
REMARK    3  A    between atoms: N1_4  and  C4_5 
REMARK    4  A    between atoms: C6_15  and  C7_16 
REMARK       I    between atoms: C7_16  and  N5_18 
REMARK    5  A    between atoms: N5_18  and  C8_20 
REMARK    6  A    between atoms: C8_20  and  C9_21 
REMARK    7  A    between atoms: C9_21  and  C10_22 
REMARK    8  A    between atoms: C11_25  and  C12_26 
REMARK    9  A    between atoms: C14_28  and  C15_29 
REMARK   10  A    between atoms: C15_29  and  O4_31 
REMARK   11  A    between atoms: C18_36  and  N8_37 
REMARK   12  A    between atoms: C19_43  and  N11_44 
ROOT
HETATM    1  C10 UNL     1      28.326 -17.032 -43.928  1.00  0.00     0.099 A 
HETATM    2  N6  UNL     1      28.291 -18.253 -43.314  1.00  0.00    -0.328 N 
ATOM      3  H6  UNL     1      28.143 -19.149 -43.778  1.00  0.00     0.169 HD
HETATM    4  C11 UNL     1      28.484 -18.074 -41.996  1.00  0.00     0.149 A 
HETATM    5  N13 UNL     1      28.634 -16.758 -41.818  1.00  0.00    -0.282 N 
ATOM      6  H13 UNL     1      28.797 -16.307 -40.917  1.00  0.00     0.188 HD
HETATM    7  N14 UNL     1      28.541 -16.118 -42.979  1.00  0.00    -0.287 N 
ATOM      8  H14 UNL     1      28.620 -15.110 -43.119  1.00  0.00     0.188 HD
ENDROOT
BRANCH   4   9
HETATM    9  C12 UNL     1      28.506 -19.151 -41.018  1.00  0.00     0.095 C 
HETATM   10  C13 UNL     1      29.354 -20.225 -41.283  1.00  0.00     0.055 C 
HETATM   11  C14 UNL     1      29.246 -21.543 -40.889  1.00  0.00     0.088 C 
HETATM   12  C17 UNL     1      28.150 -22.121 -40.243  1.00  0.00     0.177 A 
HETATM   13  N7  UNL     1      27.886 -23.424 -40.284  1.00  0.00    -0.172 N 
HETATM   14  N10 UNL     1      27.241 -21.454 -39.520  1.00  0.00    -0.054 N 
HETATM   15  C18 UNL     1      26.755 -23.588 -39.552  1.00  0.00     0.693 A 
ATOM     16  H7  UNL     1      28.421 -24.147 -40.765  1.00  0.00     0.186 HD
HETATM   17  N9  UNL     1      26.370 -22.381 -39.092  1.00  0.00    -0.110 N 
ATOM     18  H9  UNL     1      25.550 -22.201 -38.513  1.00  0.00     0.207 HD
HETATM   19  C19 UNL     1      27.156 -20.126 -39.239  1.00  0.00     0.700 C 
HETATM   20  N12 UNL     1      27.734 -19.085 -39.919  1.00  0.00    -0.186 N 
ATOM     21  H12 UNL     1      27.559 -18.151 -39.548  1.00  0.00     0.184 HD
BRANCH  11  22
HETATM   22  C15 UNL     1      30.373 -22.413 -41.175  1.00  0.00     0.296 C 
HETATM   23  O3  UNL     1      31.512 -22.052 -40.787  1.00  0.00    -0.259 OA
BRANCH  22  24
HETATM   24  O4  UNL     1      30.238 -23.594 -41.842  1.00  0.00    -0.322 OA
HETATM   25  C16 UNL     1      31.058 -24.731 -41.536  1.00  0.00     0.213 C 
ENDBRANCH  22  24
ENDBRANCH  11  22
BRANCH  15  26
HETATM   26  N8  UNL     1      26.106 -24.688 -39.303  1.00  0.00    -0.233 N 
ATOM     27  H82 UNL     1      26.560 -25.549 -38.999  1.00  0.00     0.174 HD
ATOM     28  H81 UNL     1      25.103 -24.859 -39.364  1.00  0.00     0.174 HD
ENDBRANCH  15  26
BRANCH  19  29
HETATM   29  N11 UNL     1      26.449 -19.827 -38.212  1.00  0.00    -0.233 N 
ATOM     30 2H11 UNL     1      26.418 -20.513 -37.457  1.00  0.00     0.174 HD
ATOM     31 1H11 UNL     1      25.981 -18.921 -38.253  1.00  0.00     0.174 HD
ENDBRANCH  19  29
ENDBRANCH   4   9
BRANCH   1  32
HETATM   32  C9  UNL     1      28.134 -16.832 -45.401  1.00  0.00     0.097 C 
BRANCH  32  33
HETATM   33  C8  UNL     1      27.676 -15.412 -45.598  1.00  0.00     0.130 C 
BRANCH  33  34
HETATM   34  N5  UNL     1      26.216 -15.406 -45.898  1.00  0.00    -0.355 N 
HETATM   35  C7  UNL     1      25.507 -14.231 -45.680  1.00  0.00     0.275 C 
HETATM   36  O2  UNL     1      26.214 -13.244 -45.215  1.00  0.00    -0.266 OA
ATOM     37  H5  UNL     1      25.750 -16.241 -46.253  1.00  0.00     0.162 HD
BRANCH  35  38
HETATM   38  C6  UNL     1      24.110 -13.919 -45.877  1.00  0.00     0.180 A 
HETATM   39  C4  UNL     1      23.115 -14.862 -45.815  1.00  0.00     0.215 A 
HETATM   40  N2  UNL     1      21.816 -14.378 -45.962  1.00  0.00    -0.294 N 
HETATM   41  C5  UNL     1      21.531 -13.114 -46.149  1.00  0.00     0.243 A 
ATOM     42  H2  UNL     1      21.046 -15.046 -45.922  1.00  0.00     0.172 HD
HETATM   43  N3  UNL     1      20.297 -12.686 -46.285  1.00  0.00    -0.364 N 
HETATM   44  O1  UNL     1      22.530 -12.253 -46.203  1.00  0.00    -0.200 OA
ATOM     45  H32 UNL     1      19.524 -13.351 -46.244  1.00  0.00     0.159 HD
ATOM     46  H31 UNL     1      20.074 -11.701 -46.431  1.00  0.00     0.159 HD
HETATM   47  N4  UNL     1      23.745 -12.620 -46.076  1.00  0.00    -0.248 N 
ATOM     48  H4  UNL     1      24.477 -11.911 -46.124  1.00  0.00     0.195 HD
BRANCH  39  49
HETATM   49  N1  UNL     1      23.206 -16.057 -45.691  1.00  0.00    -0.401 NA
BRANCH  49  50
HETATM   50  C3  UNL     1      23.306 -17.381 -45.554  1.00  0.00     0.157 C 
BRANCH  50  51
HETATM   51  C2  UNL     1      24.367 -17.875 -44.544  1.00  0.00     0.055 C 
HETATM   52  C1  UNL     1      25.125 -19.052 -45.078  1.00  0.00     0.011 C 
ENDBRANCH  50  51
ENDBRANCH  49  50
ENDBRANCH  39  49
ENDBRANCH  35  38
ENDBRANCH  33  34
ENDBRANCH  32  33
ENDBRANCH   1  32
TORSDOF 12
ENDMDL
