MODEL 1
REMARK VINA RESULT: -8.698788774      0.000      0.000
REMARK  11 active torsions:
REMARK  status: ('A' for Active; 'I' for Inactive)
REMARK    1  A    between atoms: O1_2  and  C2_3 
REMARK    2  A    between atoms: C4_5  and  C5_6 
REMARK       I    between atoms: C5_6  and  N1_8 
REMARK    3  A    between atoms: N1_8  and  N2_10 
REMARK    4  A    between atoms: N2_10  and  C6_12 
REMARK    5  A    between atoms: C7_13  and  O3_14 
REMARK    6  A    between atoms: N3_16  and  O4_17 
REMARK    7  A    between atoms: O4_17  and  C8_18 
REMARK    8  A    between atoms: C14_28  and  N5_29 
REMARK    9  A    between atoms: N5_29  and  C15_31 
REMARK   10  A    between atoms: C15_31  and  C16_32 
REMARK   11  A    between atoms: C20_42  and  O10_43 
ROOT
HETATM    1  C2  UNL     1      25.349 -14.037 -46.259  1.00  0.00     0.104 A 
HETATM    2  C3  UNL     1      25.639 -15.355 -45.907  1.00  0.00     0.057 A 
HETATM    3  C4  UNL     1      24.744 -16.096 -45.172  1.00  0.00     0.038 A 
HETATM    4  C13 UNL     1      23.567 -15.480 -44.810  1.00  0.00     0.049 A 
HETATM    5  C14 UNL     1      23.264 -14.166 -45.153  1.00  0.00     0.065 A 
HETATM    6  C20 UNL     1      24.168 -13.436 -45.888  1.00  0.00     0.125 A 
ENDROOT
BRANCH   3   7
HETATM    7  C5  UNL     1      25.000 -17.489 -44.775  1.00  0.00     0.270 C 
HETATM    8  O2  UNL     1      24.069 -18.114 -44.223  1.00  0.00    -0.266 OA
HETATM    9  N1  UNL     1      26.243 -18.120 -45.000  1.00  0.00    -0.265 N 
ATOM     10  H1  UNL     1      27.005 -17.617 -45.451  1.00  0.00     0.190 HD
BRANCH   9  11
HETATM   11  N2  UNL     1      26.409 -19.443 -44.593  1.00  0.00    -0.289 N 
ATOM     12  H2  UNL     1      26.063 -20.180 -45.207  1.00  0.00     0.187 HD
BRANCH  11  13
HETATM   13  C6  UNL     1      27.029 -19.824 -43.383  1.00  0.00     0.170 A 
HETATM   14  C7  UNL     1      26.257 -20.278 -42.307  1.00  0.00     0.207 A 
HETATM   15  N3  UNL     1      26.816 -20.645 -41.142  1.00  0.00    -0.135 N 
HETATM   16  C10 UNL     1      28.154 -20.568 -41.028  1.00  0.00     0.358 A 
HETATM   17  O6  UNL     1      28.699 -20.910 -39.941  1.00  0.00    -0.244 OA
HETATM   18  N4  UNL     1      28.922 -20.131 -42.062  1.00  0.00    -0.267 N 
HETATM   19  C11 UNL     1      30.355 -20.068 -41.888  1.00  0.00     0.165 C 
HETATM   20  C12 UNL     1      28.396 -19.755 -43.240  1.00  0.00     0.283 A 
HETATM   21  O7  UNL     1      29.137 -19.346 -44.199  1.00  0.00    -0.265 OA
BRANCH  14  22
HETATM   22  O3  UNL     1      24.889 -20.351 -42.441  1.00  0.00    -0.343 OA
ATOM     23  H3  UNL     1      24.510 -21.044 -42.969  1.00  0.00     0.219 HD
ENDBRANCH  14  22
BRANCH  15  24
HETATM   24  O4  UNL     1      25.985 -21.077 -40.139  1.00  0.00    -0.187 OA
BRANCH  24  25
HETATM   25  C8  UNL     1      25.603 -22.418 -40.078  1.00  0.00     0.278 C 
HETATM   26  C9  UNL     1      26.402 -23.435 -39.338  1.00  0.00     0.128 C 
HETATM   27  O5  UNL     1      24.548 -22.730 -40.678  1.00  0.00    -0.264 OA
ENDBRANCH  24  25
ENDBRANCH  15  24
ENDBRANCH  11  13
ENDBRANCH   9  11
ENDBRANCH   3   7
BRANCH   1  28
HETATM   28  O1  UNL     1      26.254 -13.282 -47.003  1.00  0.00    -0.353 OA
HETATM   29  C1  UNL     1      27.405 -12.797 -46.366  1.00  0.00     0.210 C 
ENDBRANCH   1  28
BRANCH   5  30
HETATM   30  N5  UNL     1      22.050 -13.543 -44.752  1.00  0.00    -0.383 N 
ATOM     31  H5  UNL     1      22.005 -13.132 -43.819  1.00  0.00     0.160 HD
BRANCH  30  32
HETATM   32  C15 UNL     1      20.892 -13.459 -45.579  1.00  0.00     0.165 C 
BRANCH  32  33
HETATM   33  C16 UNL     1      20.010 -12.314 -45.342  1.00  0.00     0.043 A 
HETATM   34  C17 UNL     1      18.843 -12.445 -44.633  1.00  0.00     0.107 A 
HETATM   35  N6  UNL     1      18.031 -11.358 -44.449  1.00  0.00    -0.318 N 
HETATM   36  C18 UNL     1      18.378 -10.176 -44.959  1.00  0.00     0.326 A 
ATOM     37  H6  UNL     1      17.162 -11.452 -43.921  1.00  0.00     0.170 HD
HETATM   38  O8  UNL     1      17.587  -9.205 -44.756  1.00  0.00    -0.247 OA
HETATM   39  N7  UNL     1      19.511  -9.992 -45.663  1.00  0.00    -0.275 N 
HETATM   40  C19 UNL     1      20.313 -11.048 -45.849  1.00  0.00     0.258 A 
ATOM     41  H7  UNL     1      19.751  -9.076 -46.043  1.00  0.00     0.173 HD
HETATM   42  O9  UNL     1      21.394 -10.929 -46.505  1.00  0.00    -0.267 OA
ENDBRANCH  32  33
ENDBRANCH  30  32
ENDBRANCH   5  30
BRANCH   6  43
HETATM   43  O10 UNL     1      23.909 -12.107 -46.260  1.00  0.00    -0.356 OA
ATOM     44  H10 UNL     1      23.034 -11.749 -46.166  1.00  0.00     0.218 HD
ENDBRANCH   6  43
TORSDOF 11
ENDMDL
MODEL 2
REMARK VINA RESULT: -8.637251443      2.849      6.400
REMARK  11 active torsions:
REMARK  status: ('A' for Active; 'I' for Inactive)
REMARK    1  A    between atoms: O1_2  and  C2_3 
REMARK    2  A    between atoms: C4_5  and  C5_6 
REMARK       I    between atoms: C5_6  and  N1_8 
REMARK    3  A    between atoms: N1_8  and  N2_10 
REMARK    4  A    between atoms: N2_10  and  C6_12 
REMARK    5  A    between atoms: C7_13  and  O3_14 
REMARK    6  A    between atoms: N3_16  and  O4_17 
REMARK    7  A    between atoms: O4_17  and  C8_18 
REMARK    8  A    between atoms: C14_28  and  N5_29 
REMARK    9  A    between atoms: N5_29  and  C15_31 
REMARK   10  A    between atoms: C15_31  and  C16_32 
REMARK   11  A    between atoms: C20_42  and  O10_43 
ROOT
HETATM    1  C2  UNL     1      19.881 -10.040 -46.072  1.00  0.00     0.104 A 
HETATM    2  C3  UNL     1      20.255 -11.218 -45.426  1.00  0.00     0.057 A 
HETATM    3  C4  UNL     1      21.431 -11.852 -45.753  1.00  0.00     0.038 A 
HETATM    4  C13 UNL     1      22.206 -11.271 -46.733  1.00  0.00     0.049 A 
HETATM    5  C14 UNL     1      21.845 -10.097 -47.386  1.00  0.00     0.065 A 
HETATM    6  C20 UNL     1      20.666  -9.473 -47.050  1.00  0.00     0.125 A 
ENDROOT
BRANCH   3   7
HETATM    7  C5  UNL     1      21.873 -13.095 -45.104  1.00  0.00     0.270 C 
HETATM    8  O2  UNL     1      21.473 -13.316 -43.941  1.00  0.00    -0.266 OA
HETATM    9  N1  UNL     1      22.718 -14.023 -45.752  1.00  0.00    -0.265 N 
ATOM     10  H1  UNL     1      23.046 -13.850 -46.701  1.00  0.00     0.190 HD
BRANCH   9  11
HETATM   11  N2  UNL     1      23.096 -15.179 -45.071  1.00  0.00    -0.289 N 
ATOM     12  H2  UNL     1      22.424 -15.597 -44.427  1.00  0.00     0.187 HD
BRANCH  11  13
HETATM   13  C6  UNL     1      24.352 -15.806 -45.218  1.00  0.00     0.170 A 
HETATM   14  C7  UNL     1      24.481 -17.185 -45.019  1.00  0.00     0.207 A 
HETATM   15  N3  UNL     1      25.662 -17.811 -45.150  1.00  0.00    -0.135 N 
HETATM   16  C10 UNL     1      26.737 -17.074 -45.482  1.00  0.00     0.358 A 
HETATM   17  O6  UNL     1      27.857 -17.643 -45.611  1.00  0.00    -0.244 OA
HETATM   18  N4  UNL     1      26.634 -15.732 -45.681  1.00  0.00    -0.267 N 
HETATM   19  C11 UNL     1      27.819 -14.987 -46.037  1.00  0.00     0.165 C 
HETATM   20  C12 UNL     1      25.468 -15.075 -45.558  1.00  0.00     0.283 A 
HETATM   21  O7  UNL     1      25.393 -13.813 -45.749  1.00  0.00    -0.265 OA
BRANCH  14  22
HETATM   22  O3  UNL     1      23.370 -17.925 -44.680  1.00  0.00    -0.343 OA
ATOM     23  H3  UNL     1      22.936 -18.444 -45.347  1.00  0.00     0.219 HD
ENDBRANCH  14  22
BRANCH  15  24
HETATM   24  O4  UNL     1      25.699 -19.166 -44.935  1.00  0.00    -0.187 OA
BRANCH  24  25
HETATM   25  C8  UNL     1      25.847 -19.663 -43.639  1.00  0.00     0.278 C 
HETATM   26  C9  UNL     1      27.181 -19.786 -42.986  1.00  0.00     0.128 C 
HETATM   27  O5  UNL     1      24.798 -20.001 -43.043  1.00  0.00    -0.264 OA
ENDBRANCH  24  25
ENDBRANCH  15  24
ENDBRANCH  11  13
ENDBRANCH   9  11
ENDBRANCH   3   7
BRANCH   1  28
HETATM   28  O1  UNL     1      18.690  -9.395 -45.744  1.00  0.00    -0.353 OA
HETATM   29  C1  UNL     1      17.858  -9.976 -44.775  1.00  0.00     0.210 C 
ENDBRANCH   1  28
BRANCH   5  30
HETATM   30  N5  UNL     1      22.651  -9.525 -48.408  1.00  0.00    -0.383 N 
ATOM     31  H5  UNL     1      22.442  -8.573 -48.710  1.00  0.00     0.160 HD
BRANCH  30  32
HETATM   32  C15 UNL     1      23.736 -10.205 -49.036  1.00  0.00     0.165 C 
BRANCH  32  33
HETATM   33  C16 UNL     1      25.023 -10.150 -48.340  1.00  0.00     0.043 A 
HETATM   34  C17 UNL     1      25.622 -11.284 -47.854  1.00  0.00     0.107 A 
HETATM   35  N6  UNL     1      26.815 -11.195 -47.188  1.00  0.00    -0.318 N 
HETATM   36  C18 UNL     1      27.389 -10.004 -47.013  1.00  0.00     0.326 A 
ATOM     37  H6  UNL     1      27.264 -12.037 -46.827  1.00  0.00     0.170 HD
HETATM   38  O8  UNL     1      28.494  -9.982 -46.388  1.00  0.00    -0.247 OA
HETATM   39  N7  UNL     1      26.844  -8.860 -47.467  1.00  0.00    -0.275 N 
HETATM   40  C19 UNL     1      25.678  -8.935 -48.121  1.00  0.00     0.258 A 
ATOM     41  H7  UNL     1      27.305  -7.962 -47.318  1.00  0.00     0.173 HD
HETATM   42  O9  UNL     1      25.121  -7.887 -48.571  1.00  0.00    -0.267 OA
ENDBRANCH  32  33
ENDBRANCH  30  32
ENDBRANCH   5  30
BRANCH   6  43
HETATM   43  O10 UNL     1      20.259  -8.286 -47.678  1.00  0.00    -0.356 OA
ATOM     44  H10 UNL     1      20.609  -7.451 -47.391  1.00  0.00     0.218 HD
ENDBRANCH   6  43
TORSDOF 11
ENDMDL
MODEL 3
REMARK VINA RESULT: -8.630962201      3.349      6.651
REMARK  11 active torsions:
REMARK  status: ('A' for Active; 'I' for Inactive)
REMARK    1  A    between atoms: O1_2  and  C2_3 
REMARK    2  A    between atoms: C4_5  and  C5_6 
REMARK       I    between atoms: C5_6  and  N1_8 
REMARK    3  A    between atoms: N1_8  and  N2_10 
REMARK    4  A    between atoms: N2_10  and  C6_12 
REMARK    5  A    between atoms: C7_13  and  O3_14 
REMARK    6  A    between atoms: N3_16  and  O4_17 
REMARK    7  A    between atoms: O4_17  and  C8_18 
REMARK    8  A    between atoms: C14_28  and  N5_29 
REMARK    9  A    between atoms: N5_29  and  C15_31 
REMARK   10  A    between atoms: C15_31  and  C16_32 
REMARK   11  A    between atoms: C20_42  and  O10_43 
ROOT
HETATM    1  C2  UNL     1      18.991 -10.311 -44.872  1.00  0.00     0.104 A 
HETATM    2  C3  UNL     1      19.501 -11.608 -44.909  1.00  0.00     0.057 A 
HETATM    3  C4  UNL     1      20.523 -11.934 -45.769  1.00  0.00     0.038 A 
HETATM    4  C13 UNL     1      21.009 -10.929 -46.576  1.00  0.00     0.049 A 
HETATM    5  C14 UNL     1      20.510  -9.631 -46.551  1.00  0.00     0.065 A 
HETATM    6  C20 UNL     1      19.487  -9.318 -45.686  1.00  0.00     0.125 A 
ENDROOT
BRANCH   3   7
HETATM    7  C5  UNL     1      21.098 -13.286 -45.848  1.00  0.00     0.270 C 
HETATM    8  O2  UNL     1      21.319 -13.885 -44.774  1.00  0.00    -0.266 OA
HETATM    9  N1  UNL     1      21.396 -13.906 -47.081  1.00  0.00    -0.265 N 
ATOM     10  H1  UNL     1      21.215 -13.423 -47.961  1.00  0.00     0.190 HD
BRANCH   9  11
HETATM   11  N2  UNL     1      21.940 -15.189 -47.075  1.00  0.00    -0.289 N 
ATOM     12  H2  UNL     1      21.423 -15.931 -47.547  1.00  0.00     0.187 HD
BRANCH  11  13
HETATM   13  C6  UNL     1      23.164 -15.523 -46.456  1.00  0.00     0.170 A 
HETATM   14  C7  UNL     1      23.225 -16.574 -45.535  1.00  0.00     0.207 A 
HETATM   15  N3  UNL     1      24.374 -16.915 -44.927  1.00  0.00    -0.135 N 
HETATM   16  C10 UNL     1      25.483 -16.216 -45.227  1.00  0.00     0.358 A 
HETATM   17  O6  UNL     1      26.573 -16.521 -44.667  1.00  0.00    -0.244 OA
HETATM   18  N4  UNL     1      25.445 -15.191 -46.120  1.00  0.00    -0.267 N 
HETATM   19  C11 UNL     1      26.664 -14.472 -46.408  1.00  0.00     0.165 C 
HETATM   20  C12 UNL     1      24.314 -14.823 -46.746  1.00  0.00     0.283 A 
HETATM   21  O7  UNL     1      24.301 -13.856 -47.582  1.00  0.00    -0.265 OA
BRANCH  14  22
HETATM   22  O3  UNL     1      22.081 -17.281 -45.240  1.00  0.00    -0.343 OA
ATOM     23  H3  UNL     1      21.885 -18.073 -45.725  1.00  0.00     0.219 HD
ENDBRANCH  14  22
BRANCH  15  24
HETATM   24  O4  UNL     1      24.343 -17.959 -44.035  1.00  0.00    -0.187 OA
BRANCH  24  25
HETATM   25  C8  UNL     1      24.993 -19.156 -44.341  1.00  0.00     0.278 C 
HETATM   26  C9  UNL     1      25.721 -19.946 -43.308  1.00  0.00     0.128 C 
HETATM   27  O5  UNL     1      24.933 -19.540 -45.532  1.00  0.00    -0.264 OA
ENDBRANCH  24  25
ENDBRANCH  15  24
ENDBRANCH  11  13
ENDBRANCH   9  11
ENDBRANCH   3   7
BRANCH   1  28
HETATM   28  O1  UNL     1      17.955  -9.977 -44.002  1.00  0.00    -0.353 OA
HETATM   29  C1  UNL     1      17.702 -10.816 -42.907  1.00  0.00     0.210 C 
ENDBRANCH   1  28
BRANCH   5  30
HETATM   30  N5  UNL     1      21.014  -8.613 -47.407  1.00  0.00    -0.383 N 
ATOM     31  H5  UNL     1      21.775  -8.028 -47.063  1.00  0.00     0.160 HD
BRANCH  30  32
HETATM   32  C15 UNL     1      20.515  -8.363 -48.719  1.00  0.00     0.165 C 
BRANCH  32  33
HETATM   33  C16 UNL     1      19.825  -7.087 -48.915  1.00  0.00     0.043 A 
HETATM   34  C17 UNL     1      18.481  -7.036 -49.192  1.00  0.00     0.107 A 
HETATM   35  N6  UNL     1      17.871  -5.827 -49.392  1.00  0.00    -0.318 N 
HETATM   36  C18 UNL     1      18.585  -4.703 -49.317  1.00  0.00     0.326 A 
ATOM     37  H6  UNL     1      16.873  -5.785 -49.597  1.00  0.00     0.170 HD
HETATM   38  O8  UNL     1      17.966  -3.612 -49.510  1.00  0.00    -0.247 OA
HETATM   39  N7  UNL     1      19.905  -4.696 -49.049  1.00  0.00    -0.275 N 
HETATM   40  C19 UNL     1      20.512  -5.872 -48.852  1.00  0.00     0.258 A 
ATOM     41  H7  UNL     1      20.426  -3.820 -48.998  1.00  0.00     0.173 HD
HETATM   42  O9  UNL     1      21.754  -5.922 -48.595  1.00  0.00    -0.267 OA
ENDBRANCH  32  33
ENDBRANCH  30  32
ENDBRANCH   5  30
BRANCH   6  43
HETATM   43  O10 UNL     1      18.950  -8.023 -45.622  1.00  0.00    -0.356 OA
ATOM     44  H10 UNL     1      19.269  -7.347 -46.208  1.00  0.00     0.218 HD
ENDBRANCH   6  43
TORSDOF 11
ENDMDL
MODEL 4
REMARK VINA RESULT: -8.606260822      3.238      6.820
REMARK  11 active torsions:
REMARK  status: ('A' for Active; 'I' for Inactive)
REMARK    1  A    between atoms: O1_2  and  C2_3 
REMARK    2  A    between atoms: C4_5  and  C5_6 
REMARK       I    between atoms: C5_6  and  N1_8 
REMARK    3  A    between atoms: N1_8  and  N2_10 
REMARK    4  A    between atoms: N2_10  and  C6_12 
REMARK    5  A    between atoms: C7_13  and  O3_14 
REMARK    6  A    between atoms: N3_16  and  O4_17 
REMARK    7  A    between atoms: O4_17  and  C8_18 
REMARK    8  A    between atoms: C14_28  and  N5_29 
REMARK    9  A    between atoms: N5_29  and  C15_31 
REMARK   10  A    between atoms: C15_31  and  C16_32 
REMARK   11  A    between atoms: C20_42  and  O10_43 
ROOT
HETATM    1  C2  UNL     1      19.056 -10.201 -44.912  1.00  0.00     0.104 A 
HETATM    2  C3  UNL     1      19.540 -11.508 -44.918  1.00  0.00     0.057 A 
HETATM    3  C4  UNL     1      20.528 -11.885 -45.796  1.00  0.00     0.038 A 
HETATM    4  C13 UNL     1      21.007 -10.920 -46.655  1.00  0.00     0.049 A 
HETATM    5  C14 UNL     1      20.534  -9.612 -46.662  1.00  0.00     0.065 A 
HETATM    6  C20 UNL     1      19.545  -9.248 -45.778  1.00  0.00     0.125 A 
ENDROOT
BRANCH   3   7
HETATM    7  C5  UNL     1      21.075 -13.250 -45.844  1.00  0.00     0.270 C 
HETATM    8  O2  UNL     1      21.266 -13.836 -44.757  1.00  0.00    -0.266 OA
HETATM    9  N1  UNL     1      21.378 -13.897 -47.062  1.00  0.00    -0.265 N 
ATOM     10  H1  UNL     1      21.223 -13.426 -47.952  1.00  0.00     0.190 HD
BRANCH   9  11
HETATM   11  N2  UNL     1      21.895 -15.191 -47.026  1.00  0.00    -0.289 N 
ATOM     12  H2  UNL     1      21.349 -15.938 -47.456  1.00  0.00     0.187 HD
BRANCH  11  13
HETATM   13  C6  UNL     1      23.129 -15.532 -46.430  1.00  0.00     0.170 A 
HETATM   14  C7  UNL     1      23.203 -16.584 -45.511  1.00  0.00     0.207 A 
HETATM   15  N3  UNL     1      24.361 -16.931 -44.925  1.00  0.00    -0.135 N 
HETATM   16  C10 UNL     1      25.467 -16.236 -45.245  1.00  0.00     0.358 A 
HETATM   17  O6  UNL     1      26.566 -16.546 -44.706  1.00  0.00    -0.244 OA
HETATM   18  N4  UNL     1      25.417 -15.210 -46.136  1.00  0.00    -0.267 N 
HETATM   19  C11 UNL     1      26.634 -14.496 -46.447  1.00  0.00     0.165 C 
HETATM   20  C12 UNL     1      24.276 -14.836 -46.740  1.00  0.00     0.283 A 
HETATM   21  O7  UNL     1      24.252 -13.869 -47.576  1.00  0.00    -0.265 OA
BRANCH  14  22
HETATM   22  O3  UNL     1      22.061 -17.285 -45.195  1.00  0.00    -0.343 OA
ATOM     23  H3  UNL     1      21.355 -16.844 -44.737  1.00  0.00     0.219 HD
ENDBRANCH  14  22
BRANCH  15  24
HETATM   24  O4  UNL     1      24.342 -17.975 -44.034  1.00  0.00    -0.187 OA
BRANCH  24  25
HETATM   25  C8  UNL     1      25.021 -19.158 -44.331  1.00  0.00     0.278 C 
HETATM   26  C9  UNL     1      25.784 -19.913 -43.298  1.00  0.00     0.128 C 
HETATM   27  O5  UNL     1      24.956 -19.560 -45.516  1.00  0.00    -0.264 OA
ENDBRANCH  24  25
ENDBRANCH  15  24
ENDBRANCH  11  13
ENDBRANCH   9  11
ENDBRANCH   3   7
BRANCH   1  28
HETATM   28  O1  UNL     1      18.055  -9.815 -44.024  1.00  0.00    -0.353 OA
HETATM   29  C1  UNL     1      17.679 -10.707 -43.009  1.00  0.00     0.210 C 
ENDBRANCH   1  28
BRANCH   5  30
HETATM   30  N5  UNL     1      21.029  -8.636 -47.569  1.00  0.00    -0.383 N 
ATOM     31  H5  UNL     1      20.864  -7.652 -47.355  1.00  0.00     0.160 HD
BRANCH  30  32
HETATM   32  C15 UNL     1      21.744  -8.953 -48.762  1.00  0.00     0.165 C 
BRANCH  32  33
HETATM   33  C16 UNL     1      23.202  -8.834 -48.691  1.00  0.00     0.043 A 
HETATM   34  C17 UNL     1      24.004  -9.941 -48.573  1.00  0.00     0.107 A 
HETATM   35  N6  UNL     1      25.363  -9.794 -48.487  1.00  0.00    -0.318 N 
HETATM   36  C18 UNL     1      25.901  -8.575 -48.518  1.00  0.00     0.326 A 
ATOM     37  H6  UNL     1      25.962 -10.615 -48.400  1.00  0.00     0.170 HD
HETATM   38  O8  UNL     1      27.165  -8.499 -48.435  1.00  0.00    -0.247 OA
HETATM   39  N7  UNL     1      25.161  -7.455 -48.632  1.00  0.00    -0.275 N 
HETATM   40  C19 UNL     1      23.831  -7.588 -48.717  1.00  0.00     0.258 A 
ATOM     41  H7  UNL     1      25.600  -6.535 -48.652  1.00  0.00     0.173 HD
HETATM   42  O9  UNL     1      23.087  -6.565 -48.827  1.00  0.00    -0.267 OA
ENDBRANCH  32  33
ENDBRANCH  30  32
ENDBRANCH   5  30
BRANCH   6  43
HETATM   43  O10 UNL     1      19.035  -7.941 -45.744  1.00  0.00    -0.356 OA
ATOM     44  H10 UNL     1      19.525  -7.229 -46.138  1.00  0.00     0.218 HD
ENDBRANCH   6  43
TORSDOF 11
ENDMDL
MODEL 5
REMARK VINA RESULT: -8.566366524      3.702      7.239
REMARK  11 active torsions:
REMARK  status: ('A' for Active; 'I' for Inactive)
REMARK    1  A    between atoms: O1_2  and  C2_3 
REMARK    2  A    between atoms: C4_5  and  C5_6 
REMARK       I    between atoms: C5_6  and  N1_8 
REMARK    3  A    between atoms: N1_8  and  N2_10 
REMARK    4  A    between atoms: N2_10  and  C6_12 
REMARK    5  A    between atoms: C7_13  and  O3_14 
REMARK    6  A    between atoms: N3_16  and  O4_17 
REMARK    7  A    between atoms: O4_17  and  C8_18 
REMARK    8  A    between atoms: C14_28  and  N5_29 
REMARK    9  A    between atoms: N5_29  and  C15_31 
REMARK   10  A    between atoms: C15_31  and  C16_32 
REMARK   11  A    between atoms: C20_42  and  O10_43 
ROOT
HETATM    1  C2  UNL     1      19.916  -9.679 -46.254  1.00  0.00     0.104 A 
HETATM    2  C3  UNL     1      20.188 -10.844 -45.538  1.00  0.00     0.057 A 
HETATM    3  C4  UNL     1      21.314 -11.585 -45.810  1.00  0.00     0.038 A 
HETATM    4  C13 UNL     1      22.144 -11.124 -46.808  1.00  0.00     0.049 A 
HETATM    5  C14 UNL     1      21.885  -9.964 -47.531  1.00  0.00     0.065 A 
HETATM    6  C20 UNL     1      20.755  -9.231 -47.249  1.00  0.00     0.125 A 
ENDROOT
BRANCH   3   7
HETATM    7  C5  UNL     1      21.649 -12.821 -45.086  1.00  0.00     0.270 C 
HETATM    8  O2  UNL     1      20.892 -13.170 -44.155  1.00  0.00    -0.266 OA
HETATM    9  N1  UNL     1      22.778 -13.603 -45.414  1.00  0.00    -0.265 N 
ATOM     10  H1  UNL     1      23.398 -13.325 -46.174  1.00  0.00     0.190 HD
BRANCH   9  11
HETATM   11  N2  UNL     1      23.031 -14.761 -44.681  1.00  0.00    -0.289 N 
ATOM     12  H2  UNL     1      22.376 -15.013 -43.941  1.00  0.00     0.187 HD
BRANCH  11  13
HETATM   13  C6  UNL     1      24.140 -15.606 -44.900  1.00  0.00     0.170 A 
HETATM   14  C7  UNL     1      25.411 -15.062 -45.117  1.00  0.00     0.207 A 
HETATM   15  N3  UNL     1      26.486 -15.839 -45.331  1.00  0.00    -0.135 N 
HETATM   16  C10 UNL     1      26.314 -17.173 -45.332  1.00  0.00     0.358 A 
HETATM   17  O6  UNL     1      27.312 -17.921 -45.531  1.00  0.00    -0.244 OA
HETATM   18  N4  UNL     1      25.088 -17.722 -45.123  1.00  0.00    -0.267 N 
HETATM   19  C11 UNL     1      24.957 -19.161 -45.133  1.00  0.00     0.165 C 
HETATM   20  C12 UNL     1      23.992 -16.975 -44.907  1.00  0.00     0.283 A 
HETATM   21  O7  UNL     1      22.848 -17.512 -44.712  1.00  0.00    -0.265 OA
BRANCH  14  22
HETATM   22  O3  UNL     1      25.570 -13.694 -45.112  1.00  0.00    -0.343 OA
ATOM     23  H3  UNL     1      26.100 -13.285 -45.785  1.00  0.00     0.219 HD
ENDBRANCH  14  22
BRANCH  15  24
HETATM   24  O4  UNL     1      27.695 -15.222 -45.536  1.00  0.00    -0.187 OA
BRANCH  24  25
HETATM   25  C8  UNL     1      28.171 -15.035 -46.835  1.00  0.00     0.278 C 
HETATM   26  C9  UNL     1      29.338 -15.794 -47.366  1.00  0.00     0.128 C 
HETATM   27  O5  UNL     1      27.566 -14.195 -47.540  1.00  0.00    -0.264 OA
ENDBRANCH  24  25
ENDBRANCH  15  24
ENDBRANCH  11  13
ENDBRANCH   9  11
ENDBRANCH   3   7
BRANCH   1  28
HETATM   28  O1  UNL     1      18.776  -8.925 -45.981  1.00  0.00    -0.353 OA
HETATM   29  C1  UNL     1      17.766  -9.497 -45.193  1.00  0.00     0.210 C 
ENDBRANCH   1  28
BRANCH   5  30
HETATM   30  N5  UNL     1      22.745  -9.515 -48.570  1.00  0.00    -0.383 N 
ATOM     31  H5  UNL     1      22.559  -8.603 -48.989  1.00  0.00     0.160 HD
BRANCH  30  32
HETATM   32  C15 UNL     1      23.854 -10.266 -49.061  1.00  0.00     0.165 C 
BRANCH  32  33
HETATM   33  C16 UNL     1      25.072 -10.224 -48.248  1.00  0.00     0.043 A 
HETATM   34  C17 UNL     1      25.799  -9.068 -48.109  1.00  0.00     0.107 A 
HETATM   35  N6  UNL     1      26.945  -9.068 -47.361  1.00  0.00    -0.318 N 
HETATM   36  C18 UNL     1      27.351 -10.193 -46.770  1.00  0.00     0.326 A 
ATOM     37  H6  UNL     1      27.487  -8.210 -47.254  1.00  0.00     0.170 HD
HETATM   38  O8  UNL     1      28.420 -10.133 -46.089  1.00  0.00    -0.247 OA
HETATM   39  N7  UNL     1      26.677 -11.354 -46.875  1.00  0.00    -0.275 N 
HETATM   40  C19 UNL     1      25.554 -11.365 -47.604  1.00  0.00     0.258 A 
ATOM     41  H7  UNL     1      27.012 -12.200 -46.412  1.00  0.00     0.173 HD
HETATM   42  O9  UNL     1      24.881 -12.433 -47.734  1.00  0.00    -0.267 OA
ENDBRANCH  32  33
ENDBRANCH  30  32
ENDBRANCH   5  30
BRANCH   6  43
HETATM   43  O10 UNL     1      20.450  -8.053 -47.949  1.00  0.00    -0.356 OA
ATOM     44  H10 UNL     1      21.017  -7.757 -48.650  1.00  0.00     0.218 HD
ENDBRANCH   6  43
TORSDOF 11
ENDMDL
