MODEL 1
REMARK VINA RESULT: -8.824498413      0.000      0.000
REMARK  13 active torsions:
REMARK  status: ('A' for Active; 'I' for Inactive)
REMARK    1  A    between atoms: C1_4  and  C2_6 
REMARK    2  A    between atoms: C3_7  and  C4_8 
REMARK    3  A    between atoms: C4_8  and  N3_9 
REMARK    4  A    between atoms: N3_9  and  O1_11 
REMARK    5  A    between atoms: O1_11  and  C5_12 
REMARK    6  A    between atoms: C5_12  and  C6_13 
REMARK    7  A    between atoms: C5_12  and  C12_33 
REMARK       I    between atoms: C6_13  and  N4_15 
REMARK    8  A    between atoms: N4_15  and  C7_17 
REMARK    9  A    between atoms: C9_24  and  N7_25 
REMARK   10  A    between atoms: C11_29  and  N8_30 
REMARK   11  A    between atoms: C15_36  and  O7_37 
REMARK   12  A    between atoms: C16_39  and  O8_40 
REMARK   13  A    between atoms: N10_46  and  O10_47 
ROOT
HETATM    1  C5  UNL     1      21.379 -11.851 -47.100  1.00  0.00     0.277 C 
ENDROOT
BRANCH   1   2
HETATM    2  O1  UNL     1      22.150 -10.776 -47.536  1.00  0.00    -0.261 OA
BRANCH   2   3
HETATM    3  N3  UNL     1      23.470 -10.578 -47.355  1.00  0.00    -0.274 N 
ATOM      4  H3  UNL     1      23.847 -10.810 -46.437  1.00  0.00     0.193 HD
BRANCH   3   5
HETATM    5  C4  UNL     1      24.310 -10.120 -48.235  1.00  0.00     0.148 C 
BRANCH   5   6
HETATM    6  C3  UNL     1      25.702 -10.008 -47.841  1.00  0.00     0.108 A 
HETATM    7  C2  UNL     1      26.555 -10.982 -47.452  1.00  0.00     0.160 A 
HETATM    8  N10 UNL     1      27.741 -10.372 -47.189  1.00  0.00    -0.096 N 
HETATM    9  O9  UNL     1      27.612  -9.099 -47.408  1.00  0.00    -0.127 OA
HETATM   10  N9  UNL     1      26.405  -8.834 -47.801  1.00  0.00    -0.236 N 
ATOM     11  H9  UNL     1      26.043  -7.911 -48.038  1.00  0.00     0.197 HD
BRANCH   7  12
HETATM   12  C1  UNL     1      26.299 -12.404 -47.325  1.00  0.00     0.144 C 
HETATM   13  N1  UNL     1      25.934 -13.145 -48.289  1.00  0.00    -0.386 N 
ATOM     14  H12 UNL     1      25.753 -14.145 -48.200  1.00  0.00     0.157 HD
ATOM     15  H11 UNL     1      25.812 -12.716 -49.207  1.00  0.00     0.157 HD
HETATM   16  N2  UNL     1      26.468 -12.999 -46.049  1.00  0.00    -0.081 NA
ENDBRANCH   7  12
BRANCH   8  17
HETATM   17  O10 UNL     1      28.892 -10.991 -46.763  1.00  0.00    -0.261 OA
ATOM     18  H10 UNL     1      29.310 -10.873 -45.918  1.00  0.00     0.247 HD
ENDBRANCH   8  17
ENDBRANCH   5   6
ENDBRANCH   3   5
ENDBRANCH   2   3
ENDBRANCH   1   2
BRANCH   1  19
HETATM   19  C6  UNL     1      22.287 -12.887 -46.436  1.00  0.00     0.259 C 
HETATM   20  O2  UNL     1      22.886 -12.502 -45.427  1.00  0.00    -0.270 OA
HETATM   21  N4  UNL     1      22.381 -14.160 -46.991  1.00  0.00    -0.308 N 
ATOM     22  H4  UNL     1      21.847 -14.320 -47.845  1.00  0.00     0.170 HD
BRANCH  21  23
HETATM   23  C7  UNL     1      23.125 -15.248 -46.510  1.00  0.00     0.143 A 
HETATM   24  N5  UNL     1      24.329 -15.133 -45.924  1.00  0.00    -0.325 N 
HETATM   25  C8  UNL     1      25.049 -16.154 -45.402  1.00  0.00     0.134 A 
ATOM     26  H5  UNL     1      24.734 -14.198 -45.869  1.00  0.00     0.169 HD
HETATM   27  N6  UNL     1      26.219 -15.930 -44.851  1.00  0.00    -0.383 N 
HETATM   28  C9  UNL     1      24.536 -17.427 -45.457  1.00  0.00     0.148 A 
ATOM     29  H62 UNL     1      26.600 -14.984 -44.810  1.00  0.00     0.157 HD
ATOM     30  H61 UNL     1      26.761 -16.699 -44.458  1.00  0.00     0.157 HD
HETATM   31  C10 UNL     1      23.320 -17.609 -46.038  1.00  0.00     0.080 A 
HETATM   32  C11 UNL     1      22.578 -16.536 -46.581  1.00  0.00     0.149 A 
BRANCH  28  33
HETATM   33  N7  UNL     1      25.232 -18.549 -44.928  1.00  0.00    -0.112 N 
HETATM   34  O3  UNL     1      26.201 -18.991 -45.577  1.00  0.00    -0.532 OA
HETATM   35  O4  UNL     1      24.832 -19.112 -43.737  1.00  0.00    -0.532 OA
ENDBRANCH  28  33
BRANCH  32  36
HETATM   36  N8  UNL     1      21.329 -16.826 -47.164  1.00  0.00    -0.112 N 
HETATM   37  O5  UNL     1      21.149 -16.337 -48.336  1.00  0.00    -0.532 OA
HETATM   38  O6  UNL     1      20.283 -17.541 -46.700  1.00  0.00    -0.532 OA
ENDBRANCH  32  36
ENDBRANCH  21  23
ENDBRANCH   1  19
BRANCH   1  39
HETATM   39  C12 UNL     1      20.393 -11.445 -46.080  1.00  0.00    -0.015 A 
HETATM   40  C13 UNL     1      20.053 -10.111 -45.943  1.00  0.00     0.013 A 
HETATM   41  C14 UNL     1      19.133  -9.705 -45.000  1.00  0.00     0.040 A 
HETATM   42  C15 UNL     1      18.509 -10.598 -44.152  1.00  0.00     0.098 A 
HETATM   43  C16 UNL     1      18.862 -11.936 -44.299  1.00  0.00     0.099 A 
HETATM   44  C17 UNL     1      19.776 -12.342 -45.236  1.00  0.00     0.049 A 
BRANCH  42  45
HETATM   45  O7  UNL     1      17.583 -10.191 -43.200  1.00  0.00    -0.358 OA
ATOM     46  H7  UNL     1      16.793 -10.686 -43.018  1.00  0.00     0.217 HD
ENDBRANCH  42  45
BRANCH  43  47
HETATM   47  O8  UNL     1      18.231 -12.838 -43.441  1.00  0.00    -0.358 OA
ATOM     48  H8  UNL     1      17.758 -13.551 -43.854  1.00  0.00     0.217 HD
ENDBRANCH  43  47
ENDBRANCH   1  39
TORSDOF 13
ENDMDL
MODEL 2
REMARK VINA RESULT: -8.731356739      1.334      2.012
REMARK  13 active torsions:
REMARK  status: ('A' for Active; 'I' for Inactive)
REMARK    1  A    between atoms: C1_4  and  C2_6 
REMARK    2  A    between atoms: C3_7  and  C4_8 
REMARK    3  A    between atoms: C4_8  and  N3_9 
REMARK    4  A    between atoms: N3_9  and  O1_11 
REMARK    5  A    between atoms: O1_11  and  C5_12 
REMARK    6  A    between atoms: C5_12  and  C6_13 
REMARK    7  A    between atoms: C5_12  and  C12_33 
REMARK       I    between atoms: C6_13  and  N4_15 
REMARK    8  A    between atoms: N4_15  and  C7_17 
REMARK    9  A    between atoms: C9_24  and  N7_25 
REMARK   10  A    between atoms: C11_29  and  N8_30 
REMARK   11  A    between atoms: C15_36  and  O7_37 
REMARK   12  A    between atoms: C16_39  and  O8_40 
REMARK   13  A    between atoms: N10_46  and  O10_47 
ROOT
HETATM    1  C5  UNL     1      21.984 -11.713 -47.442  1.00  0.00     0.277 C 
ENDROOT
BRANCH   1   2
HETATM    2  O1  UNL     1      22.847 -10.647 -47.685  1.00  0.00    -0.261 OA
BRANCH   2   3
HETATM    3  N3  UNL     1      24.033 -10.672 -48.324  1.00  0.00    -0.274 N 
ATOM      4  H3  UNL     1      24.004 -10.731 -49.341  1.00  0.00     0.193 HD
BRANCH   3   5
HETATM    5  C4  UNL     1      25.209 -10.628 -47.772  1.00  0.00     0.148 C 
BRANCH   5   6
HETATM    6  C3  UNL     1      26.001 -11.843 -47.778  1.00  0.00     0.108 A 
HETATM    7  C2  UNL     1      27.037 -12.185 -46.979  1.00  0.00     0.160 A 
HETATM    8  N10 UNL     1      27.441 -13.419 -47.381  1.00  0.00    -0.096 N 
HETATM    9  O9  UNL     1      26.691 -13.802 -48.369  1.00  0.00    -0.127 OA
HETATM   10  N9  UNL     1      25.813 -12.888 -48.643  1.00  0.00    -0.236 N 
ATOM     11  H9  UNL     1      25.105 -12.939 -49.374  1.00  0.00     0.197 HD
BRANCH   7  12
HETATM   12  C1  UNL     1      27.629 -11.421 -45.899  1.00  0.00     0.144 C 
HETATM   13  N1  UNL     1      28.011 -10.216 -46.012  1.00  0.00    -0.386 N 
ATOM     14  H12 UNL     1      28.429  -9.678 -45.251  1.00  0.00     0.157 HD
ATOM     15  H11 UNL     1      27.895  -9.756 -46.915  1.00  0.00     0.157 HD
HETATM   16  N2  UNL     1      27.791 -12.060 -44.643  1.00  0.00    -0.081 NA
ENDBRANCH   7  12
BRANCH   8  17
HETATM   17  O10 UNL     1      28.471 -14.149 -46.838  1.00  0.00    -0.261 OA
ATOM     18  H10 UNL     1      28.779 -14.994 -47.144  1.00  0.00     0.247 HD
ENDBRANCH   8  17
ENDBRANCH   5   6
ENDBRANCH   3   5
ENDBRANCH   2   3
ENDBRANCH   1   2
BRANCH   1  19
HETATM   19  C6  UNL     1      22.742 -12.817 -46.704  1.00  0.00     0.259 C 
HETATM   20  O2  UNL     1      23.171 -12.514 -45.587  1.00  0.00    -0.270 OA
HETATM   21  N4  UNL     1      22.895 -14.059 -47.315  1.00  0.00    -0.308 N 
ATOM     22  H4  UNL     1      22.509 -14.150 -48.254  1.00  0.00     0.170 HD
BRANCH  21  23
HETATM   23  C7  UNL     1      23.520 -15.199 -46.787  1.00  0.00     0.143 A 
HETATM   24  N5  UNL     1      24.758 -15.200 -46.261  1.00  0.00    -0.325 N 
HETATM   25  C8  UNL     1      25.370 -16.268 -45.695  1.00  0.00     0.134 A 
ATOM     26  H5  UNL     1      25.279 -14.323 -46.292  1.00  0.00     0.169 HD
HETATM   27  N6  UNL     1      26.585 -16.159 -45.212  1.00  0.00    -0.383 N 
HETATM   28  C9  UNL     1      24.698 -17.465 -45.635  1.00  0.00     0.148 A 
ATOM     29  H62 UNL     1      27.083 -15.270 -45.257  1.00  0.00     0.157 HD
ATOM     30  H61 UNL     1      27.045 -16.963 -44.786  1.00  0.00     0.157 HD
HETATM   31  C10 UNL     1      23.442 -17.528 -46.150  1.00  0.00     0.080 A 
HETATM   32  C11 UNL     1      22.814 -16.407 -46.739  1.00  0.00     0.149 A 
BRANCH  28  33
HETATM   33  N7  UNL     1      25.274 -18.628 -45.055  1.00  0.00    -0.112 N 
HETATM   34  O3  UNL     1      26.243 -19.152 -45.640  1.00  0.00    -0.532 OA
HETATM   35  O4  UNL     1      24.762 -19.142 -43.885  1.00  0.00    -0.532 OA
ENDBRANCH  28  33
BRANCH  32  36
HETATM   36  N8  UNL     1      21.511 -16.573 -47.247  1.00  0.00    -0.112 N 
HETATM   37  O5  UNL     1      21.319 -16.093 -48.421  1.00  0.00    -0.532 OA
HETATM   38  O6  UNL     1      20.421 -17.159 -46.708  1.00  0.00    -0.532 OA
ENDBRANCH  32  36
ENDBRANCH  21  23
ENDBRANCH   1  19
BRANCH   1  39
HETATM   39  C12 UNL     1      20.858 -11.325 -46.572  1.00  0.00    -0.015 A 
HETATM   40  C13 UNL     1      20.078 -12.301 -45.979  1.00  0.00     0.013 A 
HETATM   41  C14 UNL     1      19.021 -11.965 -45.159  1.00  0.00     0.040 A 
HETATM   42  C15 UNL     1      18.689 -10.652 -44.890  1.00  0.00     0.098 A 
HETATM   43  C16 UNL     1      19.482  -9.680 -45.495  1.00  0.00     0.099 A 
HETATM   44  C17 UNL     1      20.533 -10.012 -46.310  1.00  0.00     0.049 A 
BRANCH  42  45
HETATM   45  O7  UNL     1      17.625 -10.311 -44.066  1.00  0.00    -0.358 OA
ATOM     46  H7  UNL     1      16.777 -10.058 -44.412  1.00  0.00     0.217 HD
ENDBRANCH  42  45
BRANCH  43  47
HETATM   47  O8  UNL     1      19.146  -8.354 -45.223  1.00  0.00    -0.358 OA
ATOM     48  H8  UNL     1      19.329  -7.724 -45.911  1.00  0.00     0.217 HD
ENDBRANCH  43  47
ENDBRANCH   1  39
TORSDOF 13
ENDMDL
MODEL 3
REMARK VINA RESULT: -8.704070506      2.561      4.144
REMARK  13 active torsions:
REMARK  status: ('A' for Active; 'I' for Inactive)
REMARK    1  A    between atoms: C1_4  and  C2_6 
REMARK    2  A    between atoms: C3_7  and  C4_8 
REMARK    3  A    between atoms: C4_8  and  N3_9 
REMARK    4  A    between atoms: N3_9  and  O1_11 
REMARK    5  A    between atoms: O1_11  and  C5_12 
REMARK    6  A    between atoms: C5_12  and  C6_13 
REMARK    7  A    between atoms: C5_12  and  C12_33 
REMARK       I    between atoms: C6_13  and  N4_15 
REMARK    8  A    between atoms: N4_15  and  C7_17 
REMARK    9  A    between atoms: C9_24  and  N7_25 
REMARK   10  A    between atoms: C11_29  and  N8_30 
REMARK   11  A    between atoms: C15_36  and  O7_37 
REMARK   12  A    between atoms: C16_39  and  O8_40 
REMARK   13  A    between atoms: N10_46  and  O10_47 
ROOT
HETATM    1  C5  UNL     1      21.408 -11.824 -46.643  1.00  0.00     0.277 C 
ENDROOT
BRANCH   1   2
HETATM    2  O1  UNL     1      22.240 -10.726 -46.853  1.00  0.00    -0.261 OA
BRANCH   2   3
HETATM    3  N3  UNL     1      22.306  -9.934 -47.941  1.00  0.00    -0.274 N 
ATOM      4  H3  UNL     1      23.237  -9.721 -48.298  1.00  0.00     0.193 HD
BRANCH   3   5
HETATM    5  C4  UNL     1      21.300  -9.414 -48.579  1.00  0.00     0.148 C 
BRANCH   5   6
HETATM    6  C3  UNL     1      21.372  -8.003 -48.913  1.00  0.00     0.108 A 
HETATM    7  C2  UNL     1      20.692  -6.967 -48.372  1.00  0.00     0.160 A 
HETATM    8  N10 UNL     1      21.110  -5.851 -49.025  1.00  0.00    -0.096 N 
HETATM    9  O9  UNL     1      21.993  -6.193 -49.913  1.00  0.00    -0.127 OA
HETATM   10  N9  UNL     1      22.182  -7.476 -49.882  1.00  0.00    -0.236 N 
ATOM     11  H9  UNL     1      22.824  -8.000 -50.476  1.00  0.00     0.197 HD
BRANCH   7  12
HETATM   12  C1  UNL     1      19.708  -6.995 -47.307  1.00  0.00     0.144 C 
HETATM   13  N1  UNL     1      19.930  -6.582 -46.128  1.00  0.00    -0.386 N 
ATOM     14  H12 UNL     1      19.237  -6.602 -45.379  1.00  0.00     0.157 HD
ATOM     15  H11 UNL     1      20.855  -6.207 -45.915  1.00  0.00     0.157 HD
HETATM   16  N2  UNL     1      18.423  -7.517 -47.604  1.00  0.00    -0.081 NA
ENDBRANCH   7  12
BRANCH   8  17
HETATM   17  O10 UNL     1      20.676  -4.568 -48.792  1.00  0.00    -0.261 OA
ATOM     18  H10 UNL     1      20.312  -3.975 -49.438  1.00  0.00     0.247 HD
ENDBRANCH   8  17
ENDBRANCH   5   6
ENDBRANCH   3   5
ENDBRANCH   2   3
ENDBRANCH   1   2
BRANCH   1  19
HETATM   19  C6  UNL     1      22.221 -12.959 -46.019  1.00  0.00     0.259 C 
HETATM   20  O2  UNL     1      22.493 -12.824 -44.823  1.00  0.00    -0.270 OA
HETATM   21  N4  UNL     1      22.591 -14.042 -46.812  1.00  0.00    -0.308 N 
ATOM     22  H4  UNL     1      22.316 -13.998 -47.793  1.00  0.00     0.170 HD
BRANCH  21  23
HETATM   23  C7  UNL     1      23.298 -15.187 -46.416  1.00  0.00     0.143 A 
HETATM   24  N5  UNL     1      24.498 -15.156 -45.812  1.00  0.00    -0.325 N 
HETATM   25  C8  UNL     1      25.183 -16.238 -45.369  1.00  0.00     0.134 A 
ATOM     26  H5  UNL     1      24.929 -14.241 -45.676  1.00  0.00     0.169 HD
HETATM   27  N6  UNL     1      26.352 -16.094 -44.791  1.00  0.00    -0.383 N 
HETATM   28  C9  UNL     1      24.634 -17.486 -45.534  1.00  0.00     0.148 A 
ATOM     29  H62 UNL     1      26.760 -15.166 -44.669  1.00  0.00     0.157 HD
ATOM     30  H61 UNL     1      26.868 -16.908 -44.458  1.00  0.00     0.157 HD
HETATM   31  C10 UNL     1      23.421 -17.584 -46.139  1.00  0.00     0.080 A 
HETATM   32  C11 UNL     1      22.716 -16.449 -46.598  1.00  0.00     0.149 A 
BRANCH  28  33
HETATM   33  N7  UNL     1      25.292 -18.667 -45.093  1.00  0.00    -0.112 N 
HETATM   34  O3  UNL     1      26.287 -19.055 -45.739  1.00  0.00    -0.532 OA
HETATM   35  O4  UNL     1      24.829 -19.345 -43.989  1.00  0.00    -0.532 OA
ENDBRANCH  28  33
BRANCH  32  36
HETATM   36  N8  UNL     1      21.466 -16.653 -47.214  1.00  0.00    -0.112 N 
HETATM   37  O5  UNL     1      21.333 -16.108 -48.368  1.00  0.00    -0.532 OA
HETATM   38  O6  UNL     1      20.378 -17.334 -46.799  1.00  0.00    -0.532 OA
ENDBRANCH  32  36
ENDBRANCH  21  23
ENDBRANCH   1  19
BRANCH   1  39
HETATM   39  C12 UNL     1      20.320 -11.518 -45.696  1.00  0.00    -0.015 A 
HETATM   40  C13 UNL     1      19.917 -12.472 -44.778  1.00  0.00     0.013 A 
HETATM   41  C14 UNL     1      18.905 -12.211 -43.880  1.00  0.00     0.040 A 
HETATM   42  C15 UNL     1      18.246 -10.998 -43.848  1.00  0.00     0.098 A 
HETATM   43  C16 UNL     1      18.661 -10.048 -44.777  1.00  0.00     0.099 A 
HETATM   44  C17 UNL     1      19.667 -10.305 -45.671  1.00  0.00     0.049 A 
BRANCH  42  45
HETATM   45  O7  UNL     1      17.225 -10.733 -42.944  1.00  0.00    -0.358 OA
ATOM     46  H7  UNL     1      16.700  -9.944 -42.991  1.00  0.00     0.217 HD
ENDBRANCH  42  45
BRANCH  43  47
HETATM   47  O8  UNL     1      17.995  -8.822 -44.744  1.00  0.00    -0.358 OA
ATOM     48  H8  UNL     1      18.139  -8.246 -45.485  1.00  0.00     0.217 HD
ENDBRANCH  43  47
ENDBRANCH   1  39
TORSDOF 13
ENDMDL
MODEL 4
REMARK VINA RESULT: -8.670362645      1.394      1.856
REMARK  13 active torsions:
REMARK  status: ('A' for Active; 'I' for Inactive)
REMARK    1  A    between atoms: C1_4  and  C2_6 
REMARK    2  A    between atoms: C3_7  and  C4_8 
REMARK    3  A    between atoms: C4_8  and  N3_9 
REMARK    4  A    between atoms: N3_9  and  O1_11 
REMARK    5  A    between atoms: O1_11  and  C5_12 
REMARK    6  A    between atoms: C5_12  and  C6_13 
REMARK    7  A    between atoms: C5_12  and  C12_33 
REMARK       I    between atoms: C6_13  and  N4_15 
REMARK    8  A    between atoms: N4_15  and  C7_17 
REMARK    9  A    between atoms: C9_24  and  N7_25 
REMARK   10  A    between atoms: C11_29  and  N8_30 
REMARK   11  A    between atoms: C15_36  and  O7_37 
REMARK   12  A    between atoms: C16_39  and  O8_40 
REMARK   13  A    between atoms: N10_46  and  O10_47 
ROOT
HETATM    1  C5  UNL     1      21.219 -11.664 -47.060  1.00  0.00     0.277 C 
ENDROOT
BRANCH   1   2
HETATM    2  O1  UNL     1      21.932 -10.532 -47.451  1.00  0.00    -0.261 OA
BRANCH   2   3
HETATM    3  N3  UNL     1      22.989 -10.467 -48.282  1.00  0.00    -0.274 N 
ATOM      4  H3  UNL     1      22.806 -10.630 -49.272  1.00  0.00     0.193 HD
BRANCH   3   5
HETATM    5  C4  UNL     1      24.220 -10.216 -47.948  1.00  0.00     0.148 C 
BRANCH   5   6
HETATM    6  C3  UNL     1      25.159 -11.323 -47.961  1.00  0.00     0.108 A 
HETATM    7  C2  UNL     1      25.749 -11.922 -49.020  1.00  0.00     0.160 A 
HETATM    8  N10 UNL     1      26.541 -12.903 -48.514  1.00  0.00    -0.096 N 
HETATM    9  O9  UNL     1      26.436 -12.898 -47.220  1.00  0.00    -0.127 OA
HETATM   10  N9  UNL     1      25.617 -11.966 -46.843  1.00  0.00    -0.236 N 
ATOM     11  H9  UNL     1      25.359 -11.750 -45.880  1.00  0.00     0.197 HD
BRANCH   7  12
HETATM   12  C1  UNL     1      25.596 -11.613 -50.429  1.00  0.00     0.144 C 
HETATM   13  N1  UNL     1      26.561 -11.301 -51.193  1.00  0.00    -0.386 N 
ATOM     14  H12 UNL     1      26.454 -11.083 -52.184  1.00  0.00     0.157 HD
ATOM     15  H11 UNL     1      27.500 -11.265 -50.794  1.00  0.00     0.157 HD
HETATM   16  N2  UNL     1      24.292 -11.663 -50.983  1.00  0.00    -0.081 NA
ENDBRANCH   7  12
BRANCH   8  17
HETATM   17  O10 UNL     1      27.328 -13.764 -49.242  1.00  0.00    -0.261 OA
ATOM     18  H10 UNL     1      27.928 -13.520 -49.936  1.00  0.00     0.247 HD
ENDBRANCH   8  17
ENDBRANCH   5   6
ENDBRANCH   3   5
ENDBRANCH   2   3
ENDBRANCH   1   2
BRANCH   1  19
HETATM   19  C6  UNL     1      22.188 -12.690 -46.472  1.00  0.00     0.259 C 
HETATM   20  O2  UNL     1      22.797 -12.330 -45.460  1.00  0.00    -0.270 OA
HETATM   21  N4  UNL     1      22.320 -13.930 -47.091  1.00  0.00    -0.308 N 
ATOM     22  H4  UNL     1      21.770 -14.072 -47.938  1.00  0.00     0.170 HD
BRANCH  21  23
HETATM   23  C7  UNL     1      23.121 -15.007 -46.684  1.00  0.00     0.143 A 
HETATM   24  N5  UNL     1      24.353 -14.870 -46.163  1.00  0.00    -0.325 N 
HETATM   25  C8  UNL     1      25.132 -15.882 -45.711  1.00  0.00     0.134 A 
ATOM     26  H5  UNL     1      24.734 -13.925 -46.105  1.00  0.00     0.169 HD
HETATM   27  N6  UNL     1      26.324 -15.637 -45.221  1.00  0.00    -0.383 N 
HETATM   28  C9  UNL     1      24.653 -17.169 -45.773  1.00  0.00     0.148 A 
ATOM     29  H62 UNL     1      26.679 -14.681 -45.175  1.00  0.00     0.157 HD
ATOM     30  H61 UNL     1      26.910 -16.399 -44.880  1.00  0.00     0.157 HD
HETATM   31  C10 UNL     1      23.412 -17.373 -46.289  1.00  0.00     0.080 A 
HETATM   32  C11 UNL     1      22.610 -16.309 -46.760  1.00  0.00     0.149 A 
BRANCH  28  33
HETATM   33  N7  UNL     1      25.411 -18.282 -45.315  1.00  0.00    -0.112 N 
HETATM   34  O3  UNL     1      24.913 -18.998 -44.423  1.00  0.00    -0.532 OA
HETATM   35  O4  UNL     1      26.651 -18.541 -45.854  1.00  0.00    -0.532 OA
ENDBRANCH  28  33
BRANCH  32  36
HETATM   36  N8  UNL     1      21.339 -16.621 -47.279  1.00  0.00    -0.112 N 
HETATM   37  O5  UNL     1      21.092 -16.137 -48.441  1.00  0.00    -0.532 OA
HETATM   38  O6  UNL     1      20.330 -17.354 -46.763  1.00  0.00    -0.532 OA
ENDBRANCH  32  36
ENDBRANCH  21  23
ENDBRANCH   1  19
BRANCH   1  39
HETATM   39  C12 UNL     1      20.238 -11.360 -46.002  1.00  0.00    -0.015 A 
HETATM   40  C13 UNL     1      19.848 -10.052 -45.778  1.00  0.00     0.013 A 
HETATM   41  C14 UNL     1      18.930  -9.742 -44.797  1.00  0.00     0.040 A 
HETATM   42  C15 UNL     1      18.358 -10.709 -43.995  1.00  0.00     0.098 A 
HETATM   43  C16 UNL     1      18.760 -12.021 -44.229  1.00  0.00     0.099 A 
HETATM   44  C17 UNL     1      19.672 -12.332 -45.205  1.00  0.00     0.049 A 
BRANCH  42  45
HETATM   45  O7  UNL     1      17.435 -10.398 -43.005  1.00  0.00    -0.358 OA
ATOM     46  H7  UNL     1      17.640 -10.470 -42.080  1.00  0.00     0.217 HD
ENDBRANCH  42  45
BRANCH  43  47
HETATM   47  O8  UNL     1      18.182 -12.997 -43.418  1.00  0.00    -0.358 OA
ATOM     48  H8  UNL     1      17.300 -13.266 -43.648  1.00  0.00     0.217 HD
ENDBRANCH  43  47
ENDBRANCH   1  39
TORSDOF 13
ENDMDL
MODEL 5
REMARK VINA RESULT: -8.647848911      4.954     10.805
REMARK  13 active torsions:
REMARK  status: ('A' for Active; 'I' for Inactive)
REMARK    1  A    between atoms: C1_4  and  C2_6 
REMARK    2  A    between atoms: C3_7  and  C4_8 
REMARK    3  A    between atoms: C4_8  and  N3_9 
REMARK    4  A    between atoms: N3_9  and  O1_11 
REMARK    5  A    between atoms: O1_11  and  C5_12 
REMARK    6  A    between atoms: C5_12  and  C6_13 
REMARK    7  A    between atoms: C5_12  and  C12_33 
REMARK       I    between atoms: C6_13  and  N4_15 
REMARK    8  A    between atoms: N4_15  and  C7_17 
REMARK    9  A    between atoms: C9_24  and  N7_25 
REMARK   10  A    between atoms: C11_29  and  N8_30 
REMARK   11  A    between atoms: C15_36  and  O7_37 
REMARK   12  A    between atoms: C16_39  and  O8_40 
REMARK   13  A    between atoms: N10_46  and  O10_47 
ROOT
HETATM    1  C5  UNL     1      26.707 -19.645 -43.844  1.00  0.00     0.277 C 
ENDROOT
BRANCH   1   2
HETATM    2  O1  UNL     1      25.738 -19.631 -42.844  1.00  0.00    -0.261 OA
BRANCH   2   3
HETATM    3  N3  UNL     1      25.643 -20.441 -41.771  1.00  0.00    -0.274 N 
ATOM      4  H3  UNL     1      26.001 -20.077 -40.889  1.00  0.00     0.193 HD
BRANCH   3   5
HETATM    5  C4  UNL     1      25.142 -21.640 -41.751  1.00  0.00     0.148 C 
BRANCH   5   6
HETATM    6  C3  UNL     1      25.293 -22.412 -40.532  1.00  0.00     0.108 A 
HETATM    7  C2  UNL     1      26.427 -22.746 -39.874  1.00  0.00     0.160 A 
HETATM    8  N10 UNL     1      26.042 -23.473 -38.792  1.00  0.00    -0.096 N 
HETATM    9  O9  UNL     1      24.748 -23.573 -38.795  1.00  0.00    -0.127 OA
HETATM   10  N9  UNL     1      24.255 -22.951 -39.820  1.00  0.00    -0.236 N 
ATOM     11  H9  UNL     1      23.266 -22.877 -40.056  1.00  0.00     0.197 HD
BRANCH   7  12
HETATM   12  C1  UNL     1      27.796 -22.417 -40.218  1.00  0.00     0.144 C 
HETATM   13  N1  UNL     1      28.637 -23.261 -40.656  1.00  0.00    -0.386 N 
ATOM     14  H12 UNL     1      29.601 -23.030 -40.898  1.00  0.00     0.157 HD
ATOM     15  H11 UNL     1      28.333 -24.228 -40.774  1.00  0.00     0.157 HD
HETATM   16  N2  UNL     1      28.218 -21.074 -40.054  1.00  0.00    -0.081 NA
ENDBRANCH   7  12
BRANCH   8  17
HETATM   17  O10 UNL     1      26.877 -24.016 -37.845  1.00  0.00    -0.261 OA
ATOM     18  H10 UNL     1      27.126 -24.930 -37.778  1.00  0.00     0.247 HD
ENDBRANCH   8  17
ENDBRANCH   5   6
ENDBRANCH   3   5
ENDBRANCH   2   3
ENDBRANCH   1   2
BRANCH   1  19
HETATM   19  C6  UNL     1      26.475 -18.463 -44.787  1.00  0.00     0.259 C 
HETATM   20  O2  UNL     1      27.061 -18.524 -45.871  1.00  0.00    -0.270 OA
HETATM   21  N4  UNL     1      25.643 -17.425 -44.378  1.00  0.00    -0.308 N 
ATOM     22  H4  UNL     1      25.251 -17.503 -43.440  1.00  0.00     0.170 HD
BRANCH  21  23
HETATM   23  C7  UNL     1      25.280 -16.283 -45.109  1.00  0.00     0.143 A 
HETATM   24  N5  UNL     1      26.148 -15.541 -45.820  1.00  0.00    -0.325 N 
HETATM   25  C8  UNL     1      25.824 -14.467 -46.579  1.00  0.00     0.134 A 
ATOM     26  H5  UNL     1      27.131 -15.810 -45.783  1.00  0.00     0.169 HD
HETATM   27  N6  UNL     1      26.753 -13.811 -47.234  1.00  0.00    -0.383 N 
HETATM   28  C9  UNL     1      24.509 -14.076 -46.653  1.00  0.00     0.148 A 
ATOM     29  H62 UNL     1      27.729 -14.101 -47.178  1.00  0.00     0.157 HD
ATOM     30  H61 UNL     1      26.509 -13.002 -47.805  1.00  0.00     0.157 HD
HETATM   31  C10 UNL     1      23.583 -14.787 -45.957  1.00  0.00     0.080 A 
HETATM   32  C11 UNL     1      23.933 -15.906 -45.167  1.00  0.00     0.149 A 
BRANCH  28  33
HETATM   33  N7  UNL     1      24.093 -12.961 -47.431  1.00  0.00    -0.112 N 
HETATM   34  O3  UNL     1      23.364 -13.180 -48.419  1.00  0.00    -0.532 OA
HETATM   35  O4  UNL     1      24.494 -11.690 -47.086  1.00  0.00    -0.532 OA
ENDBRANCH  28  33
BRANCH  32  36
HETATM   36  N8  UNL     1      22.902 -16.577 -44.480  1.00  0.00    -0.112 N 
HETATM   37  O5  UNL     1      22.728 -16.208 -43.265  1.00  0.00    -0.532 OA
HETATM   38  O6  UNL     1      22.055 -17.545 -44.888  1.00  0.00    -0.532 OA
ENDBRANCH  32  36
ENDBRANCH  21  23
ENDBRANCH   1  19
BRANCH   1  39
HETATM   39  C12 UNL     1      28.067 -19.483 -43.297  1.00  0.00    -0.015 A 
HETATM   40  C13 UNL     1      29.017 -20.465 -43.510  1.00  0.00     0.013 A 
HETATM   41  C14 UNL     1      30.297 -20.336 -43.012  1.00  0.00     0.040 A 
HETATM   42  C15 UNL     1      30.693 -19.233 -42.283  1.00  0.00     0.098 A 
HETATM   43  C16 UNL     1      29.727 -18.253 -42.075  1.00  0.00     0.099 A 
HETATM   44  C17 UNL     1      28.455 -18.378 -42.569  1.00  0.00     0.049 A 
BRANCH  42  45
HETATM   45  O7  UNL     1      31.981 -19.102 -41.780  1.00  0.00    -0.358 OA
ATOM     46  H7  UNL     1      32.727 -19.531 -42.182  1.00  0.00     0.217 HD
ENDBRANCH  42  45
BRANCH  43  47
HETATM   47  O8  UNL     1      30.128 -17.139 -41.338  1.00  0.00    -0.358 OA
ATOM     48  H8  UNL     1      29.634 -16.958 -40.546  1.00  0.00     0.217 HD
ENDBRANCH  43  47
ENDBRANCH   1  39
TORSDOF 13
ENDMDL
