MODEL 1
REMARK VINA RESULT: -8.202495235      0.000      0.000
REMARK  12 active torsions:
REMARK  status: ('A' for Active; 'I' for Inactive)
REMARK    1  A    between atoms: C2_2  and  C3_3 
REMARK    2  A    between atoms: C3_3  and  N1_4 
REMARK    3  A    between atoms: C5_10  and  N3_11 
REMARK    4  A    between atoms: N3_11  and  N4_13 
REMARK    5  A    between atoms: N6_20  and  C7_21 
REMARK    6  A    between atoms: C7_21  and  O3_22 
REMARK    7  A    between atoms: C7_21  and  C8_24 
REMARK    8  A    between atoms: C8_24  and  S2_25 
REMARK    9  A    between atoms: S2_25  and  C9_26 
REMARK   10  A    between atoms: C10_31  and  C11_32 
REMARK   11  A    between atoms: C11_32  and  C12_33 
REMARK   12  A    between atoms: C13_35  and  N9_36 
ROOT
HETATM    1  C7  UNL     1      28.188 -19.162 -43.136  1.00  0.00     0.134 C 
ENDROOT
BRANCH   1   2
HETATM    2  N6  UNL     1      28.743 -19.228 -41.880  1.00  0.00    -0.289 N 
HETATM    3  C2  UNL     1      29.485 -20.156 -41.134  1.00  0.00     0.087 C 
HETATM    4  C1  UNL     1      30.902 -19.614 -40.997  1.00  0.00     0.044 C 
HETATM    5  C4  UNL     1      28.899 -20.247 -39.758  1.00  0.00     0.165 A 
HETATM    6  N2  UNL     1      27.706 -21.012 -39.683  1.00  0.00    -0.215 N 
HETATM    7  C6  UNL     1      28.544 -18.916 -39.213  1.00  0.00     0.209 A 
HETATM    8  C5  UNL     1      26.732 -20.240 -38.996  1.00  0.00     0.689 A 
ATOM      9  H2  UNL     1      27.572 -21.951 -40.057  1.00  0.00     0.178 HD
HETATM   10  N5  UNL     1      27.204 -19.056 -38.730  1.00  0.00    -0.208 N 
ATOM     11  H5  UNL     1      26.687 -18.324 -38.242  1.00  0.00     0.179 HD
HETATM   12  S1  UNL     1      28.568 -17.859 -40.691  1.00  0.00    -0.022 SA
BRANCH   3  13
HETATM   13  C3  UNL     1      29.557 -21.491 -41.768  1.00  0.00     0.235 C 
BRANCH  13  14
HETATM   14  N1  UNL     1      30.163 -22.548 -40.990  1.00  0.00    -0.153 N 
HETATM   15  O1  UNL     1      31.346 -22.594 -40.689  1.00  0.00    -0.536 OA
HETATM   16  O2  UNL     1      29.334 -23.569 -40.590  1.00  0.00    -0.536 OA
ENDBRANCH  13  14
ENDBRANCH   3  13
BRANCH   8  17
HETATM   17  N3  UNL     1      25.408 -20.620 -38.615  1.00  0.00    -0.139 N 
ATOM     18  H3  UNL     1      25.097 -21.572 -38.811  1.00  0.00     0.205 HD
BRANCH  17  19
HETATM   19  N4  UNL     1      24.525 -19.746 -37.986  1.00  0.00    -0.331 N 
ATOM     20  H42 UNL     1      23.981 -19.117 -38.577  1.00  0.00     0.177 HD
ATOM     21  H41 UNL     1      24.407 -19.716 -36.973  1.00  0.00     0.177 HD
ENDBRANCH  17  19
ENDBRANCH   8  17
ENDBRANCH   1   2
BRANCH   1  22
HETATM   22  O3  UNL     1      27.017 -19.739 -43.248  1.00  0.00    -0.348 OA
ATOM     23  H3  UNL     1      26.281 -19.193 -42.999  1.00  0.00     0.219 HD
ENDBRANCH   1  22
BRANCH   1  24
HETATM   24  C8  UNL     1      28.641 -18.571 -44.392  1.00  0.00     0.167 C 
BRANCH  24  25
HETATM   25  S2  UNL     1      27.752 -17.002 -44.725  1.00  0.00    -0.084 SA
BRANCH  25  26
HETATM   26  C9  UNL     1      26.032 -17.285 -45.028  1.00  0.00     0.160 A 
HETATM   27  N7  UNL     1      25.534 -18.306 -45.766  1.00  0.00    -0.278 N 
HETATM   28  N8  UNL     1      24.230 -18.242 -45.799  1.00  0.00    -0.287 N 
ATOM     29  H7  UNL     1      26.095 -19.021 -46.228  1.00  0.00     0.189 HD
HETATM   30  C10 UNL     1      23.829 -17.159 -45.073  1.00  0.00     0.102 A 
ATOM     31  H8  UNL     1      23.615 -18.892 -46.287  1.00  0.00     0.188 HD
HETATM   32  N12 UNL     1      24.948 -16.601 -44.618  1.00  0.00    -0.324 N 
ATOM     33  H12 UNL     1      24.979 -15.765 -44.035  1.00  0.00     0.169 HD
BRANCH  30  34
HETATM   34  C11 UNL     1      22.421 -16.776 -44.892  1.00  0.00     0.127 C 
BRANCH  34  35
HETATM   35  C12 UNL     1      22.251 -15.396 -45.485  1.00  0.00     0.034 A 
HETATM   36  S3  UNL     1      22.449 -13.864 -44.761  1.00  0.00    -0.055 SA
HETATM   37  C13 UNL     1      22.069 -12.900 -46.113  1.00  0.00     0.143 A 
HETATM   38  N10 UNL     1      21.805 -13.800 -47.064  1.00  0.00    -0.325 N 
HETATM   39  C14 UNL     1      21.893 -15.066 -46.763  1.00  0.00     0.132 A 
ATOM     40  H10 UNL     1      21.542 -13.504 -48.003  1.00  0.00     0.169 HD
HETATM   41  N11 UNL     1      21.627 -16.138 -47.723  1.00  0.00    -0.082 NA
BRANCH  37  42
HETATM   42  N9  UNL     1      22.033 -11.587 -46.231  1.00  0.00    -0.380 N 
ATOM     43  H92 UNL     1      22.624 -10.912 -45.746  1.00  0.00     0.158 HD
ATOM     44  H91 UNL     1      21.432 -11.000 -46.807  1.00  0.00     0.158 HD
ENDBRANCH  37  42
ENDBRANCH  34  35
ENDBRANCH  30  34
ENDBRANCH  25  26
ENDBRANCH  24  25
ENDBRANCH   1  24
TORSDOF 12
ENDMDL
MODEL 2
REMARK VINA RESULT: -8.072848570      0.927      1.142
REMARK  12 active torsions:
REMARK  status: ('A' for Active; 'I' for Inactive)
REMARK    1  A    between atoms: C2_2  and  C3_3 
REMARK    2  A    between atoms: C3_3  and  N1_4 
REMARK    3  A    between atoms: C5_10  and  N3_11 
REMARK    4  A    between atoms: N3_11  and  N4_13 
REMARK    5  A    between atoms: N6_20  and  C7_21 
REMARK    6  A    between atoms: C7_21  and  O3_22 
REMARK    7  A    between atoms: C7_21  and  C8_24 
REMARK    8  A    between atoms: C8_24  and  S2_25 
REMARK    9  A    between atoms: S2_25  and  C9_26 
REMARK   10  A    between atoms: C10_31  and  C11_32 
REMARK   11  A    between atoms: C11_32  and  C12_33 
REMARK   12  A    between atoms: C13_35  and  N9_36 
ROOT
HETATM    1  C7  UNL     1      28.208 -19.121 -43.136  1.00  0.00     0.134 C 
ENDROOT
BRANCH   1   2
HETATM    2  N6  UNL     1      28.754 -19.197 -41.876  1.00  0.00    -0.289 N 
HETATM    3  C2  UNL     1      29.488 -20.131 -41.131  1.00  0.00     0.087 C 
HETATM    4  C1  UNL     1      30.906 -19.595 -40.979  1.00  0.00     0.044 C 
HETATM    5  C4  UNL     1      28.891 -20.230 -39.760  1.00  0.00     0.165 A 
HETATM    6  N2  UNL     1      27.695 -20.992 -39.699  1.00  0.00    -0.215 N 
HETATM    7  C6  UNL     1      28.536 -18.901 -39.209  1.00  0.00     0.209 A 
HETATM    8  C5  UNL     1      26.719 -20.221 -39.014  1.00  0.00     0.689 A 
ATOM      9  H2  UNL     1      27.562 -21.928 -40.079  1.00  0.00     0.178 HD
HETATM   10  N5  UNL     1      27.192 -19.040 -38.737  1.00  0.00    -0.208 N 
ATOM     11  H5  UNL     1      26.674 -18.310 -38.248  1.00  0.00     0.179 HD
HETATM   12  S1  UNL     1      28.575 -17.835 -40.680  1.00  0.00    -0.022 SA
BRANCH   3  13
HETATM   13  C3  UNL     1      29.560 -21.463 -41.773  1.00  0.00     0.235 C 
BRANCH  13  14
HETATM   14  N1  UNL     1      30.154 -22.527 -40.996  1.00  0.00    -0.153 N 
HETATM   15  O1  UNL     1      31.337 -22.587 -40.694  1.00  0.00    -0.536 OA
HETATM   16  O2  UNL     1      29.314 -23.540 -40.598  1.00  0.00    -0.536 OA
ENDBRANCH  13  14
ENDBRANCH   3  13
BRANCH   8  17
HETATM   17  N3  UNL     1      25.390 -20.600 -38.645  1.00  0.00    -0.139 N 
ATOM     18  H3  UNL     1      25.068 -21.540 -38.876  1.00  0.00     0.205 HD
BRANCH  17  19
HETATM   19  N4  UNL     1      24.519 -19.740 -37.982  1.00  0.00    -0.331 N 
ATOM     20  H42 UNL     1      24.778 -18.754 -37.927  1.00  0.00     0.177 HD
ATOM     21  H41 UNL     1      23.647 -20.057 -37.559  1.00  0.00     0.177 HD
ENDBRANCH  17  19
ENDBRANCH   8  17
ENDBRANCH   1   2
BRANCH   1  22
HETATM   22  O3  UNL     1      27.053 -19.723 -43.269  1.00  0.00    -0.348 OA
ATOM     23  H3  UNL     1      27.108 -20.661 -43.407  1.00  0.00     0.219 HD
ENDBRANCH   1  22
BRANCH   1  24
HETATM   24  C8  UNL     1      28.659 -18.497 -44.377  1.00  0.00     0.167 C 
BRANCH  24  25
HETATM   25  S2  UNL     1      27.747 -16.934 -44.681  1.00  0.00    -0.084 SA
BRANCH  25  26
HETATM   26  C9  UNL     1      26.040 -17.239 -45.027  1.00  0.00     0.160 A 
HETATM   27  N7  UNL     1      25.572 -18.275 -45.763  1.00  0.00    -0.278 N 
HETATM   28  N8  UNL     1      24.269 -18.224 -45.833  1.00  0.00    -0.287 N 
ATOM     29  H7  UNL     1      26.152 -18.991 -46.200  1.00  0.00     0.189 HD
HETATM   30  C10 UNL     1      23.837 -17.135 -45.134  1.00  0.00     0.102 A 
ATOM     31  H8  UNL     1      23.673 -18.888 -46.328  1.00  0.00     0.188 HD
HETATM   32  N12 UNL     1      24.938 -16.560 -44.657  1.00  0.00    -0.324 N 
ATOM     33  H12 UNL     1      24.945 -15.715 -44.085  1.00  0.00     0.169 HD
BRANCH  30  34
HETATM   34  C11 UNL     1      22.421 -16.764 -44.997  1.00  0.00     0.127 C 
BRANCH  34  35
HETATM   35  C12 UNL     1      22.295 -15.315 -45.408  1.00  0.00     0.034 A 
HETATM   36  S3  UNL     1      21.930 -14.639 -46.930  1.00  0.00    -0.055 SA
HETATM   37  C13 UNL     1      21.995 -12.994 -46.494  1.00  0.00     0.143 A 
HETATM   38  N10 UNL     1      22.295 -13.036 -45.193  1.00  0.00    -0.325 N 
HETATM   39  C14 UNL     1      22.450 -14.201 -44.628  1.00  0.00     0.132 A 
ATOM     40  H10 UNL     1      22.400 -12.177 -44.654  1.00  0.00     0.169 HD
HETATM   41  N11 UNL     1      22.780 -14.367 -43.212  1.00  0.00    -0.082 NA
BRANCH  37  42
HETATM   42  N9  UNL     1      21.802 -11.916 -47.229  1.00  0.00    -0.380 N 
ATOM     43  H92 UNL     1      20.942 -11.372 -47.306  1.00  0.00     0.158 HD
ATOM     44  H91 UNL     1      22.445 -11.424 -47.849  1.00  0.00     0.158 HD
ENDBRANCH  37  42
ENDBRANCH  34  35
ENDBRANCH  30  34
ENDBRANCH  25  26
ENDBRANCH  24  25
ENDBRANCH   1  24
TORSDOF 12
ENDMDL
MODEL 3
REMARK VINA RESULT: -7.924988504      2.306      3.298
REMARK  12 active torsions:
REMARK  status: ('A' for Active; 'I' for Inactive)
REMARK    1  A    between atoms: C2_2  and  C3_3 
REMARK    2  A    between atoms: C3_3  and  N1_4 
REMARK    3  A    between atoms: C5_10  and  N3_11 
REMARK    4  A    between atoms: N3_11  and  N4_13 
REMARK    5  A    between atoms: N6_20  and  C7_21 
REMARK    6  A    between atoms: C7_21  and  O3_22 
REMARK    7  A    between atoms: C7_21  and  C8_24 
REMARK    8  A    between atoms: C8_24  and  S2_25 
REMARK    9  A    between atoms: S2_25  and  C9_26 
REMARK   10  A    between atoms: C10_31  and  C11_32 
REMARK   11  A    between atoms: C11_32  and  C12_33 
REMARK   12  A    between atoms: C13_35  and  N9_36 
ROOT
HETATM    1  C7  UNL     1      28.582 -16.696 -43.449  1.00  0.00     0.134 C 
ENDROOT
BRANCH   1   2
HETATM    2  N6  UNL     1      28.555 -18.067 -43.354  1.00  0.00    -0.289 N 
HETATM    3  C2  UNL     1      27.631 -19.095 -43.596  1.00  0.00     0.087 C 
HETATM    4  C1  UNL     1      28.100 -19.862 -44.825  1.00  0.00     0.044 C 
HETATM    5  C4  UNL     1      27.649 -20.042 -42.435  1.00  0.00     0.165 A 
HETATM    6  N2  UNL     1      26.956 -19.572 -41.289  1.00  0.00    -0.215 N 
HETATM    7  C6  UNL     1      29.026 -20.328 -41.969  1.00  0.00     0.209 A 
HETATM    8  C5  UNL     1      27.818 -19.709 -40.169  1.00  0.00     0.689 A 
ATOM      9  H2  UNL     1      26.006 -19.201 -41.273  1.00  0.00     0.178 HD
HETATM   10  N5  UNL     1      28.987 -20.136 -40.551  1.00  0.00    -0.208 N 
ATOM     11  H5  UNL     1      29.772 -20.310 -39.924  1.00  0.00     0.179 HD
HETATM   12  S1  UNL     1      29.996 -19.006 -42.753  1.00  0.00    -0.022 SA
BRANCH   3  13
HETATM   13  C3  UNL     1      26.260 -18.598 -43.852  1.00  0.00     0.235 C 
BRANCH  13  14
HETATM   14  N1  UNL     1      25.302 -19.563 -44.344  1.00  0.00    -0.153 N 
HETATM   15  O1  UNL     1      24.885 -20.514 -43.701  1.00  0.00    -0.536 OA
HETATM   16  O2  UNL     1      24.860 -19.386 -45.633  1.00  0.00    -0.536 OA
ENDBRANCH  13  14
ENDBRANCH   3  13
BRANCH   8  17
HETATM   17  N3  UNL     1      27.533 -19.440 -38.794  1.00  0.00    -0.139 N 
ATOM     18  H3  UNL     1      28.201 -18.889 -38.255  1.00  0.00     0.205 HD
BRANCH  17  19
HETATM   19  N4  UNL     1      26.381 -19.899 -38.161  1.00  0.00    -0.331 N 
ATOM     20  H42 UNL     1      26.142 -20.885 -38.270  1.00  0.00     0.177 HD
ATOM     21  H41 UNL     1      25.781 -19.293 -37.602  1.00  0.00     0.177 HD
ENDBRANCH  17  19
ENDBRANCH   8  17
ENDBRANCH   1   2
BRANCH   1  22
HETATM   22  O3  UNL     1      28.318 -16.065 -42.331  1.00  0.00    -0.348 OA
ATOM     23  H3  UNL     1      28.248 -15.122 -42.416  1.00  0.00     0.219 HD
ENDBRANCH   1  22
BRANCH   1  24
HETATM   24  C8  UNL     1      28.847 -15.782 -44.556  1.00  0.00     0.167 C 
BRANCH  24  25
HETATM   25  S2  UNL     1      27.631 -16.035 -45.906  1.00  0.00    -0.084 SA
BRANCH  25  26
HETATM   26  C9  UNL     1      25.972 -15.829 -45.328  1.00  0.00     0.160 A 
HETATM   27  N7  UNL     1      25.631 -15.330 -44.116  1.00  0.00    -0.278 N 
HETATM   28  N8  UNL     1      24.332 -15.303 -43.990  1.00  0.00    -0.287 N 
ATOM     29  H7  UNL     1      26.293 -15.019 -43.404  1.00  0.00     0.189 HD
HETATM   30  C10 UNL     1      23.773 -15.793 -45.134  1.00  0.00     0.102 A 
ATOM     31  H8  UNL     1      23.820 -14.972 -43.172  1.00  0.00     0.188 HD
HETATM   32  N12 UNL     1      24.797 -16.102 -45.925  1.00  0.00    -0.324 N 
ATOM     33  H12 UNL     1      24.704 -16.494 -46.862  1.00  0.00     0.169 HD
BRANCH  30  34
HETATM   34  C11 UNL     1      22.323 -15.911 -45.347  1.00  0.00     0.127 C 
BRANCH  34  35
HETATM   35  C12 UNL     1      21.815 -14.545 -45.746  1.00  0.00     0.034 A 
HETATM   36  S3  UNL     1      21.407 -13.205 -44.773  1.00  0.00    -0.055 SA
HETATM   37  C13 UNL     1      20.946 -12.130 -46.012  1.00  0.00     0.143 A 
HETATM   38  N10 UNL     1      21.127 -12.850 -47.122  1.00  0.00    -0.325 N 
HETATM   39  C14 UNL     1      21.565 -14.073 -47.006  1.00  0.00     0.132 A 
ATOM     40  H10 UNL     1      20.926 -12.453 -48.040  1.00  0.00     0.169 HD
HETATM   41  N11 UNL     1      21.799 -14.953 -48.151  1.00  0.00    -0.082 NA
BRANCH  37  42
HETATM   42  N9  UNL     1      20.514 -10.887 -45.935  1.00  0.00    -0.380 N 
ATOM     43  H92 UNL     1      19.641 -10.566 -45.517  1.00  0.00     0.158 HD
ATOM     44  H91 UNL     1      20.946 -10.023 -46.264  1.00  0.00     0.158 HD
ENDBRANCH  37  42
ENDBRANCH  34  35
ENDBRANCH  30  34
ENDBRANCH  25  26
ENDBRANCH  24  25
ENDBRANCH   1  24
TORSDOF 12
ENDMDL
MODEL 4
REMARK VINA RESULT: -7.863491870      2.563      3.952
REMARK  12 active torsions:
REMARK  status: ('A' for Active; 'I' for Inactive)
REMARK    1  A    between atoms: C2_2  and  C3_3 
REMARK    2  A    between atoms: C3_3  and  N1_4 
REMARK    3  A    between atoms: C5_10  and  N3_11 
REMARK    4  A    between atoms: N3_11  and  N4_13 
REMARK    5  A    between atoms: N6_20  and  C7_21 
REMARK    6  A    between atoms: C7_21  and  O3_22 
REMARK    7  A    between atoms: C7_21  and  C8_24 
REMARK    8  A    between atoms: C8_24  and  S2_25 
REMARK    9  A    between atoms: S2_25  and  C9_26 
REMARK   10  A    between atoms: C10_31  and  C11_32 
REMARK   11  A    between atoms: C11_32  and  C12_33 
REMARK   12  A    between atoms: C13_35  and  N9_36 
ROOT
HETATM    1  C7  UNL     1      28.898 -16.769 -43.336  1.00  0.00     0.134 C 
ENDROOT
BRANCH   1   2
HETATM    2  N6  UNL     1      28.765 -18.135 -43.262  1.00  0.00    -0.289 N 
HETATM    3  C2  UNL     1      27.780 -19.088 -43.559  1.00  0.00     0.087 C 
HETATM    4  C1  UNL     1      28.245 -19.875 -44.778  1.00  0.00     0.044 C 
HETATM    5  C4  UNL     1      27.675 -20.047 -42.413  1.00  0.00     0.165 A 
HETATM    6  N2  UNL     1      26.969 -19.539 -41.291  1.00  0.00    -0.215 N 
HETATM    7  C6  UNL     1      29.005 -20.440 -41.891  1.00  0.00     0.209 A 
HETATM    8  C5  UNL     1      27.768 -19.753 -40.136  1.00  0.00     0.689 A 
ATOM      9  H2  UNL     1      26.049 -19.099 -41.311  1.00  0.00     0.178 HD
HETATM   10  N5  UNL     1      28.917 -20.261 -40.474  1.00  0.00    -0.208 N 
ATOM     11  H5  UNL     1      29.658 -20.501 -39.815  1.00  0.00     0.179 HD
HETATM   12  S1  UNL     1      30.105 -19.186 -42.612  1.00  0.00    -0.022 SA
BRANCH   3  13
HETATM   13  C3  UNL     1      26.462 -18.488 -43.868  1.00  0.00     0.235 C 
BRANCH  13  14
HETATM   14  N1  UNL     1      25.472 -19.362 -44.456  1.00  0.00    -0.153 N 
HETATM   15  O1  UNL     1      25.135 -19.335 -45.629  1.00  0.00    -0.536 OA
HETATM   16  O2  UNL     1      24.868 -20.262 -43.610  1.00  0.00    -0.536 OA
ENDBRANCH  13  14
ENDBRANCH   3  13
BRANCH   8  17
HETATM   17  N3  UNL     1      27.442 -19.479 -38.771  1.00  0.00    -0.139 N 
ATOM     18  H3  UNL     1      28.108 -18.951 -38.207  1.00  0.00     0.205 HD
BRANCH  17  19
HETATM   19  N4  UNL     1      26.254 -19.902 -38.182  1.00  0.00    -0.331 N 
ATOM     20  H42 UNL     1      26.218 -20.856 -37.821  1.00  0.00     0.177 HD
ATOM     21  H41 UNL     1      25.434 -19.300 -38.100  1.00  0.00     0.177 HD
ENDBRANCH  17  19
ENDBRANCH   8  17
ENDBRANCH   1   2
BRANCH   1  22
HETATM   22  O3  UNL     1      28.450 -16.119 -42.290  1.00  0.00    -0.348 OA
ATOM     23  H3  UNL     1      28.252 -16.664 -41.539  1.00  0.00     0.219 HD
ENDBRANCH   1  22
BRANCH   1  24
HETATM   24  C8  UNL     1      29.444 -15.878 -44.356  1.00  0.00     0.167 C 
BRANCH  24  25
HETATM   25  S2  UNL     1      28.661 -16.204 -45.983  1.00  0.00    -0.084 SA
BRANCH  25  26
HETATM   26  C9  UNL     1      27.479 -14.955 -46.394  1.00  0.00     0.160 A 
HETATM   27  N7  UNL     1      27.699 -13.935 -47.257  1.00  0.00    -0.278 N 
HETATM   28  N8  UNL     1      26.633 -13.185 -47.348  1.00  0.00    -0.287 N 
ATOM     29  H7  UNL     1      28.570 -13.775 -47.764  1.00  0.00     0.189 HD
HETATM   30  C10 UNL     1      25.668 -13.700 -46.533  1.00  0.00     0.102 A 
ATOM     31  H8  UNL     1      26.539 -12.354 -47.931  1.00  0.00     0.188 HD
HETATM   32  N12 UNL     1      26.215 -14.774 -45.969  1.00  0.00    -0.324 N 
ATOM     33  H12 UNL     1      25.738 -15.381 -45.302  1.00  0.00     0.169 HD
BRANCH  30  34
HETATM   34  C11 UNL     1      24.330 -13.110 -46.381  1.00  0.00     0.127 C 
BRANCH  34  35
HETATM   35  C12 UNL     1      23.353 -14.251 -46.210  1.00  0.00     0.034 A 
HETATM   36  S3  UNL     1      22.367 -15.027 -47.365  1.00  0.00    -0.055 SA
HETATM   37  C13 UNL     1      21.619 -16.157 -46.333  1.00  0.00     0.143 A 
HETATM   38  N10 UNL     1      22.161 -15.887 -45.142  1.00  0.00    -0.325 N 
HETATM   39  C14 UNL     1      23.040 -14.927 -45.062  1.00  0.00     0.132 A 
ATOM     40  H10 UNL     1      21.895 -16.420 -44.315  1.00  0.00     0.169 HD
HETATM   41  N11 UNL     1      23.697 -14.544 -43.813  1.00  0.00    -0.082 NA
BRANCH  37  42
HETATM   42  N9  UNL     1      20.722 -17.085 -46.604  1.00  0.00    -0.380 N 
ATOM     43  H92 UNL     1      20.582 -17.561 -47.495  1.00  0.00     0.158 HD
ATOM     44  H91 UNL     1      20.011 -17.501 -46.004  1.00  0.00     0.158 HD
ENDBRANCH  37  42
ENDBRANCH  34  35
ENDBRANCH  30  34
ENDBRANCH  25  26
ENDBRANCH  24  25
ENDBRANCH   1  24
TORSDOF 12
ENDMDL
MODEL 5
REMARK VINA RESULT: -7.807335910      1.276      1.487
REMARK  12 active torsions:
REMARK  status: ('A' for Active; 'I' for Inactive)
REMARK    1  A    between atoms: C2_2  and  C3_3 
REMARK    2  A    between atoms: C3_3  and  N1_4 
REMARK    3  A    between atoms: C5_10  and  N3_11 
REMARK    4  A    between atoms: N3_11  and  N4_13 
REMARK    5  A    between atoms: N6_20  and  C7_21 
REMARK    6  A    between atoms: C7_21  and  O3_22 
REMARK    7  A    between atoms: C7_21  and  C8_24 
REMARK    8  A    between atoms: C8_24  and  S2_25 
REMARK    9  A    between atoms: S2_25  and  C9_26 
REMARK   10  A    between atoms: C10_31  and  C11_32 
REMARK   11  A    between atoms: C11_32  and  C12_33 
REMARK   12  A    between atoms: C13_35  and  N9_36 
ROOT
HETATM    1  C7  UNL     1      27.905 -18.971 -42.814  1.00  0.00     0.134 C 
ENDROOT
BRANCH   1   2
HETATM    2  N6  UNL     1      28.473 -19.225 -41.588  1.00  0.00    -0.289 N 
HETATM    3  C2  UNL     1      29.101 -20.307 -40.953  1.00  0.00     0.087 C 
HETATM    4  C1  UNL     1      30.580 -19.970 -40.815  1.00  0.00     0.044 C 
HETATM    5  C4  UNL     1      28.537 -20.449 -39.572  1.00  0.00     0.165 A 
HETATM    6  N2  UNL     1      27.254 -21.055 -39.526  1.00  0.00    -0.215 N 
HETATM    7  C6  UNL     1      28.373 -19.139 -38.899  1.00  0.00     0.209 A 
HETATM    8  C5  UNL     1      26.406 -20.229 -38.741  1.00  0.00     0.689 A 
ATOM      9  H2  UNL     1      26.989 -21.930 -39.978  1.00  0.00     0.178 HD
HETATM   10  N5  UNL     1      27.037 -19.147 -38.387  1.00  0.00    -0.208 N 
ATOM     11  H5  UNL     1      26.632 -18.403 -37.818  1.00  0.00     0.179 HD
HETATM   12  S1  UNL     1      28.507 -17.961 -40.276  1.00  0.00    -0.022 SA
BRANCH   3  13
HETATM   13  C3  UNL     1      28.981 -21.576 -41.706  1.00  0.00     0.235 C 
BRANCH  13  14
HETATM   14  N1  UNL     1      29.530 -22.757 -41.079  1.00  0.00    -0.153 N 
HETATM   15  O1  UNL     1      30.720 -23.029 -41.038  1.00  0.00    -0.536 OA
HETATM   16  O2  UNL     1      28.628 -23.628 -40.515  1.00  0.00    -0.536 OA
ENDBRANCH  13  14
ENDBRANCH   3  13
BRANCH   8  17
HETATM   17  N3  UNL     1      25.052 -20.468 -38.352  1.00  0.00    -0.139 N 
ATOM     18  H3  UNL     1      24.674 -21.411 -38.448  1.00  0.00     0.205 HD
BRANCH  17  19
HETATM   19  N4  UNL     1      24.226 -19.467 -37.847  1.00  0.00    -0.331 N 
ATOM     20  H42 UNL     1      23.447 -19.157 -38.429  1.00  0.00     0.177 HD
ATOM     21  H41 UNL     1      24.372 -19.041 -36.932  1.00  0.00     0.177 HD
ENDBRANCH  17  19
ENDBRANCH   8  17
ENDBRANCH   1   2
BRANCH   1  22
HETATM   22  O3  UNL     1      26.605 -19.122 -42.857  1.00  0.00    -0.348 OA
ATOM     23  H3  UNL     1      26.157 -18.538 -43.458  1.00  0.00     0.219 HD
ENDBRANCH   1  22
BRANCH   1  24
HETATM   24  C8  UNL     1      28.462 -18.560 -44.100  1.00  0.00     0.167 C 
BRANCH  24  25
HETATM   25  S2  UNL     1      28.499 -16.730 -44.232  1.00  0.00    -0.084 SA
BRANCH  25  26
HETATM   26  C9  UNL     1      26.992 -16.101 -44.912  1.00  0.00     0.160 A 
HETATM   27  N7  UNL     1      25.756 -16.352 -44.419  1.00  0.00    -0.278 N 
HETATM   28  N8  UNL     1      24.853 -15.743 -45.140  1.00  0.00    -0.287 N 
ATOM     29  H7  UNL     1      25.559 -16.931 -43.603  1.00  0.00     0.189 HD
HETATM   30  C10 UNL     1      25.481 -15.066 -46.144  1.00  0.00     0.102 A 
ATOM     31  H8  UNL     1      23.846 -15.770 -44.979  1.00  0.00     0.188 HD
HETATM   32  N12 UNL     1      26.778 -15.304 -45.976  1.00  0.00    -0.324 N 
ATOM     33  H12 UNL     1      27.515 -14.932 -46.575  1.00  0.00     0.169 HD
BRANCH  30  34
HETATM   34  C11 UNL     1      24.772 -14.265 -47.153  1.00  0.00     0.127 C 
BRANCH  34  35
HETATM   35  C12 UNL     1      23.361 -14.059 -46.654  1.00  0.00     0.034 A 
HETATM   36  S3  UNL     1      22.676 -12.732 -45.830  1.00  0.00    -0.055 SA
HETATM   37  C13 UNL     1      21.092 -13.333 -45.664  1.00  0.00     0.143 A 
HETATM   38  N10 UNL     1      21.158 -14.531 -46.251  1.00  0.00    -0.325 N 
HETATM   39  C14 UNL     1      22.297 -14.914 -46.756  1.00  0.00     0.132 A 
ATOM     40  H10 UNL     1      20.336 -15.133 -46.303  1.00  0.00     0.169 HD
HETATM   41  N11 UNL     1      22.487 -16.203 -47.421  1.00  0.00    -0.082 NA
BRANCH  37  42
HETATM   42  N9  UNL     1      20.033 -12.782 -45.103  1.00  0.00    -0.380 N 
ATOM     43  H92 UNL     1      19.694 -12.933 -44.153  1.00  0.00     0.158 HD
ATOM     44  H91 UNL     1      19.361 -12.119 -45.487  1.00  0.00     0.158 HD
ENDBRANCH  37  42
ENDBRANCH  34  35
ENDBRANCH  30  34
ENDBRANCH  25  26
ENDBRANCH  24  25
ENDBRANCH   1  24
TORSDOF 12
ENDMDL
