MODEL 1
REMARK VINA RESULT: -5.404038622      0.000      0.000
REMARK  3 active torsions:
REMARK  status: ('A' for Active; 'I' for Inactive)
REMARK    1  A    between atoms: C4_4  and  C5_5 
REMARK    2  A    between atoms: C5_5  and  N1_6 
REMARK    3  A    between atoms: C5_5  and  O1_10 
ROOT
HETATM    1  C1  UNL     1     -16.050  15.414  -2.851  1.00  0.00     0.027 C 
HETATM    2  C2  UNL     1     -16.895  15.310  -3.717  1.00  0.00    -0.026 C 
HETATM    3  C3  UNL     1     -17.891  15.200  -4.718  1.00  0.00    -0.010 C 
HETATM    4  C4  UNL     1     -18.763  15.100  -5.565  1.00  0.00    -0.011 C 
ENDROOT
BRANCH   4   5
HETATM    5  C5  UNL     1     -19.821  14.965  -6.564  1.00  0.00     0.353 C 
HETATM    6  C6  UNL     1     -20.335  16.292  -6.971  1.00  0.00    -0.036 C 
HETATM    7  C7  UNL     1     -20.736  17.380  -7.310  1.00  0.00     0.018 C 
BRANCH   5   8
HETATM    8  N1  UNL     1     -19.374  14.289  -7.743  1.00  0.00    -0.023 N 
ATOM      9  H13 UNL     1     -18.515  14.705  -8.102  1.00  0.00     0.280 HD
ATOM     10  H12 UNL     1     -19.024  13.357  -7.522  1.00  0.00     0.280 HD
ATOM     11  H11 UNL     1     -20.095  14.249  -8.464  1.00  0.00     0.280 HD
ENDBRANCH   5   8
BRANCH   5  12
HETATM   12  O1  UNL     1     -20.890  14.289  -5.985  1.00  0.00    -0.346 OA
ATOM     13  H1  UNL     1     -20.550  13.704  -5.318  1.00  0.00     0.214 HD
ENDBRANCH   5  12
ENDBRANCH   4   5
TORSDOF 3
ENDMDL
MODEL 2
REMARK VINA RESULT: -5.227954037      2.958      5.156
REMARK  3 active torsions:
REMARK  status: ('A' for Active; 'I' for Inactive)
REMARK    1  A    between atoms: C4_4  and  C5_5 
REMARK    2  A    between atoms: C5_5  and  N1_6 
REMARK    3  A    between atoms: C5_5  and  O1_10 
ROOT
HETATM    1  C1  UNL     1     -20.533  15.443  -6.527  1.00  0.00     0.027 C 
HETATM    2  C2  UNL     1     -19.433  15.410  -6.016  1.00  0.00    -0.026 C 
HETATM    3  C3  UNL     1     -18.156  15.367  -5.403  1.00  0.00    -0.010 C 
HETATM    4  C4  UNL     1     -17.064  15.343  -4.861  1.00  0.00    -0.011 C 
ENDROOT
BRANCH   4   5
HETATM    5  C5  UNL     1     -15.760  15.336  -4.199  1.00  0.00     0.353 C 
HETATM    6  C6  UNL     1     -15.914  15.412  -2.730  1.00  0.00    -0.036 C 
HETATM    7  C7  UNL     1     -16.049  15.456  -1.530  1.00  0.00     0.018 C 
BRANCH   5   8
HETATM    8  N1  UNL     1     -15.004  14.160  -4.500  1.00  0.00    -0.023 N 
ATOM      9  H13 UNL     1     -15.357  13.700  -5.339  1.00  0.00     0.280 HD
ATOM     10  H12 UNL     1     -14.067  14.399  -4.828  1.00  0.00     0.280 HD
ATOM     11  H11 UNL     1     -14.964  13.512  -3.714  1.00  0.00     0.280 HD
ENDBRANCH   5   8
BRANCH   5  12
HETATM   12  O1  UNL     1     -15.066  16.479  -4.583  1.00  0.00    -0.346 OA
ATOM     13  H1  UNL     1     -14.160  16.386  -4.314  1.00  0.00     0.214 HD
ENDBRANCH   5  12
ENDBRANCH   4   5
TORSDOF 3
ENDMDL
MODEL 3
REMARK VINA RESULT: -5.143183006      6.143      6.491
REMARK  3 active torsions:
REMARK  status: ('A' for Active; 'I' for Inactive)
REMARK    1  A    between atoms: C4_4  and  C5_5 
REMARK    2  A    between atoms: C5_5  and  N1_6 
REMARK    3  A    between atoms: C5_5  and  O1_10 
ROOT
HETATM    1  C1  UNL     1     -15.821  15.490  -1.549  1.00  0.00     0.027 C 
HETATM    2  C2  UNL     1     -15.374  16.415  -2.195  1.00  0.00    -0.026 C 
HETATM    3  C3  UNL     1     -14.866  17.505  -2.944  1.00  0.00    -0.010 C 
HETATM    4  C4  UNL     1     -14.447  18.445  -3.598  1.00  0.00    -0.011 C 
ENDROOT
BRANCH   4   5
HETATM    5  C5  UNL     1     -13.964  19.567  -4.400  1.00  0.00     0.353 C 
HETATM    6  C6  UNL     1     -14.824  19.778  -5.585  1.00  0.00    -0.036 C 
HETATM    7  C7  UNL     1     -15.541  19.954  -6.542  1.00  0.00     0.018 C 
BRANCH   5   8
HETATM    8  N1  UNL     1     -13.932  20.791  -3.660  1.00  0.00    -0.023 N 
ATOM      9  H13 UNL     1     -14.417  21.536  -4.159  1.00  0.00     0.280 HD
ATOM     10  H12 UNL     1     -14.526  20.736  -2.832  1.00  0.00     0.280 HD
ATOM     11  H11 UNL     1     -12.982  21.070  -3.413  1.00  0.00     0.280 HD
ENDBRANCH   5   8
BRANCH   5  12
HETATM   12  O1  UNL     1     -12.697  19.251  -4.882  1.00  0.00    -0.346 OA
ATOM     13  H1  UNL     1     -12.400  19.963  -5.437  1.00  0.00     0.214 HD
ENDBRANCH   5  12
ENDBRANCH   4   5
TORSDOF 3
ENDMDL
MODEL 4
REMARK VINA RESULT: -5.040354085      3.593      4.589
REMARK  3 active torsions:
REMARK  status: ('A' for Active; 'I' for Inactive)
REMARK    1  A    between atoms: C4_4  and  C5_5 
REMARK    2  A    between atoms: C5_5  and  N1_6 
REMARK    3  A    between atoms: C5_5  and  O1_10 
ROOT
HETATM    1  C1  UNL     1     -14.181  20.065  -3.732  1.00  0.00     0.027 C 
HETATM    2  C2  UNL     1     -14.551  18.976  -4.120  1.00  0.00    -0.026 C 
HETATM    3  C3  UNL     1     -14.966  17.700  -4.575  1.00  0.00    -0.010 C 
HETATM    4  C4  UNL     1     -15.311  16.604  -4.983  1.00  0.00    -0.011 C 
ENDROOT
BRANCH   4   5
HETATM    5  C5  UNL     1     -15.716  15.296  -5.496  1.00  0.00     0.353 C 
HETATM    6  C6  UNL     1     -16.916  14.800  -4.788  1.00  0.00    -0.036 C 
HETATM    7  C7  UNL     1     -17.907  14.410  -4.217  1.00  0.00     0.018 C 
BRANCH   5   8
HETATM    8  N1  UNL     1     -16.015  15.330  -6.895  1.00  0.00    -0.023 N 
ATOM      9  H13 UNL     1     -15.172  15.482  -7.448  1.00  0.00     0.280 HD
ATOM     10  H12 UNL     1     -16.271  14.405  -7.239  1.00  0.00     0.280 HD
ATOM     11  H11 UNL     1     -16.733  16.019  -7.121  1.00  0.00     0.280 HD
ENDBRANCH   5   8
BRANCH   5  12
HETATM   12  O1  UNL     1     -14.697  14.386  -5.233  1.00  0.00    -0.346 OA
ATOM     13  H1  UNL     1     -13.873  14.768  -5.511  1.00  0.00     0.214 HD
ENDBRANCH   5  12
ENDBRANCH   4   5
TORSDOF 3
ENDMDL
MODEL 5
REMARK VINA RESULT: -4.979369757      4.029      5.006
REMARK  3 active torsions:
REMARK  status: ('A' for Active; 'I' for Inactive)
REMARK    1  A    between atoms: C4_4  and  C5_5 
REMARK    2  A    between atoms: C5_5  and  N1_6 
REMARK    3  A    between atoms: C5_5  and  O1_10 
ROOT
HETATM    1  C1  UNL     1     -13.995  20.138  -4.305  1.00  0.00     0.027 C 
HETATM    2  C2  UNL     1     -14.498  19.036  -4.235  1.00  0.00    -0.026 C 
HETATM    3  C3  UNL     1     -15.100  17.756  -4.148  1.00  0.00    -0.010 C 
HETATM    4  C4  UNL     1     -15.624  16.659  -4.052  1.00  0.00    -0.011 C 
ENDROOT
BRANCH   4   5
HETATM    5  C5  UNL     1     -16.250  15.345  -3.912  1.00  0.00     0.353 C 
HETATM    6  C6  UNL     1     -16.991  15.248  -2.635  1.00  0.00    -0.036 C 
HETATM    7  C7  UNL     1     -17.608  15.182  -1.598  1.00  0.00     0.018 C 
BRANCH   5   8
HETATM    8  N1  UNL     1     -17.167  15.064  -4.973  1.00  0.00    -0.023 N 
ATOM      9  H13 UNL     1     -16.675  14.912  -5.854  1.00  0.00     0.280 HD
ATOM     10  H12 UNL     1     -17.589  14.142  -4.861  1.00  0.00     0.280 HD
ATOM     11  H11 UNL     1     -17.881  15.786  -5.070  1.00  0.00     0.280 HD
ENDBRANCH   5   8
BRANCH   5  12
HETATM   12  O1  UNL     1     -15.246  14.383  -3.861  1.00  0.00    -0.346 OA
ATOM     13  H1  UNL     1     -14.921  14.241  -4.743  1.00  0.00     0.214 HD
ENDBRANCH   5  12
ENDBRANCH   4   5
TORSDOF 3
ENDMDL
