MODEL 1
REMARK VINA RESULT: -4.232914309      0.000      0.000
REMARK  2 active torsions:
REMARK  status: ('A' for Active; 'I' for Inactive)
REMARK    1  A    between atoms: O1_1  and  C1_3 
REMARK    2  A    between atoms: C1_3  and  C2_4 
ROOT
HETATM    1  C2  UNL     1     -16.850  15.568  -3.222  1.00  0.00     0.081 A 
HETATM    2  C3  UNL     1     -17.191  15.401  -1.758  1.00  0.00     0.138 C 
HETATM    3  N1  UNL     1     -15.736  15.415  -1.604  1.00  0.00    -0.245 NA
HETATM    4  C4  UNL     1     -15.118  16.710  -1.934  1.00  0.00     0.131 C 
HETATM    5  C5  UNL     1     -15.635  16.389  -3.344  1.00  0.00     0.117 A 
HETATM    6  N2  UNL     1     -15.619  14.920  -2.909  1.00  0.00    -0.227 NA
ENDROOT
BRANCH   1   7
HETATM    7  C1  UNL     1     -17.739  15.144  -4.303  1.00  0.00     0.194 C 
BRANCH   7   8
HETATM    8  O1  UNL     1     -18.344  13.927  -3.988  1.00  0.00    -0.399 OA
ATOM      9  H1  UNL     1     -18.267  13.320  -4.715  1.00  0.00     0.209 HD
ENDBRANCH   7   8
ENDBRANCH   1   7
TORSDOF 2
ENDMDL
MODEL 2
REMARK VINA RESULT: -4.203421616      2.096      3.216
REMARK  2 active torsions:
REMARK  status: ('A' for Active; 'I' for Inactive)
REMARK    1  A    between atoms: O1_1  and  C1_3 
REMARK    2  A    between atoms: C1_3  and  C2_4 
ROOT
HETATM    1  C2  UNL     1     -15.677  16.242  -2.812  1.00  0.00     0.081 A 
HETATM    2  C3  UNL     1     -15.815  16.594  -4.277  1.00  0.00     0.138 C 
HETATM    3  N1  UNL     1     -16.365  15.240  -4.365  1.00  0.00    -0.245 NA
HETATM    4  C4  UNL     1     -17.648  15.075  -3.661  1.00  0.00     0.131 C 
HETATM    5  C5  UNL     1     -16.795  15.368  -2.419  1.00  0.00     0.117 A 
HETATM    6  N2  UNL     1     -15.599  14.885  -3.247  1.00  0.00    -0.227 NA
ENDROOT
BRANCH   1   7
HETATM    7  C1  UNL     1     -14.696  16.868  -1.928  1.00  0.00     0.194 C 
BRANCH   7   8
HETATM    8  O1  UNL     1     -14.422  16.041  -0.839  1.00  0.00    -0.399 OA
ATOM      9  H1  UNL     1     -14.626  16.485  -0.024  1.00  0.00     0.209 HD
ENDBRANCH   7   8
ENDBRANCH   1   7
TORSDOF 2
ENDMDL
MODEL 3
REMARK VINA RESULT: -4.178977352      1.657      2.813
REMARK  2 active torsions:
REMARK  status: ('A' for Active; 'I' for Inactive)
REMARK    1  A    between atoms: O1_1  and  C1_3 
REMARK    2  A    between atoms: C1_3  and  C2_4 
ROOT
HETATM    1  C2  UNL     1     -16.788  15.338  -3.290  1.00  0.00     0.081 A 
HETATM    2  C3  UNL     1     -15.846  16.310  -3.965  1.00  0.00     0.138 C 
HETATM    3  N1  UNL     1     -15.790  15.265  -4.988  1.00  0.00    -0.245 NA
HETATM    4  C4  UNL     1     -17.063  15.066  -5.701  1.00  0.00     0.131 C 
HETATM    5  C5  UNL     1     -17.556  14.617  -4.318  1.00  0.00     0.117 A 
HETATM    6  N2  UNL     1     -16.087  14.318  -4.000  1.00  0.00    -0.227 NA
ENDROOT
BRANCH   1   7
HETATM    7  C1  UNL     1     -17.012  15.313  -1.845  1.00  0.00     0.194 C 
BRANCH   7   8
HETATM    8  O1  UNL     1     -18.372  15.178  -1.565  1.00  0.00    -0.399 OA
ATOM      9  H1  UNL     1     -18.810  16.018  -1.635  1.00  0.00     0.209 HD
ENDBRANCH   7   8
ENDBRANCH   1   7
TORSDOF 2
ENDMDL
MODEL 4
REMARK VINA RESULT: -4.123689836      1.783      2.628
REMARK  2 active torsions:
REMARK  status: ('A' for Active; 'I' for Inactive)
REMARK    1  A    between atoms: O1_1  and  C1_3 
REMARK    2  A    between atoms: C1_3  and  C2_4 
ROOT
HETATM    1  C2  UNL     1     -16.805  15.181  -3.095  1.00  0.00     0.081 A 
HETATM    2  C3  UNL     1     -17.857  15.250  -4.180  1.00  0.00     0.138 C 
HETATM    3  N1  UNL     1     -16.725  15.682  -5.000  1.00  0.00    -0.245 NA
HETATM    4  C4  UNL     1     -15.711  14.635  -5.209  1.00  0.00     0.131 C 
HETATM    5  C5  UNL     1     -15.524  14.770  -3.691  1.00  0.00     0.117 A 
HETATM    6  N2  UNL     1     -16.110  16.177  -3.843  1.00  0.00    -0.227 NA
ENDROOT
BRANCH   1   7
HETATM    7  C1  UNL     1     -17.114  15.303  -1.672  1.00  0.00     0.194 C 
BRANCH   7   8
HETATM    8  O1  UNL     1     -18.488  15.178  -1.459  1.00  0.00    -0.399 OA
ATOM      9  H1  UNL     1     -18.769  15.754  -0.757  1.00  0.00     0.209 HD
ENDBRANCH   7   8
ENDBRANCH   1   7
TORSDOF 2
ENDMDL
MODEL 5
REMARK VINA RESULT: -4.033222651      3.961      4.709
REMARK  2 active torsions:
REMARK  status: ('A' for Active; 'I' for Inactive)
REMARK    1  A    between atoms: O1_1  and  C1_3 
REMARK    2  A    between atoms: C1_3  and  C2_4 
ROOT
HETATM    1  C2  UNL     1     -19.404  15.307  -6.515  1.00  0.00     0.081 A 
HETATM    2  C3  UNL     1     -18.649  14.829  -7.736  1.00  0.00     0.138 C 
HETATM    3  N1  UNL     1     -17.566  15.624  -7.155  1.00  0.00    -0.245 NA
HETATM    4  C4  UNL     1     -17.055  15.089  -5.882  1.00  0.00     0.131 C 
HETATM    5  C5  UNL     1     -18.469  15.424  -5.385  1.00  0.00     0.117 A 
HETATM    6  N2  UNL     1     -18.528  16.433  -6.537  1.00  0.00    -0.227 NA
ENDROOT
BRANCH   1   7
HETATM    7  C1  UNL     1     -20.861  15.413  -6.467  1.00  0.00     0.194 C 
BRANCH   7   8
HETATM    8  O1  UNL     1     -21.427  14.192  -6.100  1.00  0.00    -0.399 OA
ATOM      9  H1  UNL     1     -21.122  13.930  -5.239  1.00  0.00     0.209 HD
ENDBRANCH   7   8
ENDBRANCH   1   7
TORSDOF 2
ENDMDL
