MODEL 1
REMARK VINA RESULT: -4.589347407      0.000      0.000
REMARK  3 active torsions:
REMARK  status: ('A' for Active; 'I' for Inactive)
REMARK    1  A    between atoms: N1_1  and  C1_5 
REMARK    2  A    between atoms: C1_5  and  C2_6 
REMARK    3  A    between atoms: C3_7  and  C4_8 
ROOT
HETATM    1  C4  UNL     1     -16.174  15.164  -3.397  1.00  0.00     0.301 C 
HETATM    2  N2  UNL     1     -17.614  15.243  -3.147  1.00  0.00    -0.027 N 
ATOM      3  H21 UNL     1     -18.101  16.138  -3.104  1.00  0.00     0.281 HD
ATOM      4  H22 UNL     1     -18.012  15.023  -2.234  1.00  0.00     0.281 HD
HETATM    5  C5  UNL     1     -17.765  14.348  -4.279  1.00  0.00     0.418 A 
HETATM    6  N3  UNL     1     -17.542  14.950  -5.549  1.00  0.00    -0.033 N 
ATOM      7  H31 UNL     1     -17.912  15.799  -5.977  1.00  0.00     0.280 HD
ATOM      8  H32 UNL     1     -17.818  14.678  -6.493  1.00  0.00     0.280 HD
HETATM    9  C6  UNL     1     -16.363  14.702  -4.793  1.00  0.00     0.288 A 
ENDROOT
BRANCH   1  10
HETATM   10  C3  UNL     1     -15.472  16.401  -3.185  1.00  0.00    -0.069 C 
HETATM   11  C2  UNL     1     -14.879  17.431  -3.028  1.00  0.00    -0.077 C 
BRANCH  11  12
HETATM   12  C1  UNL     1     -14.148  18.688  -2.859  1.00  0.00     0.323 C 
BRANCH  12  13
HETATM   13  N1  UNL     1     -13.329  18.567  -1.666  1.00  0.00    -0.069 N 
ATOM     14  H13 UNL     1     -13.793  18.053  -0.917  1.00  0.00     0.275 HD
ATOM     15  H12 UNL     1     -12.538  17.937  -1.792  1.00  0.00     0.275 HD
ATOM     16  H11 UNL     1     -13.047  19.506  -1.386  1.00  0.00     0.275 HD
ENDBRANCH  12  13
ENDBRANCH  11  12
ENDBRANCH   1  10
TORSDOF 3
ENDMDL
MODEL 2
REMARK VINA RESULT: -4.471402490      1.249      1.534
REMARK  3 active torsions:
REMARK  status: ('A' for Active; 'I' for Inactive)
REMARK    1  A    between atoms: N1_1  and  C1_5 
REMARK    2  A    between atoms: C1_5  and  C2_6 
REMARK    3  A    between atoms: C3_7  and  C4_8 
ROOT
HETATM    1  C4  UNL     1     -15.815  16.128  -5.008  1.00  0.00     0.301 C 
HETATM    2  N2  UNL     1     -15.306  14.813  -4.615  1.00  0.00    -0.027 N 
ATOM      3  H21 UNL     1     -14.794  14.677  -3.743  1.00  0.00     0.281 HD
ATOM      4  H22 UNL     1     -14.525  14.375  -5.102  1.00  0.00     0.281 HD
HETATM    5  C5  UNL     1     -16.668  14.340  -4.780  1.00  0.00     0.418 A 
HETATM    6  N3  UNL     1     -17.568  14.747  -3.755  1.00  0.00    -0.033 N 
ATOM      7  H31 UNL     1     -17.513  14.697  -2.738  1.00  0.00     0.280 HD
ATOM      8  H32 UNL     1     -18.471  14.381  -3.454  1.00  0.00     0.280 HD
HETATM    9  C6  UNL     1     -17.216  15.770  -4.679  1.00  0.00     0.288 A 
ENDROOT
BRANCH   1  10
HETATM   10  C3  UNL     1     -15.215  17.226  -4.299  1.00  0.00    -0.069 C 
HETATM   11  C2  UNL     1     -14.706  18.127  -3.694  1.00  0.00    -0.077 C 
BRANCH  11  12
HETATM   12  C1  UNL     1     -14.072  19.212  -2.943  1.00  0.00     0.323 C 
BRANCH  12  13
HETATM   13  N1  UNL     1     -13.435  18.628  -1.775  1.00  0.00    -0.069 N 
ATOM     14  H13 UNL     1     -13.150  19.327  -1.089  1.00  0.00     0.275 HD
ATOM     15  H12 UNL     1     -14.088  18.117  -1.183  1.00  0.00     0.275 HD
ATOM     16  H11 UNL     1     -12.659  18.052  -2.100  1.00  0.00     0.275 HD
ENDBRANCH  12  13
ENDBRANCH  11  12
ENDBRANCH   1  10
TORSDOF 3
ENDMDL
MODEL 3
REMARK VINA RESULT: -4.420475579      3.121      4.379
REMARK  3 active torsions:
REMARK  status: ('A' for Active; 'I' for Inactive)
REMARK    1  A    between atoms: N1_1  and  C1_5 
REMARK    2  A    between atoms: C1_5  and  C2_6 
REMARK    3  A    between atoms: C3_7  and  C4_8 
ROOT
HETATM    1  C4  UNL     1     -18.977  15.044  -6.799  1.00  0.00     0.301 C 
HETATM    2  N2  UNL     1     -20.344  14.740  -6.371  1.00  0.00    -0.027 N 
ATOM      3  H21 UNL     1     -20.600  14.700  -5.385  1.00  0.00     0.281 HD
ATOM      4  H22 UNL     1     -20.743  13.808  -6.478  1.00  0.00     0.281 HD
HETATM    5  C5  UNL     1     -20.754  15.845  -7.219  1.00  0.00     0.418 A 
HETATM    6  N3  UNL     1     -20.448  17.136  -6.705  1.00  0.00    -0.033 N 
ATOM      7  H31 UNL     1     -20.623  17.569  -5.798  1.00  0.00     0.280 HD
ATOM      8  H32 UNL     1     -20.822  18.062  -6.915  1.00  0.00     0.280 HD
HETATM    9  C6  UNL     1     -19.332  16.421  -7.220  1.00  0.00     0.288 A 
ENDROOT
BRANCH   1  10
HETATM   10  C3  UNL     1     -17.991  14.889  -5.764  1.00  0.00    -0.069 C 
HETATM   11  C2  UNL     1     -17.155  14.752  -4.916  1.00  0.00    -0.077 C 
BRANCH  11  12
HETATM   12  C1  UNL     1     -16.117  14.582  -3.897  1.00  0.00     0.323 C 
BRANCH  12  13
HETATM   13  N1  UNL     1     -14.891  14.199  -4.573  1.00  0.00    -0.069 N 
ATOM     14  H13 UNL     1     -14.190  13.818  -3.938  1.00  0.00     0.275 HD
ATOM     15  H12 UNL     1     -15.003  13.374  -5.160  1.00  0.00     0.275 HD
ATOM     16  H11 UNL     1     -14.555  15.011  -5.091  1.00  0.00     0.275 HD
ENDBRANCH  12  13
ENDBRANCH  11  12
ENDBRANCH   1  10
TORSDOF 3
ENDMDL
MODEL 4
REMARK VINA RESULT: -4.321103906      2.933      3.726
REMARK  3 active torsions:
REMARK  status: ('A' for Active; 'I' for Inactive)
REMARK    1  A    between atoms: N1_1  and  C1_5 
REMARK    2  A    between atoms: C1_5  and  C2_6 
REMARK    3  A    between atoms: C3_7  and  C4_8 
ROOT
HETATM    1  C4  UNL     1     -18.006  15.040  -5.924  1.00  0.00     0.301 C 
HETATM    2  N2  UNL     1     -19.391  14.602  -6.108  1.00  0.00    -0.027 N 
ATOM      3  H21 UNL     1     -20.067  14.633  -5.345  1.00  0.00     0.281 HD
ATOM      4  H22 UNL     1     -19.628  13.618  -6.232  1.00  0.00     0.281 HD
HETATM    5  C5  UNL     1     -19.443  15.543  -7.211  1.00  0.00     0.418 A 
HETATM    6  N3  UNL     1     -19.501  16.912  -6.824  1.00  0.00    -0.033 N 
ATOM      7  H31 UNL     1     -20.103  17.412  -6.170  1.00  0.00     0.280 HD
ATOM      8  H32 UNL     1     -19.802  17.751  -7.321  1.00  0.00     0.280 HD
HETATM    9  C6  UNL     1     -18.225  16.303  -6.669  1.00  0.00     0.288 A 
ENDROOT
BRANCH   1  10
HETATM   10  C3  UNL     1     -17.597  15.131  -4.548  1.00  0.00    -0.069 C 
HETATM   11  C2  UNL     1     -17.247  15.226  -3.405  1.00  0.00    -0.077 C 
BRANCH  11  12
HETATM   12  C1  UNL     1     -16.815  15.364  -2.014  1.00  0.00     0.323 C 
BRANCH  12  13
HETATM   13  N1  UNL     1     -17.965  15.112  -1.165  1.00  0.00    -0.069 N 
ATOM     14  H13 UNL     1     -18.456  14.252  -1.408  1.00  0.00     0.275 HD
ATOM     15  H12 UNL     1     -17.706  14.855  -0.213  1.00  0.00     0.275 HD
ATOM     16  H11 UNL     1     -18.566  15.935  -1.204  1.00  0.00     0.275 HD
ENDBRANCH  12  13
ENDBRANCH  11  12
ENDBRANCH   1  10
TORSDOF 3
ENDMDL
MODEL 5
REMARK VINA RESULT: -4.317581737      2.040      2.394
REMARK  3 active torsions:
REMARK  status: ('A' for Active; 'I' for Inactive)
REMARK    1  A    between atoms: N1_1  and  C1_5 
REMARK    2  A    between atoms: C1_5  and  C2_6 
REMARK    3  A    between atoms: C3_7  and  C4_8 
ROOT
HETATM    1  C4  UNL     1     -16.135  16.474  -4.636  1.00  0.00     0.301 C 
HETATM    2  N2  UNL     1     -15.885  15.779  -5.900  1.00  0.00    -0.027 N 
ATOM      3  H21 UNL     1     -15.051  15.963  -6.456  1.00  0.00     0.281 HD
ATOM      4  H22 UNL     1     -16.441  15.969  -6.733  1.00  0.00     0.281 HD
HETATM    5  C5  UNL     1     -16.041  14.548  -5.146  1.00  0.00     0.418 A 
HETATM    6  N3  UNL     1     -14.948  14.233  -4.290  1.00  0.00    -0.033 N 
ATOM      7  H31 UNL     1     -13.943  14.183  -4.455  1.00  0.00     0.280 HD
ATOM      8  H32 UNL     1     -14.647  13.357  -3.860  1.00  0.00     0.280 HD
HETATM    9  C6  UNL     1     -15.785  15.283  -3.823  1.00  0.00     0.288 A 
ENDROOT
BRANCH   1  10
HETATM   10  C3  UNL     1     -15.350  17.666  -4.457  1.00  0.00    -0.069 C 
HETATM   11  C2  UNL     1     -14.710  18.670  -4.322  1.00  0.00    -0.077 C 
BRANCH  11  12
HETATM   12  C1  UNL     1     -13.943  19.908  -4.169  1.00  0.00     0.323 C 
BRANCH  12  13
HETATM   13  N1  UNL     1     -12.814  19.845  -5.080  1.00  0.00    -0.069 N 
ATOM     14  H13 UNL     1     -12.254  20.698  -5.076  1.00  0.00     0.275 HD
ATOM     15  H12 UNL     1     -12.086  19.205  -4.764  1.00  0.00     0.275 HD
ATOM     16  H11 UNL     1     -13.174  19.611  -6.005  1.00  0.00     0.275 HD
ENDBRANCH  12  13
ENDBRANCH  11  12
ENDBRANCH   1  10
TORSDOF 3
ENDMDL
