MODEL 1
REMARK VINA RESULT: -7.943759821      0.000      0.000
REMARK  5 active torsions:
REMARK  status: ('A' for Active; 'I' for Inactive)
REMARK    1  A    between atoms: C2_2  and  C3_3 
REMARK    2  A    between atoms: C5_5  and  N1_6 
REMARK       I    between atoms: N1_6  and  C6_8 
REMARK       I    between atoms: C6_8  and  N3_12 
REMARK    3  A    between atoms: N3_12  and  C7_14 
REMARK    4  A    between atoms: C10_17  and  N4_18 
REMARK       I    between atoms: C11_20  and  N6_22 
REMARK    5  A    between atoms: N7_31  and  C17_32 
ROOT
HETATM    1  N1  UNL     1      -9.950  19.582  20.594  1.00  0.00    -0.222 N 
ATOM      2  H1  UNL     1      -9.695  18.603  20.462  1.00  0.00     0.178 HD
HETATM    3  C6  UNL     1      -9.033  20.552  20.149  1.00  0.00     0.668 C 
HETATM    4  N2  UNL     1      -8.287  20.186  19.130  1.00  0.00    -0.235 N 
ATOM      5  H21 UNL     1      -7.622  20.889  18.808  1.00  0.00     0.174 HD
ATOM      6  H22 UNL     1      -8.397  19.259  18.718  1.00  0.00     0.174 HD
HETATM    7  N3  UNL     1      -8.881  21.831  20.717  1.00  0.00    -0.216 N 
ATOM      8  H3  UNL     1      -8.403  21.944  21.611  1.00  0.00     0.178 HD
ENDROOT
BRANCH   1   9
HETATM    9  C5  UNL     1     -11.219  19.853  21.219  1.00  0.00     0.110 C 
HETATM   10  C4  UNL     1     -11.684  18.684  21.997  1.00  0.00     0.052 C 
HETATM   11  C3  UNL     1     -13.016  18.110  21.576  1.00  0.00     0.094 C 
HETATM   12  N7  UNL     1     -13.185  18.055  20.161  1.00  0.00    -0.313 N 
HETATM   13  C16 UNL     1     -12.590  19.097  19.381  1.00  0.00     0.226 C 
HETATM   14  C15 UNL     1     -12.186  20.304  20.148  1.00  0.00     0.129 C 
HETATM   15  O1  UNL     1     -12.425  18.988  18.138  1.00  0.00    -0.273 OA
BRANCH  11  16
HETATM   16  C2  UNL     1     -14.109  18.757  22.349  1.00  0.00     0.021 C 
HETATM   17  C1  UNL     1     -14.494  17.969  23.598  1.00  0.00     0.007 C 
ENDBRANCH  11  16
BRANCH  12  18
HETATM   18  C17 UNL     1     -13.897  17.045  19.450  1.00  0.00     0.037 A 
HETATM   19  C18 UNL     1     -14.193  15.858  20.097  1.00  0.00     0.030 A 
HETATM   20  C19 UNL     1     -14.873  14.833  19.482  1.00  0.00     0.002 A 
HETATM   21  C20 UNL     1     -15.285  14.971  18.178  1.00  0.00     0.000 A 
HETATM   22  C21 UNL     1     -14.983  16.163  17.544  1.00  0.00     0.002 A 
HETATM   23  C22 UNL     1     -14.302  17.200  18.144  1.00  0.00     0.030 A 
ENDBRANCH  12  18
ENDBRANCH   1   9
BRANCH   7  24
HETATM   24  C7  UNL     1      -9.412  22.986  20.017  1.00  0.00     0.173 C 
HETATM   25  C8  UNL     1      -8.375  24.077  19.883  1.00  0.00     0.034 C 
HETATM   26  C9  UNL     1      -9.289  25.270  19.538  1.00  0.00     0.033 C 
HETATM   27  C10 UNL     1     -10.267  25.157  20.698  1.00  0.00     0.158 C 
HETATM   28  C14 UNL     1     -10.531  23.642  20.779  1.00  0.00     0.284 C 
HETATM   29  F1  UNL     1     -10.610  23.249  22.092  1.00  0.00    -0.202 F 
HETATM   30  F2  UNL     1     -11.711  23.401  20.109  1.00  0.00    -0.202 F 
BRANCH  27  31
HETATM   31  N4  UNL     1      -9.647  25.607  21.904  1.00  0.00    -0.354 N 
HETATM   32  C11 UNL     1      -9.381  26.794  22.264  1.00  0.00     0.186 C 
HETATM   33  N5  UNL     1      -8.747  26.955  23.544  1.00  0.00    -0.064 NA
HETATM   34  N6  UNL     1      -9.661  27.951  21.505  1.00  0.00    -0.364 N 
HETATM   35  C12 UNL     1      -8.594  28.819  20.983  1.00  0.00     0.151 C 
HETATM   36  C13 UNL     1     -11.014  28.397  21.167  1.00  0.00     0.151 C 
ATOM     37  H4  UNL     1      -9.382  24.876  22.564  1.00  0.00     0.162 HD
ENDBRANCH  27  31
ENDBRANCH   7  24
TORSDOF 5
ENDMDL
MODEL 2
REMARK VINA RESULT: -7.859220337      2.362      3.621
REMARK  5 active torsions:
REMARK  status: ('A' for Active; 'I' for Inactive)
REMARK    1  A    between atoms: C2_2  and  C3_3 
REMARK    2  A    between atoms: C5_5  and  N1_6 
REMARK       I    between atoms: N1_6  and  C6_8 
REMARK       I    between atoms: C6_8  and  N3_12 
REMARK    3  A    between atoms: N3_12  and  C7_14 
REMARK    4  A    between atoms: C10_17  and  N4_18 
REMARK       I    between atoms: C11_20  and  N6_22 
REMARK    5  A    between atoms: N7_31  and  C17_32 
ROOT
HETATM    1  N1  UNL     1     -12.488  20.088  23.154  1.00  0.00    -0.222 N 
ATOM      2  H1  UNL     1     -13.214  19.384  23.293  1.00  0.00     0.178 HD
HETATM    3  C6  UNL     1     -12.479  21.186  24.034  1.00  0.00     0.668 C 
HETATM    4  N2  UNL     1     -12.950  20.939  25.236  1.00  0.00    -0.235 N 
ATOM      5  H21 UNL     1     -12.944  21.735  25.874  1.00  0.00     0.174 HD
ATOM      6  H22 UNL     1     -13.286  20.006  25.476  1.00  0.00     0.174 HD
HETATM    7  N3  UNL     1     -12.016  22.473  23.704  1.00  0.00    -0.216 N 
ATOM      8  H3  UNL     1     -12.578  23.087  23.114  1.00  0.00     0.178 HD
ENDROOT
BRANCH   1   9
HETATM    9  C5  UNL     1     -11.561  19.872  22.074  1.00  0.00     0.110 C 
HETATM   10  C4  UNL     1     -12.073  20.459  20.816  1.00  0.00     0.052 C 
HETATM   11  C3  UNL     1     -12.259  19.488  19.674  1.00  0.00     0.094 C 
HETATM   12  N7  UNL     1     -12.815  18.239  20.078  1.00  0.00    -0.313 N 
HETATM   13  C16 UNL     1     -12.458  17.742  21.372  1.00  0.00     0.226 C 
HETATM   14  C15 UNL     1     -11.271  18.391  21.989  1.00  0.00     0.129 C 
HETATM   15  O1  UNL     1     -13.108  16.825  21.937  1.00  0.00    -0.273 OA
BRANCH  11  16
HETATM   16  C2  UNL     1     -11.015  19.426  18.859  1.00  0.00     0.021 C 
HETATM   17  C1  UNL     1     -10.253  20.748  18.846  1.00  0.00     0.007 C 
ENDBRANCH  11  16
BRANCH  12  18
HETATM   18  C17 UNL     1     -13.704  17.437  19.304  1.00  0.00     0.037 A 
HETATM   19  C18 UNL     1     -13.738  17.616  17.932  1.00  0.00     0.030 A 
HETATM   20  C19 UNL     1     -14.568  16.886  17.114  1.00  0.00     0.002 A 
HETATM   21  C20 UNL     1     -15.402  15.939  17.658  1.00  0.00     0.000 A 
HETATM   22  C21 UNL     1     -15.357  15.771  19.030  1.00  0.00     0.002 A 
HETATM   23  C22 UNL     1     -14.532  16.492  19.865  1.00  0.00     0.030 A 
ENDBRANCH  12  18
ENDBRANCH   1   9
BRANCH   7  24
HETATM   24  C7  UNL     1     -10.731  22.917  24.210  1.00  0.00     0.173 C 
HETATM   25  C8  UNL     1     -10.856  24.211  24.980  1.00  0.00     0.034 C 
HETATM   26  C9  UNL     1      -9.378  24.652  24.999  1.00  0.00     0.033 C 
HETATM   27  C10 UNL     1      -9.090  24.567  23.507  1.00  0.00     0.158 C 
HETATM   28  C14 UNL     1      -9.770  23.246  23.100  1.00  0.00     0.284 C 
HETATM   29  F1  UNL     1     -10.371  23.387  21.874  1.00  0.00    -0.202 F 
HETATM   30  F2  UNL     1      -8.790  22.278  23.074  1.00  0.00    -0.202 F 
BRANCH  27  31
HETATM   31  N4  UNL     1      -9.708  25.661  22.829  1.00  0.00    -0.354 N 
HETATM   32  C11 UNL     1      -9.253  26.364  21.876  1.00  0.00     0.186 C 
HETATM   33  N5  UNL     1     -10.102  27.414  21.382  1.00  0.00    -0.064 NA
HETATM   34  N6  UNL     1      -7.987  26.189  21.277  1.00  0.00    -0.364 N 
HETATM   35  C12 UNL     1      -6.938  27.217  21.354  1.00  0.00     0.151 C 
HETATM   36  C13 UNL     1      -7.597  24.992  20.529  1.00  0.00     0.151 C 
ATOM     37  H4  UNL     1     -10.642  25.912  23.155  1.00  0.00     0.162 HD
ENDBRANCH  27  31
ENDBRANCH   7  24
TORSDOF 5
ENDMDL
MODEL 3
REMARK VINA RESULT: -7.851816277      2.247      2.645
REMARK  5 active torsions:
REMARK  status: ('A' for Active; 'I' for Inactive)
REMARK    1  A    between atoms: C2_2  and  C3_3 
REMARK    2  A    between atoms: C5_5  and  N1_6 
REMARK       I    between atoms: N1_6  and  C6_8 
REMARK       I    between atoms: C6_8  and  N3_12 
REMARK    3  A    between atoms: N3_12  and  C7_14 
REMARK    4  A    between atoms: C10_17  and  N4_18 
REMARK       I    between atoms: C11_20  and  N6_22 
REMARK    5  A    between atoms: N7_31  and  C17_32 
ROOT
HETATM    1  N1  UNL     1     -10.084  18.698  21.437  1.00  0.00    -0.222 N 
ATOM      2  H1  UNL     1      -9.921  17.778  21.028  1.00  0.00     0.178 HD
HETATM    3  C6  UNL     1      -8.993  19.585  21.486  1.00  0.00     0.668 C 
HETATM    4  N2  UNL     1      -8.104  19.426  20.531  1.00  0.00    -0.235 N 
ATOM      5  H21 UNL     1      -7.312  20.068  20.566  1.00  0.00     0.174 HD
ATOM      6  H22 UNL     1      -8.234  18.703  19.822  1.00  0.00     0.174 HD
HETATM    7  N3  UNL     1      -8.813  20.581  22.464  1.00  0.00    -0.216 N 
ATOM      8  H3  UNL     1      -8.515  20.331  23.406  1.00  0.00     0.178 HD
ENDROOT
BRANCH   1   9
HETATM    9  C5  UNL     1     -11.414  18.979  21.915  1.00  0.00     0.110 C 
HETATM   10  C4  UNL     1     -12.106  17.732  22.309  1.00  0.00     0.052 C 
HETATM   11  C3  UNL     1     -13.390  17.439  21.570  1.00  0.00     0.094 C 
HETATM   12  N7  UNL     1     -13.317  17.725  20.175  1.00  0.00    -0.313 N 
HETATM   13  C16 UNL     1     -12.507  18.833  19.767  1.00  0.00     0.226 C 
HETATM   14  C15 UNL     1     -12.138  19.776  20.855  1.00  0.00     0.129 C 
HETATM   15  O1  UNL     1     -12.140  18.986  18.573  1.00  0.00    -0.273 OA
BRANCH  11  16
HETATM   16  C2  UNL     1     -14.540  18.028  22.307  1.00  0.00     0.021 C 
HETATM   17  C1  UNL     1     -14.598  17.579  23.764  1.00  0.00     0.007 C 
ENDBRANCH  11  16
BRANCH  12  18
HETATM   18  C17 UNL     1     -13.980  16.999  19.144  1.00  0.00     0.037 A 
HETATM   19  C18 UNL     1     -14.538  15.770  19.449  1.00  0.00     0.030 A 
HETATM   20  C19 UNL     1     -15.192  15.004  18.511  1.00  0.00     0.002 A 
HETATM   21  C20 UNL     1     -15.309  15.458  17.219  1.00  0.00     0.000 A 
HETATM   22  C21 UNL     1     -14.747  16.688  16.929  1.00  0.00     0.002 A 
HETATM   23  C22 UNL     1     -14.088  17.468  17.854  1.00  0.00     0.030 A 
ENDBRANCH  12  18
ENDBRANCH   1   9
BRANCH   7  24
HETATM   24  C7  UNL     1      -9.059  21.969  22.116  1.00  0.00     0.173 C 
HETATM   25  C8  UNL     1      -7.820  22.814  22.303  1.00  0.00     0.034 C 
HETATM   26  C9  UNL     1      -8.456  24.219  22.304  1.00  0.00     0.033 C 
HETATM   27  C10 UNL     1      -9.511  23.996  23.378  1.00  0.00     0.158 C 
HETATM   28  C14 UNL     1     -10.074  22.607  23.025  1.00  0.00     0.284 C 
HETATM   29  F1  UNL     1     -10.314  21.892  24.173  1.00  0.00    -0.202 F 
HETATM   30  F2  UNL     1     -11.231  22.811  22.307  1.00  0.00    -0.202 F 
BRANCH  27  31
HETATM   31  N4  UNL     1      -8.894  23.957  24.666  1.00  0.00    -0.354 N 
HETATM   32  C11 UNL     1      -9.334  24.400  25.771  1.00  0.00     0.186 C 
HETATM   33  N5  UNL     1      -8.490  24.223  26.921  1.00  0.00    -0.064 NA
HETATM   34  N6  UNL     1     -10.577  25.047  25.945  1.00  0.00    -0.364 N 
HETATM   35  C12 UNL     1     -10.673  26.454  26.362  1.00  0.00     0.151 C 
HETATM   36  C13 UNL     1     -11.871  24.395  25.734  1.00  0.00     0.151 C 
ATOM     37  H4  UNL     1      -7.976  23.515  24.702  1.00  0.00     0.162 HD
ENDBRANCH  27  31
ENDBRANCH   7  24
TORSDOF 5
ENDMDL
MODEL 4
REMARK VINA RESULT: -7.843769242      2.878      4.203
REMARK  5 active torsions:
REMARK  status: ('A' for Active; 'I' for Inactive)
REMARK    1  A    between atoms: C2_2  and  C3_3 
REMARK    2  A    between atoms: C5_5  and  N1_6 
REMARK       I    between atoms: N1_6  and  C6_8 
REMARK       I    between atoms: C6_8  and  N3_12 
REMARK    3  A    between atoms: N3_12  and  C7_14 
REMARK    4  A    between atoms: C10_17  and  N4_18 
REMARK       I    between atoms: C11_20  and  N6_22 
REMARK    5  A    between atoms: N7_31  and  C17_32 
ROOT
HETATM    1  N1  UNL     1     -12.717  20.179  23.005  1.00  0.00    -0.222 N 
ATOM      2  H1  UNL     1     -13.605  19.679  22.956  1.00  0.00     0.178 HD
HETATM    3  C6  UNL     1     -12.567  21.123  24.038  1.00  0.00     0.668 C 
HETATM    4  N2  UNL     1     -13.252  20.867  25.130  1.00  0.00    -0.235 N 
ATOM      5  H21 UNL     1     -13.143  21.551  25.879  1.00  0.00     0.174 HD
ATOM      6  H22 UNL     1     -13.836  20.032  25.187  1.00  0.00     0.174 HD
HETATM    7  N3  UNL     1     -11.761  22.274  23.959  1.00  0.00    -0.216 N 
ATOM      8  H3  UNL     1     -12.065  23.080  23.413  1.00  0.00     0.178 HD
ENDROOT
BRANCH   1   9
HETATM    9  C5  UNL     1     -11.725  19.859  22.012  1.00  0.00     0.110 C 
HETATM   10  C4  UNL     1     -12.122  20.379  20.685  1.00  0.00     0.052 C 
HETATM   11  C3  UNL     1     -12.266  19.342  19.596  1.00  0.00     0.094 C 
HETATM   12  N7  UNL     1     -12.900  18.144  20.037  1.00  0.00    -0.313 N 
HETATM   13  C16 UNL     1     -12.657  17.721  21.383  1.00  0.00     0.226 C 
HETATM   14  C15 UNL     1     -11.491  18.366  22.042  1.00  0.00     0.129 C 
HETATM   15  O1  UNL     1     -13.383  16.868  21.956  1.00  0.00    -0.273 OA
BRANCH  11  16
HETATM   16  C2  UNL     1     -10.971  19.181  18.880  1.00  0.00     0.021 C 
HETATM   17  C1  UNL     1     -10.278  20.513  18.611  1.00  0.00     0.007 C 
ENDBRANCH  11  16
BRANCH  12  18
HETATM   18  C17 UNL     1     -13.764  17.326  19.252  1.00  0.00     0.037 A 
HETATM   19  C18 UNL     1     -13.817  17.533  17.885  1.00  0.00     0.030 A 
HETATM   20  C19 UNL     1     -14.626  16.790  17.057  1.00  0.00     0.002 A 
HETATM   21  C20 UNL     1     -15.418  15.799  17.586  1.00  0.00     0.000 A 
HETATM   22  C21 UNL     1     -15.355  15.602  18.954  1.00  0.00     0.002 A 
HETATM   23  C22 UNL     1     -14.551  16.337  19.798  1.00  0.00     0.030 A 
ENDBRANCH  12  18
ENDBRANCH   1   9
BRANCH   7  24
HETATM   24  C7  UNL     1     -10.492  22.302  24.664  1.00  0.00     0.173 C 
HETATM   25  C8  UNL     1     -10.217  23.665  25.256  1.00  0.00     0.034 C 
HETATM   26  C9  UNL     1      -8.704  23.536  25.524  1.00  0.00     0.033 C 
HETATM   27  C10 UNL     1      -8.258  23.099  24.137  1.00  0.00     0.158 C 
HETATM   28  C14 UNL     1      -9.329  22.066  23.741  1.00  0.00     0.284 C 
HETATM   29  F1  UNL     1      -9.642  22.202  22.411  1.00  0.00    -0.202 F 
HETATM   30  F2  UNL     1      -8.808  20.819  24.011  1.00  0.00    -0.202 F 
BRANCH  27  31
HETATM   31  N4  UNL     1      -8.298  24.210  23.240  1.00  0.00    -0.354 N 
HETATM   32  C11 UNL     1      -7.467  24.530  22.335  1.00  0.00     0.186 C 
HETATM   33  N5  UNL     1      -7.763  25.713  21.574  1.00  0.00    -0.064 NA
HETATM   34  N6  UNL     1      -6.289  23.815  22.030  1.00  0.00    -0.364 N 
HETATM   35  C12 UNL     1      -4.952  24.397  22.219  1.00  0.00     0.151 C 
HETATM   36  C13 UNL     1      -6.278  22.449  21.503  1.00  0.00     0.151 C 
ATOM     37  H4  UNL     1      -9.102  24.829  23.340  1.00  0.00     0.162 HD
ENDBRANCH  27  31
ENDBRANCH   7  24
TORSDOF 5
ENDMDL
MODEL 5
REMARK VINA RESULT: -7.624183072      2.834      3.139
REMARK  5 active torsions:
REMARK  status: ('A' for Active; 'I' for Inactive)
REMARK    1  A    between atoms: C2_2  and  C3_3 
REMARK    2  A    between atoms: C5_5  and  N1_6 
REMARK       I    between atoms: N1_6  and  C6_8 
REMARK       I    between atoms: C6_8  and  N3_12 
REMARK    3  A    between atoms: N3_12  and  C7_14 
REMARK    4  A    between atoms: C10_17  and  N4_18 
REMARK       I    between atoms: C11_20  and  N6_22 
REMARK    5  A    between atoms: N7_31  and  C17_32 
ROOT
HETATM    1  N1  UNL     1     -10.055  18.806  19.184  1.00  0.00    -0.222 N 
ATOM      2  H1  UNL     1     -10.291  18.105  18.482  1.00  0.00     0.178 HD
HETATM    3  C6  UNL     1      -8.733  19.287  19.197  1.00  0.00     0.668 C 
HETATM    4  N2  UNL     1      -8.128  19.280  18.029  1.00  0.00    -0.235 N 
ATOM      5  H21 UNL     1      -7.170  19.628  18.038  1.00  0.00     0.174 HD
ATOM      6  H22 UNL     1      -8.617  18.945  17.199  1.00  0.00     0.174 HD
HETATM    7  N3  UNL     1      -8.059  19.748  20.343  1.00  0.00    -0.216 N 
ATOM      8  H3  UNL     1      -7.711  19.087  21.037  1.00  0.00     0.178 HD
ENDROOT
BRANCH   1   9
HETATM    9  C5  UNL     1     -11.105  19.219  20.080  1.00  0.00     0.110 C 
HETATM   10  C4  UNL     1     -11.422  18.148  21.050  1.00  0.00     0.052 C 
HETATM   11  C3  UNL     1     -12.848  17.650  21.027  1.00  0.00     0.094 C 
HETATM   12  N7  UNL     1     -13.375  17.507  19.711  1.00  0.00    -0.313 N 
HETATM   13  C16 UNL     1     -12.941  18.441  18.717  1.00  0.00     0.226 C 
HETATM   14  C15 UNL     1     -12.286  19.665  19.249  1.00  0.00     0.129 C 
HETATM   15  O1  UNL     1     -13.104  18.230  17.487  1.00  0.00    -0.273 OA
BRANCH  11  16
HETATM   16  C2  UNL     1     -13.669  18.434  21.988  1.00  0.00     0.021 C 
HETATM   17  C1  UNL     1     -14.167  17.594  23.160  1.00  0.00     0.007 C 
ENDBRANCH  11  16
BRANCH  12  18
HETATM   18  C17 UNL     1     -14.301  16.507  19.292  1.00  0.00     0.037 A 
HETATM   19  C18 UNL     1     -14.316  15.294  19.958  1.00  0.00     0.030 A 
HETATM   20  C19 UNL     1     -15.176  14.276  19.616  1.00  0.00     0.002 A 
HETATM   21  C20 UNL     1     -16.061  14.448  18.579  1.00  0.00     0.000 A 
HETATM   22  C21 UNL     1     -16.035  15.666  17.923  1.00  0.00     0.002 A 
HETATM   23  C22 UNL     1     -15.181  16.697  18.252  1.00  0.00     0.030 A 
ENDBRANCH  12  18
ENDBRANCH   1   9
BRANCH   7  24
HETATM   24  C7  UNL     1      -7.865  21.175  20.526  1.00  0.00     0.173 C 
HETATM   25  C8  UNL     1      -6.458  21.489  20.979  1.00  0.00     0.034 C 
HETATM   26  C9  UNL     1      -6.663  22.925  21.502  1.00  0.00     0.033 C 
HETATM   27  C10 UNL     1      -7.829  22.666  22.445  1.00  0.00     0.158 C 
HETATM   28  C14 UNL     1      -8.732  21.726  21.625  1.00  0.00     0.284 C 
HETATM   29  F1  UNL     1      -9.268  20.761  22.441  1.00  0.00    -0.202 F 
HETATM   30  F2  UNL     1      -9.713  22.505  21.053  1.00  0.00    -0.202 F 
BRANCH  27  31
HETATM   31  N4  UNL     1      -7.366  21.995  23.618  1.00  0.00    -0.354 N 
HETATM   32  C11 UNL     1      -7.700  22.189  24.827  1.00  0.00     0.186 C 
HETATM   33  N5  UNL     1      -7.066  21.358  25.814  1.00  0.00    -0.064 NA
HETATM   34  N6  UNL     1      -8.637  23.151  25.262  1.00  0.00    -0.364 N 
HETATM   35  C12 UNL     1      -8.252  24.283  26.119  1.00  0.00     0.151 C 
HETATM   36  C13 UNL     1     -10.059  23.120  24.914  1.00  0.00     0.151 C 
ATOM     37  H4  UNL     1      -6.674  21.262  23.463  1.00  0.00     0.162 HD
ENDBRANCH  27  31
ENDBRANCH   7  24
TORSDOF 5
ENDMDL
