MODEL 1
REMARK VINA RESULT: -7.245207088      0.000      0.000
REMARK  5 active torsions:
REMARK  status: ('A' for Active; 'I' for Inactive)
REMARK    1  A    between atoms: C2_2  and  N1_3 
REMARK       I    between atoms: C3_5  and  N3_7 
REMARK    2  A    between atoms: N3_7  and  C4_9 
REMARK    3  A    between atoms: C4_9  and  C5_10 
REMARK    4  A    between atoms: C5_10  and  C6_11 
REMARK    5  A    between atoms: C6_11  and  N4_12 
ROOT
HETATM    1  N4  UNL     1      -9.913  20.076  21.705  1.00  0.00    -0.320 N 
HETATM    2  C7  UNL     1      -9.860  18.699  21.403  1.00  0.00     0.221 C 
HETATM    3  O1  UNL     1      -9.996  17.904  22.390  1.00  0.00    -0.273 OA
HETATM    4  C8  UNL     1      -9.667  18.053  20.087  1.00  0.00     0.103 C 
HETATM    5  C9  UNL     1      -8.316  17.528  19.799  1.00  0.00     0.010 C 
HETATM    6  C10 UNL     1      -7.817  17.674  18.383  1.00  0.00     0.012 C 
HETATM    7  C11 UNL     1      -7.219  19.091  18.191  1.00  0.00     0.094 C 
HETATM    8  C12 UNL     1      -7.810  19.877  19.197  1.00  0.00    -0.103 C 
HETATM    9  C13 UNL     1      -8.305  20.423  19.999  1.00  0.00    -0.059 C 
HETATM   10  C14 UNL     1      -8.984  21.040  21.060  1.00  0.00     0.212 A 
HETATM   11  C15 UNL     1      -7.952  21.432  22.060  1.00  0.00     0.268 A 
HETATM   12  O2  UNL     1      -7.147  20.682  22.671  1.00  0.00    -0.269 OA
HETATM   13  N5  UNL     1      -7.980  22.834  22.258  1.00  0.00    -0.323 N 
ATOM     14  H5  UNL     1      -7.359  23.370  22.865  1.00  0.00     0.169 HD
HETATM   15  C16 UNL     1      -9.026  23.355  21.458  1.00  0.00     0.048 A 
HETATM   16  C17 UNL     1      -9.480  24.643  21.307  1.00  0.00     0.054 A 
HETATM   17  C18 UNL     1     -10.541  24.958  20.489  1.00  0.00     0.037 A 
HETATM   18 CL1  UNL     1     -11.090  26.621  20.325  1.00  0.00    -0.084 Cl
HETATM   19  C19 UNL     1     -11.169  23.954  19.798  1.00  0.00     0.048 A 
HETATM   20  C20 UNL     1     -10.709  22.668  19.955  1.00  0.00     0.048 A 
HETATM   21 CL2  UNL     1     -11.568  21.433  19.037  1.00  0.00    -0.084 Cl
HETATM   22  C21 UNL     1      -9.646  22.340  20.771  1.00  0.00     0.041 A 
ENDROOT
BRANCH   1  23
HETATM   23  C6  UNL     1     -10.870  20.609  22.628  1.00  0.00     0.130 C 
BRANCH  23  24
HETATM   24  C5  UNL     1     -12.301  20.278  22.316  1.00  0.00     0.039 C 
BRANCH  24  25
HETATM   25  C4  UNL     1     -13.063  19.817  23.535  1.00  0.00     0.123 C 
BRANCH  25  26
HETATM   26  N3  UNL     1     -14.304  19.185  23.152  1.00  0.00    -0.365 N 
HETATM   27  C3  UNL     1     -14.626  17.855  23.539  1.00  0.00     0.183 C 
HETATM   28  N1  UNL     1     -14.046  16.830  23.055  1.00  0.00    -0.365 N 
HETATM   29  N2  UNL     1     -15.645  17.680  24.510  1.00  0.00    -0.064 NA
ATOM     30  H1  UNL     1     -14.359  15.924  23.406  1.00  0.00     0.162 HD
ATOM     31  H3  UNL     1     -14.971  19.711  22.586  1.00  0.00     0.162 HD
BRANCH  28  32
HETATM   32  C2  UNL     1     -13.005  16.806  22.076  1.00  0.00     0.118 C 
HETATM   33  C1  UNL     1     -13.604  16.730  20.668  1.00  0.00     0.026 C 
ENDBRANCH  28  32
ENDBRANCH  25  26
ENDBRANCH  24  25
ENDBRANCH  23  24
ENDBRANCH   1  23
TORSDOF 5
ENDMDL
MODEL 2
REMARK VINA RESULT: -7.171868689      3.572      6.472
REMARK  5 active torsions:
REMARK  status: ('A' for Active; 'I' for Inactive)
REMARK    1  A    between atoms: C2_2  and  N1_3 
REMARK       I    between atoms: C3_5  and  N3_7 
REMARK    2  A    between atoms: N3_7  and  C4_9 
REMARK    3  A    between atoms: C4_9  and  C5_10 
REMARK    4  A    between atoms: C5_10  and  C6_11 
REMARK    5  A    between atoms: C6_11  and  N4_12 
ROOT
HETATM    1  N4  UNL     1     -10.910  19.817  19.662  1.00  0.00    -0.320 N 
HETATM    2  C7  UNL     1     -12.088  19.277  19.103  1.00  0.00     0.221 C 
HETATM    3  O1  UNL     1     -12.734  20.043  18.314  1.00  0.00    -0.273 OA
HETATM    4  C8  UNL     1     -12.674  17.936  19.310  1.00  0.00     0.103 C 
HETATM    5  C9  UNL     1     -13.822  17.851  20.235  1.00  0.00     0.010 C 
HETATM    6  C10 UNL     1     -13.897  16.629  21.117  1.00  0.00     0.012 C 
HETATM    7  C11 UNL     1     -13.008  16.843  22.369  1.00  0.00     0.094 C 
HETATM    8  C12 UNL     1     -12.077  17.829  21.994  1.00  0.00    -0.103 C 
HETATM    9  C13 UNL     1     -11.391  18.594  21.634  1.00  0.00    -0.059 C 
HETATM   10  C14 UNL     1     -10.558  19.582  21.086  1.00  0.00     0.212 A 
HETATM   11  C15 UNL     1     -10.825  20.836  21.844  1.00  0.00     0.268 A 
HETATM   12  O2  UNL     1     -11.917  21.452  21.956  1.00  0.00    -0.269 OA
HETATM   13  N5  UNL     1      -9.635  21.286  22.466  1.00  0.00    -0.323 N 
ATOM     14  H5  UNL     1      -9.541  22.102  23.070  1.00  0.00     0.169 HD
HETATM   15  C16 UNL     1      -8.599  20.394  22.095  1.00  0.00     0.048 A 
HETATM   16  C17 UNL     1      -7.261  20.396  22.410  1.00  0.00     0.054 A 
HETATM   17  C18 UNL     1      -6.391  19.444  21.930  1.00  0.00     0.037 A 
HETATM   18 CL1  UNL     1      -4.685  19.484  22.358  1.00  0.00    -0.084 Cl
HETATM   19  C19 UNL     1      -6.872  18.456  21.109  1.00  0.00     0.048 A 
HETATM   20  C20 UNL     1      -8.212  18.461  20.800  1.00  0.00     0.048 A 
HETATM   21 CL2  UNL     1      -8.755  17.163  19.739  1.00  0.00    -0.084 Cl
HETATM   22  C21 UNL     1      -9.094  19.409  21.275  1.00  0.00     0.041 A 
ENDROOT
BRANCH   1  23
HETATM   23  C6  UNL     1      -9.994  20.596  18.883  1.00  0.00     0.130 C 
BRANCH  23  24
HETATM   24  C5  UNL     1      -9.553  19.957  17.598  1.00  0.00     0.039 C 
BRANCH  24  25
HETATM   25  C4  UNL     1      -8.064  20.073  17.380  1.00  0.00     0.123 C 
BRANCH  25  26
HETATM   26  N3  UNL     1      -7.737  19.887  15.985  1.00  0.00    -0.365 N 
HETATM   27  C3  UNL     1      -8.274  18.816  15.219  1.00  0.00     0.183 C 
HETATM   28  N1  UNL     1      -7.927  17.602  15.381  1.00  0.00    -0.365 N 
HETATM   29  N2  UNL     1      -9.242  19.133  14.230  1.00  0.00    -0.064 NA
ATOM     30  H1  UNL     1      -8.377  16.916  14.775  1.00  0.00     0.162 HD
ATOM     31  H3  UNL     1      -7.101  20.546  15.536  1.00  0.00     0.162 HD
BRANCH  28  32
HETATM   32  C2  UNL     1      -6.976  17.092  16.318  1.00  0.00     0.118 C 
HETATM   33  C1  UNL     1      -7.012  15.560  16.330  1.00  0.00     0.026 C 
ENDBRANCH  28  32
ENDBRANCH  25  26
ENDBRANCH  24  25
ENDBRANCH  23  24
ENDBRANCH   1  23
TORSDOF 5
ENDMDL
MODEL 3
REMARK VINA RESULT: -7.137816471      2.956      6.264
REMARK  5 active torsions:
REMARK  status: ('A' for Active; 'I' for Inactive)
REMARK    1  A    between atoms: C2_2  and  N1_3 
REMARK       I    between atoms: C3_5  and  N3_7 
REMARK    2  A    between atoms: N3_7  and  C4_9 
REMARK    3  A    between atoms: C4_9  and  C5_10 
REMARK    4  A    between atoms: C5_10  and  C6_11 
REMARK    5  A    between atoms: C6_11  and  N4_12 
ROOT
HETATM    1  N4  UNL     1      -9.973  20.553  21.908  1.00  0.00    -0.320 N 
HETATM    2  C7  UNL     1      -8.980  21.529  21.681  1.00  0.00     0.221 C 
HETATM    3  O1  UNL     1      -8.050  21.593  22.550  1.00  0.00    -0.273 OA
HETATM    4  C8  UNL     1      -8.874  22.492  20.563  1.00  0.00     0.103 C 
HETATM    5  C9  UNL     1      -9.289  23.881  20.845  1.00  0.00     0.010 C 
HETATM    6  C10 UNL     1     -10.007  24.615  19.740  1.00  0.00     0.012 C 
HETATM    7  C11 UNL     1     -11.512  24.245  19.770  1.00  0.00     0.094 C 
HETATM    8  C12 UNL     1     -11.574  23.011  20.442  1.00  0.00    -0.103 C 
HETATM    9  C13 UNL     1     -11.544  22.059  20.970  1.00  0.00    -0.059 C 
HETATM   10  C14 UNL     1     -11.409  20.846  21.663  1.00  0.00     0.212 A 
HETATM   11  C15 UNL     1     -12.078  21.028  22.981  1.00  0.00     0.268 A 
HETATM   12  O2  UNL     1     -11.802  21.867  23.877  1.00  0.00    -0.269 OA
HETATM   13  N5  UNL     1     -13.128  20.089  23.121  1.00  0.00    -0.323 N 
ATOM     14  H5  UNL     1     -13.767  20.012  23.913  1.00  0.00     0.169 HD
HETATM   15  C16 UNL     1     -13.129  19.275  21.962  1.00  0.00     0.048 A 
HETATM   16  C17 UNL     1     -13.926  18.211  21.616  1.00  0.00     0.054 A 
HETATM   17  C18 UNL     1     -13.760  17.519  20.438  1.00  0.00     0.037 A 
HETATM   18 CL1  UNL     1     -14.804  16.162  20.034  1.00  0.00    -0.084 Cl
HETATM   19  C19 UNL     1     -12.764  17.903  19.576  1.00  0.00     0.048 A 
HETATM   20  C20 UNL     1     -11.971  18.968  19.930  1.00  0.00     0.048 A 
HETATM   21 CL2  UNL     1     -10.713  19.400  18.774  1.00  0.00    -0.084 Cl
HETATM   22  C21 UNL     1     -12.129  19.670  21.107  1.00  0.00     0.041 A 
ENDROOT
BRANCH   1  23
HETATM   23  C6  UNL     1      -9.644  19.236  22.365  1.00  0.00     0.130 C 
BRANCH  23  24
HETATM   24  C5  UNL     1      -8.653  18.499  21.511  1.00  0.00     0.039 C 
BRANCH  24  25
HETATM   25  C4  UNL     1      -7.339  18.275  22.219  1.00  0.00     0.123 C 
BRANCH  25  26
HETATM   26  N3  UNL     1      -7.550  18.084  23.636  1.00  0.00    -0.365 N 
HETATM   27  C3  UNL     1      -6.778  18.769  24.615  1.00  0.00     0.183 C 
HETATM   28  N1  UNL     1      -5.552  18.508  24.841  1.00  0.00    -0.365 N 
HETATM   29  N2  UNL     1      -7.418  19.789  25.364  1.00  0.00    -0.064 NA
ATOM     30  H1  UNL     1      -5.097  19.062  25.567  1.00  0.00     0.162 HD
ATOM     31  H3  UNL     1      -8.277  17.438  23.944  1.00  0.00     0.162 HD
BRANCH  28  32
HETATM   32  C2  UNL     1      -4.743  17.524  24.193  1.00  0.00     0.118 C 
HETATM   33  C1  UNL     1      -4.013  16.668  25.234  1.00  0.00     0.026 C 
ENDBRANCH  28  32
ENDBRANCH  25  26
ENDBRANCH  24  25
ENDBRANCH  23  24
ENDBRANCH   1  23
TORSDOF 5
ENDMDL
MODEL 4
REMARK VINA RESULT: -7.121096707      2.224      3.111
REMARK  5 active torsions:
REMARK  status: ('A' for Active; 'I' for Inactive)
REMARK    1  A    between atoms: C2_2  and  N1_3 
REMARK       I    between atoms: C3_5  and  N3_7 
REMARK    2  A    between atoms: N3_7  and  C4_9 
REMARK    3  A    between atoms: C4_9  and  C5_10 
REMARK    4  A    between atoms: C5_10  and  C6_11 
REMARK    5  A    between atoms: C6_11  and  N4_12 
ROOT
HETATM    1  N4  UNL     1     -10.158  20.007  22.018  1.00  0.00    -0.320 N 
HETATM    2  C7  UNL     1      -9.680  18.719  22.338  1.00  0.00     0.221 C 
HETATM    3  O1  UNL     1     -10.568  17.837  22.578  1.00  0.00    -0.273 OA
HETATM    4  C8  UNL     1      -8.279  18.253  22.431  1.00  0.00     0.103 C 
HETATM    5  C9  UNL     1      -7.716  18.115  23.789  1.00  0.00     0.010 C 
HETATM    6  C10 UNL     1      -6.269  18.499  23.969  1.00  0.00     0.012 C 
HETATM    7  C11 UNL     1      -6.164  20.033  24.169  1.00  0.00     0.094 C 
HETATM    8  C12 UNL     1      -7.341  20.558  23.607  1.00  0.00    -0.103 C 
HETATM    9  C13 UNL     1      -8.274  20.891  23.154  1.00  0.00    -0.059 C 
HETATM   10  C14 UNL     1      -9.499  21.226  22.557  1.00  0.00     0.212 A 
HETATM   11  C15 UNL     1     -10.363  21.783  23.635  1.00  0.00     0.268 A 
HETATM   12  O2  UNL     1     -10.739  21.215  24.693  1.00  0.00    -0.269 OA
HETATM   13  N5  UNL     1     -10.738  23.110  23.314  1.00  0.00    -0.323 N 
ATOM     14  H5  UNL     1     -11.301  23.735  23.892  1.00  0.00     0.169 HD
HETATM   15  C16 UNL     1     -10.187  23.413  22.045  1.00  0.00     0.048 A 
HETATM   16  C17 UNL     1     -10.274  24.551  21.280  1.00  0.00     0.054 A 
HETATM   17  C18 UNL     1      -9.681  24.652  20.042  1.00  0.00     0.037 A 
HETATM   18 CL1  UNL     1      -9.816  26.129  19.095  1.00  0.00    -0.084 Cl
HETATM   19  C19 UNL     1      -8.977  23.582  19.551  1.00  0.00     0.048 A 
HETATM   20  C20 UNL     1      -8.896  22.447  20.323  1.00  0.00     0.048 A 
HETATM   21 CL2  UNL     1      -7.979  21.114  19.625  1.00  0.00    -0.084 Cl
HETATM   22  C21 UNL     1      -9.485  22.333  21.565  1.00  0.00     0.041 A 
ENDROOT
BRANCH   1  23
HETATM   23  C6  UNL     1     -11.280  20.201  21.151  1.00  0.00     0.130 C 
BRANCH  23  24
HETATM   24  C5  UNL     1     -11.300  19.321  19.935  1.00  0.00     0.039 C 
BRANCH  24  25
HETATM   25  C4  UNL     1     -12.602  18.572  19.788  1.00  0.00     0.123 C 
BRANCH  25  26
HETATM   26  N3  UNL     1     -12.506  17.261  20.388  1.00  0.00    -0.365 N 
HETATM   27  C3  UNL     1     -13.654  16.549  20.835  1.00  0.00     0.183 C 
HETATM   28  N1  UNL     1     -14.323  16.885  21.865  1.00  0.00    -0.365 N 
HETATM   29  N2  UNL     1     -14.057  15.412  20.088  1.00  0.00    -0.064 NA
ATOM     30  H1  UNL     1     -15.128  16.301  22.094  1.00  0.00     0.162 HD
ATOM     31  H3  UNL     1     -11.587  16.832  20.493  1.00  0.00     0.162 HD
BRANCH  28  32
HETATM   32  C2  UNL     1     -14.074  17.990  22.737  1.00  0.00     0.118 C 
HETATM   33  C1  UNL     1     -14.810  17.793  24.066  1.00  0.00     0.026 C 
ENDBRANCH  28  32
ENDBRANCH  25  26
ENDBRANCH  24  25
ENDBRANCH  23  24
ENDBRANCH   1  23
TORSDOF 5
ENDMDL
MODEL 5
REMARK VINA RESULT: -7.110423289      2.845      4.925
REMARK  5 active torsions:
REMARK  status: ('A' for Active; 'I' for Inactive)
REMARK    1  A    between atoms: C2_2  and  N1_3 
REMARK       I    between atoms: C3_5  and  N3_7 
REMARK    2  A    between atoms: N3_7  and  C4_9 
REMARK    3  A    between atoms: C4_9  and  C5_10 
REMARK    4  A    between atoms: C5_10  and  C6_11 
REMARK    5  A    between atoms: C6_11  and  N4_12 
ROOT
HETATM    1  N4  UNL     1     -10.117  19.858  20.343  1.00  0.00    -0.320 N 
HETATM    2  C7  UNL     1     -11.200  20.745  20.520  1.00  0.00     0.221 C 
HETATM    3  O1  UNL     1     -12.347  20.302  20.182  1.00  0.00    -0.273 OA
HETATM    4  C8  UNL     1     -11.182  22.126  21.048  1.00  0.00     0.103 C 
HETATM    5  C9  UNL     1     -11.266  23.216  20.055  1.00  0.00     0.010 C 
HETATM    6  C10 UNL     1     -10.444  24.452  20.329  1.00  0.00     0.012 C 
HETATM    7  C11 UNL     1      -8.992  24.223  19.837  1.00  0.00     0.094 C 
HETATM    8  C12 UNL     1      -8.832  22.827  19.800  1.00  0.00    -0.103 C 
HETATM    9  C13 UNL     1      -8.782  21.738  19.796  1.00  0.00    -0.059 C 
HETATM   10  C14 UNL     1      -8.812  20.336  19.817  1.00  0.00     0.212 A 
HETATM   11  C15 UNL     1      -8.688  19.883  18.403  1.00  0.00     0.268 A 
HETATM   12  O2  UNL     1      -9.454  20.143  17.440  1.00  0.00    -0.269 OA
HETATM   13  N5  UNL     1      -7.534  19.076  18.256  1.00  0.00    -0.323 N 
ATOM     14  H5  UNL     1      -7.195  18.661  17.388  1.00  0.00     0.169 HD
HETATM   15  C16 UNL     1      -6.936  18.950  19.534  1.00  0.00     0.048 A 
HETATM   16  C17 UNL     1      -5.819  18.260  19.935  1.00  0.00     0.054 A 
HETATM   17  C18 UNL     1      -5.399  18.237  21.246  1.00  0.00     0.037 A 
HETATM   18 CL1  UNL     1      -3.962  17.339  21.717  1.00  0.00    -0.084 Cl
HETATM   19  C19 UNL     1      -6.119  18.927  22.187  1.00  0.00     0.048 A 
HETATM   20  C20 UNL     1      -7.236  19.615  21.777  1.00  0.00     0.048 A 
HETATM   21 CL2  UNL     1      -8.111  20.475  23.043  1.00  0.00    -0.084 Cl
HETATM   22  C21 UNL     1      -7.666  19.647  20.467  1.00  0.00     0.041 A 
ENDROOT
BRANCH   1  23
HETATM   23  C6  UNL     1     -10.218  18.469  20.678  1.00  0.00     0.130 C 
BRANCH  23  24
HETATM   24  C5  UNL     1     -10.550  18.187  22.115  1.00  0.00     0.039 C 
BRANCH  24  25
HETATM   25  C4  UNL     1     -11.833  17.407  22.265  1.00  0.00     0.123 C 
BRANCH  25  26
HETATM   26  N3  UNL     1     -12.958  18.300  22.425  1.00  0.00    -0.365 N 
HETATM   27  C3  UNL     1     -14.294  17.822  22.525  1.00  0.00     0.183 C 
HETATM   28  N1  UNL     1     -14.931  17.324  21.541  1.00  0.00    -0.365 N 
HETATM   29  N2  UNL     1     -14.934  17.914  23.789  1.00  0.00    -0.064 NA
ATOM     30  H1  UNL     1     -15.884  17.014  21.728  1.00  0.00     0.162 HD
ATOM     31  H3  UNL     1     -12.787  19.304  22.468  1.00  0.00     0.162 HD
BRANCH  28  32
HETATM   32  C2  UNL     1     -14.457  17.149  20.204  1.00  0.00     0.118 C 
HETATM   33  C1  UNL     1     -14.965  15.821  19.631  1.00  0.00     0.026 C 
ENDBRANCH  28  32
ENDBRANCH  25  26
ENDBRANCH  24  25
ENDBRANCH  23  24
ENDBRANCH   1  23
TORSDOF 5
ENDMDL
