MODEL 1
REMARK VINA RESULT: -9.071760986      0.000      0.000
REMARK  5 active torsions:
REMARK  status: ('A' for Active; 'I' for Inactive)
REMARK    1  A    between atoms: C3_6  and  O2_7 
REMARK    2  A    between atoms: O2_7  and  C4_8 
REMARK    3  A    between atoms: C11_15  and  C12_16 
REMARK    4  A    between atoms: C14_22  and  C15_23 
REMARK    5  A    between atoms: C18_26  and  O3_27 
ROOT
HETATM    1  O1  UNL     1      13.528  10.252  10.220  1.00  0.00    -0.267 OA
HETATM    2  C1  UNL     1      13.435  10.825  11.330  1.00  0.00     0.256 A 
HETATM    3  N1  UNL     1      12.327  11.525  11.652  1.00  0.00    -0.330 N 
ATOM      4  H1  UNL     1      11.547  11.601  10.998  1.00  0.00     0.168 HD
HETATM    5  C2  UNL     1      12.279  12.123  12.861  1.00  0.00     0.128 A 
HETATM    6  C3  UNL     1      13.307  12.046  13.766  1.00  0.00     0.085 A 
HETATM    7  C10 UNL     1      14.449  11.323  13.432  1.00  0.00     0.056 A 
HETATM    8  C11 UNL     1      14.511  10.715  12.216  1.00  0.00     0.048 A 
ENDROOT
BRANCH   8   9
HETATM    9  C12 UNL     1      15.683   9.941  11.846  1.00  0.00     0.021 A 
HETATM   10  C13 UNL     1      16.781  10.415  11.146  1.00  0.00     0.121 A 
HETATM   11  N2  UNL     1      17.623   9.391  11.003  1.00  0.00    -0.311 N 
HETATM   12  N3  UNL     1      17.106   8.332  11.570  1.00  0.00    -0.304 N 
ATOM     13  H2  UNL     1      18.525   9.429  10.528  1.00  0.00     0.186 HD
HETATM   14  C14 UNL     1      15.900   8.621  12.109  1.00  0.00     0.042 A 
ATOM     15  H3  UNL     1      17.552   7.416  11.601  1.00  0.00     0.186 HD
BRANCH  14  16
HETATM   16  C15 UNL     1      15.098   7.610  12.825  1.00  0.00     0.040 C 
HETATM   17  C16 UNL     1      15.538   6.196  12.412  1.00  0.00     0.013 C 
HETATM   18  C17 UNL     1      15.750   5.421  13.672  1.00  0.00     0.032 C 
HETATM   19  C18 UNL     1      14.975   6.190  14.692  1.00  0.00     0.118 C 
HETATM   20  C19 UNL     1      15.324   7.629  14.327  1.00  0.00     0.042 C 
BRANCH  19  21
HETATM   21  O3  UNL     1      15.360   5.934  15.995  1.00  0.00    -0.396 OA
ATOM     22  H3  UNL     1      14.674   5.551  16.530  1.00  0.00     0.210 HD
ENDBRANCH  19  21
ENDBRANCH  14  16
ENDBRANCH   8   9
BRANCH   6  23
HETATM   23  O2  UNL     1      13.243  12.658  14.986  1.00  0.00    -0.344 OA
BRANCH  23  24
HETATM   24  C4  UNL     1      12.984  12.112  16.233  1.00  0.00     0.129 C 
HETATM   25  C5  UNL     1      11.520  12.343  16.582  1.00  0.00     0.032 C 
HETATM   26  C6  UNL     1      11.178  11.627  17.871  1.00  0.00     0.002 C 
HETATM   27  C7  UNL     1      12.376  11.491  18.775  1.00  0.00     0.000 C 
HETATM   28  C8  UNL     1      13.347  12.624  18.638  1.00  0.00     0.002 C 
HETATM   29  C9  UNL     1      13.773  12.946  17.250  1.00  0.00     0.032 C 
ENDBRANCH  23  24
ENDBRANCH   6  23
TORSDOF 5
ENDMDL
MODEL 2
REMARK VINA RESULT: -9.030948161      3.428      7.415
REMARK  5 active torsions:
REMARK  status: ('A' for Active; 'I' for Inactive)
REMARK    1  A    between atoms: C3_6  and  O2_7 
REMARK    2  A    between atoms: O2_7  and  C4_8 
REMARK    3  A    between atoms: C11_15  and  C12_16 
REMARK    4  A    between atoms: C14_22  and  C15_23 
REMARK    5  A    between atoms: C18_26  and  O3_27 
ROOT
HETATM    1  O1  UNL     1      16.939  11.219  12.151  1.00  0.00    -0.267 OA
HETATM    2  C1  UNL     1      16.739  10.526  11.127  1.00  0.00     0.256 A 
HETATM    3  N1  UNL     1      17.471  10.721  10.010  1.00  0.00    -0.330 N 
ATOM      4  H1  UNL     1      18.200  11.434   9.980  1.00  0.00     0.168 HD
HETATM    5  C2  UNL     1      17.214   9.946   8.935  1.00  0.00     0.128 A 
HETATM    6  C3  UNL     1      16.242   8.977   8.936  1.00  0.00     0.085 A 
HETATM    7  C10 UNL     1      15.488   8.777  10.090  1.00  0.00     0.056 A 
HETATM    8  C11 UNL     1      15.737   9.551  11.181  1.00  0.00     0.048 A 
ENDROOT
BRANCH   8   9
HETATM    9  C12 UNL     1      14.977   9.355  12.403  1.00  0.00     0.021 A 
HETATM   10  C13 UNL     1      14.170  10.300  13.017  1.00  0.00     0.121 A 
HETATM   11  N2  UNL     1      13.666   9.730  14.112  1.00  0.00    -0.311 N 
HETATM   12  N3  UNL     1      14.116   8.505  14.199  1.00  0.00    -0.304 N 
ATOM     13  H2  UNL     1      13.033  10.177  14.774  1.00  0.00     0.186 HD
HETATM   14  C14 UNL     1      14.935   8.222  13.160  1.00  0.00     0.042 A 
ATOM     15  H3  UNL     1      13.881   7.853  14.947  1.00  0.00     0.186 HD
BRANCH  14  16
HETATM   16  C15 UNL     1      15.574   6.902  13.000  1.00  0.00     0.040 C 
HETATM   17  C16 UNL     1      16.744   6.757  13.988  1.00  0.00     0.013 C 
HETATM   18  C17 UNL     1      16.569   5.442  14.677  1.00  0.00     0.032 C 
HETATM   19  C18 UNL     1      15.667   4.682  13.762  1.00  0.00     0.118 C 
HETATM   20  C19 UNL     1      14.653   5.750  13.367  1.00  0.00     0.042 C 
BRANCH  19  21
HETATM   21  O3  UNL     1      15.016   3.625  14.370  1.00  0.00    -0.396 OA
ATOM     22  H3  UNL     1      15.589   3.061  14.877  1.00  0.00     0.210 HD
ENDBRANCH  19  21
ENDBRANCH  14  16
ENDBRANCH   8   9
BRANCH   6  23
HETATM   23  O2  UNL     1      15.993   8.202   7.839  1.00  0.00    -0.344 OA
BRANCH  23  24
HETATM   24  C4  UNL     1      16.543   6.982   7.480  1.00  0.00     0.129 C 
HETATM   25  C5  UNL     1      16.297   6.744   5.996  1.00  0.00     0.032 C 
HETATM   26  C6  UNL     1      17.016   5.488   5.549  1.00  0.00     0.002 C 
HETATM   27  C7  UNL     1      17.170   4.497   6.673  1.00  0.00     0.000 C 
HETATM   28  C8  UNL     1      16.047   4.553   7.664  1.00  0.00     0.002 C 
HETATM   29  C9  UNL     1      15.722   5.902   8.198  1.00  0.00     0.032 C 
ENDBRANCH  23  24
ENDBRANCH   6  23
TORSDOF 5
ENDMDL
MODEL 3
REMARK VINA RESULT: -8.993312198      3.455      7.679
REMARK  5 active torsions:
REMARK  status: ('A' for Active; 'I' for Inactive)
REMARK    1  A    between atoms: C3_6  and  O2_7 
REMARK    2  A    between atoms: O2_7  and  C4_8 
REMARK    3  A    between atoms: C11_15  and  C12_16 
REMARK    4  A    between atoms: C14_22  and  C15_23 
REMARK    5  A    between atoms: C18_26  and  O3_27 
ROOT
HETATM    1  O1  UNL     1      17.302  11.145  11.716  1.00  0.00    -0.267 OA
HETATM    2  C1  UNL     1      17.095  10.420  10.716  1.00  0.00     0.256 A 
HETATM    3  N1  UNL     1      18.111  10.065   9.901  1.00  0.00    -0.330 N 
ATOM      4  H1  UNL     1      19.064  10.380  10.085  1.00  0.00     0.168 HD
HETATM    5  C2  UNL     1      17.832   9.283   8.837  1.00  0.00     0.128 A 
HETATM    6  C3  UNL     1      16.564   8.841   8.555  1.00  0.00     0.085 A 
HETATM    7  C10 UNL     1      15.518   9.208   9.397  1.00  0.00     0.056 A 
HETATM    8  C11 UNL     1      15.784   9.996  10.473  1.00  0.00     0.048 A 
ENDROOT
BRANCH   8   9
HETATM    9  C12 UNL     1      14.716  10.382  11.378  1.00  0.00     0.021 A 
HETATM   10  C13 UNL     1      13.751  11.346  11.130  1.00  0.00     0.121 A 
HETATM   11  N2  UNL     1      12.971  11.403  12.210  1.00  0.00    -0.311 N 
HETATM   12  N3  UNL     1      13.402  10.540  13.092  1.00  0.00    -0.304 N 
ATOM     13  H2  UNL     1      12.169  12.021  12.328  1.00  0.00     0.186 HD
HETATM   14  C14 UNL     1      14.485   9.878  12.624  1.00  0.00     0.042 A 
ATOM     15  H3  UNL     1      12.979  10.386  14.007  1.00  0.00     0.186 HD
BRANCH  14  16
HETATM   16  C15 UNL     1      15.169   8.834  13.410  1.00  0.00     0.040 C 
HETATM   17  C16 UNL     1      14.238   8.312  14.518  1.00  0.00     0.013 C 
HETATM   18  C17 UNL     1      14.264   6.820  14.440  1.00  0.00     0.032 C 
HETATM   19  C18 UNL     1      15.521   6.528  13.690  1.00  0.00     0.118 C 
HETATM   20  C19 UNL     1      15.485   7.591  12.596  1.00  0.00     0.042 C 
BRANCH  19  21
HETATM   21  O3  UNL     1      15.551   5.271  13.116  1.00  0.00    -0.396 OA
ATOM     22  H3  UNL     1      16.280   4.734  13.403  1.00  0.00     0.210 HD
ENDBRANCH  19  21
ENDBRANCH  14  16
ENDBRANCH   8   9
BRANCH   6  23
HETATM   23  O2  UNL     1      16.298   8.050   7.473  1.00  0.00    -0.344 OA
BRANCH  23  24
HETATM   24  C4  UNL     1      16.717   6.757   7.203  1.00  0.00     0.129 C 
HETATM   25  C5  UNL     1      16.402   6.427   5.750  1.00  0.00     0.032 C 
HETATM   26  C6  UNL     1      16.983   5.075   5.391  1.00  0.00     0.002 C 
HETATM   27  C7  UNL     1      17.077   4.167   6.589  1.00  0.00     0.000 C 
HETATM   28  C8  UNL     1      15.996   4.411   7.599  1.00  0.00     0.002 C 
HETATM   29  C9  UNL     1      15.820   5.824   8.027  1.00  0.00     0.032 C 
ENDBRANCH  23  24
ENDBRANCH   6  23
TORSDOF 5
ENDMDL
MODEL 4
REMARK VINA RESULT: -8.922529539      1.857      2.506
REMARK  5 active torsions:
REMARK  status: ('A' for Active; 'I' for Inactive)
REMARK    1  A    between atoms: C3_6  and  O2_7 
REMARK    2  A    between atoms: O2_7  and  C4_8 
REMARK    3  A    between atoms: C11_15  and  C12_16 
REMARK    4  A    between atoms: C14_22  and  C15_23 
REMARK    5  A    between atoms: C18_26  and  O3_27 
ROOT
HETATM    1  O1  UNL     1      15.301   9.241   9.444  1.00  0.00    -0.267 OA
HETATM    2  C1  UNL     1      15.047   9.482  10.646  1.00  0.00     0.256 A 
HETATM    3  N1  UNL     1      14.086  10.369  10.983  1.00  0.00    -0.330 N 
ATOM      4  H1  UNL     1      13.551  10.858  10.265  1.00  0.00     0.168 HD
HETATM    5  C2  UNL     1      13.853  10.591  12.293  1.00  0.00     0.128 A 
HETATM    6  C3  UNL     1      14.552   9.955  13.288  1.00  0.00     0.085 A 
HETATM    7  C10 UNL     1      15.542   9.040  12.939  1.00  0.00     0.056 A 
HETATM    8  C11 UNL     1      15.788   8.806  11.622  1.00  0.00     0.048 A 
ENDROOT
BRANCH   8   9
HETATM    9  C12 UNL     1      16.804   7.846  11.228  1.00  0.00     0.021 A 
HETATM   10  C13 UNL     1      18.091   8.150  10.815  1.00  0.00     0.121 A 
HETATM   11  N2  UNL     1      18.694   6.994  10.534  1.00  0.00    -0.311 N 
HETATM   12  N3  UNL     1      17.856   6.014  10.751  1.00  0.00    -0.304 N 
ATOM     13  H2  UNL     1      19.653   6.892  10.205  1.00  0.00     0.186 HD
HETATM   14  C14 UNL     1      16.666   6.490  11.183  1.00  0.00     0.042 A 
ATOM     15  H3  UNL     1      18.070   5.027  10.613  1.00  0.00     0.186 HD
BRANCH  14  16
HETATM   16  C15 UNL     1      15.538   5.600  11.518  1.00  0.00     0.040 C 
HETATM   17  C16 UNL     1      15.757   4.212  10.892  1.00  0.00     0.013 C 
HETATM   18  C17 UNL     1      15.528   3.207  11.974  1.00  0.00     0.032 C 
HETATM   19  C18 UNL     1      14.727   3.956  12.987  1.00  0.00     0.118 C 
HETATM   20  C19 UNL     1      15.435   5.308  13.005  1.00  0.00     0.042 C 
BRANCH  19  21
HETATM   21  O3  UNL     1      14.761   3.397  14.251  1.00  0.00    -0.396 OA
ATOM     22  H3  UNL     1      15.541   2.883  14.424  1.00  0.00     0.210 HD
ENDBRANCH  19  21
ENDBRANCH  14  16
ENDBRANCH   8   9
BRANCH   6  23
HETATM   23  O2  UNL     1      14.304  10.191  14.610  1.00  0.00    -0.344 OA
BRANCH  23  24
HETATM   24  C4  UNL     1      13.205  10.785  15.208  1.00  0.00     0.129 C 
HETATM   25  C5  UNL     1      13.454  12.282  15.332  1.00  0.00     0.032 C 
HETATM   26  C6  UNL     1      12.208  12.972  15.846  1.00  0.00     0.002 C 
HETATM   27  C7  UNL     1      11.372  12.059  16.705  1.00  0.00     0.000 C 
HETATM   28  C8  UNL     1      12.188  11.054  17.461  1.00  0.00     0.002 C 
HETATM   29  C9  UNL     1      13.158  10.269  16.652  1.00  0.00     0.032 C 
ENDBRANCH  23  24
ENDBRANCH   6  23
TORSDOF 5
ENDMDL
MODEL 5
REMARK VINA RESULT: -8.914363167      3.086      4.979
REMARK  5 active torsions:
REMARK  status: ('A' for Active; 'I' for Inactive)
REMARK    1  A    between atoms: C3_6  and  O2_7 
REMARK    2  A    between atoms: O2_7  and  C4_8 
REMARK    3  A    between atoms: C11_15  and  C12_16 
REMARK    4  A    between atoms: C14_22  and  C15_23 
REMARK    5  A    between atoms: C18_26  and  O3_27 
ROOT
HETATM    1  O1  UNL     1      18.744   7.079   9.246  1.00  0.00    -0.267 OA
HETATM    2  C1  UNL     1      17.853   7.936   9.441  1.00  0.00     0.256 A 
HETATM    3  N1  UNL     1      18.176   9.229   9.659  1.00  0.00    -0.330 N 
ATOM      4  H1  UNL     1      19.151   9.530   9.668  1.00  0.00     0.168 HD
HETATM    5  C2  UNL     1      17.176  10.111   9.864  1.00  0.00     0.128 A 
HETATM    6  C3  UNL     1      15.853   9.745   9.860  1.00  0.00     0.085 A 
HETATM    7  C10 UNL     1      15.522   8.411   9.636  1.00  0.00     0.056 A 
HETATM    8  C11 UNL     1      16.520   7.511   9.428  1.00  0.00     0.048 A 
ENDROOT
BRANCH   8   9
HETATM    9  C12 UNL     1      16.204   6.116   9.175  1.00  0.00     0.021 A 
HETATM   10  C13 UNL     1      15.926   5.558   7.938  1.00  0.00     0.121 A 
HETATM   11  N2  UNL     1      15.678   4.264   8.141  1.00  0.00    -0.311 N 
HETATM   12  N3  UNL     1      15.788   4.005   9.418  1.00  0.00    -0.304 N 
ATOM     13  H2  UNL     1      15.440   3.586   7.417  1.00  0.00     0.186 HD
HETATM   14  C14 UNL     1      16.114   5.123  10.106  1.00  0.00     0.042 A 
ATOM     15  H3  UNL     1      15.648   3.085   9.837  1.00  0.00     0.186 HD
BRANCH  14  16
HETATM   16  C15 UNL     1      16.315   5.116  11.567  1.00  0.00     0.040 C 
HETATM   17  C16 UNL     1      15.373   6.131  12.236  1.00  0.00     0.013 C 
HETATM   18  C17 UNL     1      14.696   5.418  13.362  1.00  0.00     0.032 C 
HETATM   19  C18 UNL     1      15.588   4.250  13.626  1.00  0.00     0.118 C 
HETATM   20  C19 UNL     1      15.931   3.794  12.211  1.00  0.00     0.042 C 
BRANCH  19  21
HETATM   21  O3  UNL     1      14.971   3.219  14.310  1.00  0.00    -0.396 OA
ATOM     22  H3  UNL     1      15.464   2.407  14.307  1.00  0.00     0.210 HD
ENDBRANCH  19  21
ENDBRANCH  14  16
ENDBRANCH   8   9
BRANCH   6  23
HETATM   23  O2  UNL     1      14.852  10.650  10.070  1.00  0.00    -0.344 OA
BRANCH  23  24
HETATM   24  C4  UNL     1      13.957  10.746  11.123  1.00  0.00     0.129 C 
HETATM   25  C5  UNL     1      13.353  12.143  11.137  1.00  0.00     0.032 C 
HETATM   26  C6  UNL     1      12.263  12.224  12.186  1.00  0.00     0.002 C 
HETATM   27  C7  UNL     1      12.505  11.265  13.323  1.00  0.00     0.000 C 
HETATM   28  C8  UNL     1      13.960  11.028  13.593  1.00  0.00     0.002 C 
HETATM   29  C9  UNL     1      14.784  10.657  12.412  1.00  0.00     0.032 C 
ENDBRANCH  23  24
ENDBRANCH   6  23
TORSDOF 5
ENDMDL
