MODEL 1
REMARK VINA RESULT: -8.893970520      0.000      0.000
REMARK  7 active torsions:
REMARK  status: ('A' for Active; 'I' for Inactive)
REMARK    1  A    between atoms: C4_6  and  O3_7 
REMARK    2  A    between atoms: C7_11  and  C8_12 
REMARK    3  A    between atoms: C8_12  and  O4_13 
REMARK    4  A    between atoms: C15_22  and  C16_23 
REMARK    5  A    between atoms: C16_23  and  C17_24 
REMARK    6  A    between atoms: C17_24  and  C18_25 
REMARK    7  A    between atoms: C18_25  and  O6_26 
ROOT
HETATM    1  O1  UNL     1      86.755 122.258 134.331  1.00  0.00    -0.259 OA
HETATM    2  C1  UNL     1      87.348 121.167 134.342  1.00  0.00     0.295 A 
HETATM    3  O2  UNL     1      87.545 120.353 135.474  1.00  0.00    -0.313 OA
HETATM    4  C2  UNL     1      88.259 119.220 135.154  1.00  0.00     0.221 A 
HETATM    5  C3  UNL     1      88.498 119.321 133.678  1.00  0.00     0.017 A 
HETATM    6  C4  UNL     1      89.159 118.390 132.859  1.00  0.00     0.089 A 
HETATM    7  C5  UNL     1      89.237 118.700 131.523  1.00  0.00     0.043 A 
HETATM    8  C6  UNL     1      88.701 119.897 131.063  1.00  0.00     0.092 A 
HETATM    9  C7  UNL     1      88.074 120.785 131.868  1.00  0.00     0.017 A 
HETATM   10  C9  UNL     1      87.957 120.500 133.210  1.00  0.00     0.061 A 
HETATM   11  O5  UNL     1      88.869 120.125 129.670  1.00  0.00    -0.345 OA
HETATM   12  C10 UNL     1      90.186 119.882 129.118  1.00  0.00     0.215 C 
HETATM   13  C11 UNL     1      90.574 118.461 129.464  1.00  0.00    -0.022 A 
HETATM   14  C12 UNL     1      91.272 117.727 128.593  1.00  0.00     0.010 A 
HETATM   15  C13 UNL     1      91.596 116.438 128.875  1.00  0.00     0.001 A 
HETATM   16  C14 UNL     1      91.181 115.901 130.061  1.00  0.00     0.008 A 
HETATM   17  C15 UNL     1      90.427 116.630 131.018  1.00  0.00    -0.046 A 
HETATM   18  C19 UNL     1      90.143 117.939 130.706  1.00  0.00    -0.006 A 
ENDROOT
BRANCH  17  19
HETATM   19  C16 UNL     1      89.549 115.841 131.895  1.00  0.00     0.041 C 
BRANCH  19  20
HETATM   20  C17 UNL     1      89.676 114.319 131.547  1.00  0.00     0.030 C 
BRANCH  20  21
HETATM   21  C18 UNL     1      90.180 113.561 132.747  1.00  0.00     0.164 C 
BRANCH  21  22
HETATM   22  O6  UNL     1      90.231 114.339 133.899  1.00  0.00    -0.401 OA
ATOM     23  H6  UNL     1      90.683 113.911 134.617  1.00  0.00     0.209 HD
ENDBRANCH  21  22
ENDBRANCH  20  21
ENDBRANCH  19  20
ENDBRANCH  17  19
BRANCH   6  24
HETATM   24  O3  UNL     1      89.658 117.357 133.527  1.00  0.00    -0.359 OA
ATOM     25  H3  UNL     1      90.130 116.743 132.976  1.00  0.00     0.217 HD
ENDBRANCH   6  24
BRANCH   9  26
HETATM   26  C8  UNL     1      87.555 121.993 131.208  1.00  0.00     0.206 C 
BRANCH  26  27
HETATM   27  O4  UNL     1      86.423 121.883 130.499  1.00  0.00    -0.396 OA
ATOM     28  H4  UNL     1      86.019 122.681 130.179  1.00  0.00     0.209 HD
ENDBRANCH  26  27
ENDBRANCH   9  26
TORSDOF 7
ENDMDL
MODEL 2
REMARK VINA RESULT: -8.761429727      1.056      1.245
REMARK  7 active torsions:
REMARK  status: ('A' for Active; 'I' for Inactive)
REMARK    1  A    between atoms: C4_6  and  O3_7 
REMARK    2  A    between atoms: C7_11  and  C8_12 
REMARK    3  A    between atoms: C8_12  and  O4_13 
REMARK    4  A    between atoms: C15_22  and  C16_23 
REMARK    5  A    between atoms: C16_23  and  C17_24 
REMARK    6  A    between atoms: C17_24  and  C18_25 
REMARK    7  A    between atoms: C18_25  and  O6_26 
ROOT
HETATM    1  O1  UNL     1      87.013 121.898 133.178  1.00  0.00    -0.259 OA
HETATM    2  C1  UNL     1      87.658 120.837 133.229  1.00  0.00     0.295 A 
HETATM    3  O2  UNL     1      87.836 120.041 134.377  1.00  0.00    -0.313 OA
HETATM    4  C2  UNL     1      88.622 118.943 134.104  1.00  0.00     0.221 A 
HETATM    5  C3  UNL     1      88.934 119.048 132.643  1.00  0.00     0.017 A 
HETATM    6  C4  UNL     1      89.682 118.148 131.867  1.00  0.00     0.089 A 
HETATM    7  C5  UNL     1      89.815 118.453 130.535  1.00  0.00     0.043 A 
HETATM    8  C6  UNL     1      89.246 119.619 130.037  1.00  0.00     0.092 A 
HETATM    9  C7  UNL     1      88.533 120.478 130.800  1.00  0.00     0.017 A 
HETATM   10  C9  UNL     1      88.360 120.196 132.136  1.00  0.00     0.061 A 
HETATM   11  O5  UNL     1      89.475 119.847 128.653  1.00  0.00    -0.345 OA
HETATM   12  C10 UNL     1      90.830 119.668 128.172  1.00  0.00     0.215 C 
HETATM   13  C11 UNL     1      91.270 118.270 128.550  1.00  0.00    -0.022 A 
HETATM   14  C12 UNL     1      92.049 117.567 127.724  1.00  0.00     0.010 A 
HETATM   15  C13 UNL     1      92.422 116.298 128.033  1.00  0.00     0.001 A 
HETATM   16  C14 UNL     1      91.972 115.747 129.200  1.00  0.00     0.008 A 
HETATM   17  C15 UNL     1      91.132 116.443 130.109  1.00  0.00    -0.046 A 
HETATM   18  C19 UNL     1      90.800 117.734 129.772  1.00  0.00    -0.006 A 
ENDROOT
BRANCH  17  19
HETATM   19  C16 UNL     1      90.250 115.616 130.946  1.00  0.00     0.041 C 
BRANCH  19  20
HETATM   20  C17 UNL     1      90.320 114.122 130.480  1.00  0.00     0.030 C 
BRANCH  20  21
HETATM   21  C18 UNL     1      89.567 113.249 131.450  1.00  0.00     0.164 C 
BRANCH  21  22
HETATM   22  O6  UNL     1      88.853 113.978 132.396  1.00  0.00    -0.401 OA
ATOM     23  H6  UNL     1      88.681 113.486 133.191  1.00  0.00     0.209 HD
ENDBRANCH  21  22
ENDBRANCH  20  21
ENDBRANCH  19  20
ENDBRANCH  17  19
BRANCH   6  24
HETATM   24  O3  UNL     1      90.197 117.145 132.568  1.00  0.00    -0.359 OA
ATOM     25  H3  UNL     1      90.781 116.590 132.064  1.00  0.00     0.217 HD
ENDBRANCH   6  24
BRANCH   9  26
HETATM   26  C8  UNL     1      87.989 121.655 130.103  1.00  0.00     0.206 C 
BRANCH  26  27
HETATM   27  O4  UNL     1      86.838 121.512 129.434  1.00  0.00    -0.396 OA
ATOM     28  H4  UNL     1      86.114 121.089 129.880  1.00  0.00     0.209 HD
ENDBRANCH  26  27
ENDBRANCH   9  26
TORSDOF 7
ENDMDL
MODEL 3
REMARK VINA RESULT: -8.581262790      2.453      6.894
REMARK  7 active torsions:
REMARK  status: ('A' for Active; 'I' for Inactive)
REMARK    1  A    between atoms: C4_6  and  O3_7 
REMARK    2  A    between atoms: C7_11  and  C8_12 
REMARK    3  A    between atoms: C8_12  and  O4_13 
REMARK    4  A    between atoms: C15_22  and  C16_23 
REMARK    5  A    between atoms: C16_23  and  C17_24 
REMARK    6  A    between atoms: C17_24  and  C18_25 
REMARK    7  A    between atoms: C18_25  and  O6_26 
ROOT
HETATM    1  O1  UNL     1      92.833 116.660 125.795  1.00  0.00    -0.259 OA
HETATM    2  C1  UNL     1      92.398 117.603 126.477  1.00  0.00     0.295 A 
HETATM    3  O2  UNL     1      92.494 118.968 126.143  1.00  0.00    -0.313 OA
HETATM    4  C2  UNL     1      91.932 119.759 127.121  1.00  0.00     0.221 A 
HETATM    5  C3  UNL     1      91.407 118.796 128.141  1.00  0.00     0.017 A 
HETATM    6  C4  UNL     1      90.714 119.104 129.322  1.00  0.00     0.089 A 
HETATM    7  C5  UNL     1      90.315 118.038 130.092  1.00  0.00     0.043 A 
HETATM    8  C6  UNL     1      90.634 116.745 129.694  1.00  0.00     0.092 A 
HETATM    9  C7  UNL     1      91.309 116.468 128.555  1.00  0.00     0.017 A 
HETATM   10  C9  UNL     1      91.707 117.508 127.746  1.00  0.00     0.061 A 
HETATM   11  O5  UNL     1      90.199 115.726 130.584  1.00  0.00    -0.345 OA
HETATM   12  C10 UNL     1      90.460 115.929 131.995  1.00  0.00     0.215 C 
HETATM   13  C11 UNL     1      89.852 117.259 132.387  1.00  0.00    -0.022 A 
HETATM   14  C12 UNL     1      89.290 117.408 133.589  1.00  0.00     0.010 A 
HETATM   15  C13 UNL     1      88.708 118.584 133.941  1.00  0.00     0.001 A 
HETATM   16  C14 UNL     1      88.696 119.609 133.036  1.00  0.00     0.008 A 
HETATM   17  C15 UNL     1      89.268 119.501 131.741  1.00  0.00    -0.046 A 
HETATM   18  C19 UNL     1      89.870 118.304 131.434  1.00  0.00    -0.006 A 
ENDROOT
BRANCH  17  19
HETATM   19  C16 UNL     1      88.685 120.359 130.698  1.00  0.00     0.041 C 
BRANCH  19  20
HETATM   20  C17 UNL     1      87.879 121.528 131.358  1.00  0.00     0.030 C 
BRANCH  20  21
HETATM   21  C18 UNL     1      86.456 121.510 130.863  1.00  0.00     0.164 C 
BRANCH  21  22
HETATM   22  O6  UNL     1      86.363 121.514 129.475  1.00  0.00    -0.401 OA
ATOM     23  H6  UNL     1      85.467 121.563 129.162  1.00  0.00     0.209 HD
ENDBRANCH  21  22
ENDBRANCH  20  21
ENDBRANCH  19  20
ENDBRANCH  17  19
BRANCH   6  24
HETATM   24  O3  UNL     1      90.591 120.408 129.540  1.00  0.00    -0.359 OA
ATOM     25  H3  UNL     1      90.162 120.616 130.362  1.00  0.00     0.217 HD
ENDBRANCH   6  24
BRANCH   9  26
HETATM   26  C8  UNL     1      91.546 115.041 128.282  1.00  0.00     0.206 C 
BRANCH  26  27
HETATM   27  O4  UNL     1      90.511 114.303 127.860  1.00  0.00    -0.396 OA
ATOM     28  H4  UNL     1      90.622 113.360 127.826  1.00  0.00     0.209 HD
ENDBRANCH  26  27
ENDBRANCH   9  26
TORSDOF 7
ENDMDL
MODEL 4
REMARK VINA RESULT: -8.257487257      3.354      6.084
REMARK  7 active torsions:
REMARK  status: ('A' for Active; 'I' for Inactive)
REMARK    1  A    between atoms: C4_6  and  O3_7 
REMARK    2  A    between atoms: C7_11  and  C8_12 
REMARK    3  A    between atoms: C8_12  and  O4_13 
REMARK    4  A    between atoms: C15_22  and  C16_23 
REMARK    5  A    between atoms: C16_23  and  C17_24 
REMARK    6  A    between atoms: C17_24  and  C18_25 
REMARK    7  A    between atoms: C18_25  and  O6_26 
ROOT
HETATM    1  O1  UNL     1      92.150 120.239 126.596  1.00  0.00    -0.259 OA
HETATM    2  C1  UNL     1      91.864 119.030 126.590  1.00  0.00     0.295 A 
HETATM    3  O2  UNL     1      91.806 118.208 125.447  1.00  0.00    -0.313 OA
HETATM    4  C2  UNL     1      91.439 116.923 125.778  1.00  0.00     0.221 A 
HETATM    5  C3  UNL     1      91.288 116.937 127.268  1.00  0.00     0.017 A 
HETATM    6  C4  UNL     1      90.955 115.855 128.099  1.00  0.00     0.089 A 
HETATM    7  C5  UNL     1      90.894 116.115 129.446  1.00  0.00     0.043 A 
HETATM    8  C6  UNL     1      91.129 117.405 129.909  1.00  0.00     0.092 A 
HETATM    9  C7  UNL     1      91.443 118.437 129.093  1.00  0.00     0.017 A 
HETATM   10  C9  UNL     1      91.533 118.211 127.738  1.00  0.00     0.061 A 
HETATM   11  O5  UNL     1      91.009 117.561 131.316  1.00  0.00    -0.345 OA
HETATM   12  C10 UNL     1      89.844 116.973 131.946  1.00  0.00     0.215 C 
HETATM   13  C11 UNL     1      89.818 115.504 131.581  1.00  0.00    -0.022 A 
HETATM   14  C12 UNL     1      89.400 114.601 132.471  1.00  0.00     0.010 A 
HETATM   15  C13 UNL     1      89.406 113.276 132.171  1.00  0.00     0.001 A 
HETATM   16  C14 UNL     1      89.861 112.883 130.943  1.00  0.00     0.008 A 
HETATM   17  C15 UNL     1      90.327 113.798 129.963  1.00  0.00    -0.046 A 
HETATM   18  C19 UNL     1      90.280 115.131 130.297  1.00  0.00    -0.006 A 
ENDROOT
BRANCH  17  19
HETATM   19  C16 UNL     1      91.315 113.280 129.006  1.00  0.00     0.041 C 
BRANCH  19  20
HETATM   20  C17 UNL     1      92.398 112.436 129.760  1.00  0.00     0.030 C 
BRANCH  20  21
HETATM   21  C18 UNL     1      93.122 111.544 128.784  1.00  0.00     0.164 C 
BRANCH  21  22
HETATM   22  O6  UNL     1      92.528 111.520 127.527  1.00  0.00    -0.401 OA
ATOM     23  H6  UNL     1      93.047 111.957 126.862  1.00  0.00     0.209 HD
ENDBRANCH  21  22
ENDBRANCH  20  21
ENDBRANCH  19  20
ENDBRANCH  17  19
BRANCH   6  24
HETATM   24  O3  UNL     1      90.696 114.736 127.433  1.00  0.00    -0.359 OA
ATOM     25  H3  UNL     1      89.842 114.367 127.628  1.00  0.00     0.217 HD
ENDBRANCH   6  24
BRANCH   9  26
HETATM   26  C8  UNL     1      91.674 119.730 129.756  1.00  0.00     0.206 C 
BRANCH  26  27
HETATM   27  O4  UNL     1      90.991 120.793 129.311  1.00  0.00    -0.396 OA
ATOM     28  H4  UNL     1      90.101 120.656 129.009  1.00  0.00     0.209 HD
ENDBRANCH  26  27
ENDBRANCH   9  26
TORSDOF 7
ENDMDL
MODEL 5
REMARK VINA RESULT: -8.244500597      1.276      4.235
REMARK  7 active torsions:
REMARK  status: ('A' for Active; 'I' for Inactive)
REMARK    1  A    between atoms: C4_6  and  O3_7 
REMARK    2  A    between atoms: C7_11  and  C8_12 
REMARK    3  A    between atoms: C8_12  and  O4_13 
REMARK    4  A    between atoms: C15_22  and  C16_23 
REMARK    5  A    between atoms: C16_23  and  C17_24 
REMARK    6  A    between atoms: C17_24  and  C18_25 
REMARK    7  A    between atoms: C18_25  and  O6_26 
ROOT
HETATM    1  O1  UNL     1      87.059 122.113 133.552  1.00  0.00    -0.259 OA
HETATM    2  C1  UNL     1      87.558 121.698 132.493  1.00  0.00     0.295 A 
HETATM    3  O2  UNL     1      87.544 122.377 131.260  1.00  0.00    -0.313 OA
HETATM    4  C2  UNL     1      88.164 121.637 130.277  1.00  0.00     0.221 A 
HETATM    5  C3  UNL     1      88.638 120.397 130.971  1.00  0.00     0.017 A 
HETATM    6  C4  UNL     1      89.362 119.332 130.409  1.00  0.00     0.089 A 
HETATM    7  C5  UNL     1      89.700 118.308 131.259  1.00  0.00     0.043 A 
HETATM    8  C6  UNL     1      89.298 118.357 132.589  1.00  0.00     0.092 A 
HETATM    9  C7  UNL     1      88.596 119.388 133.112  1.00  0.00     0.017 A 
HETATM   10  C9  UNL     1      88.255 120.443 132.296  1.00  0.00     0.061 A 
HETATM   11  O5  UNL     1      89.678 117.228 133.365  1.00  0.00    -0.345 OA
HETATM   12  C10 UNL     1      89.443 115.922 132.784  1.00  0.00     0.215 C 
HETATM   13  C11 UNL     1      90.137 115.886 131.439  1.00  0.00    -0.022 A 
HETATM   14  C12 UNL     1      90.720 114.762 131.016  1.00  0.00     0.010 A 
HETATM   15  C13 UNL     1      91.377 114.725 129.828  1.00  0.00     0.001 A 
HETATM   16  C14 UNL     1      91.444 115.867 129.079  1.00  0.00     0.008 A 
HETATM   17  C15 UNL     1      90.853 117.092 129.485  1.00  0.00    -0.046 A 
HETATM   18  C19 UNL     1      90.174 117.080 130.681  1.00  0.00    -0.006 A 
ENDROOT
BRANCH  17  19
HETATM   19  C16 UNL     1      91.478 118.319 128.968  1.00  0.00     0.041 C 
BRANCH  19  20
HETATM   20  C17 UNL     1      92.365 117.982 127.722  1.00  0.00     0.030 C 
BRANCH  20  21
HETATM   21  C18 UNL     1      92.112 118.987 126.628  1.00  0.00     0.164 C 
BRANCH  21  22
HETATM   22  O6  UNL     1      91.689 120.221 127.111  1.00  0.00    -0.401 OA
ATOM     23  H6  UNL     1      92.409 120.786 127.367  1.00  0.00     0.209 HD
ENDBRANCH  21  22
ENDBRANCH  20  21
ENDBRANCH  19  20
ENDBRANCH  17  19
BRANCH   6  24
HETATM   24  O3  UNL     1      89.568 119.462 129.104  1.00  0.00    -0.359 OA
ATOM     25  H3  UNL     1      90.081 120.229 128.876  1.00  0.00     0.217 HD
ENDBRANCH   6  24
BRANCH   9  26
HETATM   26  C8  UNL     1      88.267 119.279 134.542  1.00  0.00     0.206 C 
BRANCH  26  27
HETATM   27  O4  UNL     1      88.543 120.327 135.330  1.00  0.00    -0.396 OA
ATOM     28  H4  UNL     1      89.373 120.771 135.205  1.00  0.00     0.209 HD
ENDBRANCH  26  27
ENDBRANCH   9  26
TORSDOF 7
ENDMDL
