MODEL 1
REMARK VINA RESULT: -7.391778456      0.000      0.000
REMARK  5 active torsions:
REMARK  status: ('A' for Active; 'I' for Inactive)
REMARK    1  A    between atoms: C2_2  and  N1_3 
REMARK    2  A    between atoms: C3_4  and  O1_5 
REMARK    3  A    between atoms: C6_9  and  N2_10 
REMARK    4  A    between atoms: C13_17  and  N3_18 
REMARK    5  A    between atoms: N3_18  and  C14_20 
ROOT
HETATM    1  N1  UNL     1      90.802 115.564 129.267  1.00  0.00    -0.313 N 
HETATM    2  C3  UNL     1      90.792 116.289 128.103  1.00  0.00     0.152 A 
HETATM    3  C4  UNL     1      90.876 117.645 128.424  1.00  0.00     0.023 A 
HETATM    4  C5  UNL     1      90.926 117.661 129.791  1.00  0.00     0.025 A 
HETATM    5  C6  UNL     1      90.887 116.406 130.319  1.00  0.00     0.117 A 
HETATM    6  C13 UNL     1      90.935 119.046 130.454  1.00  0.00     0.153 C 
HETATM    7  C18 UNL     1      91.860 119.822 129.535  1.00  0.00     0.085 C 
HETATM    8  N4  UNL     1      91.354 120.012 128.235  1.00  0.00    -0.396 N 
ATOM      9  H4  UNL     1      91.285 120.938 127.813  1.00  0.00     0.159 HD
HETATM   10  C19 UNL     1      90.949 118.847 127.549  1.00  0.00     0.162 C 
ENDROOT
BRANCH   5  11
HETATM   11  N2  UNL     1      90.960 116.120 131.712  1.00  0.00    -0.367 N 
HETATM   12  C7  UNL     1      89.641 116.087 132.340  1.00  0.00     0.124 C 
HETATM   13  C8  UNL     1      89.614 116.836 133.639  1.00  0.00     0.020 C 
HETATM   14  C9  UNL     1      90.000 115.914 134.773  1.00  0.00     0.002 C 
HETATM   15  C10 UNL     1      91.164 115.072 134.331  1.00  0.00     0.002 C 
HETATM   16  C11 UNL     1      92.259 115.907 133.751  1.00  0.00     0.020 C 
HETATM   17  C12 UNL     1      92.272 115.909 132.235  1.00  0.00     0.124 C 
ENDBRANCH   5  11
BRANCH   1  18
HETATM   18  C2  UNL     1      90.682 114.140 129.328  1.00  0.00     0.128 C 
HETATM   19  C1  UNL     1      91.999 113.424 129.302  1.00  0.00     0.027 C 
ENDBRANCH   1  18
BRANCH   2  20
HETATM   20  O1  UNL     1      90.714 115.787 126.804  1.00  0.00    -0.345 OA
ATOM     21  H1  UNL     1      91.381 115.841 126.130  1.00  0.00     0.219 HD
ENDBRANCH   2  20
BRANCH   6  22
HETATM   22  N3  UNL     1      89.568 119.424 130.372  1.00  0.00    -0.403 N 
ATOM     23  H3  UNL     1      88.912 118.803 129.898  1.00  0.00     0.154 HD
BRANCH  22  24
HETATM   24  C14 UNL     1      89.097 120.613 130.916  1.00  0.00     0.103 C 
HETATM   25  C15 UNL     1      88.085 121.183 129.894  1.00  0.00     0.053 C 
HETATM   26  C16 UNL     1      86.818 121.371 130.663  1.00  0.00     0.169 C 
HETATM   27  O2  UNL     1      87.288 121.542 131.966  1.00  0.00    -0.389 OA
HETATM   28  C17 UNL     1      88.249 120.544 132.142  1.00  0.00     0.192 C 
ENDBRANCH  22  24
ENDBRANCH   6  22
TORSDOF 5
ENDMDL
MODEL 2
REMARK VINA RESULT: -7.382552926      1.683      6.544
REMARK  5 active torsions:
REMARK  status: ('A' for Active; 'I' for Inactive)
REMARK    1  A    between atoms: C2_2  and  N1_3 
REMARK    2  A    between atoms: C3_4  and  O1_5 
REMARK    3  A    between atoms: C6_9  and  N2_10 
REMARK    4  A    between atoms: C13_17  and  N3_18 
REMARK    5  A    between atoms: N3_18  and  C14_20 
ROOT
HETATM    1  N1  UNL     1      89.383 119.517 131.496  1.00  0.00    -0.313 N 
HETATM    2  C3  UNL     1      88.983 118.958 132.684  1.00  0.00     0.152 A 
HETATM    3  C4  UNL     1      89.580 117.702 132.806  1.00  0.00     0.023 A 
HETATM    4  C5  UNL     1      90.314 117.569 131.659  1.00  0.00     0.025 A 
HETATM    5  C6  UNL     1      90.209 118.664 130.855  1.00  0.00     0.117 A 
HETATM    6  C13 UNL     1      91.029 116.225 131.462  1.00  0.00     0.153 C 
HETATM    7  C18 UNL     1      91.534 115.936 132.863  1.00  0.00     0.085 C 
HETATM    8  N4  UNL     1      90.515 115.705 133.808  1.00  0.00    -0.396 N 
ATOM      9  H4  UNL     1      90.496 114.864 134.385  1.00  0.00     0.159 HD
HETATM   10  C19 UNL     1      89.523 116.703 133.908  1.00  0.00     0.162 C 
ENDROOT
BRANCH   5  11
HETATM   11  N2  UNL     1      90.894 118.816 129.615  1.00  0.00    -0.367 N 
HETATM   12  C7  UNL     1      90.131 118.278 128.492  1.00  0.00     0.124 C 
HETATM   13  C8  UNL     1      90.982 117.451 127.574  1.00  0.00     0.020 C 
HETATM   14  C9  UNL     1      91.608 118.332 126.519  1.00  0.00     0.002 C 
HETATM   15  C10 UNL     1      92.090 119.597 127.174  1.00  0.00     0.002 C 
HETATM   16  C11 UNL     1      92.924 119.309 128.380  1.00  0.00     0.020 C 
HETATM   17  C12 UNL     1      92.166 119.462 129.684  1.00  0.00     0.124 C 
ENDBRANCH   5  11
BRANCH   1  18
HETATM   18  C2  UNL     1      88.931 120.785 131.013  1.00  0.00     0.128 C 
HETATM   19  C1  UNL     1      87.792 120.689 130.044  1.00  0.00     0.027 C 
ENDBRANCH   1  18
BRANCH   2  20
HETATM   20  O1  UNL     1      88.130 119.524 133.630  1.00  0.00    -0.345 OA
ATOM     21  H1  UNL     1      87.185 119.605 133.571  1.00  0.00     0.219 HD
ENDBRANCH   2  20
BRANCH   6  22
HETATM   22  N3  UNL     1      89.968 115.384 131.033  1.00  0.00    -0.403 N 
ATOM     23  H3  UNL     1      89.011 115.624 131.292  1.00  0.00     0.154 HD
BRANCH  22  24
HETATM   24  C14 UNL     1      90.192 114.243 130.270  1.00  0.00     0.103 C 
HETATM   25  C15 UNL     1      91.625 114.379 129.702  1.00  0.00     0.053 C 
HETATM   26  C16 UNL     1      92.338 113.141 130.139  1.00  0.00     0.169 C 
HETATM   27  O2  UNL     1      91.287 112.233 130.282  1.00  0.00    -0.389 OA
HETATM   28  C17 UNL     1      90.292 112.930 130.972  1.00  0.00     0.192 C 
ENDBRANCH  22  24
ENDBRANCH   6  22
TORSDOF 5
ENDMDL
MODEL 3
REMARK VINA RESULT: -7.316051763      2.817      6.574
REMARK  5 active torsions:
REMARK  status: ('A' for Active; 'I' for Inactive)
REMARK    1  A    between atoms: C2_2  and  N1_3 
REMARK    2  A    between atoms: C3_4  and  O1_5 
REMARK    3  A    between atoms: C6_9  and  N2_10 
REMARK    4  A    between atoms: C13_17  and  N3_18 
REMARK    5  A    between atoms: N3_18  and  C14_20 
ROOT
HETATM    1  N1  UNL     1      90.035 116.163 131.082  1.00  0.00    -0.313 N 
HETATM    2  C3  UNL     1      89.738 114.852 131.356  1.00  0.00     0.152 A 
HETATM    3  C4  UNL     1      90.357 114.048 130.397  1.00  0.00     0.023 A 
HETATM    4  C5  UNL     1      90.998 114.939 129.579  1.00  0.00     0.025 A 
HETATM    5  C6  UNL     1      90.817 116.226 129.984  1.00  0.00     0.117 A 
HETATM    6  C13 UNL     1      91.710 114.346 128.354  1.00  0.00     0.153 C 
HETATM    7  C18 UNL     1      92.330 113.089 128.937  1.00  0.00     0.085 C 
HETATM    8  N4  UNL     1      91.393 112.123 129.352  1.00  0.00    -0.396 N 
ATOM      9  H4  UNL     1      91.430 111.159 129.022  1.00  0.00     0.159 HD
HETATM   10  C19 UNL     1      90.401 112.567 130.252  1.00  0.00     0.162 C 
ENDROOT
BRANCH   5  11
HETATM   11  N2  UNL     1      91.398 117.357 129.342  1.00  0.00    -0.367 N 
HETATM   12  C7  UNL     1      90.501 117.955 128.355  1.00  0.00     0.124 C 
HETATM   13  C8  UNL     1      91.207 118.273 127.070  1.00  0.00     0.020 C 
HETATM   14  C9  UNL     1      91.797 119.663 127.137  1.00  0.00     0.002 C 
HETATM   15  C10 UNL     1      92.425 119.851 128.491  1.00  0.00     0.002 C 
HETATM   16  C11 UNL     1      93.340 118.722 128.836  1.00  0.00     0.020 C 
HETATM   17  C12 UNL     1      92.714 117.708 129.773  1.00  0.00     0.124 C 
ENDBRANCH   5  11
BRANCH   1  18
HETATM   18  C2  UNL     1      89.531 117.273 131.830  1.00  0.00     0.128 C 
HETATM   19  C1  UNL     1      89.801 117.179 133.302  1.00  0.00     0.027 C 
ENDBRANCH   1  18
BRANCH   2  20
HETATM   20  O1  UNL     1      88.957 114.371 132.406  1.00  0.00    -0.345 OA
ATOM     21  H1  UNL     1      88.126 113.917 132.337  1.00  0.00     0.219 HD
ENDBRANCH   2  20
BRANCH   6  22
HETATM   22  N3  UNL     1      90.628 114.112 127.465  1.00  0.00    -0.403 N 
ATOM     23  H3  UNL     1      89.680 114.071 127.840  1.00  0.00     0.154 HD
BRANCH  22  24
HETATM   24  C14 UNL     1      90.819 113.938 126.099  1.00  0.00     0.103 C 
HETATM   25  C15 UNL     1      90.821 115.356 125.480  1.00  0.00     0.053 C 
HETATM   26  C16 UNL     1      92.115 115.458 124.741  1.00  0.00     0.169 C 
HETATM   27  O2  UNL     1      92.388 114.121 124.444  1.00  0.00    -0.389 OA
HETATM   28  C17 UNL     1      92.138 113.424 125.628  1.00  0.00     0.192 C 
ENDBRANCH  22  24
ENDBRANCH   6  22
TORSDOF 5
ENDMDL
MODEL 4
REMARK VINA RESULT: -7.290060542      1.241      1.822
REMARK  5 active torsions:
REMARK  status: ('A' for Active; 'I' for Inactive)
REMARK    1  A    between atoms: C2_2  and  N1_3 
REMARK    2  A    between atoms: C3_4  and  O1_5 
REMARK    3  A    between atoms: C6_9  and  N2_10 
REMARK    4  A    between atoms: C13_17  and  N3_18 
REMARK    5  A    between atoms: N3_18  and  C14_20 
ROOT
HETATM    1  N1  UNL     1      90.794 115.693 128.099  1.00  0.00    -0.313 N 
HETATM    2  C3  UNL     1      90.806 116.752 127.228  1.00  0.00     0.152 A 
HETATM    3  C4  UNL     1      90.944 117.931 127.964  1.00  0.00     0.023 A 
HETATM    4  C5  UNL     1      91.000 117.506 129.264  1.00  0.00     0.025 A 
HETATM    5  C6  UNL     1      90.916 116.151 129.363  1.00  0.00     0.117 A 
HETATM    6  C13 UNL     1      91.065 118.604 130.335  1.00  0.00     0.153 C 
HETATM    7  C18 UNL     1      92.015 119.601 129.697  1.00  0.00     0.085 C 
HETATM    8  N4  UNL     1      91.510 120.216 128.535  1.00  0.00    -0.396 N 
ATOM      9  H4  UNL     1      91.475 121.230 128.433  1.00  0.00     0.159 HD
HETATM   10  C19 UNL     1      91.058 119.347 127.519  1.00  0.00     0.162 C 
ENDROOT
BRANCH   5  11
HETATM   11  N2  UNL     1      90.984 115.431 130.591  1.00  0.00    -0.367 N 
HETATM   12  C7  UNL     1      92.351 115.040 130.927  1.00  0.00     0.124 C 
HETATM   13  C8  UNL     1      92.434 113.614 131.386  1.00  0.00     0.020 C 
HETATM   14  C9  UNL     1      92.216 113.540 132.879  1.00  0.00     0.002 C 
HETATM   15  C10 UNL     1      91.083 114.458 133.245  1.00  0.00     0.002 C 
HETATM   16  C11 UNL     1      89.884 114.223 132.385  1.00  0.00     0.020 C 
HETATM   17  C12 UNL     1      89.741 115.236 131.266  1.00  0.00     0.124 C 
ENDBRANCH   5  11
BRANCH   1  18
HETATM   18  C2  UNL     1      90.621 114.330 127.703  1.00  0.00     0.128 C 
HETATM   19  C1  UNL     1      91.911 113.606 127.458  1.00  0.00     0.027 C 
ENDBRANCH   1  18
BRANCH   2  20
HETATM   20  O1  UNL     1      90.703 116.696 125.839  1.00  0.00    -0.345 OA
ATOM     21  H1  UNL     1      89.934 116.886 125.315  1.00  0.00     0.219 HD
ENDBRANCH   2  20
BRANCH   6  22
HETATM   22  N3  UNL     1      89.714 119.036 130.401  1.00  0.00    -0.403 N 
ATOM     23  H3  UNL     1      88.981 118.420 130.049  1.00  0.00     0.154 HD
BRANCH  22  24
HETATM   24  C14 UNL     1      89.358 120.272 130.930  1.00  0.00     0.103 C 
HETATM   25  C15 UNL     1      88.369 120.903 129.921  1.00  0.00     0.053 C 
HETATM   26  C16 UNL     1      87.143 121.212 130.717  1.00  0.00     0.169 C 
HETATM   27  O2  UNL     1      87.662 121.370 132.003  1.00  0.00    -0.389 OA
HETATM   28  C17 UNL     1      88.541 120.299 132.178  1.00  0.00     0.192 C 
ENDBRANCH  22  24
ENDBRANCH   6  22
TORSDOF 5
ENDMDL
MODEL 5
REMARK VINA RESULT: -7.195337516      1.005      1.782
REMARK  5 active torsions:
REMARK  status: ('A' for Active; 'I' for Inactive)
REMARK    1  A    between atoms: C2_2  and  N1_3 
REMARK    2  A    between atoms: C3_4  and  O1_5 
REMARK    3  A    between atoms: C6_9  and  N2_10 
REMARK    4  A    between atoms: C13_17  and  N3_18 
REMARK    5  A    between atoms: N3_18  and  C14_20 
ROOT
HETATM    1  N1  UNL     1      91.202 115.814 128.355  1.00  0.00    -0.313 N 
HETATM    2  C3  UNL     1      91.407 116.499 127.185  1.00  0.00     0.152 A 
HETATM    3  C4  UNL     1      91.513 117.859 127.480  1.00  0.00     0.023 A 
HETATM    4  C5  UNL     1      91.354 117.919 128.837  1.00  0.00     0.025 A 
HETATM    5  C6  UNL     1      91.169 116.686 129.385  1.00  0.00     0.117 A 
HETATM    6  C13 UNL     1      91.334 119.324 129.458  1.00  0.00     0.153 C 
HETATM    7  C18 UNL     1      92.428 120.023 128.672  1.00  0.00     0.085 C 
HETATM    8  N4  UNL     1      92.137 120.194 127.305  1.00  0.00    -0.396 N 
ATOM      9  H4  UNL     1      92.182 121.107 126.854  1.00  0.00     0.159 HD
HETATM   10  C19 UNL     1      91.781 119.027 126.596  1.00  0.00     0.162 C 
ENDROOT
BRANCH   5  11
HETATM   11  N2  UNL     1      91.013 116.444 130.780  1.00  0.00    -0.367 N 
HETATM   12  C7  UNL     1      92.256 116.651 131.520  1.00  0.00     0.124 C 
HETATM   13  C8  UNL     1      92.520 115.547 132.501  1.00  0.00     0.020 C 
HETATM   14  C9  UNL     1      91.867 115.868 133.825  1.00  0.00     0.002 C 
HETATM   15  C10 UNL     1      90.496 116.425 133.561  1.00  0.00     0.002 C 
HETATM   16  C11 UNL     1      89.718 115.555 132.630  1.00  0.00     0.020 C 
HETATM   17  C12 UNL     1      89.702 116.066 131.202  1.00  0.00     0.124 C 
ENDBRANCH   5  11
BRANCH   1  18
HETATM   18  C2  UNL     1      91.000 114.401 128.434  1.00  0.00     0.128 C 
HETATM   19  C1  UNL     1      92.222 113.641 128.857  1.00  0.00     0.027 C 
ENDBRANCH   1  18
BRANCH   2  20
HETATM   20  O1  UNL     1      91.502 115.958 125.904  1.00  0.00    -0.345 OA
ATOM     21  H1  UNL     1      90.820 115.931 125.243  1.00  0.00     0.219 HD
ENDBRANCH   2  20
BRANCH   6  22
HETATM   22  N3  UNL     1      90.018 119.763 129.156  1.00  0.00    -0.403 N 
ATOM     23  H3  UNL     1      89.841 120.215 128.259  1.00  0.00     0.154 HD
BRANCH  22  24
HETATM   24  C14 UNL     1      88.962 119.598 130.045  1.00  0.00     0.103 C 
HETATM   25  C15 UNL     1      89.575 119.683 131.463  1.00  0.00     0.053 C 
HETATM   26  C16 UNL     1      88.814 120.767 132.154  1.00  0.00     0.169 C 
HETATM   27  O2  UNL     1      87.593 120.744 131.477  1.00  0.00    -0.389 OA
HETATM   28  C17 UNL     1      87.926 120.670 130.123  1.00  0.00     0.192 C 
ENDBRANCH  22  24
ENDBRANCH   6  22
TORSDOF 5
ENDMDL
