MODEL 1
REMARK VINA RESULT: -9.157701689      0.000      0.000
REMARK  5 active torsions:
REMARK  status: ('A' for Active; 'I' for Inactive)
REMARK    1  A    between atoms: C2_2  and  C3_3 
REMARK    2  A    between atoms: C3_3  and  C4_4 
REMARK    3  A    between atoms: C5_5  and  O1_6 
REMARK    4  A    between atoms: C12_17  and  C13_18 
REMARK    5  A    between atoms: C16_26  and  C17_27 
ROOT
HETATM    1  C4  UNL     1      90.083 116.465 132.113  1.00  0.00    -0.015 A 
HETATM    2  C5  UNL     1      89.502 116.937 133.249  1.00  0.00     0.106 A 
HETATM    3  C6  UNL     1      89.027 118.255 133.233  1.00  0.00     0.118 A 
HETATM    4  C7  UNL     1      89.146 119.052 132.099  1.00  0.00     0.062 A 
HETATM    5  C8  UNL     1      89.747 118.553 130.930  1.00  0.00    -0.004 A 
HETATM    6  C9  UNL     1      90.203 117.249 130.988  1.00  0.00    -0.030 A 
HETATM    7  C10 UNL     1      90.894 116.572 129.848  1.00  0.00     0.142 C 
HETATM    8  C11 UNL     1      90.700 117.259 128.578  1.00  0.00     0.222 C 
HETATM    9  O2  UNL     1      91.241 116.784 127.546  1.00  0.00    -0.273 OA
HETATM   10  N1  UNL     1      89.909 118.429 128.575  1.00  0.00    -0.346 N 
ATOM     11  H1  UNL     1      89.339 118.632 127.754  1.00  0.00     0.163 HD
HETATM   12  C12 UNL     1      89.873 119.364 129.704  1.00  0.00     0.180 C 
HETATM   13  C14 UNL     1      88.657 120.411 132.151  1.00  0.00     0.210 C 
HETATM   14  O4  UNL     1      88.729 121.181 131.189  1.00  0.00    -0.285 OA
HETATM   15  C15 UNL     1      88.052 120.927 133.373  1.00  0.00     0.084 C 
HETATM   16  N2  UNL     1      87.862 122.194 133.557  1.00  0.00    -0.397 N 
ATOM     17  H21 UNL     1      87.440 122.554 134.412  1.00  0.00     0.156 HD
ATOM     18  H22 UNL     1      88.139 122.865 132.841  1.00  0.00     0.156 HD
HETATM   19  C16 UNL     1      87.652 119.955 134.410  1.00  0.00     0.182 C 
HETATM   20  O5  UNL     1      88.430 118.783 134.353  1.00  0.00    -0.336 OA
ENDROOT
BRANCH   1  21
HETATM   21  C3  UNL     1      90.569 115.043 132.136  1.00  0.00     0.042 C 
BRANCH  21  22
HETATM   22  C2  UNL     1      89.374 114.160 131.887  1.00  0.00     0.000 C 
HETATM   23  C1  UNL     1      89.742 112.938 131.062  1.00  0.00     0.005 C 
ENDBRANCH  21  22
ENDBRANCH   1  21
BRANCH   2  24
HETATM   24  O1  UNL     1      89.340 116.227 134.426  1.00  0.00    -0.357 OA
ATOM     25  H1  UNL     1      88.820 116.504 135.171  1.00  0.00     0.217 HD
ENDBRANCH   2  24
BRANCH  12  26
HETATM   26  C13 UNL     1      91.175 120.069 129.615  1.00  0.00     0.261 C 
HETATM   27  O3  UNL     1      91.986 120.104 130.499  1.00  0.00    -0.304 OA
ENDBRANCH  12  26
BRANCH  19  28
HETATM   28  C17 UNL     1      87.760 120.505 135.816  1.00  0.00     0.034 C 
HETATM   29  C18 UNL     1      86.445 120.654 136.504  1.00  0.00     0.008 C 
ENDBRANCH  19  28
TORSDOF 5
ENDMDL
MODEL 2
REMARK VINA RESULT: -9.013212337      1.588      1.902
REMARK  5 active torsions:
REMARK  status: ('A' for Active; 'I' for Inactive)
REMARK    1  A    between atoms: C2_2  and  C3_3 
REMARK    2  A    between atoms: C3_3  and  C4_4 
REMARK    3  A    between atoms: C5_5  and  O1_6 
REMARK    4  A    between atoms: C12_17  and  C13_18 
REMARK    5  A    between atoms: C16_26  and  C17_27 
ROOT
HETATM    1  C4  UNL     1      90.333 116.889 131.483  1.00  0.00    -0.015 A 
HETATM    2  C5  UNL     1      89.631 117.705 132.315  1.00  0.00     0.106 A 
HETATM    3  C6  UNL     1      89.117 118.891 131.775  1.00  0.00     0.118 A 
HETATM    4  C7  UNL     1      89.318 119.223 130.439  1.00  0.00     0.062 A 
HETATM    5  C8  UNL     1      90.044 118.372 129.588  1.00  0.00    -0.004 A 
HETATM    6  C9  UNL     1      90.534 117.213 130.160  1.00  0.00    -0.030 A 
HETATM    7  C10 UNL     1      91.353 116.212 129.409  1.00  0.00     0.142 C 
HETATM    8  C11 UNL     1      91.259 116.371 127.964  1.00  0.00     0.222 C 
HETATM    9  O2  UNL     1      91.911 115.588 127.226  1.00  0.00    -0.273 OA
HETATM   10  N1  UNL     1      90.434 117.404 127.467  1.00  0.00    -0.346 N 
ATOM     11  H1  UNL     1      89.939 117.255 126.587  1.00  0.00     0.163 HD
HETATM   12  C12 UNL     1      90.260 118.684 128.162  1.00  0.00     0.180 C 
HETATM   13  C14 UNL     1      88.783 120.472 129.946  1.00  0.00     0.210 C 
HETATM   14  O4  UNL     1      88.921 120.839 128.775  1.00  0.00    -0.285 OA
HETATM   15  C15 UNL     1      88.047 121.359 130.840  1.00  0.00     0.084 C 
HETATM   16  N2  UNL     1      87.800 122.590 130.526  1.00  0.00    -0.397 N 
ATOM     17  H21 UNL     1      87.286 123.210 131.151  1.00  0.00     0.156 HD
ATOM     18  H22 UNL     1      88.121 122.969 129.636  1.00  0.00     0.156 HD
HETATM   19  C16 UNL     1      87.582 120.810 132.129  1.00  0.00     0.182 C 
HETATM   20  O5  UNL     1      88.400 119.753 132.570  1.00  0.00    -0.336 OA
ENDROOT
BRANCH   1  21
HETATM   21  C3  UNL     1      90.861 115.609 132.068  1.00  0.00     0.042 C 
BRANCH  21  22
HETATM   22  C2  UNL     1      89.686 114.681 132.241  1.00  0.00     0.000 C 
HETATM   23  C1  UNL     1      89.758 113.502 131.284  1.00  0.00     0.005 C 
ENDBRANCH  21  22
ENDBRANCH   1  21
BRANCH   2  24
HETATM   24  O1  UNL     1      89.381 117.466 133.655  1.00  0.00    -0.357 OA
ATOM     25  H1  UNL     1      90.004 117.585 134.362  1.00  0.00     0.217 HD
ENDBRANCH   2  24
BRANCH  12  26
HETATM   26  C13 UNL     1      91.541 119.391 127.919  1.00  0.00     0.261 C 
HETATM   27  O3  UNL     1      91.894 119.800 126.847  1.00  0.00    -0.304 OA
ENDBRANCH  12  26
BRANCH  19  28
HETATM   28  C17 UNL     1      87.537 121.843 133.235  1.00  0.00     0.034 C 
HETATM   29  C18 UNL     1      86.732 121.421 134.417  1.00  0.00     0.008 C 
ENDBRANCH  19  28
TORSDOF 5
ENDMDL
MODEL 3
REMARK VINA RESULT: -8.659815836      2.225      5.886
REMARK  5 active torsions:
REMARK  status: ('A' for Active; 'I' for Inactive)
REMARK    1  A    between atoms: C2_2  and  C3_3 
REMARK    2  A    between atoms: C3_3  and  C4_4 
REMARK    3  A    between atoms: C5_5  and  O1_6 
REMARK    4  A    between atoms: C12_17  and  C13_18 
REMARK    5  A    between atoms: C16_26  and  C17_27 
ROOT
HETATM    1  C4  UNL     1      89.831 116.613 131.766  1.00  0.00    -0.015 A 
HETATM    2  C5  UNL     1      90.465 115.844 130.839  1.00  0.00     0.106 A 
HETATM    3  C6  UNL     1      90.872 116.466 129.652  1.00  0.00     0.118 A 
HETATM    4  C7  UNL     1      90.637 117.819 129.427  1.00  0.00     0.062 A 
HETATM    5  C8  UNL     1      89.982 118.603 130.391  1.00  0.00    -0.004 A 
HETATM    6  C9  UNL     1      89.596 117.952 131.548  1.00  0.00    -0.030 A 
HETATM    7  C10 UNL     1      88.862 118.627 132.662  1.00  0.00     0.142 C 
HETATM    8  C11 UNL     1      88.934 120.081 132.591  1.00  0.00     0.222 C 
HETATM    9  O2  UNL     1      88.348 120.759 133.473  1.00  0.00    -0.273 OA
HETATM   10  N1  UNL     1      89.664 120.653 131.526  1.00  0.00    -0.346 N 
ATOM     11  H1  UNL     1      90.166 121.526 131.690  1.00  0.00     0.163 HD
HETATM   12  C12 UNL     1      89.732 120.045 130.193  1.00  0.00     0.180 C 
HETATM   13  C14 UNL     1      91.060 118.397 128.172  1.00  0.00     0.210 C 
HETATM   14  O4  UNL     1      90.884 119.588 127.896  1.00  0.00    -0.285 OA
HETATM   15  C15 UNL     1      91.722 117.571 127.169  1.00  0.00     0.084 C 
HETATM   16  N2  UNL     1      91.861 117.967 125.945  1.00  0.00    -0.397 N 
ATOM     17  H21 UNL     1      92.323 117.389 125.243  1.00  0.00     0.156 HD
ATOM     18  H22 UNL     1      91.503 118.877 125.654  1.00  0.00     0.156 HD
HETATM   19  C16 UNL     1      92.239 116.254 127.590  1.00  0.00     0.182 C 
HETATM   20  O5  UNL     1      91.518 115.736 128.682  1.00  0.00    -0.336 OA
ENDROOT
BRANCH   1  21
HETATM   21  C3  UNL     1      89.419 115.941 133.044  1.00  0.00     0.042 C 
BRANCH  21  22
HETATM   22  C2  UNL     1      90.625 115.920 133.946  1.00  0.00     0.000 C 
HETATM   23  C1  UNL     1      90.229 115.926 135.414  1.00  0.00     0.005 C 
ENDBRANCH  21  22
ENDBRANCH   1  21
BRANCH   2  24
HETATM   24  O1  UNL     1      90.742 114.495 130.968  1.00  0.00    -0.357 OA
ATOM     25  H1  UNL     1      90.647 113.844 130.282  1.00  0.00     0.217 HD
ENDBRANCH   2  24
BRANCH  12  26
HETATM   26  C13 UNL     1      88.393 120.319 129.615  1.00  0.00     0.261 C 
HETATM   27  O3  UNL     1      88.152 121.232 128.874  1.00  0.00    -0.304 OA
ENDBRANCH  12  26
BRANCH  19  28
HETATM   28  C17 UNL     1      92.201 115.218 126.487  1.00  0.00     0.034 C 
HETATM   29  C18 UNL     1      90.904 114.489 126.394  1.00  0.00     0.008 C 
ENDBRANCH  19  28
TORSDOF 5
ENDMDL
MODEL 4
REMARK VINA RESULT: -8.213333671      2.068      4.434
REMARK  5 active torsions:
REMARK  status: ('A' for Active; 'I' for Inactive)
REMARK    1  A    between atoms: C2_2  and  C3_3 
REMARK    2  A    between atoms: C3_3  and  C4_4 
REMARK    3  A    between atoms: C5_5  and  O1_6 
REMARK    4  A    between atoms: C12_17  and  C13_18 
REMARK    5  A    between atoms: C16_26  and  C17_27 
ROOT
HETATM    1  C4  UNL     1      90.542 117.898 128.729  1.00  0.00    -0.015 A 
HETATM    2  C5  UNL     1      89.995 119.068 129.157  1.00  0.00     0.106 A 
HETATM    3  C6  UNL     1      89.600 119.146 130.498  1.00  0.00     0.118 A 
HETATM    4  C7  UNL     1      89.760 118.067 131.362  1.00  0.00     0.062 A 
HETATM    5  C8  UNL     1      90.327 116.863 130.910  1.00  0.00    -0.004 A 
HETATM    6  C9  UNL     1      90.702 116.828 129.580  1.00  0.00    -0.030 A 
HETATM    7  C10 UNL     1      91.291 115.618 128.927  1.00  0.00     0.142 C 
HETATM    8  C11 UNL     1      91.782 114.638 129.886  1.00  0.00     0.222 C 
HETATM    9  O2  UNL     1      92.295 113.574 129.453  1.00  0.00    -0.273 OA
HETATM   10  N1  UNL     1      91.654 114.938 131.261  1.00  0.00    -0.346 N 
ATOM     11  H1  UNL     1      92.375 114.608 131.903  1.00  0.00     0.163 HD
HETATM   12  C12 UNL     1      90.528 115.705 131.803  1.00  0.00     0.180 C 
HETATM   13  C14 UNL     1      89.312 118.200 132.730  1.00  0.00     0.210 C 
HETATM   14  O4  UNL     1      89.416 117.288 133.555  1.00  0.00    -0.285 OA
HETATM   15  C15 UNL     1      88.708 119.446 133.186  1.00  0.00     0.084 C 
HETATM   16  N2  UNL     1      88.047 119.516 134.297  1.00  0.00    -0.397 N 
ATOM     17  H21 UNL     1      87.624 120.387 134.615  1.00  0.00     0.156 HD
ATOM     18  H22 UNL     1      87.934 118.688 134.881  1.00  0.00     0.156 HD
HETATM   19  C16 UNL     1      88.871 120.644 132.339  1.00  0.00     0.182 C 
HETATM   20  O5  UNL     1      89.043 120.305 130.984  1.00  0.00    -0.336 OA
ENDROOT
BRANCH   1  21
HETATM   21  C3  UNL     1      90.981 117.834 127.294  1.00  0.00     0.042 C 
BRANCH  21  22
HETATM   22  C2  UNL     1      92.382 118.384 127.232  1.00  0.00     0.000 C 
HETATM   23  C1  UNL     1      93.316 117.456 126.472  1.00  0.00     0.005 C 
ENDBRANCH  21  22
ENDBRANCH   1  21
BRANCH   2  24
HETATM   24  O1  UNL     1      89.791 120.194 128.377  1.00  0.00    -0.357 OA
ATOM     25  H1  UNL     1      90.337 120.971 128.377  1.00  0.00     0.217 HD
ENDBRANCH   2  24
BRANCH  12  26
HETATM   26  C13 UNL     1      89.398 114.745 131.758  1.00  0.00     0.261 C 
HETATM   27  O3  UNL     1      89.440 113.631 132.202  1.00  0.00    -0.304 OA
ENDBRANCH  12  26
BRANCH  19  28
HETATM   28  C17 UNL     1      87.699 121.599 132.424  1.00  0.00     0.034 C 
HETATM   29  C18 UNL     1      86.781 121.528 131.252  1.00  0.00     0.008 C 
ENDBRANCH  19  28
TORSDOF 5
ENDMDL
MODEL 5
REMARK VINA RESULT: -8.077384561      2.101      2.900
REMARK  5 active torsions:
REMARK  status: ('A' for Active; 'I' for Inactive)
REMARK    1  A    between atoms: C2_2  and  C3_3 
REMARK    2  A    between atoms: C3_3  and  C4_4 
REMARK    3  A    between atoms: C5_5  and  O1_6 
REMARK    4  A    between atoms: C12_17  and  C13_18 
REMARK    5  A    between atoms: C16_26  and  C17_27 
ROOT
HETATM    1  C4  UNL     1      90.758 115.866 131.136  1.00  0.00    -0.015 A 
HETATM    2  C5  UNL     1      90.029 116.829 131.763  1.00  0.00     0.106 A 
HETATM    3  C6  UNL     1      89.733 117.991 131.039  1.00  0.00     0.118 A 
HETATM    4  C7  UNL     1      90.169 118.156 129.728  1.00  0.00     0.062 A 
HETATM    5  C8  UNL     1      90.920 117.154 129.089  1.00  0.00    -0.004 A 
HETATM    6  C9  UNL     1      91.191 116.024 129.838  1.00  0.00    -0.030 A 
HETATM    7  C10 UNL     1      92.003 114.878 129.326  1.00  0.00     0.142 C 
HETATM    8  C11 UNL     1      92.147 114.886 127.877  1.00  0.00     0.222 C 
HETATM    9  O2  UNL     1      92.816 113.972 127.331  1.00  0.00    -0.273 OA
HETATM   10  N1  UNL     1      91.523 115.930 127.158  1.00  0.00    -0.346 N 
ATOM     11  H1  UNL     1      91.154 115.732 126.228  1.00  0.00     0.163 HD
HETATM   12  C12 UNL     1      91.383 117.288 127.694  1.00  0.00     0.180 C 
HETATM   13  C14 UNL     1      89.851 119.387 129.041  1.00  0.00     0.210 C 
HETATM   14  O4  UNL     1      90.205 119.610 127.879  1.00  0.00    -0.285 OA
HETATM   15  C15 UNL     1      89.088 120.429 129.717  1.00  0.00     0.084 C 
HETATM   16  N2  UNL     1      89.024 121.636 129.254  1.00  0.00    -0.397 N 
ATOM     17  H21 UNL     1      88.491 122.364 129.727  1.00  0.00     0.156 HD
ATOM     18  H22 UNL     1      89.516 121.885 128.396  1.00  0.00     0.156 HD
HETATM   19  C16 UNL     1      88.376 120.068 130.959  1.00  0.00     0.182 C 
HETATM   20  O5  UNL     1      89.000 118.995 131.623  1.00  0.00    -0.336 OA
ENDROOT
BRANCH   1  21
HETATM   21  C3  UNL     1      91.051 114.615 131.915  1.00  0.00     0.042 C 
BRANCH  21  22
HETATM   22  C2  UNL     1      89.773 113.820 131.976  1.00  0.00     0.000 C 
HETATM   23  C1  UNL     1      89.767 112.688 130.961  1.00  0.00     0.005 C 
ENDBRANCH  21  22
ENDBRANCH   1  21
BRANCH   2  24
HETATM   24  O1  UNL     1      89.554 116.761 133.061  1.00  0.00    -0.357 OA
ATOM     25  H1  UNL     1      89.722 117.399 133.744  1.00  0.00     0.217 HD
ENDBRANCH   2  24
BRANCH  12  26
HETATM   26  C13 UNL     1      92.754 117.845 127.597  1.00  0.00     0.261 C 
HETATM   27  O3  UNL     1      93.489 118.000 128.534  1.00  0.00    -0.304 OA
ENDBRANCH  12  26
BRANCH  19  28
HETATM   28  C17 UNL     1      88.275 121.215 131.942  1.00  0.00     0.034 C 
HETATM   29  C18 UNL     1      87.053 121.166 132.796  1.00  0.00     0.008 C 
ENDBRANCH  19  28
TORSDOF 5
ENDMDL
