MODEL 1
REMARK VINA RESULT: -9.868730565      0.000      0.000
REMARK  6 active torsions:
REMARK  status: ('A' for Active; 'I' for Inactive)
REMARK    1  A    between atoms: C2_2  and  C3_3 
REMARK    2  A    between atoms: C7_7  and  O1_8 
REMARK    3  A    between atoms: C10_12  and  O2_13 
REMARK    4  A    between atoms: C11_15  and  C12_16 
REMARK    5  A    between atoms: C12_16  and  N1_17 
REMARK    6  A    between atoms: N1_17  and  C13_20 
ROOT
HETATM    1  C3  UNL     1      87.983 120.441 135.226  1.00  0.00     0.040 C 
HETATM    2  C4  UNL     1      86.832 120.898 134.358  1.00  0.00     0.029 C 
HETATM    3  C5  UNL     1      87.520 121.844 133.404  1.00  0.00     0.024 C 
HETATM    4  C6  UNL     1      88.648 122.495 134.132  1.00  0.00     0.042 C 
HETATM    5  C7  UNL     1      89.031 121.502 135.201  1.00  0.00     0.134 C 
HETATM    6  C8  UNL     1      88.094 121.064 132.261  1.00  0.00    -0.024 A 
HETATM    7  C9  UNL     1      88.018 121.734 131.063  1.00  0.00     0.047 A 
HETATM    8  C10 UNL     1      88.496 121.170 129.903  1.00  0.00     0.074 A 
HETATM    9  C11 UNL     1      89.074 119.911 129.882  1.00  0.00     0.003 A 
HETATM   10  C18 UNL     1      89.150 119.244 131.083  1.00  0.00     0.041 A 
HETATM   11  C19 UNL     1      88.668 119.808 132.264  1.00  0.00     0.040 A 
HETATM   12  N2  UNL     1      88.836 118.966 133.395  1.00  0.00    -0.349 N 
ATOM     13  H2  UNL     1      89.229 118.045 133.203  1.00  0.00     0.166 HD
HETATM   14  C20 UNL     1      88.560 119.208 134.630  1.00  0.00     0.092 C 
HETATM   15 CL1  UNL     1      88.931 117.876 135.726  1.00  0.00    -0.068 Cl
ENDROOT
BRANCH   9  16
HETATM   16  C12 UNL     1      89.575 119.349 128.615  1.00  0.00     0.274 C 
BRANCH  16  17
HETATM   17  N1  UNL     1      90.806 119.944 128.178  1.00  0.00    -0.067 N 
ATOM     18  H12 UNL     1      90.673 120.649 127.453  1.00  0.00     0.277 HD
ATOM     19  H11 UNL     1      91.226 120.554 128.879  1.00  0.00     0.277 HD
BRANCH  17  20
HETATM   20  C13 UNL     1      91.681 118.866 127.765  1.00  0.00     0.192 C 
HETATM   21  C14 UNL     1      90.979 117.576 127.500  1.00  0.00     0.039 C 
HETATM   22  C15 UNL     1      91.572 116.952 126.282  1.00  0.00     0.081 C 
HETATM   23  C16 UNL     1      92.625 117.891 125.805  1.00  0.00     0.245 C 
HETATM   24  F1  UNL     1      93.887 117.441 126.117  1.00  0.00    -0.206 F 
HETATM   25  F2  UNL     1      92.463 118.085 124.447  1.00  0.00    -0.206 F 
HETATM   26  C17 UNL     1      92.429 119.223 126.499  1.00  0.00     0.112 C 
ENDBRANCH  17  20
ENDBRANCH  16  17
ENDBRANCH   9  16
BRANCH   8  27
HETATM   27  O2  UNL     1      88.393 121.888 128.725  1.00  0.00    -0.360 OA
ATOM     28  H2  UNL     1      88.832 121.557 127.950  1.00  0.00     0.217 HD
ENDBRANCH   8  27
BRANCH   1  29
HETATM   29  C2  UNL     1      87.520 120.070 136.618  1.00  0.00     0.015 C 
HETATM   30  C1  UNL     1      86.143 120.531 136.951  1.00  0.00     0.006 C 
ENDBRANCH   1  29
BRANCH   5  31
HETATM   31  O1  UNL     1      89.177 122.184 136.407  1.00  0.00    -0.394 OA
ATOM     32  H1  UNL     1      88.946 123.104 136.361  1.00  0.00     0.210 HD
ENDBRANCH   5  31
TORSDOF 6
ENDMDL
MODEL 2
REMARK VINA RESULT: -9.595378188      4.895      9.217
REMARK  6 active torsions:
REMARK  status: ('A' for Active; 'I' for Inactive)
REMARK    1  A    between atoms: C2_2  and  C3_3 
REMARK    2  A    between atoms: C7_7  and  O1_8 
REMARK    3  A    between atoms: C10_12  and  O2_13 
REMARK    4  A    between atoms: C11_15  and  C12_16 
REMARK    5  A    between atoms: C12_16  and  N1_17 
REMARK    6  A    between atoms: N1_17  and  C13_20 
ROOT
HETATM    1  C3  UNL     1      92.212 116.343 126.391  1.00  0.00     0.040 C 
HETATM    2  C4  UNL     1      91.026 115.439 126.637  1.00  0.00     0.029 C 
HETATM    3  C5  UNL     1      91.451 114.703 127.884  1.00  0.00     0.024 C 
HETATM    4  C6  UNL     1      92.934 114.551 127.848  1.00  0.00     0.042 C 
HETATM    5  C7  UNL     1      93.413 115.711 127.010  1.00  0.00     0.134 C 
HETATM    6  C8  UNL     1      91.099 115.522 129.089  1.00  0.00    -0.024 A 
HETATM    7  C9  UNL     1      90.695 114.757 130.157  1.00  0.00     0.047 A 
HETATM    8  C10 UNL     1      90.331 115.340 131.349  1.00  0.00     0.074 A 
HETATM    9  C11 UNL     1      90.353 116.713 131.532  1.00  0.00     0.003 A 
HETATM   10  C18 UNL     1      90.759 117.475 130.461  1.00  0.00     0.041 A 
HETATM   11  C19 UNL     1      91.129 116.893 129.250  1.00  0.00     0.040 A 
HETATM   12  N2  UNL     1      91.516 117.843 128.268  1.00  0.00    -0.349 N 
ATOM     13  H2  UNL     1      91.423 118.821 128.542  1.00  0.00     0.166 HD
HETATM   14  C20 UNL     1      91.968 117.638 127.079  1.00  0.00     0.092 C 
HETATM   15 CL1  UNL     1      92.332 119.113 126.182  1.00  0.00    -0.068 Cl
ENDROOT
BRANCH   9  16
HETATM   16  C12 UNL     1      89.956 117.292 132.829  1.00  0.00     0.274 C 
BRANCH  16  17
HETATM   17  N1  UNL     1      88.673 117.935 132.794  1.00  0.00    -0.067 N 
ATOM     18  H12 UNL     1      88.224 117.881 131.880  1.00  0.00     0.277 HD
ATOM     19  H11 UNL     1      87.960 117.432 133.321  1.00  0.00     0.277 HD
BRANCH  17  20
HETATM   20  C13 UNL     1      88.864 119.297 133.252  1.00  0.00     0.192 C 
HETATM   21  C14 UNL     1      88.227 120.328 132.382  1.00  0.00     0.039 C 
HETATM   22  C15 UNL     1      87.604 121.367 133.253  1.00  0.00     0.081 C 
HETATM   23  C16 UNL     1      87.855 120.938 134.657  1.00  0.00     0.245 C 
HETATM   24  F1  UNL     1      88.859 121.674 135.242  1.00  0.00    -0.206 F 
HETATM   25  F2  UNL     1      86.670 121.018 135.363  1.00  0.00    -0.206 F 
HETATM   26  C17 UNL     1      88.298 119.489 134.642  1.00  0.00     0.112 C 
ENDBRANCH  17  20
ENDBRANCH  16  17
ENDBRANCH   9  16
BRANCH   8  27
HETATM   27  O2  UNL     1      89.932 114.523 132.392  1.00  0.00    -0.360 OA
ATOM     28  H2  UNL     1      90.415 114.558 133.210  1.00  0.00     0.217 HD
ENDBRANCH   8  27
BRANCH   1  29
HETATM   29  C2  UNL     1      92.377 116.662 124.921  1.00  0.00     0.015 C 
HETATM   30  C1  UNL     1      91.492 115.873 124.019  1.00  0.00     0.006 C 
ENDBRANCH   1  29
BRANCH   5  31
HETATM   31  O1  UNL     1      94.343 115.236 126.088  1.00  0.00    -0.394 OA
ATOM     32  H1  UNL     1      94.262 114.309 125.897  1.00  0.00     0.210 HD
ENDBRANCH   5  31
TORSDOF 6
ENDMDL
MODEL 3
REMARK VINA RESULT: -9.516054846      4.554      8.805
REMARK  6 active torsions:
REMARK  status: ('A' for Active; 'I' for Inactive)
REMARK    1  A    between atoms: C2_2  and  C3_3 
REMARK    2  A    between atoms: C7_7  and  O1_8 
REMARK    3  A    between atoms: C10_12  and  O2_13 
REMARK    4  A    between atoms: C11_15  and  C12_16 
REMARK    5  A    between atoms: C12_16  and  N1_17 
REMARK    6  A    between atoms: N1_17  and  C13_20 
ROOT
HETATM    1  C3  UNL     1      92.148 114.350 127.465  1.00  0.00     0.040 C 
HETATM    2  C4  UNL     1      92.913 115.600 127.089  1.00  0.00     0.029 C 
HETATM    3  C5  UNL     1      91.794 116.563 126.774  1.00  0.00     0.024 C 
HETATM    4  C6  UNL     1      90.658 115.783 126.206  1.00  0.00     0.042 C 
HETATM    5  C7  UNL     1      90.818 114.401 126.792  1.00  0.00     0.134 C 
HETATM    6  C8  UNL     1      91.325 117.211 128.041  1.00  0.00    -0.024 A 
HETATM    7  C9  UNL     1      90.966 118.527 127.869  1.00  0.00     0.047 A 
HETATM    8  C10 UNL     1      90.511 119.281 128.926  1.00  0.00     0.074 A 
HETATM    9  C11 UNL     1      90.393 118.760 130.204  1.00  0.00     0.003 A 
HETATM   10  C18 UNL     1      90.752 117.442 130.372  1.00  0.00     0.041 A 
HETATM   11  C19 UNL     1      91.214 116.670 129.307  1.00  0.00     0.040 A 
HETATM   12  N2  UNL     1      91.534 115.338 129.679  1.00  0.00    -0.349 N 
ATOM     13  H2  UNL     1      91.444 115.125 130.673  1.00  0.00     0.166 HD
HETATM   14  C20 UNL     1      91.921 114.361 128.934  1.00  0.00     0.092 C 
HETATM   15 CL1  UNL     1      92.211 112.857 129.810  1.00  0.00    -0.068 Cl
ENDROOT
BRANCH   9  16
HETATM   16  C12 UNL     1      89.898 119.607 131.304  1.00  0.00     0.274 C 
BRANCH  16  17
HETATM   17  N1  UNL     1      88.580 120.126 131.072  1.00  0.00    -0.067 N 
ATOM     18  H12 UNL     1      88.585 121.049 130.637  1.00  0.00     0.277 HD
ATOM     19  H11 UNL     1      88.081 119.634 130.330  1.00  0.00     0.277 HD
BRANCH  17  20
HETATM   20  C13 UNL     1      87.879 120.101 132.340  1.00  0.00     0.192 C 
HETATM   21  C14 UNL     1      88.459 119.158 133.340  1.00  0.00     0.039 C 
HETATM   22  C15 UNL     1      88.442 119.814 134.680  1.00  0.00     0.081 C 
HETATM   23  C16 UNL     1      87.863 121.170 134.470  1.00  0.00     0.245 C 
HETATM   24  F1  UNL     1      86.560 121.240 134.904  1.00  0.00    -0.206 F 
HETATM   25  F2  UNL     1      88.671 122.099 135.100  1.00  0.00    -0.206 F 
HETATM   26  C17 UNL     1      87.869 121.470 132.985  1.00  0.00     0.112 C 
ENDBRANCH  17  20
ENDBRANCH  16  17
ENDBRANCH   9  16
BRANCH   8  27
HETATM   27  O2  UNL     1      90.164 120.601 128.697  1.00  0.00    -0.360 OA
ATOM     28  H2  UNL     1      90.654 121.284 129.140  1.00  0.00     0.217 HD
ENDBRANCH   8  27
BRANCH   1  29
HETATM   29  C2  UNL     1      92.940 113.098 127.162  1.00  0.00     0.015 C 
HETATM   30  C1  UNL     1      94.191 113.335 126.386  1.00  0.00     0.006 C 
ENDBRANCH   1  29
BRANCH   5  31
HETATM   31  O1  UNL     1      90.663 113.467 125.770  1.00  0.00    -0.394 OA
ATOM     32  H1  UNL     1      89.796 113.081 125.727  1.00  0.00     0.210 HD
ENDBRANCH   5  31
TORSDOF 6
ENDMDL
MODEL 4
REMARK VINA RESULT: -9.482078784      4.450      9.271
REMARK  6 active torsions:
REMARK  status: ('A' for Active; 'I' for Inactive)
REMARK    1  A    between atoms: C2_2  and  C3_3 
REMARK    2  A    between atoms: C7_7  and  O1_8 
REMARK    3  A    between atoms: C10_12  and  O2_13 
REMARK    4  A    between atoms: C11_15  and  C12_16 
REMARK    5  A    between atoms: C12_16  and  N1_17 
REMARK    6  A    between atoms: N1_17  and  C13_20 
ROOT
HETATM    1  C3  UNL     1      92.706 116.061 125.480  1.00  0.00     0.040 C 
HETATM    2  C4  UNL     1      93.814 116.577 126.371  1.00  0.00     0.029 C 
HETATM    3  C5  UNL     1      93.345 117.982 126.664  1.00  0.00     0.024 C 
HETATM    4  C6  UNL     1      92.599 118.478 125.472  1.00  0.00     0.042 C 
HETATM    5  C7  UNL     1      92.065 117.230 124.814  1.00  0.00     0.134 C 
HETATM    6  C8  UNL     1      92.399 117.957 127.826  1.00  0.00    -0.024 A 
HETATM    7  C9  UNL     1      92.524 119.056 128.642  1.00  0.00     0.047 A 
HETATM    8  C10 UNL     1      91.735 119.202 129.760  1.00  0.00     0.074 A 
HETATM    9  C11 UNL     1      90.784 118.260 130.116  1.00  0.00     0.003 A 
HETATM   10  C18 UNL     1      90.660 117.162 129.296  1.00  0.00     0.041 A 
HETATM   11  C19 UNL     1      91.456 117.006 128.161  1.00  0.00     0.040 A 
HETATM   12  N2  UNL     1      91.180 115.811 127.446  1.00  0.00    -0.349 N 
ATOM     13  H2  UNL     1      90.488 115.194 127.870  1.00  0.00     0.166 HD
HETATM   14  C20 UNL     1      91.685 115.400 126.334  1.00  0.00     0.092 C 
HETATM   15 CL1  UNL     1      91.056 113.844 125.788  1.00  0.00    -0.068 Cl
ENDROOT
BRANCH   9  16
HETATM   16  C12 UNL     1      89.960 118.461 131.322  1.00  0.00     0.274 C 
BRANCH  16  17
HETATM   17  N1  UNL     1      88.911 119.424 131.138  1.00  0.00    -0.067 N 
ATOM     18  H12 UNL     1      88.991 119.940 130.261  1.00  0.00     0.277 HD
ATOM     19  H11 UNL     1      88.003 118.995 130.955  1.00  0.00     0.277 HD
BRANCH  17  20
HETATM   20  C13 UNL     1      88.908 120.284 132.304  1.00  0.00     0.192 C 
HETATM   21  C14 UNL     1      87.741 121.211 132.376  1.00  0.00     0.039 C 
HETATM   22  C15 UNL     1      87.263 121.266 133.788  1.00  0.00     0.081 C 
HETATM   23  C16 UNL     1      88.142 120.346 134.561  1.00  0.00     0.245 C 
HETATM   24  F1  UNL     1      89.069 121.035 135.307  1.00  0.00    -0.206 F 
HETATM   25  F2  UNL     1      87.349 119.527 135.342  1.00  0.00    -0.206 F 
HETATM   26  C17 UNL     1      88.900 119.473 133.581  1.00  0.00     0.112 C 
ENDBRANCH  17  20
ENDBRANCH  16  17
ENDBRANCH   9  16
BRANCH   8  27
HETATM   27  O2  UNL     1      91.903 120.327 130.548  1.00  0.00    -0.360 OA
ATOM     28  H2  UNL     1      91.182 120.611 131.097  1.00  0.00     0.217 HD
ENDBRANCH   8  27
BRANCH   1  29
HETATM   29  C2  UNL     1      93.209 115.007 124.518  1.00  0.00     0.015 C 
HETATM   30  C1  UNL     1      94.691 114.849 124.499  1.00  0.00     0.006 C 
ENDBRANCH   1  29
BRANCH   5  31
HETATM   31  O1  UNL     1      92.314 117.310 123.445  1.00  0.00    -0.394 OA
ATOM     32  H1  UNL     1      91.535 117.244 122.906  1.00  0.00     0.210 HD
ENDBRANCH   5  31
TORSDOF 6
ENDMDL
MODEL 5
REMARK VINA RESULT: -9.424569410      4.556      9.373
REMARK  6 active torsions:
REMARK  status: ('A' for Active; 'I' for Inactive)
REMARK    1  A    between atoms: C2_2  and  C3_3 
REMARK    2  A    between atoms: C7_7  and  O1_8 
REMARK    3  A    between atoms: C10_12  and  O2_13 
REMARK    4  A    between atoms: C11_15  and  C12_16 
REMARK    5  A    between atoms: C12_16  and  N1_17 
REMARK    6  A    between atoms: N1_17  and  C13_20 
ROOT
HETATM    1  C3  UNL     1      92.697 115.187 125.433  1.00  0.00     0.040 C 
HETATM    2  C4  UNL     1      93.680 115.695 126.463  1.00  0.00     0.029 C 
HETATM    3  C5  UNL     1      93.595 117.188 126.263  1.00  0.00     0.024 C 
HETATM    4  C6  UNL     1      93.313 117.446 124.821  1.00  0.00     0.042 C 
HETATM    5  C7  UNL     1      92.594 116.206 124.349  1.00  0.00     0.134 C 
HETATM    6  C8  UNL     1      92.450 117.732 127.062  1.00  0.00    -0.024 A 
HETATM    7  C9  UNL     1      92.710 118.972 127.595  1.00  0.00     0.047 A 
HETATM    8  C10 UNL     1      91.772 119.626 128.360  1.00  0.00     0.074 A 
HETATM    9  C11 UNL     1      90.530 119.074 128.631  1.00  0.00     0.003 A 
HETATM   10  C18 UNL     1      90.273 117.832 128.095  1.00  0.00     0.041 A 
HETATM   11  C19 UNL     1      91.218 117.163 127.319  1.00  0.00     0.040 A 
HETATM   12  N2  UNL     1      90.768 115.898 126.858  1.00  0.00    -0.349 N 
ATOM     13  H2  UNL     1      89.848 115.610 127.192  1.00  0.00     0.166 HD
HETATM   14  C20 UNL     1      91.363 115.063 126.077  1.00  0.00     0.092 C 
HETATM   15 CL1  UNL     1      90.440 113.595 125.753  1.00  0.00    -0.068 Cl
ENDROOT
BRANCH   9  16
HETATM   16  C12 UNL     1      89.556 119.813 129.455  1.00  0.00     0.274 C 
BRANCH  16  17
HETATM   17  N1  UNL     1      90.036 120.104 130.776  1.00  0.00    -0.067 N 
ATOM     18  H12 UNL     1      90.814 119.507 131.059  1.00  0.00     0.277 HD
ATOM     19  H11 UNL     1      90.528 120.996 130.835  1.00  0.00     0.277 HD
BRANCH  17  20
HETATM   20  C13 UNL     1      88.901 120.020 131.673  1.00  0.00     0.192 C 
HETATM   21  C14 UNL     1      89.027 118.965 132.720  1.00  0.00     0.039 C 
HETATM   22  C15 UNL     1      88.513 119.509 134.010  1.00  0.00     0.081 C 
HETATM   23  C16 UNL     1      88.096 120.912 133.732  1.00  0.00     0.245 C 
HETATM   24  F1  UNL     1      86.729 121.028 133.642  1.00  0.00    -0.206 F 
HETATM   25  F2  UNL     1      88.625 121.733 134.710  1.00  0.00    -0.206 F 
HETATM   26  C17 UNL     1      88.681 121.330 132.398  1.00  0.00     0.112 C 
ENDBRANCH  17  20
ENDBRANCH  16  17
ENDBRANCH   9  16
BRANCH   8  27
HETATM   27  O2  UNL     1      92.085 120.872 128.872  1.00  0.00    -0.360 OA
ATOM     28  H2  UNL     1      92.610 120.921 129.663  1.00  0.00     0.217 HD
ENDBRANCH   8  27
BRANCH   1  29
HETATM   29  C2  UNL     1      93.066 113.805 124.942  1.00  0.00     0.015 C 
HETATM   30  C1  UNL     1      94.320 113.258 125.533  1.00  0.00     0.006 C 
ENDBRANCH   1  29
BRANCH   5  31
HETATM   31  O1  UNL     1      93.153 115.804 123.138  1.00  0.00    -0.394 OA
ATOM     32  H1  UNL     1      94.101 115.744 123.150  1.00  0.00     0.210 HD
ENDBRANCH   5  31
TORSDOF 6
ENDMDL
