MODEL 1
REMARK VINA RESULT: -7.988046606      0.000      0.000
REMARK  9 active torsions:
REMARK  status: ('A' for Active; 'I' for Inactive)
REMARK    1  A    between atoms: C4_5  and  N2_6 
REMARK    2  A    between atoms: N2_6  and  N3_8 
REMARK    3  A    between atoms: N3_8  and  N4_9 
REMARK    4  A    between atoms: C8_15  and  O1_16 
REMARK    5  A    between atoms: C8_15  and  C9_18 
REMARK    6  A    between atoms: C10_22  and  N5_23 
REMARK    7  A    between atoms: N5_23  and  C11_25 
REMARK    8  A    between atoms: C17_31  and  C18_32 
REMARK    9  A    between atoms: C18_32  and  O2_33 
ROOT
HETATM    1  C1  UNL     1      91.914 116.286 132.569  1.00  0.00     0.150 C 
HETATM    2  N1  UNL     1      91.718 116.620 131.176  1.00  0.00    -0.376 N 
HETATM    3  C2  UNL     1      91.024 117.826 130.825  1.00  0.00     0.042 A 
HETATM    4  C3  UNL     1      89.980 118.242 131.619  1.00  0.00     0.062 A 
HETATM    5  C4  UNL     1      89.297 119.396 131.315  1.00  0.00     0.064 A 
HETATM    6  C5  UNL     1      89.698 120.107 130.203  1.00  0.00     0.032 A 
HETATM    7  C6  UNL     1      90.751 119.676 129.411  1.00  0.00     0.015 A 
HETATM    8  C7  UNL     1      91.438 118.523 129.707  1.00  0.00     0.014 A 
HETATM    9  C8  UNL     1      92.555 117.962 128.958  1.00  0.00     0.207 C 
HETATM   10  C10 UNL     1      92.259 116.479 128.761  1.00  0.00     0.150 C 
HETATM   11  C17 UNL     1      92.201 115.796 130.088  1.00  0.00     0.133 C 
ENDROOT
BRANCH  10  12
HETATM   12  N5  UNL     1      93.026 115.822 127.830  1.00  0.00    -0.408 N 
ATOM     13  H5  UNL     1      94.015 115.687 128.044  1.00  0.00     0.154 HD
BRANCH  12  14
HETATM   14  C11 UNL     1      92.558 115.325 126.610  1.00  0.00     0.077 C 
HETATM   15  C12 UNL     1      92.400 113.815 126.496  1.00  0.00     0.024 C 
HETATM   16  C13 UNL     1      92.524 113.513 124.995  1.00  0.00     0.002 C 
HETATM   17  C14 UNL     1      91.545 114.255 124.168  1.00  0.00     0.000 C 
HETATM   18  C15 UNL     1      91.217 115.638 124.603  1.00  0.00     0.002 C 
HETATM   19  C16 UNL     1      91.248 115.869 126.103  1.00  0.00     0.024 C 
ENDBRANCH  12  14
ENDBRANCH  10  12
BRANCH   9  20
HETATM   20  O1  UNL     1      93.654 117.959 129.873  1.00  0.00    -0.374 OA
ATOM     21  H1  UNL     1      94.366 117.540 129.404  1.00  0.00     0.211 HD
ENDBRANCH   9  20
BRANCH   9  22
HETATM   22  C9  UNL     1      93.028 118.704 127.789  1.00  0.00     0.424 C 
HETATM   23  F1  UNL     1      93.441 119.973 128.265  1.00  0.00    -0.167 F 
HETATM   24  F2  UNL     1      92.097 118.928 126.791  1.00  0.00    -0.167 F 
HETATM   25  F3  UNL     1      94.147 118.201 127.215  1.00  0.00    -0.167 F 
ENDBRANCH   9  22
BRANCH  11  26
HETATM   26  C18 UNL     1      93.442 115.096 130.523  1.00  0.00     0.191 C 
BRANCH  26  27
HETATM   27  O2  UNL     1      93.401 113.775 130.023  1.00  0.00    -0.399 OA
ATOM     28  H2  UNL     1      94.247 113.371 130.183  1.00  0.00     0.209 HD
ENDBRANCH  26  27
ENDBRANCH  11  26
BRANCH   5  29
HETATM   29  N2  UNL     1      88.223 119.786 132.155  1.00  0.00    -0.217 N 
ATOM     30  H2  UNL     1      88.269 119.576 133.152  1.00  0.00     0.203 HD
BRANCH  29  31
HETATM   31  N3  UNL     1      87.236 120.370 131.708  1.00  0.00    -0.243 NA
BRANCH  31  32
HETATM   32  N4  UNL     1      86.312 120.715 130.948  1.00  0.00    -0.260 N 
ATOM     33  H42 UNL     1      86.850 120.630 130.086  1.00  0.00     0.193 HD
ATOM     34  H41 UNL     1      85.398 121.019 130.613  1.00  0.00     0.193 HD
ENDBRANCH  31  32
ENDBRANCH  29  31
ENDBRANCH   5  29
TORSDOF 9
ENDMDL
MODEL 2
REMARK VINA RESULT: -7.950016525      2.680      6.818
REMARK  9 active torsions:
REMARK  status: ('A' for Active; 'I' for Inactive)
REMARK    1  A    between atoms: C4_5  and  N2_6 
REMARK    2  A    between atoms: N2_6  and  N3_8 
REMARK    3  A    between atoms: N3_8  and  N4_9 
REMARK    4  A    between atoms: C8_15  and  O1_16 
REMARK    5  A    between atoms: C8_15  and  C9_18 
REMARK    6  A    between atoms: C10_22  and  N5_23 
REMARK    7  A    between atoms: N5_23  and  C11_25 
REMARK    8  A    between atoms: C17_31  and  C18_32 
REMARK    9  A    between atoms: C18_32  and  O2_33 
ROOT
HETATM    1  C1  UNL     1      93.482 117.713 125.891  1.00  0.00     0.150 C 
HETATM    2  N1  UNL     1      92.583 117.454 126.993  1.00  0.00    -0.376 N 
HETATM    3  C2  UNL     1      92.104 116.121 127.222  1.00  0.00     0.042 A 
HETATM    4  C3  UNL     1      91.854 115.314 126.136  1.00  0.00     0.062 A 
HETATM    5  C4  UNL     1      91.401 114.028 126.320  1.00  0.00     0.064 A 
HETATM    6  C5  UNL     1      91.215 113.591 127.614  1.00  0.00     0.032 A 
HETATM    7  C6  UNL     1      91.470 114.415 128.699  1.00  0.00     0.015 A 
HETATM    8  C7  UNL     1      91.922 115.701 128.525  1.00  0.00     0.014 A 
HETATM    9  C8  UNL     1      92.223 116.665 129.575  1.00  0.00     0.207 C 
HETATM   10  C10 UNL     1      91.548 117.975 129.185  1.00  0.00     0.150 C 
HETATM   11  C17 UNL     1      92.133 118.482 127.908  1.00  0.00     0.133 C 
ENDROOT
BRANCH  10  12
HETATM   12  N5  UNL     1      91.449 118.928 130.170  1.00  0.00    -0.408 N 
ATOM     13  H5  UNL     1      92.310 119.215 130.636  1.00  0.00     0.154 HD
BRANCH  12  14
HETATM   14  C11 UNL     1      90.259 119.533 130.584  1.00  0.00     0.077 C 
HETATM   15  C12 UNL     1      89.144 119.639 129.552  1.00  0.00     0.024 C 
HETATM   16  C13 UNL     1      88.295 120.837 130.003  1.00  0.00     0.002 C 
HETATM   17  C14 UNL     1      87.784 120.702 131.386  1.00  0.00     0.000 C 
HETATM   18  C15 UNL     1      88.684 120.042 132.368  1.00  0.00     0.002 C 
HETATM   19  C16 UNL     1      89.579 118.957 131.798  1.00  0.00     0.024 C 
ENDBRANCH  12  14
ENDBRANCH  10  12
BRANCH   9  20
HETATM   20  O1  UNL     1      93.616 116.955 129.427  1.00  0.00    -0.374 OA
ATOM     21  H1  UNL     1      94.055 116.119 129.532  1.00  0.00     0.211 HD
ENDBRANCH   9  20
BRANCH   9  22
HETATM   22  C9  UNL     1      92.066 116.226 130.963  1.00  0.00     0.424 C 
HETATM   23  F1  UNL     1      92.841 115.048 131.097  1.00  0.00    -0.167 F 
HETATM   24  F2  UNL     1      90.780 115.914 131.362  1.00  0.00    -0.167 F 
HETATM   25  F3  UNL     1      92.600 117.064 131.884  1.00  0.00    -0.167 F 
ENDBRANCH   9  22
BRANCH  11  26
HETATM   26  C18 UNL     1      93.198 119.516 128.038  1.00  0.00     0.191 C 
BRANCH  26  27
HETATM   27  O2  UNL     1      92.576 120.763 128.273  1.00  0.00    -0.399 OA
ATOM     28  H2  UNL     1      93.106 121.247 128.895  1.00  0.00     0.209 HD
ENDBRANCH  26  27
ENDBRANCH  11  26
BRANCH   5  29
HETATM   29  N2  UNL     1      91.148 113.232 125.174  1.00  0.00    -0.217 N 
ATOM     30  H2  UNL     1      90.370 112.573 125.187  1.00  0.00     0.203 HD
BRANCH  29  31
HETATM   31  N3  UNL     1      91.847 113.319 124.164  1.00  0.00    -0.243 NA
BRANCH  31  32
HETATM   32  N4  UNL     1      92.210 113.553 122.996  1.00  0.00    -0.260 N 
ATOM     33  H42 UNL     1      91.323 113.303 122.560  1.00  0.00     0.193 HD
ATOM     34  H41 UNL     1      92.785 113.822 122.198  1.00  0.00     0.193 HD
ENDBRANCH  31  32
ENDBRANCH  29  31
ENDBRANCH   5  29
TORSDOF 9
ENDMDL
MODEL 3
REMARK VINA RESULT: -7.922079706      2.677      6.893
REMARK  9 active torsions:
REMARK  status: ('A' for Active; 'I' for Inactive)
REMARK    1  A    between atoms: C4_5  and  N2_6 
REMARK    2  A    between atoms: N2_6  and  N3_8 
REMARK    3  A    between atoms: N3_8  and  N4_9 
REMARK    4  A    between atoms: C8_15  and  O1_16 
REMARK    5  A    between atoms: C8_15  and  C9_18 
REMARK    6  A    between atoms: C10_22  and  N5_23 
REMARK    7  A    between atoms: N5_23  and  C11_25 
REMARK    8  A    between atoms: C17_31  and  C18_32 
REMARK    9  A    between atoms: C18_32  and  O2_33 
ROOT
HETATM    1  C1  UNL     1      92.628 118.143 125.681  1.00  0.00     0.150 C 
HETATM    2  N1  UNL     1      92.209 117.575 126.943  1.00  0.00    -0.376 N 
HETATM    3  C2  UNL     1      92.160 116.149 127.101  1.00  0.00     0.042 A 
HETATM    4  C3  UNL     1      91.782 115.380 126.024  1.00  0.00     0.062 A 
HETATM    5  C4  UNL     1      91.730 114.010 126.138  1.00  0.00     0.064 A 
HETATM    6  C5  UNL     1      92.069 113.452 127.353  1.00  0.00     0.032 A 
HETATM    7  C6  UNL     1      92.447 114.240 128.430  1.00  0.00     0.015 A 
HETATM    8  C7  UNL     1      92.501 115.610 128.325  1.00  0.00     0.014 A 
HETATM    9  C8  UNL     1      92.876 116.547 129.375  1.00  0.00     0.207 C 
HETATM   10  C10 UNL     1      91.820 117.647 129.390  1.00  0.00     0.150 C 
HETATM   11  C17 UNL     1      91.837 118.378 128.089  1.00  0.00     0.133 C 
ENDROOT
BRANCH  10  12
HETATM   12  N5  UNL     1      91.810 118.468 130.492  1.00  0.00    -0.408 N 
ATOM     13  H5  UNL     1      92.657 119.001 130.690  1.00  0.00     0.154 HD
BRANCH  12  14
HETATM   14  C11 UNL     1      90.729 118.629 131.363  1.00  0.00     0.077 C 
HETATM   15  C12 UNL     1      89.621 119.573 130.918  1.00  0.00     0.024 C 
HETATM   16  C13 UNL     1      88.963 120.057 132.219  1.00  0.00     0.002 C 
HETATM   17  C14 UNL     1      88.466 118.951 133.069  1.00  0.00     0.000 C 
HETATM   18  C15 UNL     1      89.281 117.708 133.089  1.00  0.00     0.002 C 
HETATM   19  C16 UNL     1      89.998 117.384 131.791  1.00  0.00     0.024 C 
ENDBRANCH  12  14
ENDBRANCH  10  12
BRANCH   9  20
HETATM   20  O1  UNL     1      94.040 117.214 128.881  1.00  0.00    -0.374 OA
ATOM     21  H1  UNL     1      94.042 118.061 129.313  1.00  0.00     0.211 HD
ENDBRANCH   9  20
BRANCH   9  22
HETATM   22  C9  UNL     1      93.272 115.990 130.670  1.00  0.00     0.424 C 
HETATM   23  F1  UNL     1      94.392 115.160 130.420  1.00  0.00    -0.167 F 
HETATM   24  F2  UNL     1      92.326 115.213 131.314  1.00  0.00    -0.167 F 
HETATM   25  F3  UNL     1      93.743 116.900 131.556  1.00  0.00    -0.167 F 
ENDBRANCH   9  22
BRANCH  11  26
HETATM   26  C18 UNL     1      92.608 119.652 128.061  1.00  0.00     0.191 C 
BRANCH  26  27
HETATM   27  O2  UNL     1      91.851 120.642 128.726  1.00  0.00    -0.399 OA
ATOM     28  H2  UNL     1      92.013 120.563 129.659  1.00  0.00     0.209 HD
ENDBRANCH  26  27
ENDBRANCH  11  26
BRANCH   5  29
HETATM   29  N2  UNL     1      91.329 113.254 125.008  1.00  0.00    -0.217 N 
ATOM     30  H2  UNL     1      90.479 112.692 125.060  1.00  0.00     0.203 HD
BRANCH  29  31
HETATM   31  N3  UNL     1      91.983 113.260 123.965  1.00  0.00    -0.243 NA
BRANCH  31  32
HETATM   32  N4  UNL     1      92.306 113.434 122.775  1.00  0.00    -0.260 N 
ATOM     33  H42 UNL     1      91.516 114.036 122.541  1.00  0.00     0.193 HD
ATOM     34  H41 UNL     1      92.817 113.382 121.894  1.00  0.00     0.193 HD
ENDBRANCH  31  32
ENDBRANCH  29  31
ENDBRANCH   5  29
TORSDOF 9
ENDMDL
MODEL 4
REMARK VINA RESULT: -7.843347426      3.493      5.681
REMARK  9 active torsions:
REMARK  status: ('A' for Active; 'I' for Inactive)
REMARK    1  A    between atoms: C4_5  and  N2_6 
REMARK    2  A    between atoms: N2_6  and  N3_8 
REMARK    3  A    between atoms: N3_8  and  N4_9 
REMARK    4  A    between atoms: C8_15  and  O1_16 
REMARK    5  A    between atoms: C8_15  and  C9_18 
REMARK    6  A    between atoms: C10_22  and  N5_23 
REMARK    7  A    between atoms: N5_23  and  C11_25 
REMARK    8  A    between atoms: C17_31  and  C18_32 
REMARK    9  A    between atoms: C18_32  and  O2_33 
ROOT
HETATM    1  C1  UNL     1      91.770 118.553 128.549  1.00  0.00     0.150 C 
HETATM    2  N1  UNL     1      91.792 118.030 129.897  1.00  0.00    -0.376 N 
HETATM    3  C2  UNL     1      90.754 118.394 130.818  1.00  0.00     0.042 A 
HETATM    4  C3  UNL     1      90.230 119.665 130.754  1.00  0.00     0.062 A 
HETATM    5  C4  UNL     1      89.230 120.045 131.618  1.00  0.00     0.064 A 
HETATM    6  C5  UNL     1      88.781 119.114 132.531  1.00  0.00     0.032 A 
HETATM    7  C6  UNL     1      89.318 117.837 132.585  1.00  0.00     0.015 A 
HETATM    8  C7  UNL     1      90.319 117.450 131.726  1.00  0.00     0.014 A 
HETATM    9  C8  UNL     1      90.967 116.146 131.682  1.00  0.00     0.207 C 
HETATM   10  C10 UNL     1      92.471 116.397 131.634  1.00  0.00     0.150 C 
HETATM   11  C17 UNL     1      92.818 117.131 130.381  1.00  0.00     0.133 C 
ENDROOT
BRANCH  10  12
HETATM   12  N5  UNL     1      93.278 115.316 131.890  1.00  0.00    -0.408 N 
ATOM     13  H5  UNL     1      93.224 114.525 131.248  1.00  0.00     0.154 HD
BRANCH  12  14
HETATM   14  C11 UNL     1      94.170 115.215 132.962  1.00  0.00     0.077 C 
HETATM   15  C12 UNL     1      94.045 116.261 134.061  1.00  0.00     0.024 C 
HETATM   16  C13 UNL     1      95.438 116.334 134.703  1.00  0.00     0.002 C 
HETATM   17  C14 UNL     1      95.918 115.027 135.207  1.00  0.00     0.000 C 
HETATM   18  C15 UNL     1      95.552 113.828 134.407  1.00  0.00     0.002 C 
HETATM   19  C16 UNL     1      94.209 113.906 133.705  1.00  0.00     0.024 C 
ENDBRANCH  12  14
ENDBRANCH  10  12
BRANCH   9  20
HETATM   20  O1  UNL     1      90.678 115.629 130.381  1.00  0.00    -0.374 OA
ATOM     21  H1  UNL     1      89.751 115.791 130.250  1.00  0.00     0.211 HD
ENDBRANCH   9  20
BRANCH   9  22
HETATM   22  C9  UNL     1      90.496 115.122 132.617  1.00  0.00     0.424 C 
HETATM   23  F1  UNL     1      89.105 114.987 132.388  1.00  0.00    -0.167 F 
HETATM   24  F2  UNL     1      90.662 115.401 133.961  1.00  0.00    -0.167 F 
HETATM   25  F3  UNL     1      90.979 113.879 132.383  1.00  0.00    -0.167 F 
ENDBRANCH   9  22
BRANCH  11  26
HETATM   26  C18 UNL     1      93.310 116.300 129.247  1.00  0.00     0.191 C 
BRANCH  26  27
HETATM   27  O2  UNL     1      94.657 115.958 129.503  1.00  0.00    -0.399 OA
ATOM     28  H2  UNL     1      94.671 115.128 129.966  1.00  0.00     0.209 HD
ENDBRANCH  26  27
ENDBRANCH  11  26
BRANCH   5  29
HETATM   29  N2  UNL     1      88.723 121.366 131.524  1.00  0.00    -0.217 N 
ATOM     30  H2  UNL     1      89.238 122.129 131.964  1.00  0.00     0.203 HD
BRANCH  29  31
HETATM   31  N3  UNL     1      87.678 121.613 130.923  1.00  0.00    -0.243 NA
BRANCH  31  32
HETATM   32  N4  UNL     1      86.585 121.464 130.345  1.00  0.00    -0.260 N 
ATOM     33  H42 UNL     1      86.391 122.458 130.234  1.00  0.00     0.193 HD
ATOM     34  H41 UNL     1      85.770 121.026 129.916  1.00  0.00     0.193 HD
ENDBRANCH  31  32
ENDBRANCH  29  31
ENDBRANCH   5  29
TORSDOF 9
ENDMDL
MODEL 5
REMARK VINA RESULT: -7.590723265      3.151      5.162
REMARK  9 active torsions:
REMARK  status: ('A' for Active; 'I' for Inactive)
REMARK    1  A    between atoms: C4_5  and  N2_6 
REMARK    2  A    between atoms: N2_6  and  N3_8 
REMARK    3  A    between atoms: N3_8  and  N4_9 
REMARK    4  A    between atoms: C8_15  and  O1_16 
REMARK    5  A    between atoms: C8_15  and  C9_18 
REMARK    6  A    between atoms: C10_22  and  N5_23 
REMARK    7  A    between atoms: N5_23  and  C11_25 
REMARK    8  A    between atoms: C17_31  and  C18_32 
REMARK    9  A    between atoms: C18_32  and  O2_33 
ROOT
HETATM    1  C1  UNL     1      90.745 119.053 128.163  1.00  0.00     0.150 C 
HETATM    2  N1  UNL     1      91.227 118.450 129.386  1.00  0.00    -0.376 N 
HETATM    3  C2  UNL     1      90.440 118.542 130.582  1.00  0.00     0.042 A 
HETATM    4  C3  UNL     1      89.717 119.691 130.810  1.00  0.00     0.062 A 
HETATM    5  C4  UNL     1      88.948 119.810 131.944  1.00  0.00     0.064 A 
HETATM    6  C5  UNL     1      88.930 118.748 132.824  1.00  0.00     0.032 A 
HETATM    7  C6  UNL     1      89.664 117.597 132.582  1.00  0.00     0.015 A 
HETATM    8  C7  UNL     1      90.436 117.470 131.452  1.00  0.00     0.014 A 
HETATM    9  C8  UNL     1      91.253 116.321 131.084  1.00  0.00     0.207 C 
HETATM   10  C10 UNL     1      92.621 116.858 130.677  1.00  0.00     0.150 C 
HETATM   11  C17 UNL     1      92.481 117.731 129.474  1.00  0.00     0.133 C 
ENDROOT
BRANCH  10  12
HETATM   12  N5  UNL     1      93.635 115.936 130.581  1.00  0.00    -0.408 N 
ATOM     13  H5  UNL     1      93.541 115.204 129.876  1.00  0.00     0.154 HD
BRANCH  12  14
HETATM   14  C11 UNL     1      94.784 115.922 131.376  1.00  0.00     0.077 C 
HETATM   15  C12 UNL     1      94.746 116.743 132.658  1.00  0.00     0.024 C 
HETATM   16  C13 UNL     1      96.213 117.081 132.960  1.00  0.00     0.002 C 
HETATM   17  C14 UNL     1      97.077 115.883 133.073  1.00  0.00     0.000 C 
HETATM   18  C15 UNL     1      96.768 114.750 132.161  1.00  0.00     0.002 C 
HETATM   19  C16 UNL     1      95.299 114.577 131.819  1.00  0.00     0.024 C 
ENDBRANCH  12  14
ENDBRANCH  10  12
BRANCH   9  20
HETATM   20  O1  UNL     1      90.703 115.852 129.850  1.00  0.00    -0.374 OA
ATOM     21  H1  UNL     1      89.924 116.378 129.711  1.00  0.00     0.211 HD
ENDBRANCH   9  20
BRANCH   9  22
HETATM   22  C9  UNL     1      91.235 115.162 131.979  1.00  0.00     0.424 C 
HETATM   23  F1  UNL     1      89.873 114.821 132.160  1.00  0.00    -0.167 F 
HETATM   24  F2  UNL     1      91.777 115.355 133.237  1.00  0.00    -0.167 F 
HETATM   25  F3  UNL     1      91.777 114.036 131.456  1.00  0.00    -0.167 F 
ENDBRANCH   9  22
BRANCH  11  26
HETATM   26  C18 UNL     1      92.768 117.092 128.160  1.00  0.00     0.191 C 
BRANCH  26  27
HETATM   27  O2  UNL     1      94.047 117.516 127.734  1.00  0.00    -0.399 OA
ATOM     28  H2  UNL     1      94.220 118.369 128.114  1.00  0.00     0.209 HD
ENDBRANCH  26  27
ENDBRANCH  11  26
BRANCH   5  29
HETATM   29  N2  UNL     1      88.224 121.013 132.144  1.00  0.00    -0.217 N 
ATOM     30  H2  UNL     1      88.394 121.561 132.988  1.00  0.00     0.203 HD
BRANCH  29  31
HETATM   31  N3  UNL     1      87.398 121.410 131.323  1.00  0.00    -0.243 NA
BRANCH  31  32
HETATM   32  N4  UNL     1      86.595 121.432 130.371  1.00  0.00    -0.260 N 
ATOM     33  H42 UNL     1      86.805 122.387 130.082  1.00  0.00     0.193 HD
ATOM     34  H41 UNL     1      85.884 121.144 129.700  1.00  0.00     0.193 HD
ENDBRANCH  31  32
ENDBRANCH  29  31
ENDBRANCH   5  29
TORSDOF 9
ENDMDL
