MODEL 1
REMARK VINA RESULT: -10.036049658      0.000      0.000
REMARK  5 active torsions:
REMARK  status: ('A' for Active; 'I' for Inactive)
REMARK    1  A    between atoms: N1_1  and  C1_4 
REMARK    2  A    between atoms: C4_9  and  C5_10 
REMARK    3  A    between atoms: C8_13  and  N3_14 
REMARK       I    between atoms: N3_14  and  C9_16 
REMARK    4  A    between atoms: C9_16  and  C10_18 
REMARK    5  A    between atoms: C10_18  and  C11_19 
ROOT
HETATM    1  C5  UNL     1      89.967 118.685 128.851  1.00  0.00     0.019 C 
HETATM    2  C6  UNL     1      90.822 118.614 130.123  1.00  0.00     0.011 C 
HETATM    3  C7  UNL     1      89.841 118.612 131.273  1.00  0.00     0.026 C 
HETATM    4  C8  UNL     1      89.172 119.969 131.305  1.00  0.00     0.084 C 
HETATM    5  C12 UNL     1      88.511 120.302 129.991  1.00  0.00     0.026 C 
HETATM    6  C13 UNL     1      89.391 120.076 128.809  1.00  0.00     0.011 C 
ENDROOT
BRANCH   1   7
HETATM    7  C4  UNL     1      90.871 118.400 127.722  1.00  0.00    -0.052 A 
HETATM    8  C3  UNL     1      90.908 117.212 127.066  1.00  0.00     0.040 A 
HETATM    9  C2  UNL     1      91.768 116.956 126.001  1.00  0.00     0.070 A 
HETATM   10  N2  UNL     1      91.997 115.901 125.206  1.00  0.00    -0.320 N 
HETATM   11  C16 UNL     1      92.616 117.972 125.606  1.00  0.00     0.106 A 
HETATM   12  C1  UNL     1      92.959 116.240 124.338  1.00  0.00     0.223 A 
ATOM     13  H2  UNL     1      91.524 114.999 125.254  1.00  0.00     0.169 HD
HETATM   14  O2  UNL     1      93.309 117.472 124.596  1.00  0.00    -0.277 OA
HETATM   15  C15 UNL     1      92.610 119.207 126.253  1.00  0.00     0.040 A 
HETATM   16  C14 UNL     1      91.727 119.398 127.310  1.00  0.00     0.010 A 
BRANCH  12  17
HETATM   17  N1  UNL     1      93.489 115.534 123.397  1.00  0.00    -0.365 N 
ATOM     18  H12 UNL     1      93.940 114.633 123.558  1.00  0.00     0.159 HD
ATOM     19  H11 UNL     1      93.546 115.735 122.399  1.00  0.00     0.159 HD
ENDBRANCH  12  17
ENDBRANCH   1   7
BRANCH   4  20
HETATM   20  N3  UNL     1      88.242 120.051 132.398  1.00  0.00    -0.356 N 
HETATM   21  C9  UNL     1      88.095 121.237 133.152  1.00  0.00     0.222 C 
HETATM   22  O1  UNL     1      88.779 122.244 132.878  1.00  0.00    -0.273 OA
ATOM     23  H3  UNL     1      87.676 119.237 132.634  1.00  0.00     0.162 HD
BRANCH  21  24
HETATM   24  C10 UNL     1      87.137 121.309 134.272  1.00  0.00     0.161 C 
BRANCH  24  25
HETATM   25  C11 UNL     1      87.729 120.694 135.542  1.00  0.00     0.196 C 
HETATM   26 CL1  UNL     1      88.380 119.077 135.195  1.00  0.00    -0.083 Cl
HETATM   27 CL2  UNL     1      89.101 121.693 136.120  1.00  0.00    -0.083 Cl
HETATM   28 CL3  UNL     1      86.457 120.573 136.768  1.00  0.00    -0.083 Cl
ENDBRANCH  24  25
ENDBRANCH  21  24
ENDBRANCH   4  20
TORSDOF 5
ENDMDL
MODEL 2
REMARK VINA RESULT: -9.616037109      1.152      1.594
REMARK  5 active torsions:
REMARK  status: ('A' for Active; 'I' for Inactive)
REMARK    1  A    between atoms: N1_1  and  C1_4 
REMARK    2  A    between atoms: C4_9  and  C5_10 
REMARK    3  A    between atoms: C8_13  and  N3_14 
REMARK       I    between atoms: N3_14  and  C9_16 
REMARK    4  A    between atoms: C9_16  and  C10_18 
REMARK    5  A    between atoms: C10_18  and  C11_19 
ROOT
HETATM    1  C5  UNL     1      91.222 119.049 128.557  1.00  0.00     0.019 C 
HETATM    2  C6  UNL     1      89.760 119.484 128.384  1.00  0.00     0.011 C 
HETATM    3  C7  UNL     1      89.494 120.466 129.502  1.00  0.00     0.026 C 
HETATM    4  C8  UNL     1      89.542 119.698 130.805  1.00  0.00     0.084 C 
HETATM    5  C12 UNL     1      90.851 118.972 130.983  1.00  0.00     0.026 C 
HETATM    6  C13 UNL     1      91.260 118.182 129.786  1.00  0.00     0.011 C 
ENDROOT
BRANCH   1   7
HETATM    7  C4  UNL     1      91.590 118.324 127.327  1.00  0.00    -0.052 A 
HETATM    8  C3  UNL     1      91.167 117.067 127.036  1.00  0.00     0.040 A 
HETATM    9  C2  UNL     1      91.522 116.394 125.871  1.00  0.00     0.070 A 
HETATM   10  N2  UNL     1      91.250 115.185 125.358  1.00  0.00    -0.320 N 
HETATM   11  C16 UNL     1      92.346 117.051 124.978  1.00  0.00     0.106 A 
HETATM   12  C1  UNL     1      91.880 115.083 124.181  1.00  0.00     0.223 A 
ATOM     13  H2  UNL     1      90.665 114.468 125.789  1.00  0.00     0.169 HD
HETATM   14  O2  UNL     1      92.524 116.203 123.979  1.00  0.00    -0.277 OA
HETATM   15  C15 UNL     1      92.803 118.342 125.239  1.00  0.00     0.040 A 
HETATM   16  C14 UNL     1      92.411 118.959 126.421  1.00  0.00     0.010 A 
BRANCH  12  17
HETATM   17  N1  UNL     1      91.895 114.096 123.351  1.00  0.00    -0.365 N 
ATOM     18  H12 UNL     1      91.194 113.354 123.348  1.00  0.00     0.159 HD
ATOM     19  H11 UNL     1      92.560 113.896 122.605  1.00  0.00     0.159 HD
ENDBRANCH  12  17
ENDBRANCH   1   7
BRANCH   4  20
HETATM   20  N3  UNL     1      89.266 120.567 131.917  1.00  0.00    -0.356 N 
HETATM   21  C9  UNL     1      87.945 120.800 132.359  1.00  0.00     0.222 C 
HETATM   22  O1  UNL     1      86.984 120.250 131.785  1.00  0.00    -0.273 OA
ATOM     23  H3  UNL     1      90.041 121.024 132.397  1.00  0.00     0.162 HD
BRANCH  21  24
HETATM   24  C10 UNL     1      87.675 121.693 133.502  1.00  0.00     0.161 C 
BRANCH  24  25
HETATM   25  C11 UNL     1      87.901 120.969 134.831  1.00  0.00     0.196 C 
HETATM   26 CL1  UNL     1      88.433 119.299 134.538  1.00  0.00    -0.083 Cl
HETATM   27 CL2  UNL     1      89.213 121.778 135.749  1.00  0.00    -0.083 Cl
HETATM   28 CL3  UNL     1      86.385 120.960 135.745  1.00  0.00    -0.083 Cl
ENDBRANCH  24  25
ENDBRANCH  21  24
ENDBRANCH   4  20
TORSDOF 5
ENDMDL
MODEL 3
REMARK VINA RESULT: -9.508726991      1.735      2.415
REMARK  5 active torsions:
REMARK  status: ('A' for Active; 'I' for Inactive)
REMARK    1  A    between atoms: N1_1  and  C1_4 
REMARK    2  A    between atoms: C4_9  and  C5_10 
REMARK    3  A    between atoms: C8_13  and  N3_14 
REMARK       I    between atoms: N3_14  and  C9_16 
REMARK    4  A    between atoms: C9_16  and  C10_18 
REMARK    5  A    between atoms: C10_18  and  C11_19 
ROOT
HETATM    1  C5  UNL     1      91.240 117.981 128.731  1.00  0.00     0.019 C 
HETATM    2  C6  UNL     1      90.088 118.920 128.349  1.00  0.00     0.011 C 
HETATM    3  C7  UNL     1      90.064 119.988 129.418  1.00  0.00     0.026 C 
HETATM    4  C8  UNL     1      89.643 119.328 130.714  1.00  0.00     0.084 C 
HETATM    5  C12 UNL     1      90.545 118.177 131.078  1.00  0.00     0.026 C 
HETATM    6  C13 UNL     1      90.782 117.228 129.952  1.00  0.00     0.011 C 
ENDROOT
BRANCH   1   7
HETATM    7  C4  UNL     1      91.469 117.106 127.567  1.00  0.00    -0.052 A 
HETATM    8  C3  UNL     1      91.322 115.756 127.595  1.00  0.00     0.040 A 
HETATM    9  C2  UNL     1      91.542 114.942 126.488  1.00  0.00     0.070 A 
HETATM   10  N2  UNL     1      91.469 113.623 126.256  1.00  0.00    -0.320 N 
HETATM   11  C16 UNL     1      91.928 115.553 125.311  1.00  0.00     0.106 A 
HETATM   12  C1  UNL     1      91.799 113.410 124.976  1.00  0.00     0.223 A 
ATOM     13  H2  UNL     1      91.209 112.908 126.936  1.00  0.00     0.169 HD
HETATM   14  O2  UNL     1      92.067 114.570 124.438  1.00  0.00    -0.277 OA
HETATM   15  C15 UNL     1      92.092 116.936 125.239  1.00  0.00     0.040 A 
HETATM   16  C14 UNL     1      91.856 117.693 126.381  1.00  0.00     0.010 A 
BRANCH  12  17
HETATM   17  N1  UNL     1      91.861 112.295 124.329  1.00  0.00    -0.365 N 
ATOM     18  H12 UNL     1      91.194 111.534 124.456  1.00  0.00     0.159 HD
ATOM     19  H11 UNL     1      92.539 111.998 123.628  1.00  0.00     0.159 HD
ENDBRANCH  12  17
ENDBRANCH   1   7
BRANCH   4  20
HETATM   20  N3  UNL     1      89.568 120.295 131.775  1.00  0.00    -0.356 N 
HETATM   21  C9  UNL     1      88.326 120.743 132.277  1.00  0.00     0.222 C 
HETATM   22  O1  UNL     1      87.261 120.303 131.801  1.00  0.00    -0.273 OA
ATOM     23  H3  UNL     1      90.430 120.665 132.175  1.00  0.00     0.162 HD
BRANCH  21  24
HETATM   24  C10 UNL     1      88.262 121.735 133.367  1.00  0.00     0.161 C 
BRANCH  24  25
HETATM   25  C11 UNL     1      88.127 121.049 134.728  1.00  0.00     0.196 C 
HETATM   26 CL1  UNL     1      86.458 121.185 135.321  1.00  0.00    -0.083 Cl
HETATM   27 CL2  UNL     1      88.478 119.297 134.563  1.00  0.00    -0.083 Cl
HETATM   28 CL3  UNL     1      89.233 121.823 135.874  1.00  0.00    -0.083 Cl
ENDBRANCH  24  25
ENDBRANCH  21  24
ENDBRANCH   4  20
TORSDOF 5
ENDMDL
MODEL 4
REMARK VINA RESULT: -9.404156529      4.733      9.528
REMARK  5 active torsions:
REMARK  status: ('A' for Active; 'I' for Inactive)
REMARK    1  A    between atoms: N1_1  and  C1_4 
REMARK    2  A    between atoms: C4_9  and  C5_10 
REMARK    3  A    between atoms: C8_13  and  N3_14 
REMARK       I    between atoms: N3_14  and  C9_16 
REMARK    4  A    between atoms: C9_16  and  C10_18 
REMARK    5  A    between atoms: C10_18  and  C11_19 
ROOT
HETATM    1  C5  UNL     1      89.415 118.699 131.263  1.00  0.00     0.019 C 
HETATM    2  C6  UNL     1      90.358 119.569 130.422  1.00  0.00     0.011 C 
HETATM    3  C7  UNL     1      90.631 118.774 129.166  1.00  0.00     0.026 C 
HETATM    4  C8  UNL     1      91.440 117.558 129.561  1.00  0.00     0.084 C 
HETATM    5  C12 UNL     1      90.743 116.736 130.616  1.00  0.00     0.026 C 
HETATM    6  C13 UNL     1      90.243 117.545 131.765  1.00  0.00     0.011 C 
ENDROOT
BRANCH   1   7
HETATM    7  C4  UNL     1      88.908 119.559 132.347  1.00  0.00    -0.052 A 
HETATM    8  C3  UNL     1      88.608 119.108 133.593  1.00  0.00     0.040 A 
HETATM    9  C2  UNL     1      88.130 119.932 134.607  1.00  0.00     0.070 A 
HETATM   10  N2  UNL     1      87.768 119.743 135.885  1.00  0.00    -0.320 N 
HETATM   11  C16 UNL     1      87.958 121.271 134.317  1.00  0.00     0.106 A 
HETATM   12  C1  UNL     1      87.381 120.925 136.383  1.00  0.00     0.223 A 
ATOM     13  H2  UNL     1      87.784 118.856 136.389  1.00  0.00     0.169 HD
HETATM   14  O2  UNL     1      87.503 121.814 135.433  1.00  0.00    -0.277 OA
HETATM   15  C15 UNL     1      88.254 121.775 133.051  1.00  0.00     0.040 A 
HETATM   16  C14 UNL     1      88.729 120.899 132.081  1.00  0.00     0.010 A 
BRANCH  12  17
HETATM   17  N1  UNL     1      86.956 121.205 137.568  1.00  0.00    -0.365 N 
ATOM     18  H12 UNL     1      86.151 121.806 137.749  1.00  0.00     0.159 HD
ATOM     19  H11 UNL     1      87.321 120.899 138.470  1.00  0.00     0.159 HD
ENDBRANCH  12  17
ENDBRANCH   1   7
BRANCH   4  20
HETATM   20  N3  UNL     1      91.765 116.766 128.406  1.00  0.00    -0.356 N 
HETATM   21  C9  UNL     1      93.044 116.824 127.809  1.00  0.00     0.222 C 
HETATM   22  O1  UNL     1      93.923 117.574 128.279  1.00  0.00    -0.273 OA
ATOM     23  H3  UNL     1      91.057 116.148 128.010  1.00  0.00     0.162 HD
BRANCH  21  24
HETATM   24  C10 UNL     1      93.365 116.006 126.624  1.00  0.00     0.161 C 
BRANCH  24  25
HETATM   25  C11 UNL     1      92.625 116.518 125.385  1.00  0.00     0.196 C 
HETATM   26 CL1  UNL     1      93.416 115.922 123.909  1.00  0.00    -0.083 Cl
HETATM   27 CL2  UNL     1      90.949 115.879 125.371  1.00  0.00    -0.083 Cl
HETATM   28 CL3  UNL     1      92.641 118.288 125.398  1.00  0.00    -0.083 Cl
ENDBRANCH  24  25
ENDBRANCH  21  24
ENDBRANCH   4  20
TORSDOF 5
ENDMDL
MODEL 5
REMARK VINA RESULT: -9.291410256      4.986      9.514
REMARK  5 active torsions:
REMARK  status: ('A' for Active; 'I' for Inactive)
REMARK    1  A    between atoms: N1_1  and  C1_4 
REMARK    2  A    between atoms: C4_9  and  C5_10 
REMARK    3  A    between atoms: C8_13  and  N3_14 
REMARK       I    between atoms: N3_14  and  C9_16 
REMARK    4  A    between atoms: C9_16  and  C10_18 
REMARK    5  A    between atoms: C10_18  and  C11_19 
ROOT
HETATM    1  C5  UNL     1      90.157 119.352 130.473  1.00  0.00     0.019 C 
HETATM    2  C6  UNL     1      90.310 117.853 130.760  1.00  0.00     0.011 C 
HETATM    3  C7  UNL     1      91.470 117.393 129.906  1.00  0.00     0.026 C 
HETATM    4  C8  UNL     1      91.039 117.493 128.458  1.00  0.00     0.084 C 
HETATM    5  C12 UNL     1      90.584 118.885 128.100  1.00  0.00     0.026 C 
HETATM    6  C13 UNL     1      89.612 119.460 129.074  1.00  0.00     0.011 C 
ENDROOT
BRANCH   1   7
HETATM    7  C4  UNL     1      89.235 119.881 131.495  1.00  0.00    -0.052 A 
HETATM    8  C3  UNL     1      89.210 119.454 132.784  1.00  0.00     0.040 A 
HETATM    9  C2  UNL     1      88.333 119.962 133.738  1.00  0.00     0.070 A 
HETATM   10  N2  UNL     1      88.110 119.720 135.039  1.00  0.00    -0.320 N 
HETATM   11  C16 UNL     1      87.452 120.947 133.338  1.00  0.00     0.106 A 
HETATM   12  C1  UNL     1      87.122 120.527 135.444  1.00  0.00     0.223 A 
ATOM     13  H2  UNL     1      88.606 119.042 135.617  1.00  0.00     0.169 HD
HETATM   14  O2  UNL     1      86.748 121.244 134.417  1.00  0.00    -0.277 OA
HETATM   15  C15 UNL     1      87.444 121.413 132.023  1.00  0.00     0.040 A 
HETATM   16  C14 UNL     1      88.346 120.864 131.119  1.00  0.00     0.010 A 
BRANCH  12  17
HETATM   17  N1  UNL     1      86.587 120.631 136.614  1.00  0.00    -0.365 N 
ATOM     18  H12 UNL     1      86.650 119.903 137.327  1.00  0.00     0.159 HD
ATOM     19  H11 UNL     1      86.048 121.402 137.007  1.00  0.00     0.159 HD
ENDBRANCH  12  17
ENDBRANCH   1   7
BRANCH   4  20
HETATM   20  N3  UNL     1      92.087 117.040 127.584  1.00  0.00    -0.356 N 
HETATM   21  C9  UNL     1      91.993 115.808 126.899  1.00  0.00     0.222 C 
HETATM   22  O1  UNL     1      90.988 115.084 127.043  1.00  0.00    -0.273 OA
ATOM     23  H3  UNL     1      92.915 117.621 127.455  1.00  0.00     0.162 HD
BRANCH  21  24
HETATM   24  C10 UNL     1      93.075 115.355 126.004  1.00  0.00     0.161 C 
BRANCH  24  25
HETATM   25  C11 UNL     1      92.905 115.936 124.598  1.00  0.00     0.196 C 
HETATM   26 CL1  UNL     1      91.205 115.831 124.091  1.00  0.00    -0.083 Cl
HETATM   27 CL2  UNL     1      93.339 117.677 124.602  1.00  0.00    -0.083 Cl
HETATM   28 CL3  UNL     1      93.921 115.021 123.472  1.00  0.00    -0.083 Cl
ENDBRANCH  24  25
ENDBRANCH  21  24
ENDBRANCH   4  20
TORSDOF 5
ENDMDL
