MODEL 1
REMARK VINA RESULT: -9.334833956      0.000      0.000
REMARK  8 active torsions:
REMARK  status: ('A' for Active; 'I' for Inactive)
REMARK    1  A    between atoms: C2_2  and  C3_3 
REMARK    2  A    between atoms: C3_3  and  C4_4 
REMARK    3  A    between atoms: C3_3  and  C15_29 
REMARK    4  A    between atoms: C6_8  and  C7_9 
REMARK    5  A    between atoms: C7_9  and  O1_10 
REMARK    6  A    between atoms: C8_14  and  N2_15 
REMARK    7  A    between atoms: N2_15  and  C9_17 
REMARK    8  A    between atoms: C12_20  and  N3_21 
ROOT
HETATM    1  C4  UNL     1      90.890 118.030 130.144  1.00  0.00     0.087 A 
HETATM    2  N1  UNL     1      90.418 118.408 128.946  1.00  0.00    -0.354 N 
ATOM      3  H1  UNL     1      90.746 117.900 128.124  1.00  0.00     0.166 HD
HETATM    4  C5  UNL     1      89.546 119.405 128.752  1.00  0.00     0.109 A 
HETATM    5  C6  UNL     1      89.076 120.120 129.833  1.00  0.00     0.102 A 
HETATM    6  C8  UNL     1      89.544 119.755 131.074  1.00  0.00     0.119 A 
HETATM    7  N4  UNL     1      90.429 118.731 131.197  1.00  0.00    -0.331 N 
ATOM      8  H4  UNL     1      90.759 118.482 132.130  1.00  0.00     0.168 HD
ENDROOT
BRANCH   6   9
HETATM    9  N2  UNL     1      89.119 120.406 132.082  1.00  0.00    -0.371 N 
ATOM     10  H2  UNL     1      89.557 121.310 132.260  1.00  0.00     0.161 HD
BRANCH   9  11
HETATM   11  C9  UNL     1      88.092 120.002 132.992  1.00  0.00     0.083 C 
HETATM   12  C10 UNL     1      88.674 119.483 134.290  1.00  0.00     0.027 C 
HETATM   13  C11 UNL     1      87.769 119.784 135.445  1.00  0.00     0.035 C 
HETATM   14  C12 UNL     1      87.718 121.282 135.694  1.00  0.00     0.183 C 
HETATM   15  C13 UNL     1      87.661 122.024 134.378  1.00  0.00     0.035 C 
HETATM   16  C14 UNL     1      87.107 121.099 133.299  1.00  0.00     0.027 C 
BRANCH  14  17
HETATM   17  N3  UNL     1      88.945 121.676 136.357  1.00  0.00    -0.075 N 
ATOM     18  H33 UNL     1      89.302 120.955 136.985  1.00  0.00     0.274 HD
ATOM     19  H32 UNL     1      89.741 121.712 135.720  1.00  0.00     0.274 HD
ATOM     20  H31 UNL     1      88.782 122.564 136.833  1.00  0.00     0.274 HD
ENDBRANCH  14  17
ENDBRANCH   9  11
ENDBRANCH   6   9
BRANCH   5  21
HETATM   21  C7  UNL     1      88.107 121.233 129.636  1.00  0.00     0.387 C 
HETATM   22  F1  UNL     1      88.417 122.336 130.411  1.00  0.00    -0.170 F 
HETATM   23  F2  UNL     1      86.825 120.852 129.992  1.00  0.00    -0.170 F 
BRANCH  21  24
HETATM   24  O1  UNL     1      88.067 121.649 128.313  1.00  0.00    -0.332 OA
ATOM     25  H1  UNL     1      87.308 121.301 127.859  1.00  0.00     0.216 HD
ENDBRANCH  21  24
ENDBRANCH   5  21
BRANCH   1  26
HETATM   26  C3  UNL     1      91.834 116.944 130.377  1.00  0.00     0.057 C 
BRANCH  26  27
HETATM   27  C2  UNL     1      92.881 117.364 131.358  1.00  0.00     0.008 C 
HETATM   28  C1  UNL     1      93.550 116.275 132.136  1.00  0.00     0.006 C 
ENDBRANCH  26  27
BRANCH  26  29
HETATM   29  C15 UNL     1      91.312 115.588 130.607  1.00  0.00    -0.003 C 
HETATM   30  C16 UNL     1      91.097 114.793 129.330  1.00  0.00     0.005 C 
HETATM   31  C17 UNL     1      91.381 113.333 129.703  1.00  0.00     0.000 C 
HETATM   32  C18 UNL     1      90.842 113.037 131.090  1.00  0.00     0.000 C 
HETATM   33  C19 UNL     1      89.702 113.959 131.454  1.00  0.00     0.000 C 
HETATM   34  C20 UNL     1      90.078 115.425 131.417  1.00  0.00     0.005 C 
ENDBRANCH  26  29
ENDBRANCH   1  26
TORSDOF 8
ENDMDL
MODEL 2
REMARK VINA RESULT: -9.167991223      3.123      7.487
REMARK  8 active torsions:
REMARK  status: ('A' for Active; 'I' for Inactive)
REMARK    1  A    between atoms: C2_2  and  C3_3 
REMARK    2  A    between atoms: C3_3  and  C4_4 
REMARK    3  A    between atoms: C3_3  and  C15_29 
REMARK    4  A    between atoms: C6_8  and  C7_9 
REMARK    5  A    between atoms: C7_9  and  O1_10 
REMARK    6  A    between atoms: C8_14  and  N2_15 
REMARK    7  A    between atoms: N2_15  and  C9_17 
REMARK    8  A    between atoms: C12_20  and  N3_21 
ROOT
HETATM    1  C4  UNL     1      89.056 119.355 132.483  1.00  0.00     0.087 A 
HETATM    2  N1  UNL     1      88.825 118.130 132.980  1.00  0.00    -0.354 N 
ATOM      3  H1  UNL     1      88.131 118.043 133.722  1.00  0.00     0.166 HD
HETATM    4  C5  UNL     1      89.439 117.014 132.568  1.00  0.00     0.109 A 
HETATM    5  C6  UNL     1      90.384 117.084 131.567  1.00  0.00     0.102 A 
HETATM    6  C8  UNL     1      90.643 118.328 131.040  1.00  0.00     0.119 A 
HETATM    7  N4  UNL     1      89.981 119.420 131.505  1.00  0.00    -0.331 N 
ATOM      8  H4  UNL     1      90.193 120.329 131.095  1.00  0.00     0.168 HD
ENDROOT
BRANCH   6   9
HETATM    9  N2  UNL     1      91.513 118.409 130.114  1.00  0.00    -0.371 N 
ATOM     10  H2  UNL     1      92.384 117.898 130.259  1.00  0.00     0.161 HD
BRANCH   9  11
HETATM   11  C9  UNL     1      91.398 119.142 128.891  1.00  0.00     0.083 C 
HETATM   12  C10 UNL     1      92.747 119.336 128.231  1.00  0.00     0.027 C 
HETATM   13  C11 UNL     1      92.617 119.362 126.739  1.00  0.00     0.035 C 
HETATM   14  C12 UNL     1      92.204 117.994 126.224  1.00  0.00     0.183 C 
HETATM   15  C13 UNL     1      91.161 117.391 127.139  1.00  0.00     0.035 C 
HETATM   16  C14 UNL     1      90.455 118.505 127.904  1.00  0.00     0.027 C 
BRANCH  14  17
HETATM   17  N3  UNL     1      93.363 117.123 126.261  1.00  0.00    -0.075 N 
ATOM     18  H33 UNL     1      93.760 116.959 125.336  1.00  0.00     0.274 HD
ATOM     19  H32 UNL     1      94.176 117.571 126.683  1.00  0.00     0.274 HD
ATOM     20  H31 UNL     1      93.100 116.259 126.734  1.00  0.00     0.274 HD
ENDBRANCH  14  17
ENDBRANCH   9  11
ENDBRANCH   6   9
BRANCH   5  21
HETATM   21  C7  UNL     1      91.078 115.853 131.099  1.00  0.00     0.387 C 
HETATM   22  F1  UNL     1      90.750 115.535 129.794  1.00  0.00    -0.170 F 
HETATM   23  F2  UNL     1      90.731 114.756 131.869  1.00  0.00    -0.170 F 
BRANCH  21  24
HETATM   24  O1  UNL     1      92.457 115.987 131.162  1.00  0.00    -0.332 OA
ATOM     25  H1  UNL     1      92.901 115.248 130.763  1.00  0.00     0.216 HD
ENDBRANCH  21  24
ENDBRANCH   5  21
BRANCH   1  26
HETATM   26  C3  UNL     1      88.394 120.581 132.911  1.00  0.00     0.057 C 
BRANCH  26  27
HETATM   27  C2  UNL     1      87.194 120.849 132.061  1.00  0.00     0.008 C 
HETATM   28  C1  UNL     1      87.448 121.399 130.692  1.00  0.00     0.006 C 
ENDBRANCH  26  27
BRANCH  26  29
HETATM   29  C15 UNL     1      88.167 120.800 134.347  1.00  0.00    -0.003 C 
HETATM   30  C16 UNL     1      86.798 121.378 134.666  1.00  0.00     0.005 C 
HETATM   31  C17 UNL     1      86.412 120.792 136.029  1.00  0.00     0.000 C 
HETATM   32  C18 UNL     1      87.630 120.724 136.929  1.00  0.00     0.000 C 
HETATM   33  C19 UNL     1      88.670 121.749 136.540  1.00  0.00     0.000 C 
HETATM   34  C20 UNL     1      89.152 121.605 135.113  1.00  0.00     0.005 C 
ENDBRANCH  26  29
ENDBRANCH   1  26
TORSDOF 8
ENDMDL
MODEL 3
REMARK VINA RESULT: -8.786350757      0.867      1.506
REMARK  8 active torsions:
REMARK  status: ('A' for Active; 'I' for Inactive)
REMARK    1  A    between atoms: C2_2  and  C3_3 
REMARK    2  A    between atoms: C3_3  and  C4_4 
REMARK    3  A    between atoms: C3_3  and  C15_29 
REMARK    4  A    between atoms: C6_8  and  C7_9 
REMARK    5  A    between atoms: C7_9  and  O1_10 
REMARK    6  A    between atoms: C8_14  and  N2_15 
REMARK    7  A    between atoms: N2_15  and  C9_17 
REMARK    8  A    between atoms: C12_20  and  N3_21 
ROOT
HETATM    1  C4  UNL     1      90.820 118.005 130.052  1.00  0.00     0.087 A 
HETATM    2  N1  UNL     1      90.341 118.406 128.864  1.00  0.00    -0.354 N 
ATOM      3  H1  UNL     1      90.651 117.903 128.033  1.00  0.00     0.166 HD
HETATM    4  C5  UNL     1      89.484 119.421 128.694  1.00  0.00     0.109 A 
HETATM    5  C6  UNL     1      89.038 120.130 129.788  1.00  0.00     0.102 A 
HETATM    6  C8  UNL     1      89.513 119.741 131.019  1.00  0.00     0.119 A 
HETATM    7  N4  UNL     1      90.382 118.700 131.120  1.00  0.00    -0.331 N 
ATOM      8  H4  UNL     1      90.717 118.433 132.046  1.00  0.00     0.168 HD
ENDROOT
BRANCH   6   9
HETATM    9  N2  UNL     1      89.111 120.385 132.041  1.00  0.00    -0.371 N 
ATOM     10  H2  UNL     1      89.560 121.283 132.220  1.00  0.00     0.161 HD
BRANCH   9  11
HETATM   11  C9  UNL     1      88.094 119.982 132.962  1.00  0.00     0.083 C 
HETATM   12  C10 UNL     1      88.691 119.468 134.256  1.00  0.00     0.027 C 
HETATM   13  C11 UNL     1      87.798 119.771 135.419  1.00  0.00     0.035 C 
HETATM   14  C12 UNL     1      87.747 121.269 135.665  1.00  0.00     0.183 C 
HETATM   15  C13 UNL     1      87.675 122.007 134.348  1.00  0.00     0.035 C 
HETATM   16  C14 UNL     1      87.110 121.078 133.278  1.00  0.00     0.027 C 
BRANCH  14  17
HETATM   17  N3  UNL     1      88.981 121.666 136.314  1.00  0.00    -0.075 N 
ATOM     18  H33 UNL     1      88.876 122.513 136.873  1.00  0.00     0.274 HD
ATOM     19  H32 UNL     1      89.248 121.035 137.068  1.00  0.00     0.274 HD
ATOM     20  H31 UNL     1      89.704 121.755 135.600  1.00  0.00     0.274 HD
ENDBRANCH  14  17
ENDBRANCH   9  11
ENDBRANCH   6   9
BRANCH   5  21
HETATM   21  C7  UNL     1      88.087 121.261 129.616  1.00  0.00     0.387 C 
HETATM   22  F1  UNL     1      88.426 122.350 130.399  1.00  0.00    -0.170 F 
HETATM   23  F2  UNL     1      86.803 120.899 129.986  1.00  0.00    -0.170 F 
BRANCH  21  24
HETATM   24  O1  UNL     1      88.036 121.692 128.299  1.00  0.00    -0.332 OA
ATOM     25  H1  UNL     1      88.905 121.845 127.946  1.00  0.00     0.216 HD
ENDBRANCH  21  24
ENDBRANCH   5  21
BRANCH   1  26
HETATM   26  C3  UNL     1      91.747 116.900 130.261  1.00  0.00     0.057 C 
BRANCH  26  27
HETATM   27  C2  UNL     1      91.742 116.479 131.696  1.00  0.00     0.008 C 
HETATM   28  C1  UNL     1      93.041 116.580 132.431  1.00  0.00     0.006 C 
ENDBRANCH  26  27
BRANCH  26  29
HETATM   29  C15 UNL     1      91.737 115.777 129.312  1.00  0.00    -0.003 C 
HETATM   30  C16 UNL     1      91.744 114.413 129.982  1.00  0.00     0.005 C 
HETATM   31  C17 UNL     1      90.936 113.495 129.055  1.00  0.00     0.000 C 
HETATM   32  C18 UNL     1      91.238 113.826 127.606  1.00  0.00     0.000 C 
HETATM   33  C19 UNL     1      92.603 114.455 127.450  1.00  0.00     0.000 C 
HETATM   34  C20 UNL     1      92.774 115.729 128.250  1.00  0.00     0.005 C 
ENDBRANCH  26  29
ENDBRANCH   1  26
TORSDOF 8
ENDMDL
MODEL 4
REMARK VINA RESULT: -8.770017467      2.182      3.193
REMARK  8 active torsions:
REMARK  status: ('A' for Active; 'I' for Inactive)
REMARK    1  A    between atoms: C2_2  and  C3_3 
REMARK    2  A    between atoms: C3_3  and  C4_4 
REMARK    3  A    between atoms: C3_3  and  C15_29 
REMARK    4  A    between atoms: C6_8  and  C7_9 
REMARK    5  A    between atoms: C7_9  and  O1_10 
REMARK    6  A    between atoms: C8_14  and  N2_15 
REMARK    7  A    between atoms: N2_15  and  C9_17 
REMARK    8  A    between atoms: C12_20  and  N3_21 
ROOT
HETATM    1  C4  UNL     1      90.387 116.212 131.425  1.00  0.00     0.087 A 
HETATM    2  N1  UNL     1      90.843 116.217 130.163  1.00  0.00    -0.354 N 
ATOM      3  H1  UNL     1      91.163 115.332 129.771  1.00  0.00     0.166 HD
HETATM    4  C5  UNL     1      90.907 117.302 129.382  1.00  0.00     0.109 A 
HETATM    5  C6  UNL     1      90.485 118.521 129.870  1.00  0.00     0.102 A 
HETATM    6  C8  UNL     1      90.014 118.546 131.161  1.00  0.00     0.119 A 
HETATM    7  N4  UNL     1      89.976 117.405 131.899  1.00  0.00    -0.331 N 
ATOM      8  H4  UNL     1      89.621 117.453 132.854  1.00  0.00     0.168 HD
ENDROOT
BRANCH   6   9
HETATM    9  N2  UNL     1      89.620 119.664 131.627  1.00  0.00    -0.371 N 
ATOM     10  H2  UNL     1      90.250 120.457 131.504  1.00  0.00     0.161 HD
BRANCH   9  11
HETATM   11  C9  UNL     1      88.388 119.924 132.305  1.00  0.00     0.083 C 
HETATM   12  C10 UNL     1      88.462 119.522 133.763  1.00  0.00     0.027 C 
HETATM   13  C11 UNL     1      87.609 120.413 134.612  1.00  0.00     0.035 C 
HETATM   14  C12 UNL     1      88.185 121.818 134.640  1.00  0.00     0.183 C 
HETATM   15  C13 UNL     1      88.676 122.203 133.262  1.00  0.00     0.035 C 
HETATM   16  C14 UNL     1      87.954 121.363 132.214  1.00  0.00     0.027 C 
BRANCH  14  17
HETATM   17  N3  UNL     1      89.335 121.822 135.523  1.00  0.00    -0.075 N 
ATOM     18  H33 UNL     1      89.707 120.887 135.687  1.00  0.00     0.274 HD
ATOM     19  H32 UNL     1      90.163 122.227 135.087  1.00  0.00     0.274 HD
ATOM     20  H31 UNL     1      89.074 122.298 136.387  1.00  0.00     0.274 HD
ENDBRANCH  14  17
ENDBRANCH   9  11
ENDBRANCH   6   9
BRANCH   5  21
HETATM   21  C7  UNL     1      90.550 119.738 129.015  1.00  0.00     0.387 C 
HETATM   22  F1  UNL     1      89.360 120.442 129.020  1.00  0.00    -0.170 F 
HETATM   23  F2  UNL     1      90.806 119.412 127.694  1.00  0.00    -0.170 F 
BRANCH  21  24
HETATM   24  O1  UNL     1      91.551 120.604 129.433  1.00  0.00    -0.332 OA
ATOM     25  H1  UNL     1      91.817 121.194 128.737  1.00  0.00     0.216 HD
ENDBRANCH  21  24
ENDBRANCH   5  21
BRANCH   1  26
HETATM   26  C3  UNL     1      90.303 115.042 132.290  1.00  0.00     0.057 C 
BRANCH  26  27
HETATM   27  C2  UNL     1      90.059 113.810 131.478  1.00  0.00     0.008 C 
HETATM   28  C1  UNL     1      90.535 112.516 132.059  1.00  0.00     0.006 C 
ENDBRANCH  26  27
BRANCH  26  29
HETATM   29  C15 UNL     1      91.310 114.868 133.347  1.00  0.00    -0.003 C 
HETATM   30  C16 UNL     1      90.875 115.411 134.698  1.00  0.00     0.005 C 
HETATM   31  C17 UNL     1      91.527 114.493 135.739  1.00  0.00     0.000 C 
HETATM   32  C18 UNL     1      92.925 114.111 135.292  1.00  0.00     0.000 C 
HETATM   33  C19 UNL     1      93.514 115.145 134.361  1.00  0.00     0.000 C 
HETATM   34  C20 UNL     1      92.687 115.373 133.114  1.00  0.00     0.005 C 
ENDBRANCH  26  29
ENDBRANCH   1  26
TORSDOF 8
ENDMDL
MODEL 5
REMARK VINA RESULT: -8.755769420      4.054      7.044
REMARK  8 active torsions:
REMARK  status: ('A' for Active; 'I' for Inactive)
REMARK    1  A    between atoms: C2_2  and  C3_3 
REMARK    2  A    between atoms: C3_3  and  C4_4 
REMARK    3  A    between atoms: C3_3  and  C15_29 
REMARK    4  A    between atoms: C6_8  and  C7_9 
REMARK    5  A    between atoms: C7_9  and  O1_10 
REMARK    6  A    between atoms: C8_14  and  N2_15 
REMARK    7  A    between atoms: N2_15  and  C9_17 
REMARK    8  A    between atoms: C12_20  and  N3_21 
ROOT
HETATM    1  C4  UNL     1      89.052 119.139 132.564  1.00  0.00     0.087 A 
HETATM    2  N1  UNL     1      89.532 118.818 131.352  1.00  0.00    -0.354 N 
ATOM      3  H1  UNL     1      89.506 119.536 130.627  1.00  0.00     0.166 HD
HETATM    4  C5  UNL     1      90.042 117.624 131.028  1.00  0.00     0.109 A 
HETATM    5  C6  UNL     1      90.096 116.625 131.975  1.00  0.00     0.102 A 
HETATM    6  C8  UNL     1      89.610 116.924 133.227  1.00  0.00     0.119 A 
HETATM    7  N4  UNL     1      89.106 118.159 133.487  1.00  0.00    -0.331 N 
ATOM      8  H4  UNL     1      88.753 118.354 134.425  1.00  0.00     0.168 HD
ENDROOT
BRANCH   6   9
HETATM    9  N2  UNL     1      89.654 116.012 134.113  1.00  0.00    -0.371 N 
ATOM     10  H2  UNL     1      89.095 115.177 133.937  1.00  0.00     0.161 HD
BRANCH   9  11
HETATM   11  C9  UNL     1      90.404 116.034 135.331  1.00  0.00     0.083 C 
HETATM   12  C10 UNL     1      89.572 115.560 136.504  1.00  0.00     0.027 C 
HETATM   13  C11 UNL     1      90.422 114.861 137.520  1.00  0.00     0.035 C 
HETATM   14  C12 UNL     1      90.948 113.553 136.953  1.00  0.00     0.183 C 
HETATM   15  C13 UNL     1      91.363 113.745 135.511  1.00  0.00     0.035 C 
HETATM   16  C14 UNL     1      91.669 115.219 135.264  1.00  0.00     0.027 C 
BRANCH  14  17
HETATM   17  N3  UNL     1      89.870 112.584 136.964  1.00  0.00    -0.075 N 
ATOM     18  H33 UNL     1      90.091 111.758 137.521  1.00  0.00     0.274 HD
ATOM     19  H32 UNL     1      89.064 112.902 137.501  1.00  0.00     0.274 HD
ATOM     20  H31 UNL     1      89.634 112.355 135.999  1.00  0.00     0.274 HD
ENDBRANCH  14  17
ENDBRANCH   9  11
ENDBRANCH   6   9
BRANCH   5  21
HETATM   21  C7  UNL     1      90.659 115.290 131.632  1.00  0.00     0.387 C 
HETATM   22  F1  UNL     1      91.911 115.095 132.186  1.00  0.00    -0.170 F 
HETATM   23  F2  UNL     1      90.811 115.146 130.263  1.00  0.00    -0.170 F 
BRANCH  21  24
HETATM   24  O1  UNL     1      89.841 114.260 132.071  1.00  0.00    -0.332 OA
ATOM     25  H1  UNL     1      88.925 114.512 132.063  1.00  0.00     0.216 HD
ENDBRANCH  21  24
ENDBRANCH   5  21
BRANCH   1  26
HETATM   26  C3  UNL     1      88.499 120.434 132.940  1.00  0.00     0.057 C 
BRANCH  26  27
HETATM   27  C2  UNL     1      87.379 120.808 132.023  1.00  0.00     0.008 C 
HETATM   28  C1  UNL     1      87.731 121.653 130.840  1.00  0.00     0.006 C 
ENDBRANCH  26  27
BRANCH  26  29
HETATM   29  C15 UNL     1      88.221 120.701 134.359  1.00  0.00    -0.003 C 
HETATM   30  C16 UNL     1      86.855 121.319 134.606  1.00  0.00     0.005 C 
HETATM   31  C17 UNL     1      86.402 120.784 135.970  1.00  0.00     0.000 C 
HETATM   32  C18 UNL     1      87.583 120.717 136.919  1.00  0.00     0.000 C 
HETATM   33  C19 UNL     1      88.660 121.706 136.541  1.00  0.00     0.000 C 
HETATM   34  C20 UNL     1      89.194 121.507 135.139  1.00  0.00     0.005 C 
ENDBRANCH  26  29
ENDBRANCH   1  26
TORSDOF 8
ENDMDL
