MODEL 1
REMARK VINA RESULT: -8.151121577      0.000      0.000
REMARK  6 active torsions:
REMARK  status: ('A' for Active; 'I' for Inactive)
REMARK    1  A    between atoms: C3_6  and  C4_7 
REMARK    2  A    between atoms: N2_21  and  C15_22 
REMARK    3  A    between atoms: C15_22  and  C16_23 
REMARK    4  A    between atoms: C16_23  and  O1_24 
REMARK    5  A    between atoms: C16_23  and  C17_26 
REMARK    6  A    between atoms: C17_26  and  O2_27 
ROOT
HETATM    1  N1  UNL     1      93.002 117.044 128.106  1.00  0.00    -0.385 N 
ATOM      2  H11 UNL     1      93.341 117.977 127.875  1.00  0.00     0.157 HD
ATOM      3  H12 UNL     1      93.489 116.392 127.490  1.00  0.00     0.157 HD
HETATM    4  C1  UNL     1      92.102 116.759 129.003  1.00  0.00     0.104 C 
HETATM    5  C2  UNL     1      91.616 115.421 129.333  1.00  0.00    -0.008 C 
HETATM    6  C3  UNL     1      91.455 114.363 128.609  1.00  0.00     0.024 C 
HETATM    7  C10 UNL     1      91.297 115.602 130.767  1.00  0.00     0.045 C 
HETATM    8  C11 UNL     1      90.272 114.749 131.351  1.00  0.00     0.011 C 
HETATM    9  C12 UNL     1      89.422 115.710 132.179  1.00  0.00     0.003 C 
HETATM   10  C13 UNL     1      90.118 117.086 131.974  1.00  0.00     0.026 C 
HETATM   11  C14 UNL     1      90.480 116.907 130.565  1.00  0.00     0.094 C 
HETATM   12  N2  UNL     1      91.405 117.691 129.883  1.00  0.00    -0.359 N 
ENDROOT
BRANCH   6  13
HETATM   13  C4  UNL     1      91.703 114.157 127.206  1.00  0.00    -0.011 A 
HETATM   14  C5  UNL     1      91.246 115.075 126.254  1.00  0.00     0.037 A 
HETATM   15  C6  UNL     1      91.514 114.914 124.913  1.00  0.00     0.036 A 
HETATM   16 CL1  UNL     1      90.908 116.105 123.789  1.00  0.00    -0.084 Cl
HETATM   17  C7  UNL     1      92.246 113.836 124.451  1.00  0.00     0.049 A 
HETATM   18  C8  UNL     1      92.703 112.929 125.356  1.00  0.00     0.058 A 
HETATM   19 CL2  UNL     1      93.635 111.562 124.767  1.00  0.00    -0.082 Cl
HETATM   20  C9  UNL     1      92.431 113.095 126.713  1.00  0.00     0.066 A 
HETATM   21 CL3  UNL     1      93.133 111.888 127.769  1.00  0.00    -0.082 Cl
ENDBRANCH   6  13
BRANCH  12  22
HETATM   22  C15 UNL     1      91.773 119.087 129.847  1.00  0.00     0.158 C 
BRANCH  22  23
HETATM   23  C16 UNL     1      91.086 119.952 128.870  1.00  0.00     0.159 C 
BRANCH  23  24
HETATM   24  O1  UNL     1      91.200 119.660 127.548  1.00  0.00    -0.392 OA
ATOM     25  H1  UNL     1      91.363 118.760 127.292  1.00  0.00     0.210 HD
ENDBRANCH  23  24
BRANCH  23  26
HETATM   26  C17 UNL     1      89.598 119.965 129.192  1.00  0.00     0.197 C 
BRANCH  26  27
HETATM   27  O2  UNL     1      89.004 121.005 128.502  1.00  0.00    -0.398 OA
ATOM     28  H2  UNL     1      89.375 121.043 127.627  1.00  0.00     0.209 HD
ENDBRANCH  26  27
ENDBRANCH  23  26
ENDBRANCH  22  23
ENDBRANCH  12  22
TORSDOF 6
ENDMDL
MODEL 2
REMARK VINA RESULT: -8.073859699      3.434      5.565
REMARK  6 active torsions:
REMARK  status: ('A' for Active; 'I' for Inactive)
REMARK    1  A    between atoms: C3_6  and  C4_7 
REMARK    2  A    between atoms: N2_21  and  C15_22 
REMARK    3  A    between atoms: C15_22  and  C16_23 
REMARK    4  A    between atoms: C16_23  and  O1_24 
REMARK    5  A    between atoms: C16_23  and  C17_26 
REMARK    6  A    between atoms: C17_26  and  O2_27 
ROOT
HETATM    1  N1  UNL     1      89.622 117.186 131.841  1.00  0.00    -0.385 N 
ATOM      2  H11 UNL     1      89.053 117.779 132.445  1.00  0.00     0.157 HD
ATOM      3  H12 UNL     1      89.599 116.248 132.242  1.00  0.00     0.157 HD
HETATM    4  C1  UNL     1      90.264 117.574 130.777  1.00  0.00     0.104 C 
HETATM    5  C2  UNL     1      91.079 116.724 129.911  1.00  0.00    -0.008 C 
HETATM    6  C3  UNL     1      91.808 115.688 130.166  1.00  0.00     0.024 C 
HETATM    7  C10 UNL     1      90.885 117.406 128.612  1.00  0.00     0.045 C 
HETATM    8  C11 UNL     1      91.931 117.274 127.609  1.00  0.00     0.011 C 
HETATM    9  C12 UNL     1      92.105 118.693 127.071  1.00  0.00     0.003 C 
HETATM   10  C13 UNL     1      91.054 119.519 127.867  1.00  0.00     0.026 C 
HETATM   11  C14 UNL     1      91.203 118.827 129.151  1.00  0.00     0.094 C 
HETATM   12  N2  UNL     1      90.297 118.915 130.204  1.00  0.00    -0.359 N 
ENDROOT
BRANCH   6  13
HETATM   13  C4  UNL     1      92.065 115.024 131.417  1.00  0.00    -0.011 A 
HETATM   14  C5  UNL     1      92.984 115.548 132.333  1.00  0.00     0.037 A 
HETATM   15  C6  UNL     1      93.207 114.948 133.552  1.00  0.00     0.036 A 
HETATM   16 CL1  UNL     1      94.370 115.667 134.639  1.00  0.00    -0.084 Cl
HETATM   17  C7  UNL     1      92.533 113.799 133.921  1.00  0.00     0.049 A 
HETATM   18  C8  UNL     1      91.634 113.268 133.049  1.00  0.00     0.058 A 
HETATM   19 CL2  UNL     1      90.777 111.810 133.521  1.00  0.00    -0.082 Cl
HETATM   20  C9  UNL     1      91.409 113.879 131.816  1.00  0.00     0.066 A 
HETATM   21 CL3  UNL     1      90.182 113.125 130.822  1.00  0.00    -0.082 Cl
ENDBRANCH   6  13
BRANCH  12  22
HETATM   22  C15 UNL     1      89.483 119.947 130.803  1.00  0.00     0.158 C 
BRANCH  22  23
HETATM   23  C16 UNL     1      88.466 120.595 129.954  1.00  0.00     0.159 C 
BRANCH  23  24
HETATM   24  O1  UNL     1      87.734 119.824 129.108  1.00  0.00    -0.392 OA
ATOM     25  H1  UNL     1      87.276 119.070 129.459  1.00  0.00     0.210 HD
ENDBRANCH  23  24
BRANCH  23  26
HETATM   26  C17 UNL     1      87.476 121.325 130.851  1.00  0.00     0.197 C 
BRANCH  26  27
HETATM   27  O2  UNL     1      86.264 121.418 130.192  1.00  0.00    -0.398 OA
ATOM     28  H2  UNL     1      85.654 120.807 130.589  1.00  0.00     0.209 HD
ENDBRANCH  26  27
ENDBRANCH  23  26
ENDBRANCH  22  23
ENDBRANCH  12  22
TORSDOF 6
ENDMDL
MODEL 3
REMARK VINA RESULT: -7.995634365      3.515      6.178
REMARK  6 active torsions:
REMARK  status: ('A' for Active; 'I' for Inactive)
REMARK    1  A    between atoms: C3_6  and  C4_7 
REMARK    2  A    between atoms: N2_21  and  C15_22 
REMARK    3  A    between atoms: C15_22  and  C16_23 
REMARK    4  A    between atoms: C16_23  and  O1_24 
REMARK    5  A    between atoms: C16_23  and  C17_26 
REMARK    6  A    between atoms: C17_26  and  O2_27 
ROOT
HETATM    1  N1  UNL     1      90.650 116.171 126.651  1.00  0.00    -0.385 N 
ATOM      2  H11 UNL     1      90.546 116.559 125.714  1.00  0.00     0.157 HD
ATOM      3  H12 UNL     1      90.091 116.754 127.275  1.00  0.00     0.157 HD
HETATM    4  C1  UNL     1      91.376 115.139 126.975  1.00  0.00     0.104 C 
HETATM    5  C2  UNL     1      91.523 114.584 128.319  1.00  0.00    -0.008 C 
HETATM    6  C3  UNL     1      91.516 115.142 129.484  1.00  0.00     0.024 C 
HETATM    7  C10 UNL     1      91.738 113.156 127.992  1.00  0.00     0.045 C 
HETATM    8  C11 UNL     1      92.490 112.346 128.938  1.00  0.00     0.011 C 
HETATM    9  C12 UNL     1      93.449 111.547 128.057  1.00  0.00     0.003 C 
HETATM   10  C13 UNL     1      93.094 112.010 126.615  1.00  0.00     0.026 C 
HETATM   11  C14 UNL     1      92.836 113.419 126.927  1.00  0.00     0.094 C 
HETATM   12  N2  UNL     1      92.174 114.306 126.083  1.00  0.00    -0.359 N 
ENDROOT
BRANCH   6  13
HETATM   13  C4  UNL     1      91.362 116.527 129.844  1.00  0.00    -0.011 A 
HETATM   14  C5  UNL     1      92.006 117.534 129.116  1.00  0.00     0.037 A 
HETATM   15  C6  UNL     1      91.833 118.865 129.421  1.00  0.00     0.036 A 
HETATM   16 CL1  UNL     1      92.673 120.061 128.464  1.00  0.00    -0.084 Cl
HETATM   17  C7  UNL     1      91.016 119.263 130.463  1.00  0.00     0.049 A 
HETATM   18  C8  UNL     1      90.377 118.305 131.186  1.00  0.00     0.058 A 
HETATM   19 CL2  UNL     1      89.338 118.812 132.507  1.00  0.00    -0.082 Cl
HETATM   20  C9  UNL     1      90.554 116.957 130.874  1.00  0.00     0.066 A 
HETATM   21 CL3  UNL     1      89.624 115.837 131.846  1.00  0.00    -0.082 Cl
ENDBRANCH   6  13
BRANCH  12  22
HETATM   22  C15 UNL     1      92.127 114.564 124.662  1.00  0.00     0.158 C 
BRANCH  22  23
HETATM   23  C16 UNL     1      93.233 115.338 124.070  1.00  0.00     0.159 C 
BRANCH  23  24
HETATM   24  O1  UNL     1      93.763 114.920 122.891  1.00  0.00    -0.392 OA
ATOM     25  H1  UNL     1      94.355 114.177 122.895  1.00  0.00     0.210 HD
ENDBRANCH  23  24
BRANCH  23  26
HETATM   26  C17 UNL     1      92.767 116.772 123.859  1.00  0.00     0.197 C 
BRANCH  26  27
HETATM   27  O2  UNL     1      91.430 116.756 123.504  1.00  0.00    -0.398 OA
ATOM     28  H2  UNL     1      91.230 117.558 123.035  1.00  0.00     0.209 HD
ENDBRANCH  26  27
ENDBRANCH  23  26
ENDBRANCH  22  23
ENDBRANCH  12  22
TORSDOF 6
ENDMDL
MODEL 4
REMARK VINA RESULT: -7.978805385      1.448      2.537
REMARK  6 active torsions:
REMARK  status: ('A' for Active; 'I' for Inactive)
REMARK    1  A    between atoms: C3_6  and  C4_7 
REMARK    2  A    between atoms: N2_21  and  C15_22 
REMARK    3  A    between atoms: C15_22  and  C16_23 
REMARK    4  A    between atoms: C16_23  and  O1_24 
REMARK    5  A    between atoms: C16_23  and  C17_26 
REMARK    6  A    between atoms: C17_26  and  O2_27 
ROOT
HETATM    1  N1  UNL     1      93.538 116.194 128.179  1.00  0.00    -0.385 N 
ATOM      2  H11 UNL     1      94.010 117.097 128.153  1.00  0.00     0.157 HD
ATOM      3  H12 UNL     1      93.972 115.613 127.462  1.00  0.00     0.157 HD
HETATM    4  C1  UNL     1      92.555 115.869 128.970  1.00  0.00     0.104 C 
HETATM    5  C2  UNL     1      91.878 114.575 129.007  1.00  0.00    -0.008 C 
HETATM    6  C3  UNL     1      91.624 113.712 128.080  1.00  0.00     0.024 C 
HETATM    7  C10 UNL     1      91.498 114.516 130.437  1.00  0.00     0.045 C 
HETATM    8  C11 UNL     1      90.337 113.718 130.801  1.00  0.00     0.011 C 
HETATM    9  C12 UNL     1      89.571 114.610 131.777  1.00  0.00     0.003 C 
HETATM   10  C13 UNL     1      90.453 115.887 131.877  1.00  0.00     0.026 C 
HETATM   11  C14 UNL     1      90.873 115.937 130.474  1.00  0.00     0.094 C 
HETATM   12  N2  UNL     1      91.934 116.701 129.995  1.00  0.00    -0.359 N 
ENDROOT
BRANCH   6  13
HETATM   13  C4  UNL     1      91.929 113.751 126.673  1.00  0.00    -0.011 A 
HETATM   14  C5  UNL     1      92.712 112.754 126.080  1.00  0.00     0.037 A 
HETATM   15  C6  UNL     1      92.974 112.755 124.728  1.00  0.00     0.036 A 
HETATM   16 CL1  UNL     1      93.961 111.475 124.065  1.00  0.00    -0.084 Cl
HETATM   17  C7  UNL     1      92.474 113.743 123.900  1.00  0.00     0.049 A 
HETATM   18  C8  UNL     1      91.709 114.723 124.450  1.00  0.00     0.058 A 
HETATM   19 CL2  UNL     1      91.073 115.974 123.397  1.00  0.00    -0.082 Cl
HETATM   20  C9  UNL     1      91.444 114.719 125.820  1.00  0.00     0.066 A 
HETATM   21 CL3  UNL     1      90.396 116.003 126.382  1.00  0.00    -0.082 Cl
ENDBRANCH   6  13
BRANCH  12  22
HETATM   22  C15 UNL     1      92.483 118.011 130.254  1.00  0.00     0.158 C 
BRANCH  22  23
HETATM   23  C16 UNL     1      91.683 119.182 129.849  1.00  0.00     0.159 C 
BRANCH  23  24
HETATM   24  O1  UNL     1      91.851 120.351 130.522  1.00  0.00    -0.392 OA
ATOM     25  H1  UNL     1      91.755 120.351 131.466  1.00  0.00     0.210 HD
ENDBRANCH  23  24
BRANCH  23  26
HETATM   26  C17 UNL     1      91.957 119.475 128.381  1.00  0.00     0.197 C 
BRANCH  26  27
HETATM   27  O2  UNL     1      92.604 120.693 128.285  1.00  0.00    -0.398 OA
ATOM     28  H2  UNL     1      91.952 121.384 128.263  1.00  0.00     0.209 HD
ENDBRANCH  26  27
ENDBRANCH  23  26
ENDBRANCH  22  23
ENDBRANCH  12  22
TORSDOF 6
ENDMDL
MODEL 5
REMARK VINA RESULT: -7.956509303      3.817      5.705
REMARK  6 active torsions:
REMARK  status: ('A' for Active; 'I' for Inactive)
REMARK    1  A    between atoms: C3_6  and  C4_7 
REMARK    2  A    between atoms: N2_21  and  C15_22 
REMARK    3  A    between atoms: C15_22  and  C16_23 
REMARK    4  A    between atoms: C16_23  and  O1_24 
REMARK    5  A    between atoms: C16_23  and  C17_26 
REMARK    6  A    between atoms: C17_26  and  O2_27 
ROOT
HETATM    1  N1  UNL     1      89.632 117.211 131.853  1.00  0.00    -0.385 N 
ATOM      2  H11 UNL     1      89.063 117.811 132.449  1.00  0.00     0.157 HD
ATOM      3  H12 UNL     1      89.607 116.277 132.263  1.00  0.00     0.157 HD
HETATM    4  C1  UNL     1      90.278 117.586 130.786  1.00  0.00     0.104 C 
HETATM    5  C2  UNL     1      91.093 116.726 129.932  1.00  0.00    -0.008 C 
HETATM    6  C3  UNL     1      91.820 115.692 130.199  1.00  0.00     0.024 C 
HETATM    7  C10 UNL     1      90.903 117.394 128.625  1.00  0.00     0.045 C 
HETATM    8  C11 UNL     1      91.952 117.250 127.626  1.00  0.00     0.011 C 
HETATM    9  C12 UNL     1      92.129 118.664 127.074  1.00  0.00     0.003 C 
HETATM   10  C13 UNL     1      91.078 119.499 127.859  1.00  0.00     0.026 C 
HETATM   11  C14 UNL     1      91.222 118.821 129.149  1.00  0.00     0.094 C 
HETATM   12  N2  UNL     1      90.314 118.921 130.200  1.00  0.00    -0.359 N 
ENDROOT
BRANCH   6  13
HETATM   13  C4  UNL     1      92.074 115.040 131.457  1.00  0.00    -0.011 A 
HETATM   14  C5  UNL     1      91.406 113.860 131.803  1.00  0.00     0.037 A 
HETATM   15  C6  UNL     1      91.671 113.203 132.983  1.00  0.00     0.036 A 
HETATM   16 CL1  UNL     1      90.794 111.735 133.340  1.00  0.00    -0.084 Cl
HETATM   17  C7  UNL     1      92.608 113.684 133.878  1.00  0.00     0.049 A 
HETATM   18  C8  UNL     1      93.273 114.829 133.567  1.00  0.00     0.058 A 
HETATM   19 CL2  UNL     1      94.464 115.436 134.704  1.00  0.00    -0.082 Cl
HETATM   20  C9  UNL     1      93.003 115.492 132.370  1.00  0.00     0.066 A 
HETATM   21 CL3  UNL     1      93.974 116.916 132.070  1.00  0.00    -0.082 Cl
ENDBRANCH   6  13
BRANCH  12  22
HETATM   22  C15 UNL     1      89.499 119.960 130.785  1.00  0.00     0.158 C 
BRANCH  22  23
HETATM   23  C16 UNL     1      88.480 120.596 129.930  1.00  0.00     0.159 C 
BRANCH  23  24
HETATM   24  O1  UNL     1      87.748 119.812 129.095  1.00  0.00    -0.392 OA
ATOM     25  H1  UNL     1      87.884 119.892 128.159  1.00  0.00     0.210 HD
ENDBRANCH  23  24
BRANCH  23  26
HETATM   26  C17 UNL     1      87.492 121.338 130.818  1.00  0.00     0.197 C 
BRANCH  26  27
HETATM   27  O2  UNL     1      86.276 121.411 130.164  1.00  0.00    -0.398 OA
ATOM     28  H2  UNL     1      86.429 121.362 129.227  1.00  0.00     0.209 HD
ENDBRANCH  26  27
ENDBRANCH  23  26
ENDBRANCH  22  23
ENDBRANCH  12  22
TORSDOF 6
ENDMDL
