MODEL 1
REMARK VINA RESULT: -9.119017864      0.000      0.000
REMARK  7 active torsions:
REMARK  status: ('A' for Active; 'I' for Inactive)
REMARK    1  A    between atoms: C2_2  and  O1_3 
REMARK    2  A    between atoms: C2_2  and  C3_6 
REMARK    3  A    between atoms: C4_8  and  C5_9 
REMARK    4  A    between atoms: C5_9  and  C6_10 
REMARK    5  A    between atoms: C6_10  and  O2_11 
REMARK    6  A    between atoms: C9_15  and  C10_16 
REMARK    7  A    between atoms: N1_19  and  O3_21 
ROOT
HETATM    1  C6  UNL     1      90.623 118.706 131.000  1.00  0.00     0.078 C 
HETATM    2  C7  UNL     1      91.807 117.846 131.311  1.00  0.00     0.040 C 
HETATM    3  C8  UNL     1      92.707 118.120 130.120  1.00  0.00     0.010 C 
HETATM    4  C9  UNL     1      91.767 118.497 128.980  1.00  0.00     0.016 C 
HETATM    5  C19 UNL     1      90.373 118.319 129.532  1.00  0.00     0.121 C 
HETATM    6 CL1  UNL     1      89.241 119.478 128.799  1.00  0.00    -0.121 Cl
ENDROOT
BRANCH   4   7
HETATM    7  C10 UNL     1      92.040 117.656 127.754  1.00  0.00    -0.026 C 
HETATM    8  C11 UNL     1      91.957 118.376 126.448  1.00  0.00     0.065 C 
HETATM    9  C12 UNL     1      92.220 117.424 125.340  1.00  0.00     0.015 C 
HETATM   10  N1  UNL     1      92.909 117.786 124.315  1.00  0.00    -0.277 N 
HETATM   11  C13 UNL     1      91.659 116.051 125.465  1.00  0.00     0.034 C 
ATOM     12  H1  UNL     1      93.283 118.732 124.248  1.00  0.00     0.193 HD
HETATM   13  C14 UNL     1      92.656 115.141 126.163  1.00  0.00     0.015 C 
HETATM   14  C18 UNL     1      90.546 116.127 126.503  1.00  0.00     0.016 C 
HETATM   15  C15 UNL     1      92.619 115.579 127.600  1.00  0.00    -0.008 C 
HETATM   16  C16 UNL     1      93.335 116.890 127.883  1.00  0.00     0.015 C 
HETATM   17  C17 UNL     1      91.325 116.321 127.766  1.00  0.00    -0.001 C 
BRANCH  10  18
HETATM   18  O3  UNL     1      93.129 116.871 123.310  1.00  0.00    -0.290 OA
ATOM     19  H3  UNL     1      92.473 116.773 122.630  1.00  0.00     0.244 HD
ENDBRANCH  10  18
ENDBRANCH   4   7
BRANCH   1  20
HETATM   20  C5  UNL     1      89.420 118.392 131.847  1.00  0.00     0.069 C 
BRANCH  20  21
HETATM   21  C4  UNL     1      88.958 119.712 132.418  1.00  0.00     0.020 C 
HETATM   22  C3  UNL     1      88.544 119.795 133.664  1.00  0.00     0.156 C 
HETATM   23  F2  UNL     1      88.535 118.690 134.432  1.00  0.00    -0.205 F 
BRANCH  22  24
HETATM   24  C2  UNL     1      88.093 121.082 134.224  1.00  0.00     0.253 C 
HETATM   25  C1  UNL     1      88.591 121.272 135.640  1.00  0.00     0.093 C 
HETATM   26  F1  UNL     1      86.709 121.108 134.234  1.00  0.00    -0.204 F 
BRANCH  24  27
HETATM   27  O1  UNL     1      88.558 122.125 133.415  1.00  0.00    -0.357 OA
ATOM     28  H1  UNL     1      88.566 121.848 132.507  1.00  0.00     0.213 HD
ENDBRANCH  24  27
ENDBRANCH  22  24
ENDBRANCH  20  21
ENDBRANCH   1  20
BRANCH   1  29
HETATM   29  O2  UNL     1      90.909 120.067 130.986  1.00  0.00    -0.388 OA
ATOM     30  H2  UNL     1      91.282 120.343 130.157  1.00  0.00     0.210 HD
ENDBRANCH   1  29
TORSDOF 7
ENDMDL
MODEL 2
REMARK VINA RESULT: -9.019745652      4.513      7.194
REMARK  7 active torsions:
REMARK  status: ('A' for Active; 'I' for Inactive)
REMARK    1  A    between atoms: C2_2  and  O1_3 
REMARK    2  A    between atoms: C2_2  and  C3_6 
REMARK    3  A    between atoms: C4_8  and  C5_9 
REMARK    4  A    between atoms: C5_9  and  C6_10 
REMARK    5  A    between atoms: C6_10  and  O2_11 
REMARK    6  A    between atoms: C9_15  and  C10_16 
REMARK    7  A    between atoms: N1_19  and  O3_21 
ROOT
HETATM    1  C6  UNL     1      91.082 119.231 129.746  1.00  0.00     0.078 C 
HETATM    2  C7  UNL     1      89.684 119.092 130.260  1.00  0.00     0.040 C 
HETATM    3  C8  UNL     1      89.918 118.458 131.619  1.00  0.00     0.010 C 
HETATM    4  C9  UNL     1      91.228 117.689 131.488  1.00  0.00     0.016 C 
HETATM    5  C19 UNL     1      91.630 117.823 130.039  1.00  0.00     0.121 C 
HETATM    6 CL1  UNL     1      93.400 117.829 129.863  1.00  0.00    -0.121 Cl
ENDROOT
BRANCH   4   7
HETATM    7  C10 UNL     1      91.059 116.254 131.934  1.00  0.00    -0.026 C 
HETATM    8  C11 UNL     1      91.668 115.915 133.255  1.00  0.00     0.065 C 
HETATM    9  C12 UNL     1      91.448 114.476 133.547  1.00  0.00     0.015 C 
HETATM   10  N1  UNL     1      91.172 114.086 134.742  1.00  0.00    -0.277 N 
HETATM   11  C13 UNL     1      91.559 113.520 132.413  1.00  0.00     0.034 C 
ATOM     12  H1  UNL     1      91.101 114.758 135.506  1.00  0.00     0.193 HD
HETATM   13  C14 UNL     1      90.207 113.343 131.743  1.00  0.00     0.015 C 
HETATM   14  C18 UNL     1      92.346 114.230 131.318  1.00  0.00     0.016 C 
HETATM   15  C15 UNL     1      89.993 114.627 130.992  1.00  0.00    -0.008 C 
HETATM   16  C16 UNL     1      89.616 115.817 131.861  1.00  0.00     0.015 C 
HETATM   17  C17 UNL     1      91.353 115.244 130.845  1.00  0.00    -0.001 C 
BRANCH  10  18
HETATM   18  O3  UNL     1      90.975 112.742 134.969  1.00  0.00    -0.290 OA
ATOM     19  H3  UNL     1      91.557 112.291 135.568  1.00  0.00     0.244 HD
ENDBRANCH  10  18
ENDBRANCH   4   7
BRANCH   1  20
HETATM   20  C5  UNL     1      91.147 119.534 128.274  1.00  0.00     0.069 C 
BRANCH  20  21
HETATM   21  C4  UNL     1      91.118 118.196 127.573  1.00  0.00     0.020 C 
HETATM   22  C3  UNL     1      91.839 117.990 126.493  1.00  0.00     0.156 C 
HETATM   23  F2  UNL     1      92.609 118.984 126.013  1.00  0.00    -0.205 F 
BRANCH  22  24
HETATM   24  C2  UNL     1      91.812 116.685 125.807  1.00  0.00     0.253 C 
HETATM   25  C1  UNL     1      90.807 115.749 126.441  1.00  0.00     0.093 C 
HETATM   26  F1  UNL     1      93.068 116.108 125.889  1.00  0.00    -0.204 F 
BRANCH  24  27
HETATM   27  O1  UNL     1      91.493 116.879 124.459  1.00  0.00    -0.357 OA
ATOM     28  H1  UNL     1      92.278 116.808 123.929  1.00  0.00     0.213 HD
ENDBRANCH  24  27
ENDBRANCH  22  24
ENDBRANCH  20  21
ENDBRANCH   1  20
BRANCH   1  29
HETATM   29  O2  UNL     1      91.868 120.102 130.493  1.00  0.00    -0.388 OA
ATOM     30  H2  UNL     1      92.208 119.690 131.279  1.00  0.00     0.210 HD
ENDBRANCH   1  29
TORSDOF 7
ENDMDL
MODEL 3
REMARK VINA RESULT: -8.905546179      2.087      2.796
REMARK  7 active torsions:
REMARK  status: ('A' for Active; 'I' for Inactive)
REMARK    1  A    between atoms: C2_2  and  O1_3 
REMARK    2  A    between atoms: C2_2  and  C3_6 
REMARK    3  A    between atoms: C4_8  and  C5_9 
REMARK    4  A    between atoms: C5_9  and  C6_10 
REMARK    5  A    between atoms: C6_10  and  O2_11 
REMARK    6  A    between atoms: C9_15  and  C10_16 
REMARK    7  A    between atoms: N1_19  and  O3_21 
ROOT
HETATM    1  C6  UNL     1      91.174 118.625 128.694  1.00  0.00     0.078 C 
HETATM    2  C7  UNL     1      90.880 117.296 129.314  1.00  0.00     0.040 C 
HETATM    3  C8  UNL     1      92.063 116.469 128.843  1.00  0.00     0.010 C 
HETATM    4  C9  UNL     1      92.506 117.107 127.530  1.00  0.00     0.016 C 
HETATM    5  C19 UNL     1      91.498 118.196 127.252  1.00  0.00     0.121 C 
HETATM    6 CL1  UNL     1      92.248 119.556 126.385  1.00  0.00    -0.121 Cl
ENDROOT
BRANCH   4   7
HETATM    7  C10 UNL     1      92.592 116.074 126.430  1.00  0.00    -0.026 C 
HETATM    8  C11 UNL     1      93.677 116.292 125.426  1.00  0.00     0.065 C 
HETATM    9  C12 UNL     1      93.624 115.222 124.398  1.00  0.00     0.015 C 
HETATM   10  N1  UNL     1      94.708 114.717 123.923  1.00  0.00    -0.277 N 
HETATM   11  C13 UNL     1      92.280 114.767 123.949  1.00  0.00     0.034 C 
ATOM     12  H1  UNL     1      95.619 115.044 124.244  1.00  0.00     0.193 HD
HETATM   13  C14 UNL     1      91.797 113.621 124.821  1.00  0.00     0.015 C 
HETATM   14  C18 UNL     1      91.297 115.867 124.329  1.00  0.00     0.016 C 
HETATM   15  C15 UNL     1      91.439 114.272 126.127  1.00  0.00    -0.008 C 
HETATM   16  C16 UNL     1      92.627 114.671 126.987  1.00  0.00     0.015 C 
HETATM   17  C17 UNL     1      91.251 115.728 125.818  1.00  0.00    -0.001 C 
BRANCH  10  18
HETATM   18  O3  UNL     1      94.613 113.726 122.971  1.00  0.00    -0.290 OA
ATOM     19  H3  UNL     1      95.205 112.986 123.023  1.00  0.00     0.244 HD
ENDBRANCH  10  18
ENDBRANCH   4   7
BRANCH   1  20
HETATM   20  C5  UNL     1      90.000 119.565 128.720  1.00  0.00     0.069 C 
BRANCH  20  21
HETATM   21  C4  UNL     1      89.631 119.728 130.176  1.00  0.00     0.020 C 
HETATM   22  C3  UNL     1      88.616 120.486 130.529  1.00  0.00     0.156 C 
HETATM   23  F2  UNL     1      87.903 121.120 129.580  1.00  0.00    -0.205 F 
BRANCH  22  24
HETATM   24  C2  UNL     1      88.253 120.646 131.949  1.00  0.00     0.253 C 
HETATM   25  C1  UNL     1      88.771 119.495 132.784  1.00  0.00     0.093 C 
HETATM   26  F1  UNL     1      86.874 120.687 132.059  1.00  0.00    -0.204 F 
BRANCH  24  27
HETATM   27  O1  UNL     1      88.780 121.851 132.427  1.00  0.00    -0.357 OA
ATOM     28  H1  UNL     1      88.106 122.520 132.422  1.00  0.00     0.213 HD
ENDBRANCH  24  27
ENDBRANCH  22  24
ENDBRANCH  20  21
ENDBRANCH   1  20
BRANCH   1  29
HETATM   29  O2  UNL     1      92.332 119.224 129.177  1.00  0.00    -0.388 OA
ATOM     30  H2  UNL     1      92.469 120.086 128.802  1.00  0.00     0.210 HD
ENDBRANCH   1  29
TORSDOF 7
ENDMDL
MODEL 4
REMARK VINA RESULT: -8.813112285      4.384      7.203
REMARK  7 active torsions:
REMARK  status: ('A' for Active; 'I' for Inactive)
REMARK    1  A    between atoms: C2_2  and  O1_3 
REMARK    2  A    between atoms: C2_2  and  C3_6 
REMARK    3  A    between atoms: C4_8  and  C5_9 
REMARK    4  A    between atoms: C5_9  and  C6_10 
REMARK    5  A    between atoms: C6_10  and  O2_11 
REMARK    6  A    between atoms: C9_15  and  C10_16 
REMARK    7  A    between atoms: N1_19  and  O3_21 
ROOT
HETATM    1  C6  UNL     1      91.624 119.377 128.355  1.00  0.00     0.078 C 
HETATM    2  C7  UNL     1      90.158 119.217 128.603  1.00  0.00     0.040 C 
HETATM    3  C8  UNL     1      90.136 118.821 130.068  1.00  0.00     0.010 C 
HETATM    4  C9  UNL     1      91.476 118.138 130.324  1.00  0.00     0.016 C 
HETATM    5  C19 UNL     1      92.159 118.076 128.979  1.00  0.00     0.121 C 
HETATM    6 CL1  UNL     1      93.925 118.185 129.152  1.00  0.00    -0.121 Cl
ENDROOT
BRANCH   4   7
HETATM    7  C10 UNL     1      91.278 116.782 130.961  1.00  0.00    -0.026 C 
HETATM    8  C11 UNL     1      90.845 115.693 130.036  1.00  0.00     0.065 C 
HETATM    9  C12 UNL     1      90.667 114.433 130.801  1.00  0.00     0.015 C 
HETATM   10  N1  UNL     1      91.023 113.304 130.297  1.00  0.00    -0.277 N 
HETATM   11  C13 UNL     1      90.066 114.534 132.159  1.00  0.00     0.034 C 
ATOM     12  H1  UNL     1      91.432 113.258 129.363  1.00  0.00     0.193 HD
HETATM   13  C14 UNL     1      91.155 114.730 133.200  1.00  0.00     0.015 C 
HETATM   14  C18 UNL     1      89.348 115.876 132.220  1.00  0.00     0.016 C 
HETATM   15  C15 UNL     1      91.610 116.148 133.001  1.00  0.00    -0.008 C 
HETATM   16  C16 UNL     1      92.481 116.371 131.775  1.00  0.00     0.015 C 
HETATM   17  C17 UNL     1      90.499 116.831 132.259  1.00  0.00    -0.001 C 
BRANCH  10  18
HETATM   18  O3  UNL     1      90.839 112.161 131.041  1.00  0.00    -0.290 OA
ATOM     19  H3  UNL     1      91.576 111.575 131.166  1.00  0.00     0.244 HD
ENDBRANCH  10  18
ENDBRANCH   4   7
BRANCH   1  20
HETATM   20  C5  UNL     1      91.976 119.452 126.894  1.00  0.00     0.069 C 
BRANCH  20  21
HETATM   21  C4  UNL     1      91.690 118.081 126.327  1.00  0.00     0.020 C 
HETATM   22  C3  UNL     1      92.289 117.671 125.230  1.00  0.00     0.156 C 
HETATM   23  F2  UNL     1      93.165 118.485 124.613  1.00  0.00    -0.205 F 
BRANCH  22  24
HETATM   24  C2  UNL     1      92.012 116.333 124.675  1.00  0.00     0.253 C 
HETATM   25  C1  UNL     1      91.231 115.482 125.652  1.00  0.00     0.093 C 
HETATM   26  F1  UNL     1      93.214 115.703 124.401  1.00  0.00    -0.204 F 
BRANCH  24  27
HETATM   27  O1  UNL     1      91.292 116.469 123.484  1.00  0.00    -0.357 OA
ATOM     28  H1  UNL     1      90.871 117.320 123.458  1.00  0.00     0.213 HD
ENDBRANCH  24  27
ENDBRANCH  22  24
ENDBRANCH  20  21
ENDBRANCH   1  20
BRANCH   1  29
HETATM   29  O2  UNL     1      92.205 120.409 129.084  1.00  0.00    -0.388 OA
ATOM     30  H2  UNL     1      92.809 120.920 128.558  1.00  0.00     0.210 HD
ENDBRANCH   1  29
TORSDOF 7
ENDMDL
MODEL 5
REMARK VINA RESULT: -8.804201027      1.952      2.392
REMARK  7 active torsions:
REMARK  status: ('A' for Active; 'I' for Inactive)
REMARK    1  A    between atoms: C2_2  and  O1_3 
REMARK    2  A    between atoms: C2_2  and  C3_6 
REMARK    3  A    between atoms: C4_8  and  C5_9 
REMARK    4  A    between atoms: C5_9  and  C6_10 
REMARK    5  A    between atoms: C6_10  and  O2_11 
REMARK    6  A    between atoms: C9_15  and  C10_16 
REMARK    7  A    between atoms: N1_19  and  O3_21 
ROOT
HETATM    1  C6  UNL     1      90.699 119.142 130.466  1.00  0.00     0.078 C 
HETATM    2  C7  UNL     1      90.775 118.077 131.513  1.00  0.00     0.040 C 
HETATM    3  C8  UNL     1      91.957 117.256 131.031  1.00  0.00     0.010 C 
HETATM    4  C9  UNL     1      92.000 117.455 129.520  1.00  0.00     0.016 C 
HETATM    5  C19 UNL     1      90.785 118.288 129.189  1.00  0.00     0.121 C 
HETATM    6 CL1  UNL     1      91.091 119.342 127.791  1.00  0.00    -0.121 Cl
ENDROOT
BRANCH   4   7
HETATM    7  C10 UNL     1      92.033 116.127 128.801  1.00  0.00    -0.026 C 
HETATM    8  C11 UNL     1      91.089 115.994 127.650  1.00  0.00     0.065 C 
HETATM    9  C12 UNL     1      91.212 114.637 127.062  1.00  0.00     0.015 C 
HETATM   10  N1  UNL     1      91.154 114.468 125.787  1.00  0.00    -0.277 N 
HETATM   11  C13 UNL     1      91.402 113.496 127.999  1.00  0.00     0.034 C 
ATOM     12  H1  UNL     1      91.023 115.263 125.163  1.00  0.00     0.193 HD
HETATM   13  C14 UNL     1      92.883 113.262 128.245  1.00  0.00     0.015 C 
HETATM   14  C18 UNL     1      90.943 113.977 129.370  1.00  0.00     0.016 C 
HETATM   15  C15 UNL     1      93.300 114.406 129.125  1.00  0.00    -0.008 C 
HETATM   16  C16 UNL     1      93.439 115.741 128.410  1.00  0.00     0.015 C 
HETATM   17  C17 UNL     1      92.034 114.933 129.733  1.00  0.00    -0.001 C 
BRANCH  10  18
HETATM   18  O3  UNL     1      91.273 113.192 125.284  1.00  0.00    -0.290 OA
ATOM     19  H3  UNL     1      91.469 113.082 124.361  1.00  0.00     0.244 HD
ENDBRANCH  10  18
ENDBRANCH   4   7
BRANCH   1  20
HETATM   20  C5  UNL     1      89.412 119.921 130.502  1.00  0.00     0.069 C 
BRANCH  20  21
HETATM   21  C4  UNL     1      88.996 119.969 131.953  1.00  0.00     0.020 C 
HETATM   22  C3  UNL     1      88.390 121.029 132.442  1.00  0.00     0.156 C 
HETATM   23  F2  UNL     1      88.139 122.077 131.636  1.00  0.00    -0.205 F 
BRANCH  22  24
HETATM   24  C2  UNL     1      87.983 121.078 133.858  1.00  0.00     0.253 C 
HETATM   25  C1  UNL     1      88.391 119.820 134.594  1.00  0.00     0.093 C 
HETATM   26  F1  UNL     1      86.605 121.202 133.926  1.00  0.00    -0.204 F 
BRANCH  24  27
HETATM   27  O1  UNL     1      88.567 122.193 134.467  1.00  0.00    -0.357 OA
ATOM     28  H1  UNL     1      89.202 122.584 133.879  1.00  0.00     0.213 HD
ENDBRANCH  24  27
ENDBRANCH  22  24
ENDBRANCH  20  21
ENDBRANCH   1  20
BRANCH   1  29
HETATM   29  O2  UNL     1      91.812 119.976 130.434  1.00  0.00    -0.388 OA
ATOM     30  H2  UNL     1      92.616 119.490 130.296  1.00  0.00     0.210 HD
ENDBRANCH   1  29
TORSDOF 7
ENDMDL
