MODEL 1
REMARK VINA RESULT: -7.297224577      0.000      0.000
REMARK  7 active torsions:
REMARK  status: ('A' for Active; 'I' for Inactive)
REMARK    1  A    between atoms: C2_2  and  O1_3 
REMARK    2  A    between atoms: O1_3  and  C3_4 
REMARK    3  A    between atoms: C5_6  and  N1_7 
REMARK       I    between atoms: N1_7  and  C6_9 
REMARK    4  A    between atoms: C10_17  and  O3_18 
REMARK    5  A    between atoms: C11_20  and  C12_21 
REMARK    6  A    between atoms: C13_22  and  C14_23 
REMARK    7  A    between atoms: C20_29  and  C21_30 
ROOT
HETATM    1  C3  UNL     1      91.237 118.422 129.121  1.00  0.00     0.120 C 
HETATM    2  C4  UNL     1      90.648 117.532 128.132  1.00  0.00     0.039 C 
HETATM    3  C5  UNL     1      91.472 116.663 127.264  1.00  0.00     0.014 C 
HETATM    4  C7  UNL     1      92.510 115.824 127.926  1.00  0.00     0.083 C 
HETATM    5  C8  UNL     1      93.449 116.560 128.834  1.00  0.00     0.098 C 
HETATM    6  N3  UNL     1      93.931 117.711 128.215  1.00  0.00    -0.413 N 
ATOM      7  H3  UNL     1      94.444 117.654 127.335  1.00  0.00     0.153 HD
HETATM    8  C9  UNL     1      93.694 118.956 128.828  1.00  0.00     0.149 C 
HETATM    9  C10 UNL     1      92.245 119.435 128.662  1.00  0.00     0.174 C 
HETATM   10  C11 UNL     1      92.790 116.689 130.152  1.00  0.00     0.103 C 
HETATM   11  C20 UNL     1      91.805 117.740 130.340  1.00  0.00     0.134 C 
ENDROOT
BRANCH  10  12
HETATM   12  C12 UNL     1      93.819 116.757 131.209  1.00  0.00    -0.098 C 
HETATM   13  C13 UNL     1      94.666 116.798 132.076  1.00  0.00    -0.101 C 
BRANCH  13  14
HETATM   14  C14 UNL     1      95.671 116.864 133.121  1.00  0.00     0.065 C 
HETATM   15  C15 UNL     1      95.201 116.346 134.438  1.00  0.00     0.017 C 
HETATM   16  C16 UNL     1      96.052 115.190 134.919  1.00  0.00     0.001 C 
HETATM   17  C17 UNL     1      96.090 114.089 133.889  1.00  0.00     0.000 C 
HETATM   18  C18 UNL     1      96.727 114.633 132.644  1.00  0.00     0.001 C 
HETATM   19  C19 UNL     1      96.938 116.126 132.738  1.00  0.00     0.017 C 
ENDBRANCH  13  14
ENDBRANCH  10  12
BRANCH  11  20
HETATM   20  C21 UNL     1      90.685 117.262 131.182  1.00  0.00     0.239 C 
HETATM   21  N4  UNL     1      89.883 118.032 132.028  1.00  0.00    -0.062 NA
HETATM   22  O4  UNL     1      90.414 116.014 131.135  1.00  0.00    -0.276 OA
ENDBRANCH  11  20
BRANCH   1  23
HETATM   23  O1  UNL     1      90.208 119.226 129.671  1.00  0.00    -0.373 OA
BRANCH  23  24
HETATM   24  C2  UNL     1      89.319 119.761 128.828  1.00  0.00     0.165 C 
HETATM   25  C1  UNL     1      88.657 120.954 129.549  1.00  0.00     0.033 C 
ENDBRANCH  23  24
ENDBRANCH   1  23
BRANCH   3  26
HETATM   26  N1  UNL     1      91.912 117.279 126.042  1.00  0.00    -0.315 N 
HETATM   27  C6  UNL     1      91.948 116.550 124.846  1.00  0.00     0.333 C 
HETATM   28  N2  UNL     1      92.375 117.124 123.621  1.00  0.00    -0.040 NA
HETATM   29  O2  UNL     1      91.593 115.346 124.843  1.00  0.00    -0.251 OA
ATOM     30  H1  UNL     1      92.200 118.258 126.046  1.00  0.00     0.170 HD
ENDBRANCH   3  26
BRANCH   9  31
HETATM   31  O3  UNL     1      92.225 120.559 129.539  1.00  0.00    -0.391 OA
ATOM     32  H3  UNL     1      91.904 121.322 129.071  1.00  0.00     0.210 HD
ENDBRANCH   9  31
TORSDOF 7
ENDMDL
MODEL 2
REMARK VINA RESULT: -7.239555090      2.631      5.612
REMARK  7 active torsions:
REMARK  status: ('A' for Active; 'I' for Inactive)
REMARK    1  A    between atoms: C2_2  and  O1_3 
REMARK    2  A    between atoms: O1_3  and  C3_4 
REMARK    3  A    between atoms: C5_6  and  N1_7 
REMARK       I    between atoms: N1_7  and  C6_9 
REMARK    4  A    between atoms: C10_17  and  O3_18 
REMARK    5  A    between atoms: C11_20  and  C12_21 
REMARK    6  A    between atoms: C13_22  and  C14_23 
REMARK    7  A    between atoms: C20_29  and  C21_30 
ROOT
HETATM    1  C3  UNL     1      92.769 116.752 128.975  1.00  0.00     0.120 C 
HETATM    2  C4  UNL     1      93.847 117.444 128.286  1.00  0.00     0.039 C 
HETATM    3  C5  UNL     1      93.635 118.726 127.577  1.00  0.00     0.014 C 
HETATM    4  C7  UNL     1      92.933 119.809 128.321  1.00  0.00     0.083 C 
HETATM    5  C8  UNL     1      91.621 119.422 128.936  1.00  0.00     0.098 C 
HETATM    6  N3  UNL     1      90.832 118.732 128.018  1.00  0.00    -0.413 N 
ATOM      7  H3  UNL     1      90.564 119.163 127.134  1.00  0.00     0.153 HD
HETATM    8  C9  UNL     1      90.414 117.426 128.336  1.00  0.00     0.149 C 
HETATM    9  C10 UNL     1      91.538 116.390 128.196  1.00  0.00     0.174 C 
HETATM   10  C11 UNL     1      91.908 118.786 130.241  1.00  0.00     0.103 C 
HETATM   11  C20 UNL     1      92.315 117.391 130.263  1.00  0.00     0.134 C 
ENDROOT
BRANCH  10  12
HETATM   12  C12 UNL     1      90.765 118.999 131.150  1.00  0.00    -0.098 C 
HETATM   13  C13 UNL     1      89.821 119.160 131.896  1.00  0.00    -0.101 C 
BRANCH  13  14
HETATM   14  C14 UNL     1      88.692 119.372 132.782  1.00  0.00     0.065 C 
HETATM   15  C15 UNL     1      89.080 119.582 134.207  1.00  0.00     0.017 C 
HETATM   16  C16 UNL     1      88.602 120.922 134.724  1.00  0.00     0.001 C 
HETATM   17  C17 UNL     1      89.115 122.044 133.855  1.00  0.00     0.000 C 
HETATM   18  C18 UNL     1      88.552 121.863 132.476  1.00  0.00     0.001 C 
HETATM   19  C19 UNL     1      87.834 120.541 132.340  1.00  0.00     0.017 C 
ENDBRANCH  13  14
ENDBRANCH  10  12
BRANCH  11  20
HETATM   20  C21 UNL     1      93.353 117.167 131.295  1.00  0.00     0.239 C 
HETATM   21  N4  UNL     1      93.216 116.438 132.479  1.00  0.00    -0.062 NA
HETATM   22  O4  UNL     1      94.501 117.692 131.088  1.00  0.00    -0.276 OA
ENDBRANCH  11  20
BRANCH   1  23
HETATM   23  O1  UNL     1      93.250 115.492 129.411  1.00  0.00    -0.373 OA
BRANCH  23  24
HETATM   24  C2  UNL     1      94.271 114.951 128.739  1.00  0.00     0.165 C 
HETATM   25  C1  UNL     1      95.150 114.200 129.761  1.00  0.00     0.033 C 
ENDBRANCH  23  24
ENDBRANCH   1  23
BRANCH   3  26
HETATM   26  N1  UNL     1      93.218 118.592 126.208  1.00  0.00    -0.315 N 
HETATM   27  C6  UNL     1      93.824 117.651 125.365  1.00  0.00     0.333 C 
HETATM   28  N2  UNL     1      93.439 117.491 124.009  1.00  0.00    -0.040 NA
HETATM   29  O2  UNL     1      94.741 116.920 125.811  1.00  0.00    -0.251 OA
ATOM     30  H1  UNL     1      92.473 119.189 125.847  1.00  0.00     0.170 HD
ENDBRANCH   3  26
BRANCH   9  31
HETATM   31  O3  UNL     1      90.926 115.240 128.777  1.00  0.00    -0.391 OA
ATOM     32  H3  UNL     1      90.538 114.707 128.093  1.00  0.00     0.210 HD
ENDBRANCH   9  31
TORSDOF 7
ENDMDL
MODEL 3
REMARK VINA RESULT: -7.026301539      3.952      7.810
REMARK  7 active torsions:
REMARK  status: ('A' for Active; 'I' for Inactive)
REMARK    1  A    between atoms: C2_2  and  O1_3 
REMARK    2  A    between atoms: O1_3  and  C3_4 
REMARK    3  A    between atoms: C5_6  and  N1_7 
REMARK       I    between atoms: N1_7  and  C6_9 
REMARK    4  A    between atoms: C10_17  and  O3_18 
REMARK    5  A    between atoms: C11_20  and  C12_21 
REMARK    6  A    between atoms: C13_22  and  C14_23 
REMARK    7  A    between atoms: C20_29  and  C21_30 
ROOT
HETATM    1  C3  UNL     1      92.160 114.484 132.706  1.00  0.00     0.120 C 
HETATM    2  C4  UNL     1      92.537 113.328 133.506  1.00  0.00     0.039 C 
HETATM    3  C5  UNL     1      91.822 112.036 133.409  1.00  0.00     0.014 C 
HETATM    4  C7  UNL     1      91.609 111.474 132.046  1.00  0.00     0.083 C 
HETATM    5  C8  UNL     1      90.973 112.406 131.058  1.00  0.00     0.098 C 
HETATM    6  N3  UNL     1      89.861 113.031 131.617  1.00  0.00    -0.413 N 
ATOM      7  H3  UNL     1      89.076 112.482 131.967  1.00  0.00     0.153 HD
HETATM    8  C9  UNL     1      89.843 114.437 131.688  1.00  0.00     0.149 C 
HETATM    9  C10 UNL     1      90.749 114.988 132.799  1.00  0.00     0.174 C 
HETATM   10  C11 UNL     1      92.044 113.250 130.483  1.00  0.00     0.103 C 
HETATM   11  C20 UNL     1      92.513 114.396 131.243  1.00  0.00     0.134 C 
ENDROOT
BRANCH  10  12
HETATM   12  C12 UNL     1      91.662 113.662 129.118  1.00  0.00    -0.098 C 
HETATM   13  C13 UNL     1      91.361 113.995 127.991  1.00  0.00    -0.101 C 
BRANCH  13  14
HETATM   14  C14 UNL     1      90.990 114.408 126.651  1.00  0.00     0.065 C 
HETATM   15  C15 UNL     1      91.019 115.886 126.450  1.00  0.00     0.017 C 
HETATM   16  C16 UNL     1      91.981 116.281 125.349  1.00  0.00     0.001 C 
HETATM   17  C17 UNL     1      93.364 115.747 125.632  1.00  0.00     0.000 C 
HETATM   18  C18 UNL     1      93.292 114.248 125.655  1.00  0.00     0.001 C 
HETATM   19  C19 UNL     1      91.864 113.762 125.594  1.00  0.00     0.017 C 
ENDBRANCH  13  14
ENDBRANCH  10  12
BRANCH  11  20
HETATM   20  C21 UNL     1      93.978 114.555 131.099  1.00  0.00     0.239 C 
HETATM   21  N4  UNL     1      94.661 115.705 130.694  1.00  0.00    -0.062 NA
HETATM   22  O4  UNL     1      94.702 113.538 131.371  1.00  0.00    -0.276 OA
ENDBRANCH  11  20
BRANCH   1  23
HETATM   23  O1  UNL     1      92.922 115.597 133.139  1.00  0.00    -0.373 OA
BRANCH  23  24
HETATM   24  C2  UNL     1      93.436 115.557 134.373  1.00  0.00     0.165 C 
HETATM   25  C1  UNL     1      94.806 116.266 134.327  1.00  0.00     0.033 C 
ENDBRANCH  23  24
ENDBRANCH   1  23
BRANCH   3  26
HETATM   26  N1  UNL     1      90.682 111.916 134.275  1.00  0.00    -0.315 N 
HETATM   27  C6  UNL     1      90.812 111.362 135.556  1.00  0.00     0.333 C 
HETATM   28  N2  UNL     1      89.710 111.227 136.439  1.00  0.00    -0.040 NA
HETATM   29  O2  UNL     1      91.936 110.967 135.949  1.00  0.00    -0.251 OA
ATOM     30  H1  UNL     1      89.768 112.236 133.954  1.00  0.00     0.170 HD
ENDBRANCH   3  26
BRANCH   9  31
HETATM   31  O3  UNL     1      90.721 116.384 132.509  1.00  0.00    -0.391 OA
ATOM     32  H3  UNL     1      89.904 116.602 132.074  1.00  0.00     0.210 HD
ENDBRANCH   9  31
TORSDOF 7
ENDMDL
MODEL 4
REMARK VINA RESULT: -6.872518357      2.042      4.461
REMARK  7 active torsions:
REMARK  status: ('A' for Active; 'I' for Inactive)
REMARK    1  A    between atoms: C2_2  and  O1_3 
REMARK    2  A    between atoms: O1_3  and  C3_4 
REMARK    3  A    between atoms: C5_6  and  N1_7 
REMARK       I    between atoms: N1_7  and  C6_9 
REMARK    4  A    between atoms: C10_17  and  O3_18 
REMARK    5  A    between atoms: C11_20  and  C12_21 
REMARK    6  A    between atoms: C13_22  and  C14_23 
REMARK    7  A    between atoms: C20_29  and  C21_30 
ROOT
HETATM    1  C3  UNL     1      91.691 116.233 129.146  1.00  0.00     0.120 C 
HETATM    2  C4  UNL     1      91.357 117.484 128.481  1.00  0.00     0.039 C 
HETATM    3  C5  UNL     1      91.220 118.758 129.221  1.00  0.00     0.014 C 
HETATM    4  C7  UNL     1      92.325 119.130 130.149  1.00  0.00     0.083 C 
HETATM    5  C8  UNL     1      92.710 118.079 131.146  1.00  0.00     0.098 C 
HETATM    6  N3  UNL     1      91.579 117.547 131.762  1.00  0.00    -0.413 N 
ATOM      7  H3  UNL     1      90.939 118.147 132.282  1.00  0.00     0.153 HD
HETATM    8  C9  UNL     1      91.338 116.165 131.652  1.00  0.00     0.149 C 
HETATM    9  C10 UNL     1      90.811 115.761 130.267  1.00  0.00     0.174 C 
HETATM   10  C11 UNL     1      93.654 117.153 130.481  1.00  0.00     0.103 C 
HETATM   11  C20 UNL     1      93.120 116.117 129.614  1.00  0.00     0.134 C 
ENDROOT
BRANCH  10  12
HETATM   12  C12 UNL     1      94.553 116.562 131.491  1.00  0.00    -0.098 C 
HETATM   13  C13 UNL     1      95.291 116.089 132.330  1.00  0.00    -0.101 C 
BRANCH  13  14
HETATM   14  C14 UNL     1      96.182 115.511 133.318  1.00  0.00     0.065 C 
HETATM   15  C15 UNL     1      97.490 115.064 132.758  1.00  0.00     0.017 C 
HETATM   16  C16 UNL     1      98.652 115.772 133.421  1.00  0.00     0.001 C 
HETATM   17  C17 UNL     1      98.501 117.269 133.308  1.00  0.00     0.000 C 
HETATM   18  C18 UNL     1      97.251 117.670 134.036  1.00  0.00     0.001 C 
HETATM   19  C19 UNL     1      96.451 116.463 134.467  1.00  0.00     0.017 C 
ENDBRANCH  13  14
ENDBRANCH  10  12
BRANCH  11  20
HETATM   20  C21 UNL     1      93.991 115.924 128.432  1.00  0.00     0.239 C 
HETATM   21  N4  UNL     1      94.527 114.718 127.972  1.00  0.00    -0.062 NA
HETATM   22  O4  UNL     1      94.290 116.966 127.755  1.00  0.00    -0.276 OA
ENDBRANCH  11  20
BRANCH   1  23
HETATM   23  O1  UNL     1      91.591 115.182 128.201  1.00  0.00    -0.373 OA
BRANCH  23  24
HETATM   24  C2  UNL     1      91.036 115.460 127.017  1.00  0.00     0.165 C 
HETATM   25  C1  UNL     1      91.367 114.291 126.065  1.00  0.00     0.033 C 
ENDBRANCH  23  24
ENDBRANCH   1  23
BRANCH   3  26
HETATM   26  N1  UNL     1      89.907 119.007 129.748  1.00  0.00    -0.315 N 
HETATM   27  C6  UNL     1      89.126 120.061 129.253  1.00  0.00     0.333 C 
HETATM   28  N2  UNL     1      87.826 120.337 129.748  1.00  0.00    -0.040 NA
HETATM   29  O2  UNL     1      89.580 120.793 128.341  1.00  0.00    -0.251 OA
ATOM     30  H1  UNL     1      89.539 118.412 130.490  1.00  0.00     0.170 HD
ENDBRANCH   3  26
BRANCH   9  31
HETATM   31  O3  UNL     1      90.871 114.340 130.354  1.00  0.00    -0.391 OA
ATOM     32  H3  UNL     1      90.149 114.023 130.884  1.00  0.00     0.210 HD
ENDBRANCH   9  31
TORSDOF 7
ENDMDL
MODEL 5
REMARK VINA RESULT: -6.864908481      2.683      6.669
REMARK  7 active torsions:
REMARK  status: ('A' for Active; 'I' for Inactive)
REMARK    1  A    between atoms: C2_2  and  O1_3 
REMARK    2  A    between atoms: O1_3  and  C3_4 
REMARK    3  A    between atoms: C5_6  and  N1_7 
REMARK       I    between atoms: N1_7  and  C6_9 
REMARK    4  A    between atoms: C10_17  and  O3_18 
REMARK    5  A    between atoms: C11_20  and  C12_21 
REMARK    6  A    between atoms: C13_22  and  C14_23 
REMARK    7  A    between atoms: C20_29  and  C21_30 
ROOT
HETATM    1  C3  UNL     1      91.829 116.217 131.164  1.00  0.00     0.120 C 
HETATM    2  C4  UNL     1      92.521 116.615 132.381  1.00  0.00     0.039 C 
HETATM    3  C5  UNL     1      93.957 116.331 132.600  1.00  0.00     0.014 C 
HETATM    4  C7  UNL     1      94.901 116.710 131.512  1.00  0.00     0.083 C 
HETATM    5  C8  UNL     1      94.552 116.193 130.148  1.00  0.00     0.098 C 
HETATM    6  N3  UNL     1      94.229 114.839 130.202  1.00  0.00    -0.413 N 
ATOM      7  H3  UNL     1      94.903 114.157 130.551  1.00  0.00     0.153 HD
HETATM    8  C9  UNL     1      92.955 114.432 129.766  1.00  0.00     0.149 C 
HETATM    9  C10 UNL     1      91.846 114.767 130.773  1.00  0.00     0.174 C 
HETATM   10  C11 UNL     1      93.574 117.129 129.551  1.00  0.00     0.103 C 
HETATM   11  C20 UNL     1      92.177 117.019 129.936  1.00  0.00     0.134 C 
ENDROOT
BRANCH  10  12
HETATM   12  C12 UNL     1      93.703 117.099 128.080  1.00  0.00    -0.098 C 
HETATM   13  C13 UNL     1      93.820 117.063 126.873  1.00  0.00    -0.101 C 
BRANCH  13  14
HETATM   14  C14 UNL     1      93.953 117.040 125.429  1.00  0.00     0.065 C 
HETATM   15  C15 UNL     1      94.687 115.849 124.914  1.00  0.00     0.017 C 
HETATM   16  C16 UNL     1      93.835 115.037 123.961  1.00  0.00     0.001 C 
HETATM   17  C17 UNL     1      92.539 114.630 124.617  1.00  0.00     0.000 C 
HETATM   18  C18 UNL     1      91.776 115.876 124.960  1.00  0.00     0.001 C 
HETATM   19  C19 UNL     1      92.609 117.115 124.733  1.00  0.00     0.017 C 
ENDBRANCH  13  14
ENDBRANCH  10  12
BRANCH  11  20
HETATM   20  C21 UNL     1      91.561 118.360 130.056  1.00  0.00     0.239 C 
HETATM   21  N4  UNL     1      90.314 118.757 129.566  1.00  0.00    -0.062 NA
HETATM   22  O4  UNL     1      92.233 119.256 130.672  1.00  0.00    -0.276 OA
ENDBRANCH  11  20
BRANCH   1  23
HETATM   23  O1  UNL     1      90.447 116.485 131.325  1.00  0.00    -0.373 OA
BRANCH  23  24
HETATM   24  C2  UNL     1      89.932 116.380 132.554  1.00  0.00     0.165 C 
HETATM   25  C1  UNL     1      89.294 117.740 132.906  1.00  0.00     0.033 C 
ENDBRANCH  23  24
ENDBRANCH   1  23
BRANCH   3  26
HETATM   26  N1  UNL     1      94.231 115.051 133.193  1.00  0.00    -0.315 N 
HETATM   27  C6  UNL     1      94.828 114.962 134.458  1.00  0.00     0.333 C 
HETATM   28  N2  UNL     1      95.114 113.717 135.074  1.00  0.00    -0.040 NA
HETATM   29  O2  UNL     1      95.126 116.011 135.077  1.00  0.00    -0.251 OA
ATOM     30  H1  UNL     1      93.989 114.199 132.687  1.00  0.00     0.170 HD
ENDBRANCH   3  26
BRANCH   9  31
HETATM   31  O3  UNL     1      90.680 114.466 130.009  1.00  0.00    -0.391 OA
ATOM     32  H3  UNL     1      90.258 115.274 129.743  1.00  0.00     0.210 HD
ENDBRANCH   9  31
TORSDOF 7
ENDMDL
