MODEL 1
REMARK VINA RESULT: -7.571063569      0.000      0.000
REMARK  15 active torsions:
REMARK  status: ('A' for Active; 'I' for Inactive)
REMARK    1  A    between atoms: N1_2  and  C2_3 
REMARK    2  A    between atoms: N1_2  and  C19_31 
REMARK    3  A    between atoms: C2_3  and  C3_4 
REMARK    4  A    between atoms: C3_4  and  N2_5 
REMARK    5  A    between atoms: C6_10  and  C7_11 
REMARK    6  A    between atoms: N4_13  and  C9_14 
REMARK    7  A    between atoms: C9_14  and  C10_15 
REMARK       I    between atoms: C10_15  and  N5_17 
REMARK    8  A    between atoms: N5_17  and  C11_19 
REMARK    9  A    between atoms: C11_19  and  C12_20 
REMARK   10  A    between atoms: C12_20  and  C13_21 
REMARK   11  A    between atoms: C13_21  and  N6_22 
REMARK   12  A    between atoms: C21_37  and  N10_38 
REMARK   13  A    between atoms: N11_41  and  C24_42 
REMARK   14  A    between atoms: C24_42  and  C25_43 
REMARK   15  A    between atoms: C25_43  and  O3_44 
ROOT
HETATM    1  N2  UNL     1       7.081   7.472  80.270  1.00  0.00    -0.335 N 
HETATM    2  C4  UNL     1       7.923   8.498  80.622  1.00  0.00     0.183 A 
HETATM    3  N3  UNL     1       7.301   9.245  81.513  1.00  0.00    -0.360 N 
ATOM      4  H3  UNL     1       7.686  10.081  81.954  1.00  0.00     0.166 HD
HETATM    5  C5  UNL     1       6.093   8.741  81.747  1.00  0.00     0.121 A 
HETATM    6  C6  UNL     1       5.949   7.589  80.938  1.00  0.00     0.079 A 
ENDROOT
BRANCH   1   7
HETATM    7  C3  UNL     1       7.532   6.450  79.358  1.00  0.00     0.175 C 
BRANCH   7   8
HETATM    8  C2  UNL     1       7.693   6.857  77.943  1.00  0.00     0.101 C 
BRANCH   8   9
HETATM    9  N1  UNL     1       6.671   6.703  76.998  1.00  0.00    -0.199 N 
HETATM   10  C1  UNL     1       5.463   7.495  76.974  1.00  0.00     0.174 C 
BRANCH   9  11
HETATM   11  C19 UNL     1       6.790   5.715  75.949  1.00  0.00     0.699 A 
HETATM   12  N8  UNL     1       6.294   5.937  74.725  1.00  0.00    -0.186 N 
HETATM   13  C20 UNL     1       6.431   5.008  73.767  1.00  0.00     0.215 A 
ATOM     14  H8  UNL     1       5.813   6.813  74.522  1.00  0.00     0.185 HD
HETATM   15  N9  UNL     1       7.069   3.831  74.015  1.00  0.00    -0.187 N 
HETATM   16  C21 UNL     1       7.574   3.591  75.244  1.00  0.00     0.696 A 
ATOM     17  H9  UNL     1       7.165   3.134  73.277  1.00  0.00     0.185 HD
HETATM   18  N12 UNL     1       7.418   4.541  76.171  1.00  0.00    -0.022 N 
ATOM     19  H12 UNL     1       7.797   4.368  77.103  1.00  0.00     0.203 HD
BRANCH  16  20
HETATM   20  N10 UNL     1       8.255   2.363  75.515  1.00  0.00    -0.211 N 
HETATM   21  C22 UNL     1       7.909   1.507  76.614  1.00  0.00     0.161 C 
HETATM   22  C23 UNL     1       8.169   0.051  76.389  1.00  0.00     0.147 C 
HETATM   23  N11 UNL     1       9.427  -0.237  75.770  1.00  0.00    -0.369 N 
HETATM   24  C26 UNL     1      10.185   0.868  75.372  1.00  0.00     0.083 C 
HETATM   25  C27 UNL     1       9.368   1.937  74.657  1.00  0.00     0.186 C 
BRANCH  23  26
HETATM   26  C24 UNL     1       9.546  -1.491  75.165  1.00  0.00     0.089 C 
BRANCH  26  27
HETATM   27  C25 UNL     1      10.188  -2.505  76.078  1.00  0.00     0.208 C 
BRANCH  27  28
HETATM   28  O3  UNL     1      11.423  -2.039  76.559  1.00  0.00    -0.396 OA
ATOM     29  H3  UNL     1      12.059  -2.743  76.606  1.00  0.00     0.209 HD
ENDBRANCH  27  28
ENDBRANCH  26  27
ENDBRANCH  23  26
ENDBRANCH  16  20
ENDBRANCH   9  11
ENDBRANCH   8   9
ENDBRANCH   7   8
ENDBRANCH   1   7
BRANCH   6  30
HETATM   30  C7  UNL     1       4.705   6.807  80.912  1.00  0.00     0.077 A 
HETATM   31  C8  UNL     1       3.471   7.029  80.398  1.00  0.00     0.124 A 
HETATM   32  N4  UNL     1       2.631   5.993  80.674  1.00  0.00    -0.342 N 
HETATM   33  C18 UNL     1       3.351   5.111  81.372  1.00  0.00     0.183 A 
HETATM   34  N7  UNL     1       4.585   5.586  81.518  1.00  0.00    -0.349 N 
ATOM     35  H7  UNL     1       5.337   5.107  82.014  1.00  0.00     0.166 HD
BRANCH  32  36
HETATM   36  C9  UNL     1       1.261   5.866  80.292  1.00  0.00     0.232 C 
BRANCH  36  37
HETATM   37  C10 UNL     1       0.353   5.745  81.492  1.00  0.00     0.239 C 
HETATM   38  O1  UNL     1      -0.218   4.652  81.605  1.00  0.00    -0.271 OA
HETATM   39  N5  UNL     1       0.202   6.817  82.384  1.00  0.00    -0.339 N 
ATOM     40  H5  UNL     1       0.752   7.651  82.178  1.00  0.00     0.167 HD
BRANCH  39  41
HETATM   41  C11 UNL     1      -0.609   6.886  83.522  1.00  0.00     0.065 C 
BRANCH  41  42
HETATM   42  C12 UNL     1      -0.450   5.974  84.672  1.00  0.00     0.074 C 
BRANCH  42  43
HETATM   43  C13 UNL     1      -1.645   5.353  85.260  1.00  0.00     0.277 C 
BRANCH  43  44
HETATM   44  N6  UNL     1      -1.481   3.876  85.252  1.00  0.00     0.092 N 
HETATM   45  C14 UNL     1      -2.099   3.385  86.479  1.00  0.00     0.298 C 
HETATM   46  C15 UNL     1      -1.437   2.071  86.893  1.00  0.00     0.198 C 
HETATM   47  O2  UNL     1      -1.068   1.425  85.700  1.00  0.00    -0.388 OA
HETATM   48  C16 UNL     1       0.090   2.079  85.264  1.00  0.00     0.198 C 
HETATM   49  C17 UNL     1      -0.050   3.586  85.401  1.00  0.00     0.298 C 
ENDBRANCH  43  44
ENDBRANCH  42  43
ENDBRANCH  41  42
ENDBRANCH  39  41
ENDBRANCH  36  37
ENDBRANCH  32  36
ENDBRANCH   6  30
TORSDOF 15
ENDMDL
MODEL 2
REMARK VINA RESULT: -7.474293367      1.721      2.707
REMARK  15 active torsions:
REMARK  status: ('A' for Active; 'I' for Inactive)
REMARK    1  A    between atoms: N1_2  and  C2_3 
REMARK    2  A    between atoms: N1_2  and  C19_31 
REMARK    3  A    between atoms: C2_3  and  C3_4 
REMARK    4  A    between atoms: C3_4  and  N2_5 
REMARK    5  A    between atoms: C6_10  and  C7_11 
REMARK    6  A    between atoms: N4_13  and  C9_14 
REMARK    7  A    between atoms: C9_14  and  C10_15 
REMARK       I    between atoms: C10_15  and  N5_17 
REMARK    8  A    between atoms: N5_17  and  C11_19 
REMARK    9  A    between atoms: C11_19  and  C12_20 
REMARK   10  A    between atoms: C12_20  and  C13_21 
REMARK   11  A    between atoms: C13_21  and  N6_22 
REMARK   12  A    between atoms: C21_37  and  N10_38 
REMARK   13  A    between atoms: N11_41  and  C24_42 
REMARK   14  A    between atoms: C24_42  and  C25_43 
REMARK   15  A    between atoms: C25_43  and  O3_44 
ROOT
HETATM    1  N2  UNL     1       6.870   6.338  78.301  1.00  0.00    -0.335 N 
HETATM    2  C4  UNL     1       7.896   7.225  78.090  1.00  0.00     0.183 A 
HETATM    3  N3  UNL     1       7.793   8.184  78.989  1.00  0.00    -0.360 N 
ATOM      4  H3  UNL     1       8.422   8.983  79.073  1.00  0.00     0.166 HD
HETATM    5  C5  UNL     1       6.742   7.949  79.768  1.00  0.00     0.121 A 
HETATM    6  C6  UNL     1       6.140   6.750  79.321  1.00  0.00     0.079 A 
ENDROOT
BRANCH   1   7
HETATM    7  C3  UNL     1       6.777   5.140  77.503  1.00  0.00     0.175 C 
BRANCH   7   8
HETATM    8  C2  UNL     1       7.669   4.023  77.890  1.00  0.00     0.101 C 
BRANCH   8   9
HETATM    9  N1  UNL     1       8.966   3.888  77.382  1.00  0.00    -0.199 N 
HETATM   10  C1  UNL     1      10.145   4.433  78.015  1.00  0.00     0.174 C 
BRANCH   9  11
HETATM   11  C19 UNL     1       9.199   3.154  76.158  1.00  0.00     0.699 A 
HETATM   12  N8  UNL     1       9.502   3.784  75.016  1.00  0.00    -0.186 N 
HETATM   13  C20 UNL     1       9.727   3.077  73.899  1.00  0.00     0.215 A 
ATOM     14  H8  UNL     1       9.560   4.802  74.996  1.00  0.00     0.185 HD
HETATM   15  N9  UNL     1       9.653   1.718  73.901  1.00  0.00    -0.187 N 
HETATM   16  C21 UNL     1       9.349   1.067  75.043  1.00  0.00     0.696 A 
ATOM     17  H9  UNL     1       9.826   1.194  73.043  1.00  0.00     0.185 HD
HETATM   18  N12 UNL     1       9.132   1.806  76.135  1.00  0.00    -0.022 N 
ATOM     19  H12 UNL     1       8.902   1.322  77.004  1.00  0.00     0.203 HD
BRANCH  16  20
HETATM   20  N10 UNL     1       9.278  -0.361  75.061  1.00  0.00    -0.211 N 
HETATM   21  C22 UNL     1       9.230  -1.155  73.866  1.00  0.00     0.161 C 
HETATM   22  C23 UNL     1       9.838  -2.517  73.985  1.00  0.00     0.147 C 
HETATM   23  N11 UNL     1       9.498  -3.214  75.187  1.00  0.00    -0.369 N 
HETATM   24  C26 UNL     1       8.741  -2.499  76.120  1.00  0.00     0.083 C 
HETATM   25  C27 UNL     1       9.239  -1.077  76.343  1.00  0.00     0.186 C 
BRANCH  23  26
HETATM   26  C24 UNL     1      10.337  -4.271  75.548  1.00  0.00     0.089 C 
BRANCH  26  27
HETATM   27  C25 UNL     1       9.758  -5.102  76.665  1.00  0.00     0.208 C 
BRANCH  27  28
HETATM   28  O3  UNL     1      10.759  -5.494  77.571  1.00  0.00    -0.396 OA
ATOM     29  H3  UNL     1      10.951  -4.799  78.189  1.00  0.00     0.209 HD
ENDBRANCH  27  28
ENDBRANCH  26  27
ENDBRANCH  23  26
ENDBRANCH  16  20
ENDBRANCH   9  11
ENDBRANCH   8   9
ENDBRANCH   7   8
ENDBRANCH   1   7
BRANCH   6  30
HETATM   30  C7  UNL     1       4.916   6.217  79.935  1.00  0.00     0.077 A 
HETATM   31  C8  UNL     1       3.595   6.369  79.672  1.00  0.00     0.124 A 
HETATM   32  N4  UNL     1       2.835   5.683  80.570  1.00  0.00    -0.342 N 
HETATM   33  C18 UNL     1       3.693   5.093  81.406  1.00  0.00     0.183 A 
HETATM   34  N7  UNL     1       4.932   5.405  81.036  1.00  0.00    -0.349 N 
ATOM     35  H7  UNL     1       5.777   5.083  81.508  1.00  0.00     0.166 HD
BRANCH  32  36
HETATM   36  C9  UNL     1       1.410   5.599  80.609  1.00  0.00     0.232 C 
BRANCH  36  37
HETATM   37  C10 UNL     1       0.819   6.567  81.607  1.00  0.00     0.239 C 
HETATM   38  O1  UNL     1       0.270   7.558  81.108  1.00  0.00    -0.271 OA
HETATM   39  N5  UNL     1       0.911   6.317  82.985  1.00  0.00    -0.339 N 
ATOM     40  H5  UNL     1       1.374   5.448  83.251  1.00  0.00     0.167 HD
BRANCH  39  41
HETATM   41  C11 UNL     1       0.446   7.111  84.039  1.00  0.00     0.065 C 
BRANCH  41  42
HETATM   42  C12 UNL     1      -0.689   6.716  84.896  1.00  0.00     0.074 C 
BRANCH  42  43
HETATM   43  C13 UNL     1      -1.408   5.470  84.596  1.00  0.00     0.277 C 
BRANCH  43  44
HETATM   44  N6  UNL     1      -0.892   4.386  85.473  1.00  0.00     0.092 N 
HETATM   45  C14 UNL     1      -0.150   3.475  84.609  1.00  0.00     0.298 C 
HETATM   46  C15 UNL     1      -0.163   2.072  85.217  1.00  0.00     0.198 C 
HETATM   47  O2  UNL     1      -0.174   2.250  86.612  1.00  0.00    -0.388 OA
HETATM   48  C16 UNL     1      -1.491   2.596  86.935  1.00  0.00     0.198 C 
HETATM   49  C17 UNL     1      -2.044   3.611  85.948  1.00  0.00     0.298 C 
ENDBRANCH  43  44
ENDBRANCH  42  43
ENDBRANCH  41  42
ENDBRANCH  39  41
ENDBRANCH  36  37
ENDBRANCH  32  36
ENDBRANCH   6  30
TORSDOF 15
ENDMDL
MODEL 3
REMARK VINA RESULT: -7.291170118      1.569      1.805
REMARK  15 active torsions:
REMARK  status: ('A' for Active; 'I' for Inactive)
REMARK    1  A    between atoms: N1_2  and  C2_3 
REMARK    2  A    between atoms: N1_2  and  C19_31 
REMARK    3  A    between atoms: C2_3  and  C3_4 
REMARK    4  A    between atoms: C3_4  and  N2_5 
REMARK    5  A    between atoms: C6_10  and  C7_11 
REMARK    6  A    between atoms: N4_13  and  C9_14 
REMARK    7  A    between atoms: C9_14  and  C10_15 
REMARK       I    between atoms: C10_15  and  N5_17 
REMARK    8  A    between atoms: N5_17  and  C11_19 
REMARK    9  A    between atoms: C11_19  and  C12_20 
REMARK   10  A    between atoms: C12_20  and  C13_21 
REMARK   11  A    between atoms: C13_21  and  N6_22 
REMARK   12  A    between atoms: C21_37  and  N10_38 
REMARK   13  A    between atoms: N11_41  and  C24_42 
REMARK   14  A    between atoms: C24_42  and  C25_43 
REMARK   15  A    between atoms: C25_43  and  O3_44 
ROOT
HETATM    1  N2  UNL     1       8.502   6.600  80.043  1.00  0.00    -0.335 N 
HETATM    2  C4  UNL     1       9.754   6.939  80.493  1.00  0.00     0.183 A 
HETATM    3  N3  UNL     1       9.633   7.397  81.723  1.00  0.00    -0.360 N 
ATOM      4  H3  UNL     1      10.402   7.724  82.309  1.00  0.00     0.166 HD
HETATM    5  C5  UNL     1       8.353   7.366  82.083  1.00  0.00     0.121 A 
HETATM    6  C6  UNL     1       7.616   6.850  80.990  1.00  0.00     0.079 A 
ENDROOT
BRANCH   1   7
HETATM    7  C3  UNL     1       8.340   5.998  78.743  1.00  0.00     0.175 C 
BRANCH   7   8
HETATM    8  C2  UNL     1       7.322   6.609  77.858  1.00  0.00     0.101 C 
BRANCH   8   9
HETATM    9  N1  UNL     1       6.366   5.846  77.176  1.00  0.00    -0.199 N 
HETATM   10  C1  UNL     1       4.945   5.916  77.426  1.00  0.00     0.174 C 
BRANCH   9  11
HETATM   11  C19 UNL     1       6.772   4.926  76.137  1.00  0.00     0.699 A 
HETATM   12  N8  UNL     1       6.695   5.261  74.843  1.00  0.00    -0.186 N 
HETATM   13  C20 UNL     1       7.092   4.393  73.900  1.00  0.00     0.215 A 
ATOM     14  H8  UNL     1       6.334   6.176  74.574  1.00  0.00     0.185 HD
HETATM   15  N9  UNL     1       7.576   3.165  74.235  1.00  0.00    -0.187 N 
HETATM   16  C21 UNL     1       7.660   2.812  75.535  1.00  0.00     0.696 A 
ATOM     17  H9  UNL     1       7.873   2.515  73.507  1.00  0.00     0.185 HD
HETATM   18  N12 UNL     1       7.255   3.703  76.444  1.00  0.00    -0.022 N 
ATOM     19  H12 UNL     1       7.315   3.445  77.429  1.00  0.00     0.203 HD
BRANCH  16  20
HETATM   20  N10 UNL     1       8.176   1.529  75.900  1.00  0.00    -0.211 N 
HETATM   21  C22 UNL     1       7.992   0.957  77.204  1.00  0.00     0.161 C 
HETATM   22  C23 UNL     1       7.940  -0.537  77.239  1.00  0.00     0.147 C 
HETATM   23  N11 UNL     1       8.927  -1.183  76.430  1.00  0.00    -0.369 N 
HETATM   24  C26 UNL     1       9.727  -0.344  75.647  1.00  0.00     0.083 C 
HETATM   25  C27 UNL     1       8.940   0.741  74.924  1.00  0.00     0.186 C 
BRANCH  23  26
HETATM   26  C24 UNL     1       8.676  -2.515  76.092  1.00  0.00     0.089 C 
BRANCH  26  27
HETATM   27  C25 UNL     1       9.870  -3.175  75.450  1.00  0.00     0.208 C 
BRANCH  27  28
HETATM   28  O3  UNL     1      10.696  -3.775  76.417  1.00  0.00    -0.396 OA
ATOM     29  H3  UNL     1      11.262  -3.132  76.827  1.00  0.00     0.209 HD
ENDBRANCH  27  28
ENDBRANCH  26  27
ENDBRANCH  23  26
ENDBRANCH  16  20
ENDBRANCH   9  11
ENDBRANCH   8   9
ENDBRANCH   7   8
ENDBRANCH   1   7
BRANCH   6  30
HETATM   30  C7  UNL     1       6.153   6.724  81.029  1.00  0.00     0.077 A 
HETATM   31  C8  UNL     1       5.139   7.618  81.125  1.00  0.00     0.124 A 
HETATM   32  N4  UNL     1       3.932   6.988  81.158  1.00  0.00    -0.342 N 
HETATM   33  C18 UNL     1       4.195   5.682  81.082  1.00  0.00     0.183 A 
HETATM   34  N7  UNL     1       5.512   5.515  81.004  1.00  0.00    -0.349 N 
ATOM     35  H7  UNL     1       5.981   4.611  80.937  1.00  0.00     0.166 HD
BRANCH  32  36
HETATM   36  C9  UNL     1       2.643   7.596  81.247  1.00  0.00     0.232 C 
BRANCH  36  37
HETATM   37  C10 UNL     1       2.171   7.702  82.678  1.00  0.00     0.239 C 
HETATM   38  O1  UNL     1       2.894   8.385  83.415  1.00  0.00    -0.271 OA
HETATM   39  N5  UNL     1       0.995   7.058  83.092  1.00  0.00    -0.339 N 
ATOM     40  H5  UNL     1       0.489   6.546  82.370  1.00  0.00     0.167 HD
BRANCH  39  41
HETATM   41  C11 UNL     1       0.431   7.030  84.372  1.00  0.00     0.065 C 
BRANCH  41  42
HETATM   42  C12 UNL     1      -0.969   6.633  84.619  1.00  0.00     0.074 C 
BRANCH  42  43
HETATM   43  C13 UNL     1      -1.415   5.297  84.200  1.00  0.00     0.277 C 
BRANCH  43  44
HETATM   44  N6  UNL     1      -0.618   4.269  84.919  1.00  0.00     0.092 N 
HETATM   45  C14 UNL     1      -0.139   3.336  83.905  1.00  0.00     0.298 C 
HETATM   46  C15 UNL     1       0.086   1.964  84.541  1.00  0.00     0.198 C 
HETATM   47  O2  UNL     1       0.491   2.207  85.865  1.00  0.00    -0.388 OA
HETATM   48  C16 UNL     1      -0.679   2.536  86.560  1.00  0.00     0.198 C 
HETATM   49  C17 UNL     1      -1.542   3.490  85.751  1.00  0.00     0.298 C 
ENDBRANCH  43  44
ENDBRANCH  42  43
ENDBRANCH  41  42
ENDBRANCH  39  41
ENDBRANCH  36  37
ENDBRANCH  32  36
ENDBRANCH   6  30
TORSDOF 15
ENDMDL
MODEL 4
REMARK VINA RESULT: -7.215822373      4.144      9.020
REMARK  15 active torsions:
REMARK  status: ('A' for Active; 'I' for Inactive)
REMARK    1  A    between atoms: N1_2  and  C2_3 
REMARK    2  A    between atoms: N1_2  and  C19_31 
REMARK    3  A    between atoms: C2_3  and  C3_4 
REMARK    4  A    between atoms: C3_4  and  N2_5 
REMARK    5  A    between atoms: C6_10  and  C7_11 
REMARK    6  A    between atoms: N4_13  and  C9_14 
REMARK    7  A    between atoms: C9_14  and  C10_15 
REMARK       I    between atoms: C10_15  and  N5_17 
REMARK    8  A    between atoms: N5_17  and  C11_19 
REMARK    9  A    between atoms: C11_19  and  C12_20 
REMARK   10  A    between atoms: C12_20  and  C13_21 
REMARK   11  A    between atoms: C13_21  and  N6_22 
REMARK   12  A    between atoms: C21_37  and  N10_38 
REMARK   13  A    between atoms: N11_41  and  C24_42 
REMARK   14  A    between atoms: C24_42  and  C25_43 
REMARK   15  A    between atoms: C25_43  and  O3_44 
ROOT
HETATM    1  N2  UNL     1      -0.881   4.015  84.845  1.00  0.00    -0.335 N 
HETATM    2  C4  UNL     1      -0.826   3.213  85.957  1.00  0.00     0.183 A 
HETATM    3  N3  UNL     1      -0.223   2.090  85.617  1.00  0.00    -0.360 N 
ATOM      4  H3  UNL     1      -0.041   1.305  86.244  1.00  0.00     0.166 HD
HETATM    5  C5  UNL     1       0.111   2.139  84.331  1.00  0.00     0.121 A 
HETATM    6  C6  UNL     1      -0.318   3.390  83.828  1.00  0.00     0.079 A 
ENDROOT
BRANCH   1   7
HETATM    7  C3  UNL     1      -1.427   5.346  84.943  1.00  0.00     0.175 C 
BRANCH   7   8
HETATM    8  C2  UNL     1      -0.448   6.451  85.059  1.00  0.00     0.101 C 
BRANCH   8   9
HETATM    9  N1  UNL     1      -0.306   7.435  84.074  1.00  0.00    -0.199 N 
HETATM   10  C1  UNL     1      -1.378   7.885  83.217  1.00  0.00     0.174 C 
BRANCH   9  11
HETATM   11  C19 UNL     1       0.970   8.086  83.869  1.00  0.00     0.699 A 
HETATM   12  N8  UNL     1       1.266   9.241  84.477  1.00  0.00    -0.186 N 
HETATM   13  C20 UNL     1       2.463   9.814  84.281  1.00  0.00     0.215 A 
ATOM     14  H8  UNL     1       0.582   9.685  85.089  1.00  0.00     0.185 HD
HETATM   15  N9  UNL     1       3.392   9.241  83.467  1.00  0.00    -0.187 N 
HETATM   16  C21 UNL     1       3.109   8.076  82.847  1.00  0.00     0.696 A 
ATOM     17  H9  UNL     1       4.297   9.689  83.327  1.00  0.00     0.185 HD
HETATM   18  N12 UNL     1       1.907   7.536  83.068  1.00  0.00    -0.022 N 
ATOM     19  H12 UNL     1       1.684   6.655  82.603  1.00  0.00     0.203 HD
BRANCH  16  20
HETATM   20  N10 UNL     1       4.079   7.458  81.997  1.00  0.00    -0.211 N 
HETATM   21  C22 UNL     1       3.958   6.107  81.529  1.00  0.00     0.161 C 
HETATM   22  C23 UNL     1       4.583   5.840  80.196  1.00  0.00     0.147 C 
HETATM   23  N11 UNL     1       5.876   6.427  80.020  1.00  0.00    -0.369 N 
HETATM   24  C26 UNL     1       6.328   7.244  81.061  1.00  0.00     0.083 C 
HETATM   25  C27 UNL     1       5.270   8.210  81.577  1.00  0.00     0.186 C 
BRANCH  23  26
HETATM   26  C24 UNL     1       6.315   6.573  78.702  1.00  0.00     0.089 C 
BRANCH  26  27
HETATM   27  C25 UNL     1       6.978   5.323  78.181  1.00  0.00     0.208 C 
BRANCH  27  28
HETATM   28  O3  UNL     1       8.174   5.061  78.872  1.00  0.00    -0.396 OA
ATOM     29  H3  UNL     1       8.904   5.526  78.479  1.00  0.00     0.209 HD
ENDBRANCH  27  28
ENDBRANCH  26  27
ENDBRANCH  23  26
ENDBRANCH  16  20
ENDBRANCH   9  11
ENDBRANCH   8   9
ENDBRANCH   7   8
ENDBRANCH   1   7
BRANCH   6  30
HETATM   30  C7  UNL     1      -0.150   3.759  82.416  1.00  0.00     0.077 A 
HETATM   31  C8  UNL     1       0.445   4.801  81.784  1.00  0.00     0.124 A 
HETATM   32  N4  UNL     1       0.295   4.706  80.434  1.00  0.00    -0.342 N 
HETATM   33  C18 UNL     1      -0.404   3.589  80.218  1.00  0.00     0.183 A 
HETATM   34  N7  UNL     1      -0.673   3.019  81.389  1.00  0.00    -0.349 N 
ATOM     35  H7  UNL     1      -1.196   2.152  81.507  1.00  0.00     0.166 HD
BRANCH  32  36
HETATM   36  C9  UNL     1       0.790   5.610  79.445  1.00  0.00     0.232 C 
BRANCH  36  37
HETATM   37  C10 UNL     1       0.157   6.975  79.568  1.00  0.00     0.239 C 
HETATM   38  O1  UNL     1      -1.068   6.999  79.393  1.00  0.00    -0.271 OA
HETATM   39  N5  UNL     1       0.942   8.102  79.859  1.00  0.00    -0.339 N 
ATOM     40  H5  UNL     1       1.937   7.929  79.999  1.00  0.00     0.167 HD
BRANCH  39  41
HETATM   41  C11 UNL     1       0.529   9.433  79.983  1.00  0.00     0.065 C 
BRANCH  41  42
HETATM   42  C12 UNL     1       0.572  10.390  78.861  1.00  0.00     0.074 C 
BRANCH  42  43
HETATM   43  C13 UNL     1      -0.680  11.008  78.402  1.00  0.00     0.277 C 
BRANCH  43  44
HETATM   44  N6  UNL     1      -1.508   9.981  77.717  1.00  0.00     0.092 N 
HETATM   45  C14 UNL     1      -1.548  10.356  76.308  1.00  0.00     0.298 C 
HETATM   46  C15 UNL     1      -2.832   9.822  75.674  1.00  0.00     0.198 C 
HETATM   47  O2  UNL     1      -3.125   8.617  76.337  1.00  0.00    -0.388 OA
HETATM   48  C16 UNL     1      -3.676   8.992  77.568  1.00  0.00     0.198 C 
HETATM   49  C17 UNL     1      -2.889  10.132  78.193  1.00  0.00     0.298 C 
ENDBRANCH  43  44
ENDBRANCH  42  43
ENDBRANCH  41  42
ENDBRANCH  39  41
ENDBRANCH  36  37
ENDBRANCH  32  36
ENDBRANCH   6  30
TORSDOF 15
ENDMDL
MODEL 5
REMARK VINA RESULT: -7.117528284      1.505      1.872
REMARK  15 active torsions:
REMARK  status: ('A' for Active; 'I' for Inactive)
REMARK    1  A    between atoms: N1_2  and  C2_3 
REMARK    2  A    between atoms: N1_2  and  C19_31 
REMARK    3  A    between atoms: C2_3  and  C3_4 
REMARK    4  A    between atoms: C3_4  and  N2_5 
REMARK    5  A    between atoms: C6_10  and  C7_11 
REMARK    6  A    between atoms: N4_13  and  C9_14 
REMARK    7  A    between atoms: C9_14  and  C10_15 
REMARK       I    between atoms: C10_15  and  N5_17 
REMARK    8  A    between atoms: N5_17  and  C11_19 
REMARK    9  A    between atoms: C11_19  and  C12_20 
REMARK   10  A    between atoms: C12_20  and  C13_21 
REMARK   11  A    between atoms: C13_21  and  N6_22 
REMARK   12  A    between atoms: C21_37  and  N10_38 
REMARK   13  A    between atoms: N11_41  and  C24_42 
REMARK   14  A    between atoms: C24_42  and  C25_43 
REMARK   15  A    between atoms: C25_43  and  O3_44 
ROOT
HETATM    1  N2  UNL     1       6.704   6.529  80.118  1.00  0.00    -0.335 N 
HETATM    2  C4  UNL     1       8.043   6.834  80.093  1.00  0.00     0.183 A 
HETATM    3  N3  UNL     1       8.265   7.760  81.005  1.00  0.00    -0.360 N 
ATOM      4  H3  UNL     1       9.172   8.179  81.211  1.00  0.00     0.166 HD
HETATM    5  C5  UNL     1       7.123   8.062  81.615  1.00  0.00     0.121 A 
HETATM    6  C6  UNL     1       6.107   7.263  81.038  1.00  0.00     0.079 A 
ENDROOT
BRANCH   1   7
HETATM    7  C3  UNL     1       6.186   5.485  79.268  1.00  0.00     0.175 C 
BRANCH   7   8
HETATM    8  C2  UNL     1       5.309   5.918  78.157  1.00  0.00     0.101 C 
BRANCH   8   9
HETATM    9  N1  UNL     1       5.804   6.570  77.021  1.00  0.00    -0.199 N 
HETATM   10  C1  UNL     1       6.099   7.983  76.961  1.00  0.00     0.174 C 
BRANCH   9  11
HETATM   11  C19 UNL     1       6.067   5.826  75.808  1.00  0.00     0.699 A 
HETATM   12  N8  UNL     1       5.333   6.015  74.705  1.00  0.00    -0.186 N 
HETATM   13  C20 UNL     1       5.609   5.322  73.590  1.00  0.00     0.215 A 
ATOM     14  H8  UNL     1       4.565   6.686  74.712  1.00  0.00     0.185 HD
HETATM   15  N9  UNL     1       6.629   4.421  73.556  1.00  0.00    -0.187 N 
HETATM   16  C21 UNL     1       7.378   4.219  74.661  1.00  0.00     0.696 A 
ATOM     17  H9  UNL     1       6.826   3.900  72.702  1.00  0.00     0.185 HD
HETATM   18  N12 UNL     1       7.073   4.928  75.752  1.00  0.00    -0.022 N 
ATOM     19  H12 UNL     1       7.634   4.782  76.591  1.00  0.00     0.203 HD
BRANCH  16  20
HETATM   20  N10 UNL     1       8.458   3.282  74.637  1.00  0.00    -0.211 N 
HETATM   21  C22 UNL     1       9.784   3.632  74.214  1.00  0.00     0.161 C 
HETATM   22  C23 UNL     1      10.883   2.849  74.862  1.00  0.00     0.147 C 
HETATM   23  N11 UNL     1      10.631   1.445  74.961  1.00  0.00    -0.369 N 
HETATM   24  C26 UNL     1       9.368   1.014  74.540  1.00  0.00     0.083 C 
HETATM   25  C27 UNL     1       8.229   1.890  75.046  1.00  0.00     0.186 C 
BRANCH  23  26
HETATM   26  C24 UNL     1      11.392   0.744  75.900  1.00  0.00     0.089 C 
BRANCH  26  27
HETATM   27  C25 UNL     1      11.661  -0.676  75.469  1.00  0.00     0.208 C 
BRANCH  27  28
HETATM   28  O3  UNL     1      12.157  -1.441  76.539  1.00  0.00    -0.396 OA
ATOM     29  H3  UNL     1      12.146  -2.368  76.329  1.00  0.00     0.209 HD
ENDBRANCH  27  28
ENDBRANCH  26  27
ENDBRANCH  23  26
ENDBRANCH  16  20
ENDBRANCH   9  11
ENDBRANCH   8   9
ENDBRANCH   7   8
ENDBRANCH   1   7
BRANCH   6  30
HETATM   30  C7  UNL     1       4.701   7.377  81.448  1.00  0.00     0.077 A 
HETATM   31  C8  UNL     1       3.700   8.234  81.131  1.00  0.00     0.124 A 
HETATM   32  N4  UNL     1       2.563   7.936  81.819  1.00  0.00    -0.342 N 
HETATM   33  C18 UNL     1       2.857   6.878  82.577  1.00  0.00     0.183 A 
HETATM   34  N7  UNL     1       4.125   6.538  82.363  1.00  0.00    -0.349 N 
ATOM     35  H7  UNL     1       4.603   5.760  82.818  1.00  0.00     0.166 HD
BRANCH  32  36
HETATM   36  C9  UNL     1       1.306   8.611  81.743  1.00  0.00     0.232 C 
BRANCH  36  37
HETATM   37  C10 UNL     1       0.167   7.725  82.187  1.00  0.00     0.239 C 
HETATM   38  O1  UNL     1      -0.277   6.970  81.313  1.00  0.00    -0.271 OA
HETATM   39  N5  UNL     1      -0.316   7.789  83.503  1.00  0.00    -0.339 N 
ATOM     40  H5  UNL     1       0.161   8.444  84.123  1.00  0.00     0.167 HD
BRANCH  39  41
HETATM   41  C11 UNL     1      -1.369   7.066  84.072  1.00  0.00     0.065 C 
BRANCH  41  42
HETATM   42  C12 UNL     1      -1.246   5.648  84.462  1.00  0.00     0.074 C 
BRANCH  42  43
HETATM   43  C13 UNL     1       0.078   5.120  84.821  1.00  0.00     0.277 C 
BRANCH  43  44
HETATM   44  N6  UNL     1      -0.082   4.067  85.858  1.00  0.00     0.092 N 
HETATM   45  C14 UNL     1      -0.289   2.812  85.144  1.00  0.00     0.298 C 
HETATM   46  C15 UNL     1      -1.097   1.854  86.020  1.00  0.00     0.198 C 
HETATM   47  O2  UNL     1      -0.729   2.133  87.348  1.00  0.00    -0.388 OA
HETATM   48  C16 UNL     1      -1.415   3.305  87.687  1.00  0.00     0.198 C 
HETATM   49  C17 UNL     1      -1.347   4.322  86.559  1.00  0.00     0.298 C 
ENDBRANCH  43  44
ENDBRANCH  42  43
ENDBRANCH  41  42
ENDBRANCH  39  41
ENDBRANCH  36  37
ENDBRANCH  32  36
ENDBRANCH   6  30
TORSDOF 15
ENDMDL
