MODEL 1
REMARK VINA RESULT: -6.941668203      0.000      0.000
REMARK  16 active torsions:
REMARK  status: ('A' for Active; 'I' for Inactive)
REMARK    1  A    between atoms: C2_2  and  N1_3 
REMARK    2  A    between atoms: N1_3  and  C3_4 
REMARK    3  A    between atoms: N1_3  and  C9_12 
REMARK    4  A    between atoms: C3_4  and  C4_5 
REMARK    5  A    between atoms: C4_5  and  N2_6 
REMARK    6  A    between atoms: C10_15  and  N4_16 
REMARK       I    between atoms: N5_19  and  C13_20 
REMARK    7  A    between atoms: C13_20  and  C14_22 
REMARK    8  A    between atoms: C14_22  and  N6_23 
REMARK    9  A    between atoms: N6_23  and  C15_24 
REMARK   10  A    between atoms: N6_23  and  C17_28 
REMARK   11  A    between atoms: C15_24  and  C16_25 
REMARK   12  A    between atoms: C16_25  and  O3_26 
REMARK   13  A    between atoms: C17_28  and  C18_29 
REMARK   14  A    between atoms: C18_29  and  O4_30 
REMARK   15  A    between atoms: C20_33  and  N7_34 
REMARK   16  A    between atoms: C25_45  and  O5_46 
ROOT
HETATM    1  N4  UNL     1       4.069   6.836  81.116  1.00  0.00    -0.191 N 
HETATM    2  C11 UNL     1       4.006   7.617  82.337  1.00  0.00     0.163 C 
HETATM    3  C12 UNL     1       3.029   7.078  83.319  1.00  0.00     0.146 C 
HETATM    4  N5  UNL     1       1.857   6.470  82.723  1.00  0.00    -0.345 N 
HETATM    5  C13 UNL     1       0.913   5.775  83.555  1.00  0.00     0.238 C 
HETATM    6  O2  UNL     1       1.171   5.753  84.792  1.00  0.00    -0.272 OA
HETATM    7  C19 UNL     1       1.650   6.585  81.319  1.00  0.00     0.175 C 
HETATM    8  C20 UNL     1       2.873   6.353  80.471  1.00  0.00     0.244 C 
ENDROOT
BRANCH   1   9
HETATM    9  C10 UNL     1       5.340   6.523  80.564  1.00  0.00     0.683 A 
HETATM   10  N3  UNL     1       5.531   5.883  79.399  1.00  0.00    -0.174 N 
HETATM   11  C9  UNL     1       6.748   5.596  78.901  1.00  0.00     0.154 A 
ATOM     12  H3  UNL     1       4.711   5.601  78.863  1.00  0.00     0.186 HD
HETATM   13  C25 UNL     1       7.890   5.958  79.593  1.00  0.00     0.128 A 
HETATM   14  C24 UNL     1       7.706   6.616  80.793  1.00  0.00     0.146 A 
HETATM   15  N10 UNL     1       6.469   6.880  81.245  1.00  0.00    -0.199 N 
ATOM     16  H10 UNL     1       6.367   7.367  82.136  1.00  0.00     0.183 HD
BRANCH  11  17
HETATM   17  N1  UNL     1       6.927   4.933  77.635  1.00  0.00    -0.363 N 
BRANCH  17  18
HETATM   18  C2  UNL     1       6.489   5.672  76.483  1.00  0.00     0.120 C 
HETATM   19  C1  UNL     1       5.216   5.164  75.889  1.00  0.00     0.026 C 
ENDBRANCH  17  18
BRANCH  17  20
HETATM   20  C3  UNL     1       7.508   3.636  77.620  1.00  0.00     0.154 C 
BRANCH  20  21
HETATM   21  C4  UNL     1       8.409   3.321  76.480  1.00  0.00     0.292 C 
BRANCH  21  22
HETATM   22  N2  UNL     1       8.055   2.255  75.619  1.00  0.00     0.094 N 
HETATM   23  C5  UNL     1       9.227   1.762  74.956  1.00  0.00     0.298 C 
HETATM   24  C6  UNL     1       9.842   0.542  75.553  1.00  0.00     0.198 C 
HETATM   25  O1  UNL     1       8.864  -0.447  75.753  1.00  0.00    -0.388 OA
HETATM   26  C7  UNL     1       8.084   0.076  76.814  1.00  0.00     0.198 C 
HETATM   27  C8  UNL     1       7.300   1.202  76.256  1.00  0.00     0.298 C 
ENDBRANCH  21  22
ENDBRANCH  20  21
ENDBRANCH  17  20
ENDBRANCH  11  17
BRANCH  13  28
HETATM   28  O5  UNL     1       9.145   5.667  79.091  1.00  0.00    -0.351 OA
HETATM   29  C26 UNL     1      10.293   6.419  79.383  1.00  0.00     0.210 C 
ENDBRANCH  13  28
ENDBRANCH   1   9
BRANCH   8  30
HETATM   30  N7  UNL     1       2.690   6.944  79.154  1.00  0.00    -0.260 N 
HETATM   31  C21 UNL     1       2.816   8.251  78.884  1.00  0.00     0.204 A 
HETATM   32  N8  UNL     1       2.579   8.386  77.570  1.00  0.00    -0.340 N 
HETATM   33  C22 UNL     1       2.307   7.194  77.015  1.00  0.00     0.092 A 
ATOM     34  H8  UNL     1       2.603   9.271  77.063  1.00  0.00     0.168 HD
HETATM   35  C23 UNL     1       1.996   6.926  75.588  1.00  0.00     0.090 C 
HETATM   36  N9  UNL     1       2.386   6.311  78.041  1.00  0.00    -0.284 N 
ATOM     37  H9  UNL     1       2.232   5.306  77.962  1.00  0.00     0.188 HD
ENDBRANCH   8  30
BRANCH   5  38
HETATM   38  C14 UNL     1      -0.296   5.114  83.056  1.00  0.00     0.230 C 
BRANCH  38  39
HETATM   39  N6  UNL     1      -0.300   3.705  83.190  1.00  0.00    -0.361 N 
BRANCH  39  40
HETATM   40  C15 UNL     1       0.069   2.893  82.133  1.00  0.00     0.089 C 
BRANCH  40  41
HETATM   41  C16 UNL     1      -0.173   3.348  80.736  1.00  0.00     0.208 C 
BRANCH  41  42
HETATM   42  O3  UNL     1      -1.476   3.297  80.293  1.00  0.00    -0.396 OA
ATOM     43  H3  UNL     1      -1.599   3.201  79.356  1.00  0.00     0.209 HD
ENDBRANCH  41  42
ENDBRANCH  40  41
ENDBRANCH  39  40
BRANCH  39  44
HETATM   44  C17 UNL     1      -0.796   3.260  84.409  1.00  0.00     0.089 C 
BRANCH  44  45
HETATM   45  C18 UNL     1       0.087   2.278  85.168  1.00  0.00     0.208 C 
BRANCH  45  46
HETATM   46  O4  UNL     1       1.100   2.874  85.873  1.00  0.00    -0.396 OA
ATOM     47  H4  UNL     1       1.357   2.397  86.654  1.00  0.00     0.209 HD
ENDBRANCH  45  46
ENDBRANCH  44  45
ENDBRANCH  39  44
ENDBRANCH  38  39
ENDBRANCH   5  38
TORSDOF 16
ENDMDL
MODEL 2
REMARK VINA RESULT: -6.839108803      0.584      1.978
REMARK  16 active torsions:
REMARK  status: ('A' for Active; 'I' for Inactive)
REMARK    1  A    between atoms: C2_2  and  N1_3 
REMARK    2  A    between atoms: N1_3  and  C3_4 
REMARK    3  A    between atoms: N1_3  and  C9_12 
REMARK    4  A    between atoms: C3_4  and  C4_5 
REMARK    5  A    between atoms: C4_5  and  N2_6 
REMARK    6  A    between atoms: C10_15  and  N4_16 
REMARK       I    between atoms: N5_19  and  C13_20 
REMARK    7  A    between atoms: C13_20  and  C14_22 
REMARK    8  A    between atoms: C14_22  and  N6_23 
REMARK    9  A    between atoms: N6_23  and  C15_24 
REMARK   10  A    between atoms: N6_23  and  C17_28 
REMARK   11  A    between atoms: C15_24  and  C16_25 
REMARK   12  A    between atoms: C16_25  and  O3_26 
REMARK   13  A    between atoms: C17_28  and  C18_29 
REMARK   14  A    between atoms: C18_29  and  O4_30 
REMARK   15  A    between atoms: C20_33  and  N7_34 
REMARK   16  A    between atoms: C25_45  and  O5_46 
ROOT
HETATM    1  N4  UNL     1       4.016   6.817  80.974  1.00  0.00    -0.191 N 
HETATM    2  C11 UNL     1       4.023   7.589  82.202  1.00  0.00     0.163 C 
HETATM    3  C12 UNL     1       3.068   7.072  83.217  1.00  0.00     0.146 C 
HETATM    4  N5  UNL     1       1.856   6.504  82.661  1.00  0.00    -0.345 N 
HETATM    5  C13 UNL     1       0.923   5.832  83.523  1.00  0.00     0.238 C 
HETATM    6  O2  UNL     1       1.226   5.792  84.749  1.00  0.00    -0.272 OA
HETATM    7  C19 UNL     1       1.599   6.638  81.267  1.00  0.00     0.175 C 
HETATM    8  C20 UNL     1       2.782   6.376  80.372  1.00  0.00     0.244 C 
ENDROOT
BRANCH   1   9
HETATM    9  C10 UNL     1       5.255   6.470  80.372  1.00  0.00     0.683 A 
HETATM   10  N3  UNL     1       5.400   6.065  79.100  1.00  0.00    -0.174 N 
HETATM   11  C9  UNL     1       6.587   5.738  78.557  1.00  0.00     0.154 A 
ATOM     12  H3  UNL     1       4.567   6.001  78.515  1.00  0.00     0.186 HD
HETATM   13  C25 UNL     1       7.744   5.807  79.311  1.00  0.00     0.128 A 
HETATM   14  C24 UNL     1       7.608   6.223  80.621  1.00  0.00     0.146 A 
HETATM   15  N10 UNL     1       6.399   6.538  81.115  1.00  0.00    -0.199 N 
ATOM     16  H10 UNL     1       6.332   6.840  82.087  1.00  0.00     0.183 HD
BRANCH  11  17
HETATM   17  N1  UNL     1       6.720   5.332  77.180  1.00  0.00    -0.363 N 
BRANCH  17  18
HETATM   18  C2  UNL     1       6.746   6.401  76.220  1.00  0.00     0.120 C 
HETATM   19  C1  UNL     1       5.515   6.485  75.379  1.00  0.00     0.026 C 
ENDBRANCH  17  18
BRANCH  17  20
HETATM   20  C3  UNL     1       6.815   3.946  76.884  1.00  0.00     0.154 C 
BRANCH  20  21
HETATM   21  C4  UNL     1       7.833   3.546  75.878  1.00  0.00     0.292 C 
BRANCH  21  22
HETATM   22  N2  UNL     1       8.792   2.570  76.242  1.00  0.00     0.094 N 
HETATM   23  C5  UNL     1       8.341   1.861  77.403  1.00  0.00     0.298 C 
HETATM   24  C6  UNL     1       7.694   0.543  77.144  1.00  0.00     0.198 C 
HETATM   25  O1  UNL     1       8.501  -0.237  76.298  1.00  0.00    -0.388 OA
HETATM   26  C7  UNL     1       8.402   0.426  75.050  1.00  0.00     0.198 C 
HETATM   27  C8  UNL     1       9.174   1.683  75.169  1.00  0.00     0.298 C 
ENDBRANCH  21  22
ENDBRANCH  20  21
ENDBRANCH  17  20
ENDBRANCH  11  17
BRANCH  13  28
HETATM   28  O5  UNL     1       8.969   5.473  78.762  1.00  0.00    -0.351 OA
HETATM   29  C26 UNL     1      10.123   6.260  78.898  1.00  0.00     0.210 C 
ENDBRANCH  13  28
ENDBRANCH   1   9
BRANCH   8  30
HETATM   30  N7  UNL     1       2.568   6.983  79.067  1.00  0.00    -0.260 N 
HETATM   31  C21 UNL     1       2.659   8.297  78.816  1.00  0.00     0.204 A 
HETATM   32  N8  UNL     1       2.402   8.447  77.507  1.00  0.00    -0.340 N 
HETATM   33  C22 UNL     1       2.151   7.258  76.937  1.00  0.00     0.092 A 
ATOM     34  H8  UNL     1       2.397   9.340  77.015  1.00  0.00     0.168 HD
HETATM   35  C23 UNL     1       1.828   7.005  75.509  1.00  0.00     0.090 C 
HETATM   36  N9  UNL     1       2.264   6.360  77.947  1.00  0.00    -0.284 N 
ATOM     37  H9  UNL     1       2.134   5.353  77.854  1.00  0.00     0.188 HD
ENDBRANCH   8  30
BRANCH   5  38
HETATM   38  C14 UNL     1      -0.323   5.212  83.066  1.00  0.00     0.230 C 
BRANCH  38  39
HETATM   39  N6  UNL     1      -0.404   3.815  83.277  1.00  0.00    -0.361 N 
BRANCH  39  40
HETATM   40  C15 UNL     1      -0.825   3.306  84.492  1.00  0.00     0.089 C 
BRANCH  40  41
HETATM   41  C16 UNL     1       0.041   2.344  85.227  1.00  0.00     0.208 C 
BRANCH  41  42
HETATM   42  O3  UNL     1       1.115   2.878  85.901  1.00  0.00    -0.396 OA
ATOM     43  H3  UNL     1       0.915   3.519  86.573  1.00  0.00     0.209 HD
ENDBRANCH  41  42
ENDBRANCH  40  41
ENDBRANCH  39  40
BRANCH  39  44
HETATM   44  C17 UNL     1       0.066   3.059  82.210  1.00  0.00     0.089 C 
BRANCH  44  45
HETATM   45  C18 UNL     1      -0.214   3.620  80.821  1.00  0.00     0.208 C 
BRANCH  45  46
HETATM   46  O4  UNL     1      -1.427   3.243  80.307  1.00  0.00    -0.396 OA
ATOM     47  H4  UNL     1      -1.682   3.727  79.530  1.00  0.00     0.209 HD
ENDBRANCH  45  46
ENDBRANCH  44  45
ENDBRANCH  39  44
ENDBRANCH  38  39
ENDBRANCH   5  38
TORSDOF 16
ENDMDL
MODEL 3
REMARK VINA RESULT: -6.687487724      2.101      3.062
REMARK  16 active torsions:
REMARK  status: ('A' for Active; 'I' for Inactive)
REMARK    1  A    between atoms: C2_2  and  N1_3 
REMARK    2  A    between atoms: N1_3  and  C3_4 
REMARK    3  A    between atoms: N1_3  and  C9_12 
REMARK    4  A    between atoms: C3_4  and  C4_5 
REMARK    5  A    between atoms: C4_5  and  N2_6 
REMARK    6  A    between atoms: C10_15  and  N4_16 
REMARK       I    between atoms: N5_19  and  C13_20 
REMARK    7  A    between atoms: C13_20  and  C14_22 
REMARK    8  A    between atoms: C14_22  and  N6_23 
REMARK    9  A    between atoms: N6_23  and  C15_24 
REMARK   10  A    between atoms: N6_23  and  C17_28 
REMARK   11  A    between atoms: C15_24  and  C16_25 
REMARK   12  A    between atoms: C16_25  and  O3_26 
REMARK   13  A    between atoms: C17_28  and  C18_29 
REMARK   14  A    between atoms: C18_29  and  O4_30 
REMARK   15  A    between atoms: C20_33  and  N7_34 
REMARK   16  A    between atoms: C25_45  and  O5_46 
ROOT
HETATM    1  N4  UNL     1       2.537   6.926  80.288  1.00  0.00    -0.191 N 
HETATM    2  C11 UNL     1       3.481   7.263  81.337  1.00  0.00     0.163 C 
HETATM    3  C12 UNL     1       3.145   6.634  82.642  1.00  0.00     0.146 C 
HETATM    4  N5  UNL     1       1.724   6.493  82.888  1.00  0.00    -0.345 N 
HETATM    5  C13 UNL     1       1.269   5.764  84.039  1.00  0.00     0.238 C 
HETATM    6  O2  UNL     1       2.169   5.290  84.790  1.00  0.00    -0.272 OA
HETATM    7  C19 UNL     1       0.798   7.098  81.992  1.00  0.00     0.175 C 
HETATM    8  C20 UNL     1       1.116   6.921  80.530  1.00  0.00     0.244 C 
ENDROOT
BRANCH   1   9
HETATM    9  C10 UNL     1       3.033   6.569  79.005  1.00  0.00     0.683 A 
HETATM   10  N3  UNL     1       4.334   6.465  78.691  1.00  0.00    -0.174 N 
HETATM   11  C9  UNL     1       4.776   6.129  77.464  1.00  0.00     0.154 A 
ATOM     12  H3  UNL     1       5.023   6.649  79.419  1.00  0.00     0.186 HD
HETATM   13  C25 UNL     1       3.878   5.872  76.444  1.00  0.00     0.128 A 
HETATM   14  C24 UNL     1       2.537   5.976  76.756  1.00  0.00     0.146 A 
HETATM   15  N10 UNL     1       2.148   6.314  77.996  1.00  0.00    -0.199 N 
ATOM     16  H10 UNL     1       1.150   6.384  78.193  1.00  0.00     0.183 HD
BRANCH  11  17
HETATM   17  N1  UNL     1       6.177   5.997  77.159  1.00  0.00    -0.363 N 
BRANCH  17  18
HETATM   18  C2  UNL     1       6.809   7.175  76.632  1.00  0.00     0.120 C 
HETATM   19  C1  UNL     1       8.028   7.595  77.388  1.00  0.00     0.026 C 
ENDBRANCH  17  18
BRANCH  17  20
HETATM   20  C3  UNL     1       6.812   4.748  77.397  1.00  0.00     0.154 C 
BRANCH  20  21
HETATM   21  C4  UNL     1       7.192   3.953  76.201  1.00  0.00     0.292 C 
BRANCH  21  22
HETATM   22  N2  UNL     1       8.327   3.110  76.286  1.00  0.00     0.094 N 
HETATM   23  C5  UNL     1       8.201   2.245  77.422  1.00  0.00     0.298 C 
HETATM   24  C6  UNL     1       7.704   0.869  77.135  1.00  0.00     0.198 C 
HETATM   25  O1  UNL     1       8.439   0.297  76.083  1.00  0.00    -0.388 OA
HETATM   26  C7  UNL     1       8.020   1.038  74.950  1.00  0.00     0.198 C 
HETATM   27  C8  UNL     1       8.621   2.385  75.072  1.00  0.00     0.298 C 
ENDBRANCH  21  22
ENDBRANCH  20  21
ENDBRANCH  17  20
ENDBRANCH  11  17
BRANCH  13  28
HETATM   28  O5  UNL     1       4.322   5.526  75.181  1.00  0.00    -0.351 OA
HETATM   29  C26 UNL     1       4.046   6.276  74.027  1.00  0.00     0.210 C 
ENDBRANCH  13  28
ENDBRANCH   1   9
BRANCH   8  30
HETATM   30  N7  UNL     1       0.428   7.933  79.741  1.00  0.00    -0.260 N 
HETATM   31  C21 UNL     1       0.861   9.191  79.576  1.00  0.00     0.204 A 
HETATM   32  N8  UNL     1      -0.039   9.796  78.785  1.00  0.00    -0.340 N 
HETATM   33  C22 UNL     1      -1.024   8.944  78.455  1.00  0.00     0.092 A 
ATOM     34  H8  UNL     1       0.017  10.767  78.477  1.00  0.00     0.168 HD
HETATM   35  C23 UNL     1      -2.200   9.233  77.595  1.00  0.00     0.090 C 
HETATM   36  N9  UNL     1      -0.697   7.783  79.074  1.00  0.00    -0.284 N 
ATOM     37  H9  UNL     1      -1.241   6.922  79.030  1.00  0.00     0.188 HD
ENDBRANCH   8  30
BRANCH   5  38
HETATM   38  C14 UNL     1      -0.141   5.549  84.376  1.00  0.00     0.230 C 
BRANCH  38  39
HETATM   39  N6  UNL     1      -0.640   4.264  84.056  1.00  0.00    -0.361 N 
BRANCH  39  40
HETATM   40  C15 UNL     1      -0.634   3.809  82.750  1.00  0.00     0.089 C 
BRANCH  40  41
HETATM   41  C16 UNL     1       0.300   2.720  82.354  1.00  0.00     0.208 C 
BRANCH  41  42
HETATM   42  O3  UNL     1       0.091   1.492  82.938  1.00  0.00    -0.396 OA
ATOM     43  H3  UNL     1       0.185   0.734  82.374  1.00  0.00     0.209 HD
ENDBRANCH  41  42
ENDBRANCH  40  41
ENDBRANCH  39  40
BRANCH  39  44
HETATM   44  C17 UNL     1      -1.202   3.596  85.136  1.00  0.00     0.089 C 
BRANCH  44  45
HETATM   45  C18 UNL     1      -0.229   3.136  86.215  1.00  0.00     0.208 C 
BRANCH  45  46
HETATM   46  O4  UNL     1       0.846   2.437  85.729  1.00  0.00    -0.396 OA
ATOM     47  H4  UNL     1       1.590   2.419  86.320  1.00  0.00     0.209 HD
ENDBRANCH  45  46
ENDBRANCH  44  45
ENDBRANCH  39  44
ENDBRANCH  38  39
ENDBRANCH   5  38
TORSDOF 16
ENDMDL
MODEL 4
REMARK VINA RESULT: -6.638041450      2.241      8.758
REMARK  16 active torsions:
REMARK  status: ('A' for Active; 'I' for Inactive)
REMARK    1  A    between atoms: C2_2  and  N1_3 
REMARK    2  A    between atoms: N1_3  and  C3_4 
REMARK    3  A    between atoms: N1_3  and  C9_12 
REMARK    4  A    between atoms: C3_4  and  C4_5 
REMARK    5  A    between atoms: C4_5  and  N2_6 
REMARK    6  A    between atoms: C10_15  and  N4_16 
REMARK       I    between atoms: N5_19  and  C13_20 
REMARK    7  A    between atoms: C13_20  and  C14_22 
REMARK    8  A    between atoms: C14_22  and  N6_23 
REMARK    9  A    between atoms: N6_23  and  C15_24 
REMARK   10  A    between atoms: N6_23  and  C17_28 
REMARK   11  A    between atoms: C15_24  and  C16_25 
REMARK   12  A    between atoms: C16_25  and  O3_26 
REMARK   13  A    between atoms: C17_28  and  C18_29 
REMARK   14  A    between atoms: C18_29  and  O4_30 
REMARK   15  A    between atoms: C20_33  and  N7_34 
REMARK   16  A    between atoms: C25_45  and  O5_46 
ROOT
HETATM    1  N4  UNL     1       5.907   6.119  78.994  1.00  0.00    -0.191 N 
HETATM    2  C11 UNL     1       5.468   6.420  77.645  1.00  0.00     0.163 C 
HETATM    3  C12 UNL     1       6.065   5.515  76.627  1.00  0.00     0.146 C 
HETATM    4  N5  UNL     1       7.415   5.085  76.929  1.00  0.00    -0.345 N 
HETATM    5  C13 UNL     1       8.047   4.090  76.107  1.00  0.00     0.238 C 
HETATM    6  O2  UNL     1       7.364   3.653  75.137  1.00  0.00    -0.272 OA
HETATM    7  C19 UNL     1       8.104   5.671  78.029  1.00  0.00     0.175 C 
HETATM    8  C20 UNL     1       7.287   5.821  79.286  1.00  0.00     0.244 C 
ENDROOT
BRANCH   1   9
HETATM    9  C10 UNL     1       4.946   6.094  80.041  1.00  0.00     0.683 A 
HETATM   10  N3  UNL     1       4.259   7.164  80.473  1.00  0.00    -0.174 N 
HETATM   11  C9  UNL     1       3.357   7.113  81.471  1.00  0.00     0.154 A 
ATOM     12  H3  UNL     1       4.430   8.063  80.021  1.00  0.00     0.186 HD
HETATM   13  C25 UNL     1       3.093   5.917  82.114  1.00  0.00     0.128 A 
HETATM   14  C24 UNL     1       3.794   4.809  81.678  1.00  0.00     0.146 A 
HETATM   15  N10 UNL     1       4.684   4.915  80.677  1.00  0.00    -0.199 N 
ATOM     16  H10 UNL     1       5.186   4.078  80.380  1.00  0.00     0.183 HD
BRANCH  11  17
HETATM   17  N1  UNL     1       2.612   8.270  81.898  1.00  0.00    -0.363 N 
BRANCH  17  18
HETATM   18  C2  UNL     1       3.212   9.034  82.957  1.00  0.00     0.120 C 
HETATM   19  C1  UNL     1       2.302   9.269  84.119  1.00  0.00     0.026 C 
ENDBRANCH  17  18
BRANCH  17  20
HETATM   20  C3  UNL     1       1.379   8.562  81.257  1.00  0.00     0.154 C 
BRANCH  20  21
HETATM   21  C4  UNL     1       1.430   8.815  79.793  1.00  0.00     0.292 C 
BRANCH  21  22
HETATM   22  N2  UNL     1       0.566   8.073  78.952  1.00  0.00     0.094 N 
HETATM   23  C5  UNL     1       1.211   7.828  77.696  1.00  0.00     0.298 C 
HETATM   24  C6  UNL     1       1.846   6.487  77.546  1.00  0.00     0.198 C 
HETATM   25  O1  UNL     1       0.940   5.476  77.909  1.00  0.00    -0.388 OA
HETATM   26  C7  UNL     1       0.826   5.629  79.314  1.00  0.00     0.198 C 
HETATM   27  C8  UNL     1       0.047   6.865  79.550  1.00  0.00     0.298 C 
ENDBRANCH  21  22
ENDBRANCH  20  21
ENDBRANCH  17  20
ENDBRANCH  11  17
BRANCH  13  28
HETATM   28  O5  UNL     1       2.169   5.853  83.140  1.00  0.00    -0.351 OA
HETATM   29  C26 UNL     1       0.881   5.314  82.995  1.00  0.00     0.210 C 
ENDBRANCH  13  28
ENDBRANCH   1   9
BRANCH   8  30
HETATM   30  N7  UNL     1       7.886   6.823  80.156  1.00  0.00    -0.260 N 
HETATM   31  C21 UNL     1       8.283   8.038  79.754  1.00  0.00     0.204 A 
HETATM   32  N8  UNL     1       8.768   8.654  80.844  1.00  0.00    -0.340 N 
HETATM   33  C22 UNL     1       8.682   7.849  81.916  1.00  0.00     0.092 A 
ATOM     34  H8  UNL     1       9.148   9.600  80.856  1.00  0.00     0.168 HD
HETATM   35  C23 UNL     1       9.109   8.166  83.303  1.00  0.00     0.090 C 
HETATM   36  N9  UNL     1       8.123   6.707  81.446  1.00  0.00    -0.284 N 
ATOM     37  H9  UNL     1       7.917   5.882  82.008  1.00  0.00     0.188 HD
ENDBRANCH   8  30
BRANCH   5  38
HETATM   38  C14 UNL     1       9.400   3.574  76.330  1.00  0.00     0.230 C 
BRANCH  38  39
HETATM   39  N6  UNL     1       9.473   2.181  76.569  1.00  0.00    -0.361 N 
BRANCH  39  40
HETATM   40  C15 UNL     1      10.233   1.362  75.754  1.00  0.00     0.089 C 
BRANCH  40  41
HETATM   41  C16 UNL     1       9.969   1.332  74.289  1.00  0.00     0.208 C 
BRANCH  41  42
HETATM   42  O3  UNL     1       8.668   1.096  73.907  1.00  0.00    -0.396 OA
ATOM     43  H3  UNL     1       8.294   1.705  73.282  1.00  0.00     0.209 HD
ENDBRANCH  41  42
ENDBRANCH  40  41
ENDBRANCH  39  40
BRANCH  39  44
HETATM   44  C17 UNL     1       8.649   1.746  77.599  1.00  0.00     0.089 C 
BRANCH  44  45
HETATM   45  C18 UNL     1       7.710   0.594  77.261  1.00  0.00     0.208 C 
BRANCH  45  46
HETATM   46  O4  UNL     1       6.891   0.844  76.191  1.00  0.00    -0.396 OA
ATOM     47  H4  UNL     1       5.999   0.541  76.312  1.00  0.00     0.209 HD
ENDBRANCH  45  46
ENDBRANCH  44  45
ENDBRANCH  39  44
ENDBRANCH  38  39
ENDBRANCH   5  38
TORSDOF 16
ENDMDL
MODEL 5
REMARK VINA RESULT: -6.441072347      2.863      4.453
REMARK  16 active torsions:
REMARK  status: ('A' for Active; 'I' for Inactive)
REMARK    1  A    between atoms: C2_2  and  N1_3 
REMARK    2  A    between atoms: N1_3  and  C3_4 
REMARK    3  A    between atoms: N1_3  and  C9_12 
REMARK    4  A    between atoms: C3_4  and  C4_5 
REMARK    5  A    between atoms: C4_5  and  N2_6 
REMARK    6  A    between atoms: C10_15  and  N4_16 
REMARK       I    between atoms: N5_19  and  C13_20 
REMARK    7  A    between atoms: C13_20  and  C14_22 
REMARK    8  A    between atoms: C14_22  and  N6_23 
REMARK    9  A    between atoms: N6_23  and  C15_24 
REMARK   10  A    between atoms: N6_23  and  C17_28 
REMARK   11  A    between atoms: C15_24  and  C16_25 
REMARK   12  A    between atoms: C16_25  and  O3_26 
REMARK   13  A    between atoms: C17_28  and  C18_29 
REMARK   14  A    between atoms: C18_29  and  O4_30 
REMARK   15  A    between atoms: C20_33  and  N7_34 
REMARK   16  A    between atoms: C25_45  and  O5_46 
ROOT
HETATM    1  N4  UNL     1       2.121   7.316  80.421  1.00  0.00    -0.191 N 
HETATM    2  C11 UNL     1       3.134   7.580  81.425  1.00  0.00     0.163 C 
HETATM    3  C12 UNL     1       2.909   6.828  82.687  1.00  0.00     0.146 C 
HETATM    4  N5  UNL     1       1.513   6.630  83.023  1.00  0.00    -0.345 N 
HETATM    5  C13 UNL     1       1.159   5.788  84.132  1.00  0.00     0.238 C 
HETATM    6  O2  UNL     1       2.121   5.272  84.769  1.00  0.00    -0.272 OA
HETATM    7  C19 UNL     1       0.511   7.290  82.256  1.00  0.00     0.175 C 
HETATM    8  C20 UNL     1       0.722   7.253  80.765  1.00  0.00     0.244 C 
ENDROOT
BRANCH   1   9
HETATM    9  C10 UNL     1       2.526   7.089  79.078  1.00  0.00     0.683 A 
HETATM   10  N3  UNL     1       3.618   7.624  78.508  1.00  0.00    -0.174 N 
HETATM   11  C9  UNL     1       3.975   7.395  77.231  1.00  0.00     0.154 A 
ATOM     12  H3  UNL     1       4.207   8.235  79.073  1.00  0.00     0.186 HD
HETATM   13  C25 UNL     1       3.206   6.574  76.426  1.00  0.00     0.128 A 
HETATM   14  C24 UNL     1       2.080   6.018  77.001  1.00  0.00     0.146 A 
HETATM   15  N10 UNL     1       1.768   6.278  78.281  1.00  0.00    -0.199 N 
ATOM     16  H10 UNL     1       0.929   5.853  78.676  1.00  0.00     0.183 HD
BRANCH  11  17
HETATM   17  N1  UNL     1       5.167   7.959  76.651  1.00  0.00    -0.363 N 
BRANCH  17  18
HETATM   18  C2  UNL     1       5.061   9.330  76.232  1.00  0.00     0.120 C 
HETATM   19  C1  UNL     1       5.452   9.557  74.808  1.00  0.00     0.026 C 
ENDBRANCH  17  18
BRANCH  17  20
HETATM   20  C3  UNL     1       6.324   7.143  76.541  1.00  0.00     0.154 C 
BRANCH  20  21
HETATM   21  C4  UNL     1       7.411   7.389  77.524  1.00  0.00     0.292 C 
BRANCH  21  22
HETATM   22  N2  UNL     1       7.900   6.293  78.275  1.00  0.00     0.094 N 
HETATM   23  C5  UNL     1       8.865   6.754  79.229  1.00  0.00     0.298 C 
HETATM   24  C6  UNL     1       8.357   6.958  80.616  1.00  0.00     0.198 C 
HETATM   25  O1  UNL     1       7.654   5.820  81.048  1.00  0.00    -0.388 OA
HETATM   26  C7  UNL     1       6.475   5.848  80.262  1.00  0.00     0.198 C 
HETATM   27  C8  UNL     1       6.870   5.483  78.882  1.00  0.00     0.298 C 
ENDBRANCH  21  22
ENDBRANCH  20  21
ENDBRANCH  17  20
ENDBRANCH  11  17
BRANCH  13  28
HETATM   28  O5  UNL     1       3.564   6.333  75.113  1.00  0.00    -0.351 OA
HETATM   29  C26 UNL     1       2.826   6.787  74.008  1.00  0.00     0.210 C 
ENDBRANCH  13  28
ENDBRANCH   1   9
BRANCH   8  30
HETATM   30  N7  UNL     1      -0.041   8.315  80.125  1.00  0.00    -0.260 N 
HETATM   31  C21 UNL     1      -1.053   8.112  79.269  1.00  0.00     0.204 A 
HETATM   32  N8  UNL     1      -1.492   9.330  78.914  1.00  0.00    -0.340 N 
HETATM   33  C22 UNL     1      -0.777  10.287  79.528  1.00  0.00     0.092 A 
ATOM     34  H8  UNL     1      -2.262   9.505  78.268  1.00  0.00     0.168 HD
HETATM   35  C23 UNL     1      -0.957  11.755  79.398  1.00  0.00     0.090 C 
HETATM   36  N9  UNL     1       0.126   9.611  80.281  1.00  0.00    -0.284 N 
ATOM     37  H9  UNL     1       0.830  10.043  80.879  1.00  0.00     0.188 HD
ENDBRANCH   8  30
BRANCH   5  38
HETATM   38  C14 UNL     1      -0.217   5.509  84.550  1.00  0.00     0.230 C 
BRANCH  38  39
HETATM   39  N6  UNL     1      -0.705   4.234  84.175  1.00  0.00    -0.361 N 
BRANCH  39  40
HETATM   40  C15 UNL     1      -0.715   3.842  82.849  1.00  0.00     0.089 C 
BRANCH  40  41
HETATM   41  C16 UNL     1       0.251   2.811  82.379  1.00  0.00     0.208 C 
BRANCH  41  42
HETATM   42  O3  UNL     1       0.112   1.552  82.917  1.00  0.00    -0.396 OA
ATOM     43  H3  UNL     1       0.061   0.832  82.300  1.00  0.00     0.209 HD
ENDBRANCH  41  42
ENDBRANCH  40  41
ENDBRANCH  39  40
BRANCH  39  44
HETATM   44  C17 UNL     1      -1.241   3.507  85.231  1.00  0.00     0.089 C 
BRANCH  44  45
HETATM   45  C18 UNL     1      -0.246   3.016  86.275  1.00  0.00     0.208 C 
BRANCH  45  46
HETATM   46  O4  UNL     1       0.867   2.419  85.742  1.00  0.00    -0.396 OA
ATOM     47  H4  UNL     1       0.714   2.006  84.900  1.00  0.00     0.209 HD
ENDBRANCH  45  46
ENDBRANCH  44  45
ENDBRANCH  39  44
ENDBRANCH  38  39
ENDBRANCH   5  38
TORSDOF 16
ENDMDL
