MODEL 1
REMARK VINA RESULT: -7.583379989      0.000      0.000
REMARK  18 active torsions:
REMARK  status: ('A' for Active; 'I' for Inactive)
REMARK    1  A    between atoms: C2_2  and  C3_3 
REMARK    2  A    between atoms: C3_3  and  N1_4 
REMARK       I    between atoms: N1_4  and  C4_5 
REMARK    3  A    between atoms: N1_4  and  C23_45 
REMARK    4  A    between atoms: C4_5  and  C5_7 
REMARK    5  A    between atoms: C5_7  and  N2_8 
REMARK    6  A    between atoms: C6_13  and  C7_14 
REMARK    7  A    between atoms: C7_14  and  C8_15 
REMARK    8  A    between atoms: C7_14  and  N7_28 
REMARK    9  A    between atoms: C8_15  and  O2_16 
REMARK   10  A    between atoms: C8_15  and  N5_18 
REMARK   11  A    between atoms: N6_21  and  C11_22 
REMARK   12  A    between atoms: C11_22  and  C12_23 
REMARK   13  A    between atoms: C12_23  and  O3_24 
REMARK   14  A    between atoms: N9_32  and  C16_33 
REMARK   15  A    between atoms: C16_33  and  C17_34 
REMARK   16  A    between atoms: C23_45  and  C24_46 
REMARK   17  A    between atoms: C23_45  and  C26_48 
REMARK   18  A    between atoms: C26_48  and  O5_49 
ROOT
HETATM    1  C7  UNL     1       6.168   5.972  80.079  1.00  0.00     0.257 C 
ENDROOT
BRANCH   1   2
HETATM    2  C6  UNL     1       4.903   5.656  80.744  1.00  0.00     0.146 A 
HETATM    3  N4  UNL     1       4.675   4.684  81.638  1.00  0.00    -0.270 N 
HETATM    4  N3  UNL     1       3.413   4.751  81.980  1.00  0.00    -0.224 N 
ATOM      5  H4  UNL     1       5.360   4.014  81.989  1.00  0.00     0.190 HD
HETATM    6  N2  UNL     1       2.794   5.745  81.334  1.00  0.00    -0.209 N 
ATOM      7  H3  UNL     1       2.961   4.127  82.649  1.00  0.00     0.210 HD
HETATM    8  N11 UNL     1       3.717   6.295  80.577  1.00  0.00    -0.267 N 
ATOM      9  H11 UNL     1       3.564   7.088  79.955  1.00  0.00     0.190 HD
BRANCH   6  10
HETATM   10  C5  UNL     1       1.390   6.111  81.517  1.00  0.00     0.274 C 
BRANCH  10  11
HETATM   11  C4  UNL     1       0.969   5.875  82.931  1.00  0.00     0.245 C 
HETATM   12  N1  UNL     1       0.156   4.842  83.393  1.00  0.00    -0.315 N 
HETATM   13  O1  UNL     1       1.432   6.739  83.724  1.00  0.00    -0.271 OA
BRANCH  12  14
HETATM   14  C3  UNL     1      -0.301   3.896  82.346  1.00  0.00     0.158 C 
BRANCH  14  15
HETATM   15  C2  UNL     1       0.554   2.762  82.111  1.00  0.00    -0.017 C 
HETATM   16  C1  UNL     1       0.161   1.566  81.755  1.00  0.00     0.008 C 
ENDBRANCH  14  15
ENDBRANCH  12  14
BRANCH  12  17
HETATM   17  C23 UNL     1      -0.294   4.676  84.719  1.00  0.00     0.034 C 
BRANCH  17  18
HETATM   18  C24 UNL     1      -1.430   5.404  85.289  1.00  0.00    -0.004 C 
HETATM   19  C25 UNL     1      -2.102   4.993  86.525  1.00  0.00     0.038 C 
ENDBRANCH  17  18
BRANCH  17  20
HETATM   20  C26 UNL     1      -0.238   3.210  85.207  1.00  0.00     0.220 C 
BRANCH  20  21
HETATM   21  O5  UNL     1       0.919   2.879  85.839  1.00  0.00    -0.395 OA
ATOM     22  H5  UNL     1       1.078   1.944  85.894  1.00  0.00     0.209 HD
ENDBRANCH  20  21
ENDBRANCH  17  20
ENDBRANCH  12  17
ENDBRANCH  10  11
ENDBRANCH   6  10
ENDBRANCH   1   2
BRANCH   1  23
HETATM   23  C8  UNL     1       6.512   7.410  80.078  1.00  0.00     0.147 C 
BRANCH  23  24
HETATM   24  O2  UNL     1       5.552   8.158  79.596  1.00  0.00    -0.347 OA
ATOM     25  H2  UNL     1       5.685   9.083  79.772  1.00  0.00     0.219 HD
ENDBRANCH  23  24
BRANCH  23  26
HETATM   26  N5  UNL     1       7.684   8.029  80.509  1.00  0.00    -0.360 N 
HETATM   27  C9  UNL     1       8.039   8.351  81.841  1.00  0.00     0.155 C 
HETATM   28  C10 UNL     1       9.528   8.009  82.060  1.00  0.00     0.292 C 
HETATM   29  N6  UNL     1      10.354   8.829  81.188  1.00  0.00     0.093 N 
HETATM   30  C13 UNL     1       9.616   9.392  80.102  1.00  0.00     0.292 C 
HETATM   31  C14 UNL     1       8.673   8.393  79.477  1.00  0.00     0.155 C 
BRANCH  29  32
HETATM   32  C11 UNL     1      11.475   8.037  80.749  1.00  0.00     0.298 C 
BRANCH  32  33
HETATM   33  C12 UNL     1      11.377   6.576  81.045  1.00  0.00     0.194 C 
BRANCH  33  34
HETATM   34  O3  UNL     1      11.116   5.919  79.827  1.00  0.00    -0.399 OA
ATOM     35  H3  UNL     1      11.950   5.803  79.385  1.00  0.00     0.209 HD
ENDBRANCH  33  34
ENDBRANCH  32  33
ENDBRANCH  29  32
ENDBRANCH  23  26
ENDBRANCH   1  23
BRANCH   1  36
HETATM   36  N7  UNL     1       6.283   5.481  78.705  1.00  0.00    -0.221 N 
HETATM   37  N8  UNL     1       5.408   5.462  77.731  1.00  0.00    -0.289 N 
HETATM   38  C15 UNL     1       5.921   4.928  76.608  1.00  0.00     0.204 A 
ATOM     39  H8  UNL     1       4.453   5.810  77.815  1.00  0.00     0.188 HD
HETATM   40  N9  UNL     1       7.186   4.593  76.893  1.00  0.00    -0.289 N 
HETATM   41  C22 UNL     1       7.399   4.930  78.159  1.00  0.00     0.345 A 
HETATM   42  O4  UNL     1       8.491   4.756  78.747  1.00  0.00    -0.245 OA
BRANCH  40  43
HETATM   43  C16 UNL     1       8.052   3.982  75.901  1.00  0.00     0.173 C 
BRANCH  43  44
HETATM   44  C17 UNL     1       8.069   2.524  75.976  1.00  0.00    -0.037 A 
HETATM   45  C18 UNL     1       7.842   1.875  77.156  1.00  0.00     0.026 A 
HETATM   46  C19 UNL     1       7.844   0.501  77.287  1.00  0.00     0.088 A 
HETATM   47  N10 UNL     1       8.079  -0.226  76.198  1.00  0.00    -0.375 N 
HETATM   48  C20 UNL     1       8.307   0.389  75.014  1.00  0.00     0.088 A 
ATOM     49  H10 UNL     1       8.088  -1.244  76.256  1.00  0.00     0.164 HD
HETATM   50  C21 UNL     1       8.314   1.756  74.849  1.00  0.00     0.026 A 
ENDBRANCH  43  44
ENDBRANCH  40  43
ENDBRANCH   1  36
TORSDOF 18
ENDMDL
MODEL 2
REMARK VINA RESULT: -7.447584349      1.874      3.052
REMARK  18 active torsions:
REMARK  status: ('A' for Active; 'I' for Inactive)
REMARK    1  A    between atoms: C2_2  and  C3_3 
REMARK    2  A    between atoms: C3_3  and  N1_4 
REMARK       I    between atoms: N1_4  and  C4_5 
REMARK    3  A    between atoms: N1_4  and  C23_45 
REMARK    4  A    between atoms: C4_5  and  C5_7 
REMARK    5  A    between atoms: C5_7  and  N2_8 
REMARK    6  A    between atoms: C6_13  and  C7_14 
REMARK    7  A    between atoms: C7_14  and  C8_15 
REMARK    8  A    between atoms: C7_14  and  N7_28 
REMARK    9  A    between atoms: C8_15  and  O2_16 
REMARK   10  A    between atoms: C8_15  and  N5_18 
REMARK   11  A    between atoms: N6_21  and  C11_22 
REMARK   12  A    between atoms: C11_22  and  C12_23 
REMARK   13  A    between atoms: C12_23  and  O3_24 
REMARK   14  A    between atoms: N9_32  and  C16_33 
REMARK   15  A    between atoms: C16_33  and  C17_34 
REMARK   16  A    between atoms: C23_45  and  C24_46 
REMARK   17  A    between atoms: C23_45  and  C26_48 
REMARK   18  A    between atoms: C26_48  and  O5_49 
ROOT
HETATM    1  C7  UNL     1       5.749   6.573  80.036  1.00  0.00     0.257 C 
ENDROOT
BRANCH   1   2
HETATM    2  C6  UNL     1       4.581   6.014  80.718  1.00  0.00     0.146 A 
HETATM    3  N4  UNL     1       4.516   4.871  81.415  1.00  0.00    -0.270 N 
HETATM    4  N3  UNL     1       3.290   4.748  81.857  1.00  0.00    -0.224 N 
ATOM      5  H4  UNL     1       5.283   4.216  81.573  1.00  0.00     0.190 HD
HETATM    6  N2  UNL     1       2.536   5.782  81.471  1.00  0.00    -0.209 N 
ATOM      7  H3  UNL     1       2.954   3.967  82.420  1.00  0.00     0.210 HD
HETATM    8  N11 UNL     1       3.337   6.555  80.771  1.00  0.00    -0.267 N 
ATOM      9  H11 UNL     1       3.063   7.433  80.332  1.00  0.00     0.190 HD
BRANCH   6  10
HETATM   10  C5  UNL     1       1.130   5.968  81.828  1.00  0.00     0.274 C 
BRANCH  10  11
HETATM   11  C4  UNL     1       0.880   5.500  83.224  1.00  0.00     0.245 C 
HETATM   12  N1  UNL     1       0.025   4.470  83.613  1.00  0.00    -0.315 N 
HETATM   13  O1  UNL     1       1.540   6.151  84.079  1.00  0.00    -0.271 OA
BRANCH  12  14
HETATM   14  C3  UNL     1      -0.672   3.786  82.497  1.00  0.00     0.158 C 
BRANCH  14  15
HETATM   15  C2  UNL     1       0.134   2.892  81.708  1.00  0.00    -0.017 C 
HETATM   16  C1  UNL     1       0.291   1.611  81.920  1.00  0.00     0.008 C 
ENDBRANCH  14  15
ENDBRANCH  12  14
BRANCH  12  17
HETATM   17  C23 UNL     1      -0.257   4.090  84.941  1.00  0.00     0.034 C 
BRANCH  17  18
HETATM   18  C24 UNL     1      -1.249   4.759  85.785  1.00  0.00    -0.004 C 
HETATM   19  C25 UNL     1      -1.622   4.276  87.117  1.00  0.00     0.038 C 
ENDBRANCH  17  18
BRANCH  17  20
HETATM   20  C26 UNL     1      -0.251   2.558  85.155  1.00  0.00     0.220 C 
BRANCH  20  21
HETATM   21  O5  UNL     1       0.904   2.078  85.691  1.00  0.00    -0.395 OA
ATOM     22  H5  UNL     1       1.225   1.288  85.273  1.00  0.00     0.209 HD
ENDBRANCH  20  21
ENDBRANCH  17  20
ENDBRANCH  12  17
ENDBRANCH  10  11
ENDBRANCH   6  10
ENDBRANCH   1   2
BRANCH   1  23
HETATM   23  C8  UNL     1       5.628   8.008  79.700  1.00  0.00     0.147 C 
BRANCH  23  24
HETATM   24  O2  UNL     1       5.761   8.238  78.417  1.00  0.00    -0.347 OA
ATOM     25  H2  UNL     1       6.582   8.667  78.206  1.00  0.00     0.219 HD
ENDBRANCH  23  24
BRANCH  23  26
HETATM   26  N5  UNL     1       5.400   9.090  80.548  1.00  0.00    -0.360 N 
HETATM   27  C9  UNL     1       4.633  10.246  80.270  1.00  0.00     0.155 C 
HETATM   28  C10 UNL     1       3.787  10.598  81.511  1.00  0.00     0.292 C 
HETATM   29  N6  UNL     1       4.663  10.926  82.626  1.00  0.00     0.093 N 
HETATM   30  C13 UNL     1       5.994  10.443  82.437  1.00  0.00     0.292 C 
HETATM   31  C14 UNL     1       6.019   9.039  81.886  1.00  0.00     0.155 C 
BRANCH  29  32
HETATM   32  C11 UNL     1       4.059  10.433  83.838  1.00  0.00     0.298 C 
BRANCH  32  33
HETATM   33  C12 UNL     1       2.815   9.628  83.647  1.00  0.00     0.194 C 
BRANCH  33  34
HETATM   34  O3  UNL     1       3.194   8.272  83.625  1.00  0.00    -0.399 OA
ATOM     35  H3  UNL     1       4.003   8.213  83.129  1.00  0.00     0.209 HD
ENDBRANCH  33  34
ENDBRANCH  32  33
ENDBRANCH  29  32
ENDBRANCH  23  26
ENDBRANCH   1  23
BRANCH   1  36
HETATM   36  N7  UNL     1       6.158   5.860  78.825  1.00  0.00    -0.221 N 
HETATM   37  N8  UNL     1       5.478   5.545  77.752  1.00  0.00    -0.289 N 
HETATM   38  C15 UNL     1       6.236   4.890  76.854  1.00  0.00     0.204 A 
ATOM     39  H8  UNL     1       4.493   5.769  77.614  1.00  0.00     0.188 HD
HETATM   40  N9  UNL     1       7.458   4.788  77.395  1.00  0.00    -0.289 N 
HETATM   41  C22 UNL     1       7.404   5.376  78.583  1.00  0.00     0.345 A 
HETATM   42  O4  UNL     1       8.386   5.463  79.356  1.00  0.00    -0.245 OA
BRANCH  40  43
HETATM   43  C16 UNL     1       8.546   4.130  76.693  1.00  0.00     0.173 C 
BRANCH  43  44
HETATM   44  C17 UNL     1       8.315   2.702  76.491  1.00  0.00    -0.037 A 
HETATM   45  C18 UNL     1       8.107   1.863  77.549  1.00  0.00     0.026 A 
HETATM   46  C19 UNL     1       7.882   0.509  77.418  1.00  0.00     0.088 A 
HETATM   47  N10 UNL     1       7.868  -0.004  76.191  1.00  0.00    -0.375 N 
HETATM   48  C20 UNL     1       8.072   0.803  75.123  1.00  0.00     0.088 A 
ATOM     49  H10 UNL     1       7.705  -1.001  76.055  1.00  0.00     0.164 HD
HETATM   50  C21 UNL     1       8.300   2.158  75.217  1.00  0.00     0.026 A 
ENDBRANCH  43  44
ENDBRANCH  40  43
ENDBRANCH   1  36
TORSDOF 18
ENDMDL
MODEL 3
REMARK VINA RESULT: -7.424981815      2.143      3.437
REMARK  18 active torsions:
REMARK  status: ('A' for Active; 'I' for Inactive)
REMARK    1  A    between atoms: C2_2  and  C3_3 
REMARK    2  A    between atoms: C3_3  and  N1_4 
REMARK       I    between atoms: N1_4  and  C4_5 
REMARK    3  A    between atoms: N1_4  and  C23_45 
REMARK    4  A    between atoms: C4_5  and  C5_7 
REMARK    5  A    between atoms: C5_7  and  N2_8 
REMARK    6  A    between atoms: C6_13  and  C7_14 
REMARK    7  A    between atoms: C7_14  and  C8_15 
REMARK    8  A    between atoms: C7_14  and  N7_28 
REMARK    9  A    between atoms: C8_15  and  O2_16 
REMARK   10  A    between atoms: C8_15  and  N5_18 
REMARK   11  A    between atoms: N6_21  and  C11_22 
REMARK   12  A    between atoms: C11_22  and  C12_23 
REMARK   13  A    between atoms: C12_23  and  O3_24 
REMARK   14  A    between atoms: N9_32  and  C16_33 
REMARK   15  A    between atoms: C16_33  and  C17_34 
REMARK   16  A    between atoms: C23_45  and  C24_46 
REMARK   17  A    between atoms: C23_45  and  C26_48 
REMARK   18  A    between atoms: C26_48  and  O5_49 
ROOT
HETATM    1  C7  UNL     1       5.176   6.542  80.114  1.00  0.00     0.257 C 
ENDROOT
BRANCH   1   2
HETATM    2  C6  UNL     1       4.081   5.801  80.742  1.00  0.00     0.146 A 
HETATM    3  N4  UNL     1       4.179   4.797  81.624  1.00  0.00    -0.270 N 
HETATM    4  N3  UNL     1       2.962   4.422  81.931  1.00  0.00    -0.224 N 
ATOM      5  H4  UNL     1       5.044   4.398  81.990  1.00  0.00     0.190 HD
HETATM    6  N2  UNL     1       2.056   5.153  81.273  1.00  0.00    -0.209 N 
ATOM      7  H3  UNL     1       2.736   3.671  82.583  1.00  0.00     0.210 HD
HETATM    8  N11 UNL     1       2.752   5.997  80.546  1.00  0.00    -0.267 N 
ATOM      9  H11 UNL     1       2.351   6.699  79.923  1.00  0.00     0.190 HD
BRANCH   6  10
HETATM   10  C5  UNL     1       0.608   5.012  81.419  1.00  0.00     0.274 C 
BRANCH  10  11
HETATM   11  C4  UNL     1       0.278   4.289  82.684  1.00  0.00     0.245 C 
HETATM   12  N1  UNL     1      -0.240   4.851  83.850  1.00  0.00    -0.315 N 
HETATM   13  O1  UNL     1       0.524   3.054  82.614  1.00  0.00    -0.271 OA
BRANCH  12  14
HETATM   14  C3  UNL     1      -0.490   6.311  83.777  1.00  0.00     0.158 C 
BRANCH  14  15
HETATM   15  C2  UNL     1       0.484   7.146  84.428  1.00  0.00    -0.017 C 
HETATM   16  C1  UNL     1       1.538   7.678  83.864  1.00  0.00     0.008 C 
ENDBRANCH  14  15
ENDBRANCH  12  14
BRANCH  12  17
HETATM   17  C23 UNL     1      -0.476   4.168  85.060  1.00  0.00     0.034 C 
BRANCH  17  18
HETATM   18  C24 UNL     1      -1.544   4.520  85.998  1.00  0.00    -0.004 C 
HETATM   19  C25 UNL     1      -1.565   4.066  87.392  1.00  0.00     0.038 C 
ENDBRANCH  17  18
BRANCH  17  20
HETATM   20  C26 UNL     1      -0.281   2.638  84.949  1.00  0.00     0.220 C 
BRANCH  20  21
HETATM   21  O5  UNL     1       0.832   2.173  85.578  1.00  0.00    -0.395 OA
ATOM     22  H5  UNL     1       1.485   1.809  84.992  1.00  0.00     0.209 HD
ENDBRANCH  20  21
ENDBRANCH  17  20
ENDBRANCH  12  17
ENDBRANCH  10  11
ENDBRANCH   6  10
ENDBRANCH   1   2
BRANCH   1  23
HETATM   23  C8  UNL     1       4.871   7.962  79.838  1.00  0.00     0.147 C 
BRANCH  23  24
HETATM   24  O2  UNL     1       4.106   8.118  78.787  1.00  0.00    -0.347 OA
ATOM     25  H2  UNL     1       3.587   8.913  78.826  1.00  0.00     0.219 HD
ENDBRANCH  23  24
BRANCH  23  26
HETATM   26  N5  UNL     1       5.283   9.097  80.533  1.00  0.00    -0.360 N 
HETATM   27  C9  UNL     1       5.009  10.446  80.204  1.00  0.00     0.155 C 
HETATM   28  C10 UNL     1       4.658  11.216  81.495  1.00  0.00     0.292 C 
HETATM   29  N6  UNL     1       5.804  11.221  82.391  1.00  0.00     0.093 N 
HETATM   30  C13 UNL     1       6.755  10.204  82.071  1.00  0.00     0.292 C 
HETATM   31  C14 UNL     1       6.093   8.886  81.748  1.00  0.00     0.155 C 
BRANCH  29  32
HETATM   32  C11 UNL     1       5.320  11.124  83.745  1.00  0.00     0.298 C 
BRANCH  32  33
HETATM   33  C12 UNL     1       3.841  10.967  83.883  1.00  0.00     0.194 C 
BRANCH  33  34
HETATM   34  O3  UNL     1       3.598  10.387  85.144  1.00  0.00    -0.399 OA
ATOM     35  H3  UNL     1       3.847   9.472  85.086  1.00  0.00     0.209 HD
ENDBRANCH  33  34
ENDBRANCH  32  33
ENDBRANCH  29  32
ENDBRANCH  23  26
ENDBRANCH   1  23
BRANCH   1  36
HETATM   36  N7  UNL     1       5.699   5.946  78.884  1.00  0.00    -0.221 N 
HETATM   37  N8  UNL     1       5.122   5.735  77.728  1.00  0.00    -0.289 N 
HETATM   38  C15 UNL     1       5.964   5.168  76.845  1.00  0.00     0.204 A 
ATOM     39  H8  UNL     1       4.152   5.972  77.522  1.00  0.00     0.188 HD
HETATM   40  N9  UNL     1       7.133   5.014  77.483  1.00  0.00    -0.289 N 
HETATM   41  C22 UNL     1       6.967   5.487  78.711  1.00  0.00     0.345 A 
HETATM   42  O4  UNL     1       7.873   5.499  79.576  1.00  0.00    -0.245 OA
BRANCH  40  43
HETATM   43  C16 UNL     1       8.285   4.426  76.825  1.00  0.00     0.173 C 
BRANCH  43  44
HETATM   44  C17 UNL     1       8.124   2.998  76.558  1.00  0.00    -0.037 A 
HETATM   45  C18 UNL     1       8.066   2.520  75.280  1.00  0.00     0.026 A 
HETATM   46  C19 UNL     1       7.917   1.185  74.969  1.00  0.00     0.088 A 
HETATM   47  N10 UNL     1       7.827   0.319  75.974  1.00  0.00    -0.375 N 
HETATM   48  C20 UNL     1       7.881   0.762  77.252  1.00  0.00     0.088 A 
ATOM     49  H10 UNL     1       7.717  -0.677  75.783  1.00  0.00     0.164 HD
HETATM   50  C21 UNL     1       8.028   2.087  77.598  1.00  0.00     0.026 A 
ENDBRANCH  43  44
ENDBRANCH  40  43
ENDBRANCH   1  36
TORSDOF 18
ENDMDL
MODEL 4
REMARK VINA RESULT: -7.411511326      2.677     10.002
REMARK  18 active torsions:
REMARK  status: ('A' for Active; 'I' for Inactive)
REMARK    1  A    between atoms: C2_2  and  C3_3 
REMARK    2  A    between atoms: C3_3  and  N1_4 
REMARK       I    between atoms: N1_4  and  C4_5 
REMARK    3  A    between atoms: N1_4  and  C23_45 
REMARK    4  A    between atoms: C4_5  and  C5_7 
REMARK    5  A    between atoms: C5_7  and  N2_8 
REMARK    6  A    between atoms: C6_13  and  C7_14 
REMARK    7  A    between atoms: C7_14  and  C8_15 
REMARK    8  A    between atoms: C7_14  and  N7_28 
REMARK    9  A    between atoms: C8_15  and  O2_16 
REMARK   10  A    between atoms: C8_15  and  N5_18 
REMARK   11  A    between atoms: N6_21  and  C11_22 
REMARK   12  A    between atoms: C11_22  and  C12_23 
REMARK   13  A    between atoms: C12_23  and  O3_24 
REMARK   14  A    between atoms: N9_32  and  C16_33 
REMARK   15  A    between atoms: C16_33  and  C17_34 
REMARK   16  A    between atoms: C23_45  and  C24_46 
REMARK   17  A    between atoms: C23_45  and  C26_48 
REMARK   18  A    between atoms: C26_48  and  O5_49 
ROOT
HETATM    1  C7  UNL     1       1.556   5.645  81.033  1.00  0.00     0.257 C 
ENDROOT
BRANCH   1   2
HETATM    2  C6  UNL     1       3.017   5.597  80.968  1.00  0.00     0.146 A 
HETATM    3  N4  UNL     1       3.838   4.823  81.692  1.00  0.00    -0.270 N 
HETATM    4  N3  UNL     1       5.064   5.094  81.320  1.00  0.00    -0.224 N 
ATOM      5  H4  UNL     1       3.559   4.146  82.402  1.00  0.00     0.190 HD
HETATM    6  N2  UNL     1       5.079   6.031  80.366  1.00  0.00    -0.209 N 
ATOM      7  H3  UNL     1       5.897   4.651  81.708  1.00  0.00     0.210 HD
HETATM    8  N11 UNL     1       3.817   6.334  80.156  1.00  0.00    -0.267 N 
ATOM      9  H11 UNL     1       3.488   7.023  79.481  1.00  0.00     0.190 HD
BRANCH   6  10
HETATM   10  C5  UNL     1       6.285   6.532  79.709  1.00  0.00     0.274 C 
BRANCH  10  11
HETATM   11  C4  UNL     1       6.816   5.518  78.748  1.00  0.00     0.245 C 
HETATM   12  N1  UNL     1       8.088   5.502  78.177  1.00  0.00    -0.315 N 
HETATM   13  O1  UNL     1       5.971   4.624  78.472  1.00  0.00    -0.271 OA
BRANCH  12  14
HETATM   14  C3  UNL     1       8.975   6.609  78.608  1.00  0.00     0.158 C 
BRANCH  14  15
HETATM   15  C2  UNL     1      10.262   6.218  79.119  1.00  0.00    -0.017 C 
HETATM   16  C1  UNL     1      10.778   6.584  80.265  1.00  0.00     0.008 C 
ENDBRANCH  14  15
ENDBRANCH  12  14
BRANCH  12  17
HETATM   17  C23 UNL     1       8.548   4.581  77.214  1.00  0.00     0.034 C 
BRANCH  17  18
HETATM   18  C24 UNL     1       8.921   3.199  77.525  1.00  0.00    -0.004 C 
HETATM   19  C25 UNL     1      10.313   2.751  77.622  1.00  0.00     0.038 C 
ENDBRANCH  17  18
BRANCH  17  20
HETATM   20  C26 UNL     1       7.814   4.694  75.858  1.00  0.00     0.220 C 
BRANCH  20  21
HETATM   21  O5  UNL     1       6.833   3.769  75.678  1.00  0.00    -0.395 OA
ATOM     22  H5  UNL     1       7.148   2.922  75.387  1.00  0.00     0.209 HD
ENDBRANCH  20  21
ENDBRANCH  17  20
ENDBRANCH  12  17
ENDBRANCH  10  11
ENDBRANCH   6  10
ENDBRANCH   1   2
BRANCH   1  23
HETATM   23  C8  UNL     1       0.931   6.538  80.034  1.00  0.00     0.147 C 
BRANCH  23  24
HETATM   24  O2  UNL     1       0.842   5.986  78.850  1.00  0.00    -0.347 OA
ATOM     25  H2  UNL     1       0.662   6.618  78.164  1.00  0.00     0.219 HD
ENDBRANCH  23  24
BRANCH  23  26
HETATM   26  N5  UNL     1       0.450   7.835  80.199  1.00  0.00    -0.360 N 
HETATM   27  C9  UNL     1      -0.874   8.221  80.519  1.00  0.00     0.155 C 
HETATM   28  C10 UNL     1      -0.828   9.359  81.559  1.00  0.00     0.292 C 
HETATM   29  N6  UNL     1      -0.172  10.523  80.985  1.00  0.00     0.093 N 
HETATM   30  C13 UNL     1       0.609  10.201  79.834  1.00  0.00     0.292 C 
HETATM   31  C14 UNL     1       1.413   8.938  80.026  1.00  0.00     0.155 C 
BRANCH  29  32
HETATM   32  C11 UNL     1       0.599  11.165  82.019  1.00  0.00     0.298 C 
BRANCH  32  33
HETATM   33  C12 UNL     1       0.637  10.443  83.326  1.00  0.00     0.194 C 
BRANCH  33  34
HETATM   34  O3  UNL     1       1.966  10.028  83.535  1.00  0.00    -0.399 OA
ATOM     35  H3  UNL     1       2.138  10.092  84.468  1.00  0.00     0.209 HD
ENDBRANCH  33  34
ENDBRANCH  32  33
ENDBRANCH  29  32
ENDBRANCH  23  26
ENDBRANCH   1  23
BRANCH   1  36
HETATM   36  N7  UNL     1       1.006   5.985  82.346  1.00  0.00    -0.221 N 
HETATM   37  N8  UNL     1       1.399   6.865  83.232  1.00  0.00    -0.289 N 
HETATM   38  C15 UNL     1       0.604   6.871  84.317  1.00  0.00     0.204 A 
ATOM     39  H8  UNL     1       2.209   7.472  83.113  1.00  0.00     0.188 HD
HETATM   40  N9  UNL     1      -0.338   5.944  84.101  1.00  0.00    -0.289 N 
HETATM   41  C22 UNL     1      -0.091   5.414  82.910  1.00  0.00     0.345 A 
HETATM   42  O4  UNL     1      -0.792   4.512  82.395  1.00  0.00    -0.245 OA
BRANCH  40  43
HETATM   43  C16 UNL     1      -1.379   5.676  85.077  1.00  0.00     0.173 C 
BRANCH  43  44
HETATM   44  C17 UNL     1      -1.305   4.329  85.637  1.00  0.00    -0.037 A 
HETATM   45  C18 UNL     1      -2.429   3.675  86.055  1.00  0.00     0.026 A 
HETATM   46  C19 UNL     1      -2.420   2.404  86.590  1.00  0.00     0.088 A 
HETATM   47  N10 UNL     1      -1.248   1.785  86.701  1.00  0.00    -0.375 N 
HETATM   48  C20 UNL     1      -0.116   2.407  86.295  1.00  0.00     0.088 A 
ATOM     49  H10 UNL     1      -1.202   0.844  87.090  1.00  0.00     0.164 HD
HETATM   50  C21 UNL     1      -0.089   3.675  85.758  1.00  0.00     0.026 A 
ENDBRANCH  43  44
ENDBRANCH  40  43
ENDBRANCH   1  36
TORSDOF 18
ENDMDL
MODEL 5
REMARK VINA RESULT: -7.239433612      3.254      9.931
REMARK  18 active torsions:
REMARK  status: ('A' for Active; 'I' for Inactive)
REMARK    1  A    between atoms: C2_2  and  C3_3 
REMARK    2  A    between atoms: C3_3  and  N1_4 
REMARK       I    between atoms: N1_4  and  C4_5 
REMARK    3  A    between atoms: N1_4  and  C23_45 
REMARK    4  A    between atoms: C4_5  and  C5_7 
REMARK    5  A    between atoms: C5_7  and  N2_8 
REMARK    6  A    between atoms: C6_13  and  C7_14 
REMARK    7  A    between atoms: C7_14  and  C8_15 
REMARK    8  A    between atoms: C7_14  and  N7_28 
REMARK    9  A    between atoms: C8_15  and  O2_16 
REMARK   10  A    between atoms: C8_15  and  N5_18 
REMARK   11  A    between atoms: N6_21  and  C11_22 
REMARK   12  A    between atoms: C11_22  and  C12_23 
REMARK   13  A    between atoms: C12_23  and  O3_24 
REMARK   14  A    between atoms: N9_32  and  C16_33 
REMARK   15  A    between atoms: C16_33  and  C17_34 
REMARK   16  A    between atoms: C23_45  and  C24_46 
REMARK   17  A    between atoms: C23_45  and  C26_48 
REMARK   18  A    between atoms: C26_48  and  O5_49 
ROOT
HETATM    1  C7  UNL     1       3.206   6.821  81.076  1.00  0.00     0.257 C 
ENDROOT
BRANCH   1   2
HETATM    2  C6  UNL     1       4.644   6.827  80.807  1.00  0.00     0.146 A 
HETATM    3  N4  UNL     1       5.637   6.958  81.698  1.00  0.00    -0.270 N 
HETATM    4  N3  UNL     1       6.767   6.908  81.039  1.00  0.00    -0.224 N 
ATOM      5  H4  UNL     1       5.532   7.074  82.707  1.00  0.00     0.190 HD
HETATM    6  N2  UNL     1       6.550   6.747  79.729  1.00  0.00    -0.209 N 
ATOM      7  H3  UNL     1       7.690   6.983  81.467  1.00  0.00     0.210 HD
HETATM    8  N11 UNL     1       5.244   6.699  79.596  1.00  0.00    -0.267 N 
ATOM      9  H11 UNL     1       4.752   6.581  78.711  1.00  0.00     0.190 HD
BRANCH   6  10
HETATM   10  C5  UNL     1       7.601   6.617  78.721  1.00  0.00     0.274 C 
BRANCH  10  11
HETATM   11  C4  UNL     1       7.668   5.213  78.215  1.00  0.00     0.245 C 
HETATM   12  N1  UNL     1       8.631   4.686  77.355  1.00  0.00    -0.315 N 
HETATM   13  O1  UNL     1       6.726   4.497  78.648  1.00  0.00    -0.271 OA
BRANCH  12  14
HETATM   14  C3  UNL     1       9.685   5.644  76.941  1.00  0.00     0.158 C 
BRANCH  14  15
HETATM   15  C2  UNL     1      10.999   5.087  76.753  1.00  0.00    -0.017 C 
HETATM   16  C1  UNL     1      11.706   5.142  75.654  1.00  0.00     0.008 C 
ENDBRANCH  14  15
ENDBRANCH  12  14
BRANCH  12  17
HETATM   17  C23 UNL     1       8.638   3.379  76.827  1.00  0.00     0.034 C 
BRANCH  17  18
HETATM   18  C24 UNL     1       8.672   2.169  77.652  1.00  0.00    -0.004 C 
HETATM   19  C25 UNL     1       7.878   0.975  77.352  1.00  0.00     0.038 C 
ENDBRANCH  17  18
BRANCH  17  20
HETATM   20  C26 UNL     1       7.726   3.213  75.589  1.00  0.00     0.220 C 
BRANCH  20  21
HETATM   21  O5  UNL     1       6.487   3.755  75.736  1.00  0.00    -0.395 OA
ATOM     22  H5  UNL     1       5.777   3.133  75.638  1.00  0.00     0.209 HD
ENDBRANCH  20  21
ENDBRANCH  17  20
ENDBRANCH  12  17
ENDBRANCH  10  11
ENDBRANCH   6  10
ENDBRANCH   1   2
BRANCH   1  23
HETATM   23  C8  UNL     1       2.682   5.528  81.564  1.00  0.00     0.147 C 
BRANCH  23  24
HETATM   24  O2  UNL     1       3.555   4.558  81.455  1.00  0.00    -0.347 OA
ATOM     25  H2  UNL     1       3.230   3.733  81.798  1.00  0.00     0.219 HD
ENDBRANCH  23  24
BRANCH  23  26
HETATM   26  N5  UNL     1       1.430   5.237  82.101  1.00  0.00    -0.360 N 
HETATM   27  C9  UNL     1       0.422   4.427  81.526  1.00  0.00     0.155 C 
HETATM   28  C10 UNL     1      -0.199   3.541  82.626  1.00  0.00     0.292 C 
HETATM   29  N6  UNL     1      -0.844   4.379  83.626  1.00  0.00     0.093 N 
HETATM   30  C13 UNL     1      -0.392   5.733  83.580  1.00  0.00     0.292 C 
HETATM   31  C14 UNL     1       1.105   5.829  83.412  1.00  0.00     0.155 C 
BRANCH  29  32
HETATM   32  C11 UNL     1      -0.654   3.771  84.918  1.00  0.00     0.298 C 
BRANCH  32  33
HETATM   33  C12 UNL     1      -0.192   2.351  84.892  1.00  0.00     0.194 C 
BRANCH  33  34
HETATM   34  O3  UNL     1       0.870   2.240  85.810  1.00  0.00    -0.399 OA
ATOM     35  H3  UNL     1       1.536   1.696  85.405  1.00  0.00     0.209 HD
ENDBRANCH  33  34
ENDBRANCH  32  33
ENDBRANCH  29  32
ENDBRANCH  23  26
ENDBRANCH   1  23
BRANCH   1  36
HETATM   36  N7  UNL     1       2.367   7.252  79.956  1.00  0.00    -0.221 N 
HETATM   37  N8  UNL     1       1.948   6.595  78.904  1.00  0.00    -0.289 N 
HETATM   38  C15 UNL     1       1.179   7.361  78.109  1.00  0.00     0.204 A 
ATOM     39  H8  UNL     1       2.177   5.621  78.711  1.00  0.00     0.188 HD
HETATM   40  N9  UNL     1       1.112   8.565  78.695  1.00  0.00    -0.289 N 
HETATM   41  C22 UNL     1       1.830   8.492  79.809  1.00  0.00     0.345 A 
HETATM   42  O4  UNL     1       1.974   9.450  80.602  1.00  0.00    -0.245 OA
BRANCH  40  43
HETATM   43  C16 UNL     1       0.355   9.654  78.107  1.00  0.00     0.173 C 
BRANCH  43  44
HETATM   44  C17 UNL     1      -1.048   9.318  77.880  1.00  0.00    -0.037 A 
HETATM   45  C18 UNL     1      -1.565   9.259  76.617  1.00  0.00     0.026 A 
HETATM   46  C19 UNL     1      -2.880   8.945  76.342  1.00  0.00     0.088 A 
HETATM   47  N10 UNL     1      -3.685   8.687  77.370  1.00  0.00    -0.375 N 
HETATM   48  C20 UNL     1      -3.201   8.738  78.633  1.00  0.00     0.088 A 
ATOM     49  H10 UNL     1      -4.663   8.451  77.206  1.00  0.00     0.164 HD
HETATM   50  C21 UNL     1      -1.896   9.048  78.943  1.00  0.00     0.026 A 
ENDBRANCH  43  44
ENDBRANCH  40  43
ENDBRANCH   1  36
TORSDOF 18
ENDMDL
