MODEL 1
REMARK VINA RESULT: -7.944830275      0.000      0.000
REMARK  9 active torsions:
REMARK  status: ('A' for Active; 'I' for Inactive)
REMARK    1  A    between atoms: N1_1  and  C1_4 
REMARK    2  A    between atoms: N3_9  and  C3_10 
REMARK    3  A    between atoms: C3_10  and  C4_11 
REMARK    4  A    between atoms: C4_11  and  O2_12 
REMARK    5  A    between atoms: C4_11  and  C5_14 
REMARK    6  A    between atoms: C5_14  and  N4_15 
REMARK    7  A    between atoms: N6_28  and  S1_30 
REMARK    8  A    between atoms: S1_30  and  C13_33 
REMARK    9  A    between atoms: C13_33  and  N7_34 
ROOT
HETATM    1  C1  UNL     1      18.400   4.888   9.273  1.00  0.00     0.113 A 
HETATM    2  N2  UNL     1      17.262   4.220   9.495  1.00  0.00    -0.294 N 
ATOM      3  H2  UNL     1      16.593   4.149   8.728  1.00  0.00     0.172 HD
HETATM    4  C2  UNL     1      16.944   3.639  10.659  1.00  0.00     0.329 A 
HETATM    5  O1  UNL     1      15.870   3.016  10.851  1.00  0.00    -0.246 OA
HETATM    6  N3  UNL     1      17.802   3.717  11.680  1.00  0.00    -0.282 N 
HETATM    7  C9  UNL     1      18.981   4.375  11.545  1.00  0.00     0.123 A 
HETATM    8  C10 UNL     1      19.302   4.970  10.346  1.00  0.00     0.037 A 
HETATM    9  C11 UNL     1      20.627   5.631  10.411  1.00  0.00     0.123 A 
HETATM   10  C12 UNL     1      21.082   5.373  11.789  1.00  0.00     0.096 A 
HETATM   11  N6  UNL     1      22.199   5.747  12.358  1.00  0.00    -0.272 N 
ATOM     12  H6  UNL     1      22.375   5.490  13.329  1.00  0.00     0.180 HD
HETATM   13  N10 UNL     1      20.071   4.620  12.433  1.00  0.00    -0.331 N 
ATOM     14  H10 UNL     1      20.114   4.297  13.400  1.00  0.00     0.168 HD
ENDROOT
BRANCH   6  15
HETATM   15  C3  UNL     1      17.537   3.117  12.973  1.00  0.00     0.168 C 
BRANCH  15  16
HETATM   16  C4  UNL     1      16.676   4.006  13.844  1.00  0.00     0.155 C 
BRANCH  16  17
HETATM   17  O2  UNL     1      15.328   3.685  13.741  1.00  0.00    -0.392 OA
ATOM     18  H2  UNL     1      14.807   4.125  14.402  1.00  0.00     0.210 HD
ENDBRANCH  16  17
BRANCH  16  19
HETATM   19  C5  UNL     1      17.147   3.805  15.278  1.00  0.00     0.170 C 
BRANCH  19  20
HETATM   20  N4  UNL     1      16.263   2.861  15.957  1.00  0.00    -0.259 N 
HETATM   21  C6  UNL     1      14.961   3.102  16.478  1.00  0.00     0.332 A 
HETATM   22  O3  UNL     1      14.373   4.207  16.421  1.00  0.00    -0.246 OA
HETATM   23  N5  UNL     1      14.445   1.913  17.061  1.00  0.00    -0.271 N 
HETATM   24  C7  UNL     1      15.406   0.891  16.925  1.00  0.00     0.318 A 
ATOM     25  H5  UNL     1      13.531   1.816  17.504  1.00  0.00     0.174 HD
HETATM   26  O4  UNL     1      15.332  -0.310  17.310  1.00  0.00    -0.262 OA
HETATM   27  C8  UNL     1      16.541   1.491  16.233  1.00  0.00     0.320 A 
HETATM   28  O5  UNL     1      17.592   0.864  15.939  1.00  0.00    -0.262 OA
ENDBRANCH  19  20
ENDBRANCH  16  19
ENDBRANCH  15  16
ENDBRANCH   6  15
BRANCH   1  29
HETATM   29  N1  UNL     1      18.688   5.445   8.133  1.00  0.00    -0.385 N 
ATOM     30  H12 UNL     1      18.079   5.305   7.327  1.00  0.00     0.157 HD
ATOM     31  H11 UNL     1      19.511   6.030   7.990  1.00  0.00     0.157 HD
ENDBRANCH   1  29
BRANCH  11  32
HETATM   32  S1  UNL     1      23.366   6.653  11.512  1.00  0.00     0.252 S 
HETATM   33  O6  UNL     1      24.552   6.892  12.421  1.00  0.00    -0.204 OA
HETATM   34  O7  UNL     1      23.857   6.008  10.268  1.00  0.00    -0.204 OA
BRANCH  32  35
HETATM   35  C13 UNL     1      22.668   8.272  11.159  1.00  0.00     0.336 C 
BRANCH  35  36
HETATM   36  N7  UNL     1      22.186   8.791  12.428  1.00  0.00    -0.175 N 
HETATM   37  N8  UNL     1      22.779   9.176  13.524  1.00  0.00    -0.162 N 
HETATM   38  O8  UNL     1      21.590   9.444  14.024  1.00  0.00    -0.123 OA
ATOM     39  H8  UNL     1      23.743   9.241  13.852  1.00  0.00     0.220 HD
HETATM   40  N9  UNL     1      20.999   9.060  12.928  1.00  0.00    -0.162 N 
ATOM     41  H9  UNL     1      20.035   8.995  12.600  1.00  0.00     0.220 HD
ENDBRANCH  35  36
ENDBRANCH  32  35
ENDBRANCH  11  32
TORSDOF 9
ENDMDL
MODEL 2
REMARK VINA RESULT: -7.867007996      3.140      8.013
REMARK  9 active torsions:
REMARK  status: ('A' for Active; 'I' for Inactive)
REMARK    1  A    between atoms: N1_1  and  C1_4 
REMARK    2  A    between atoms: N3_9  and  C3_10 
REMARK    3  A    between atoms: C3_10  and  C4_11 
REMARK    4  A    between atoms: C4_11  and  O2_12 
REMARK    5  A    between atoms: C4_11  and  C5_14 
REMARK    6  A    between atoms: C5_14  and  N4_15 
REMARK    7  A    between atoms: N6_28  and  S1_30 
REMARK    8  A    between atoms: S1_30  and  C13_33 
REMARK    9  A    between atoms: C13_33  and  N7_34 
ROOT
HETATM    1  C1  UNL     1      16.740   7.067  13.819  1.00  0.00     0.113 A 
HETATM    2  N2  UNL     1      16.801   7.977  12.840  1.00  0.00    -0.294 N 
ATOM      3  H2  UNL     1      16.749   8.962  13.099  1.00  0.00     0.172 HD
HETATM    4  C2  UNL     1      16.925   7.678  11.540  1.00  0.00     0.329 A 
HETATM    5  O1  UNL     1      16.981   8.545  10.633  1.00  0.00    -0.246 OA
HETATM    6  N3  UNL     1      16.996   6.396  11.172  1.00  0.00    -0.282 N 
HETATM    7  C9  UNL     1      16.941   5.406  12.098  1.00  0.00     0.123 A 
HETATM    8  C10 UNL     1      16.814   5.720  13.433  1.00  0.00     0.037 A 
HETATM    9  C11 UNL     1      16.775   4.498  14.271  1.00  0.00     0.123 A 
HETATM   10  C12 UNL     1      16.893   3.398  13.297  1.00  0.00     0.096 A 
HETATM   11  N6  UNL     1      16.910   2.110  13.526  1.00  0.00    -0.272 N 
ATOM     12  H6  UNL     1      16.998   1.464  12.741  1.00  0.00     0.180 HD
HETATM   13  N10 UNL     1      16.990   3.982  12.011  1.00  0.00    -0.331 N 
ATOM     14  H10 UNL     1      17.082   3.458  11.141  1.00  0.00     0.168 HD
ENDROOT
BRANCH   6  15
HETATM   15  C3  UNL     1      17.130   5.984   9.788  1.00  0.00     0.168 C 
BRANCH  15  16
HETATM   16  C4  UNL     1      18.321   5.075   9.579  1.00  0.00     0.155 C 
BRANCH  16  17
HETATM   17  O2  UNL     1      18.151   4.242   8.479  1.00  0.00    -0.392 OA
ATOM     18  H2  UNL     1      17.862   3.374   8.734  1.00  0.00     0.210 HD
ENDBRANCH  16  17
BRANCH  16  19
HETATM   19  C5  UNL     1      19.529   5.976   9.364  1.00  0.00     0.170 C 
BRANCH  19  20
HETATM   20  N4  UNL     1      20.730   5.317   9.873  1.00  0.00    -0.259 N 
HETATM   21  C6  UNL     1      20.969   4.829  11.187  1.00  0.00     0.332 A 
HETATM   22  O3  UNL     1      20.144   4.903  12.127  1.00  0.00    -0.246 OA
HETATM   23  N5  UNL     1      22.267   4.255  11.263  1.00  0.00    -0.271 N 
HETATM   24  C7  UNL     1      22.882   4.365   9.999  1.00  0.00     0.318 A 
ATOM     25  H5  UNL     1      22.684   3.834  12.093  1.00  0.00     0.174 HD
HETATM   26  O4  UNL     1      24.033   3.978   9.651  1.00  0.00    -0.262 OA
HETATM   27  C8  UNL     1      21.914   5.031   9.134  1.00  0.00     0.320 A 
HETATM   28  O5  UNL     1      22.126   5.297   7.922  1.00  0.00    -0.262 OA
ENDBRANCH  19  20
ENDBRANCH  16  19
ENDBRANCH  15  16
ENDBRANCH   6  15
BRANCH   1  29
HETATM   29  N1  UNL     1      16.620   7.381  15.076  1.00  0.00    -0.385 N 
ATOM     30  H12 UNL     1      16.116   8.225  15.347  1.00  0.00     0.157 HD
ATOM     31  H11 UNL     1      17.010   6.817  15.832  1.00  0.00     0.157 HD
ENDBRANCH   1  29
BRANCH  11  32
HETATM   32  S1  UNL     1      16.788   1.488  15.105  1.00  0.00     0.252 S 
HETATM   33  O6  UNL     1      16.603  -0.012  15.026  1.00  0.00    -0.204 OA
HETATM   34  O7  UNL     1      17.966   1.766  15.965  1.00  0.00    -0.204 OA
BRANCH  32  35
HETATM   35  C13 UNL     1      15.287   2.142  15.849  1.00  0.00     0.336 C 
BRANCH  35  36
HETATM   36  N7  UNL     1      15.380   1.854  17.270  1.00  0.00    -0.175 N 
HETATM   37  N8  UNL     1      15.778   0.816  17.952  1.00  0.00    -0.162 N 
HETATM   38  O8  UNL     1      15.501   1.485  19.053  1.00  0.00    -0.123 OA
ATOM     39  H8  UNL     1      16.144  -0.110  17.730  1.00  0.00     0.220 HD
HETATM   40  N9  UNL     1      15.105   2.521  18.370  1.00  0.00    -0.162 N 
ATOM     41  H9  UNL     1      14.740   3.447  18.592  1.00  0.00     0.220 HD
ENDBRANCH  35  36
ENDBRANCH  32  35
ENDBRANCH  11  32
TORSDOF 9
ENDMDL
MODEL 3
REMARK VINA RESULT: -7.853448772      2.438      3.708
REMARK  9 active torsions:
REMARK  status: ('A' for Active; 'I' for Inactive)
REMARK    1  A    between atoms: N1_1  and  C1_4 
REMARK    2  A    between atoms: N3_9  and  C3_10 
REMARK    3  A    between atoms: C3_10  and  C4_11 
REMARK    4  A    between atoms: C4_11  and  O2_12 
REMARK    5  A    between atoms: C4_11  and  C5_14 
REMARK    6  A    between atoms: C5_14  and  N4_15 
REMARK    7  A    between atoms: N6_28  and  S1_30 
REMARK    8  A    between atoms: S1_30  and  C13_33 
REMARK    9  A    between atoms: C13_33  and  N7_34 
ROOT
HETATM    1  C1  UNL     1      18.131   5.618   8.850  1.00  0.00     0.113 A 
HETATM    2  N2  UNL     1      16.969   5.745   9.502  1.00  0.00    -0.294 N 
ATOM      3  H2  UNL     1      16.133   5.944   8.953  1.00  0.00     0.172 HD
HETATM    4  C2  UNL     1      16.834   5.630  10.829  1.00  0.00     0.329 A 
HETATM    5  O1  UNL     1      15.736   5.752  11.426  1.00  0.00    -0.246 OA
HETATM    6  N3  UNL     1      17.914   5.370  11.572  1.00  0.00    -0.282 N 
HETATM    7  C9  UNL     1      19.133   5.225  10.995  1.00  0.00     0.123 A 
HETATM    8  C10 UNL     1      19.265   5.345   9.630  1.00  0.00     0.037 A 
HETATM    9  C11 UNL     1      20.673   5.152   9.207  1.00  0.00     0.123 A 
HETATM   10  C12 UNL     1      21.389   4.900  10.470  1.00  0.00     0.096 A 
HETATM   11  N6  UNL     1      22.664   4.667  10.647  1.00  0.00    -0.272 N 
ATOM     12  H6  UNL     1      23.017   4.509  11.591  1.00  0.00     0.180 HD
HETATM   13  N10 UNL     1      20.434   4.952  11.514  1.00  0.00    -0.331 N 
ATOM     14  H10 UNL     1      20.647   4.814  12.502  1.00  0.00     0.168 HD
ENDROOT
BRANCH   6  15
HETATM   15  C3  UNL     1      17.857   5.230  13.014  1.00  0.00     0.168 C 
BRANCH  15  16
HETATM   16  C4  UNL     1      17.442   3.836  13.433  1.00  0.00     0.155 C 
BRANCH  16  17
HETATM   17  O2  UNL     1      18.158   2.856  12.755  1.00  0.00    -0.392 OA
ATOM     18  H2  UNL     1      18.054   2.001  13.155  1.00  0.00     0.210 HD
ENDBRANCH  16  17
BRANCH  16  19
HETATM   19  C5  UNL     1      17.708   3.730  14.928  1.00  0.00     0.170 C 
BRANCH  19  20
HETATM   20  N4  UNL     1      16.631   2.976  15.566  1.00  0.00    -0.259 N 
HETATM   21  C6  UNL     1      15.293   3.396  15.805  1.00  0.00     0.332 A 
HETATM   22  O3  UNL     1      14.839   4.519  15.487  1.00  0.00    -0.246 OA
HETATM   23  N5  UNL     1      14.567   2.357  16.450  1.00  0.00    -0.271 N 
HETATM   24  C7  UNL     1      15.427   1.255  16.634  1.00  0.00     0.318 A 
ATOM     25  H5  UNL     1      13.588   2.402  16.732  1.00  0.00     0.174 HD
HETATM   26  O4  UNL     1      15.166   0.140  17.167  1.00  0.00    -0.262 OA
HETATM   27  C8  UNL     1      16.716   1.649  16.078  1.00  0.00     0.320 A 
HETATM   28  O5  UNL     1      17.731   0.904  16.070  1.00  0.00    -0.262 OA
ENDBRANCH  19  20
ENDBRANCH  16  19
ENDBRANCH  15  16
ENDBRANCH   6  15
BRANCH   1  29
HETATM   29  N1  UNL     1      18.239   5.733   7.558  1.00  0.00    -0.385 N 
ATOM     30  H12 UNL     1      17.633   5.190   6.943  1.00  0.00     0.157 HD
ATOM     31  H11 UNL     1      18.912   6.354   7.107  1.00  0.00     0.157 HD
ENDBRANCH   1  29
BRANCH  11  32
HETATM   32  S1  UNL     1      23.748   4.621   9.336  1.00  0.00     0.252 S 
HETATM   33  O6  UNL     1      23.429   5.765   8.398  1.00  0.00    -0.204 OA
HETATM   34  O7  UNL     1      25.179   4.721   9.721  1.00  0.00    -0.204 OA
BRANCH  32  35
HETATM   35  C13 UNL     1      23.441   3.110   8.410  1.00  0.00     0.336 C 
BRANCH  35  36
HETATM   36  N7  UNL     1      23.233   3.517   7.030  1.00  0.00    -0.175 N 
HETATM   37  N8  UNL     1      24.040   3.778   6.039  1.00  0.00    -0.162 N 
HETATM   38  O8  UNL     1      22.980   4.026   5.296  1.00  0.00    -0.123 OA
ATOM     39  H8  UNL     1      25.050   3.786   5.899  1.00  0.00     0.220 HD
HETATM   40  N9  UNL     1      22.175   3.765   6.287  1.00  0.00    -0.162 N 
ATOM     41  H9  UNL     1      21.165   3.757   6.426  1.00  0.00     0.220 HD
ENDBRANCH  35  36
ENDBRANCH  32  35
ENDBRANCH  11  32
TORSDOF 9
ENDMDL
MODEL 4
REMARK VINA RESULT: -7.839787906      3.009      4.202
REMARK  9 active torsions:
REMARK  status: ('A' for Active; 'I' for Inactive)
REMARK    1  A    between atoms: N1_1  and  C1_4 
REMARK    2  A    between atoms: N3_9  and  C3_10 
REMARK    3  A    between atoms: C3_10  and  C4_11 
REMARK    4  A    between atoms: C4_11  and  O2_12 
REMARK    5  A    between atoms: C4_11  and  C5_14 
REMARK    6  A    between atoms: C5_14  and  N4_15 
REMARK    7  A    between atoms: N6_28  and  S1_30 
REMARK    8  A    between atoms: S1_30  and  C13_33 
REMARK    9  A    between atoms: C13_33  and  N7_34 
ROOT
HETATM    1  C1  UNL     1      16.684   6.539   9.286  1.00  0.00     0.113 A 
HETATM    2  N2  UNL     1      15.873   6.591  10.348  1.00  0.00    -0.294 N 
ATOM      3  H2  UNL     1      14.916   6.915  10.203  1.00  0.00     0.172 HD
HETATM    4  C2  UNL     1      16.234   6.244  11.590  1.00  0.00     0.329 A 
HETATM    5  O1  UNL     1      15.459   6.298  12.577  1.00  0.00    -0.246 OA
HETATM    6  N3  UNL     1      17.481   5.815  11.808  1.00  0.00    -0.282 N 
HETATM    7  C9  UNL     1      18.373   5.732  10.789  1.00  0.00     0.123 A 
HETATM    8  C10 UNL     1      17.994   6.090   9.514  1.00  0.00     0.037 A 
HETATM    9  C11 UNL     1      19.112   5.924   8.555  1.00  0.00     0.123 A 
HETATM   10  C12 UNL     1      20.220   5.422   9.389  1.00  0.00     0.096 A 
HETATM   11  N6  UNL     1      21.437   5.114   9.020  1.00  0.00    -0.272 N 
ATOM     12  H6  UNL     1      22.100   4.777   9.718  1.00  0.00     0.180 HD
HETATM   13  N10 UNL     1      19.737   5.322  10.715  1.00  0.00    -0.331 N 
ATOM     14  H10 UNL     1      20.290   5.001  11.511  1.00  0.00     0.168 HD
ENDROOT
BRANCH   6  15
HETATM   15  C3  UNL     1      17.955   5.421  13.120  1.00  0.00     0.168 C 
BRANCH  15  16
HETATM   16  C4  UNL     1      17.536   4.011  13.475  1.00  0.00     0.155 C 
BRANCH  16  17
HETATM   17  O2  UNL     1      18.286   3.059  12.794  1.00  0.00    -0.392 OA
ATOM     18  H2  UNL     1      18.109   2.180  13.105  1.00  0.00     0.210 HD
ENDBRANCH  16  17
BRANCH  16  19
HETATM   19  C5  UNL     1      17.742   3.856  14.975  1.00  0.00     0.170 C 
BRANCH  19  20
HETATM   20  N4  UNL     1      16.651   3.066  15.542  1.00  0.00    -0.259 N 
HETATM   21  C6  UNL     1      15.287   3.441  15.691  1.00  0.00     0.332 A 
HETATM   22  O3  UNL     1      14.818   4.548  15.340  1.00  0.00    -0.246 OA
HETATM   23  N5  UNL     1      14.555   2.379  16.289  1.00  0.00    -0.271 N 
HETATM   24  C7  UNL     1      15.437   1.307  16.533  1.00  0.00     0.318 A 
ATOM     25  H5  UNL     1      13.558   2.391  16.505  1.00  0.00     0.174 HD
HETATM   26  O4  UNL     1      15.180   0.183  17.051  1.00  0.00    -0.262 OA
HETATM   27  C8  UNL     1      16.747   1.743  16.063  1.00  0.00     0.320 A 
HETATM   28  O5  UNL     1      17.784   1.033  16.124  1.00  0.00    -0.262 OA
ENDBRANCH  19  20
ENDBRANCH  16  19
ENDBRANCH  15  16
ENDBRANCH   6  15
BRANCH   1  29
HETATM   29  N1  UNL     1      16.311   6.881   8.087  1.00  0.00    -0.385 N 
ATOM     30  H12 UNL     1      15.321   6.888   7.842  1.00  0.00     0.157 HD
ATOM     31  H11 UNL     1      16.967   7.152   7.354  1.00  0.00     0.157 HD
ENDBRANCH   1  29
BRANCH  11  32
HETATM   32  S1  UNL     1      21.939   5.265   7.401  1.00  0.00     0.252 S 
HETATM   33  O6  UNL     1      21.154   4.286   6.554  1.00  0.00    -0.204 OA
HETATM   34  O7  UNL     1      21.759   6.623   6.828  1.00  0.00    -0.204 OA
BRANCH  32  35
HETATM   35  C13 UNL     1      23.659   4.752   7.299  1.00  0.00     0.336 C 
BRANCH  35  36
HETATM   36  N7  UNL     1      23.647   3.299   7.261  1.00  0.00    -0.175 N 
HETATM   37  N8  UNL     1      24.018   2.376   8.104  1.00  0.00    -0.162 N 
HETATM   38  O8  UNL     1      23.636   1.475   7.222  1.00  0.00    -0.123 OA
ATOM     39  H8  UNL     1      24.426   2.358   9.039  1.00  0.00     0.220 HD
HETATM   40  N9  UNL     1      23.266   2.399   6.381  1.00  0.00    -0.162 N 
ATOM     41  H9  UNL     1      22.858   2.417   5.446  1.00  0.00     0.220 HD
ENDBRANCH  35  36
ENDBRANCH  32  35
ENDBRANCH  11  32
TORSDOF 9
ENDMDL
MODEL 5
REMARK VINA RESULT: -7.818730014      1.493      2.556
REMARK  9 active torsions:
REMARK  status: ('A' for Active; 'I' for Inactive)
REMARK    1  A    between atoms: N1_1  and  C1_4 
REMARK    2  A    between atoms: N3_9  and  C3_10 
REMARK    3  A    between atoms: C3_10  and  C4_11 
REMARK    4  A    between atoms: C4_11  and  O2_12 
REMARK    5  A    between atoms: C4_11  and  C5_14 
REMARK    6  A    between atoms: C5_14  and  N4_15 
REMARK    7  A    between atoms: N6_28  and  S1_30 
REMARK    8  A    between atoms: S1_30  and  C13_33 
REMARK    9  A    between atoms: C13_33  and  N7_34 
ROOT
HETATM    1  C1  UNL     1      18.414   4.961   9.242  1.00  0.00     0.113 A 
HETATM    2  N2  UNL     1      17.263   4.315   9.464  1.00  0.00    -0.294 N 
ATOM      3  H2  UNL     1      16.587   4.269   8.702  1.00  0.00     0.172 HD
HETATM    4  C2  UNL     1      16.943   3.724  10.622  1.00  0.00     0.329 A 
HETATM    5  O1  UNL     1      15.858   3.120  10.814  1.00  0.00    -0.246 OA
HETATM    6  N3  UNL     1      17.811   3.768  11.636  1.00  0.00    -0.282 N 
HETATM    7  C9  UNL     1      19.002   4.403  11.501  1.00  0.00     0.123 A 
HETATM    8  C10 UNL     1      19.326   5.009  10.308  1.00  0.00     0.037 A 
HETATM    9  C11 UNL     1      20.666   5.641  10.372  1.00  0.00     0.123 A 
HETATM   10  C12 UNL     1      21.126   5.352  11.742  1.00  0.00     0.096 A 
HETATM   11  N6  UNL     1      22.255   5.695  12.307  1.00  0.00    -0.272 N 
ATOM     12  H6  UNL     1      22.434   5.420  13.273  1.00  0.00     0.180 HD
HETATM   13  N10 UNL     1      20.104   4.612  12.383  1.00  0.00    -0.331 N 
ATOM     14  H10 UNL     1      20.149   4.274  13.345  1.00  0.00     0.168 HD
ENDROOT
BRANCH   6  15
HETATM   15  C3  UNL     1      17.543   3.156  12.923  1.00  0.00     0.168 C 
BRANCH  15  16
HETATM   16  C4  UNL     1      16.703   4.047  13.812  1.00  0.00     0.155 C 
BRANCH  16  17
HETATM   17  O2  UNL     1      15.349   3.747  13.716  1.00  0.00    -0.392 OA
ATOM     18  H2  UNL     1      14.938   4.192  12.985  1.00  0.00     0.210 HD
ENDBRANCH  16  17
BRANCH  16  19
HETATM   19  C5  UNL     1      17.183   3.823  15.238  1.00  0.00     0.170 C 
BRANCH  19  20
HETATM   20  N4  UNL     1      16.292   2.883  15.915  1.00  0.00    -0.259 N 
HETATM   21  C6  UNL     1      14.989   3.131  16.430  1.00  0.00     0.332 A 
HETATM   22  O3  UNL     1      14.406   4.238  16.370  1.00  0.00    -0.246 OA
HETATM   23  N5  UNL     1      14.465   1.945  17.011  1.00  0.00    -0.271 N 
HETATM   24  C7  UNL     1      15.421   0.918  16.879  1.00  0.00     0.318 A 
ATOM     25  H5  UNL     1      13.549   1.852  17.451  1.00  0.00     0.174 HD
HETATM   26  O4  UNL     1      15.340  -0.283  17.265  1.00  0.00    -0.262 OA
HETATM   27  C8  UNL     1      16.562   1.512  16.192  1.00  0.00     0.320 A 
HETATM   28  O5  UNL     1      17.611   0.880  15.903  1.00  0.00    -0.262 OA
ENDBRANCH  19  20
ENDBRANCH  16  19
ENDBRANCH  15  16
ENDBRANCH   6  15
BRANCH   1  29
HETATM   29  N1  UNL     1      18.705   5.528   8.107  1.00  0.00    -0.385 N 
ATOM     30  H12 UNL     1      18.803   4.964   7.264  1.00  0.00     0.157 HD
ATOM     31  H11 UNL     1      18.845   6.534   8.006  1.00  0.00     0.157 HD
ENDBRANCH   1  29
BRANCH  11  32
HETATM   32  S1  UNL     1      23.434   6.587  11.464  1.00  0.00     0.252 S 
HETATM   33  O6  UNL     1      22.775   7.281  10.291  1.00  0.00    -0.204 OA
HETATM   34  O7  UNL     1      24.124   7.616  12.284  1.00  0.00    -0.204 OA
BRANCH  32  35
HETATM   35  C13 UNL     1      24.618   5.429  10.764  1.00  0.00     0.336 C 
BRANCH  35  36
HETATM   36  N7  UNL     1      24.057   4.994   9.496  1.00  0.00    -0.175 N 
HETATM   37  N8  UNL     1      23.509   3.882   9.091  1.00  0.00    -0.162 N 
HETATM   38  O8  UNL     1      23.351   4.440   7.908  1.00  0.00    -0.123 OA
ATOM     39  H8  UNL     1      23.295   2.976   9.508  1.00  0.00     0.220 HD
HETATM   40  N9  UNL     1      23.899   5.550   8.314  1.00  0.00    -0.162 N 
ATOM     41  H9  UNL     1      24.112   6.456   7.897  1.00  0.00     0.220 HD
ENDBRANCH  35  36
ENDBRANCH  32  35
ENDBRANCH  11  32
TORSDOF 9
ENDMDL
