MODEL 1
REMARK VINA RESULT: -8.743754440      0.000      0.000
REMARK  10 active torsions:
REMARK  status: ('A' for Active; 'I' for Inactive)
REMARK    1  A    between atoms: O1_2  and  C2_3 
REMARK    2  A    between atoms: C2_3  and  C3_5 
REMARK       I    between atoms: C3_5  and  N1_7 
REMARK    3  A    between atoms: N1_7  and  C4_9 
REMARK    4  A    between atoms: C7_16  and  C8_17 
REMARK    5  A    between atoms: C8_17  and  N4_18 
REMARK       I    between atoms: N4_18  and  C9_20 
REMARK    6  A    between atoms: C9_20  and  C10_22 
REMARK    7  A    between atoms: C10_22  and  N5_23 
REMARK    8  A    between atoms: N5_23  and  C11_25 
REMARK    9  A    between atoms: N11_39  and  C14_40 
REMARK   10  A    between atoms: C14_40  and  O7_41 
ROOT
HETATM    1  C4  UNL     1      17.142   2.779  12.930  1.00  0.00     0.708 A 
HETATM    2  N2  UNL     1      18.211   3.481  13.474  1.00  0.00    -0.021 N 
ATOM      3  H2  UNL     1      18.389   3.415  14.476  1.00  0.00     0.203 HD
HETATM    4  C5  UNL     1      19.017   4.244  12.718  1.00  0.00     0.710 A 
HETATM    5  N3  UNL     1      19.995   4.995  13.251  1.00  0.00    -0.200 N 
ATOM      6  H3  UNL     1      20.171   4.928  14.254  1.00  0.00     0.183 HD
HETATM    7  C6  UNL     1      20.768   5.847  12.504  1.00  0.00     0.120 A 
HETATM    8  C7  UNL     1      20.552   5.956  11.171  1.00  0.00     0.045 A 
HETATM    9  C12 UNL     1      19.531   5.150  10.652  1.00  0.00     0.280 A 
HETATM   10  O5  UNL     1      19.301   5.202   9.408  1.00  0.00    -0.266 OA
HETATM   11  N10 UNL     1      18.782   4.325  11.396  1.00  0.00    -0.057 N 
HETATM   12  C13 UNL     1      17.754   3.646  10.884  1.00  0.00     0.366 A 
HETATM   13  O6  UNL     1      17.538   3.718   9.651  1.00  0.00    -0.245 OA
HETATM   14  N11 UNL     1      16.910   2.865  11.628  1.00  0.00    -0.109 N 
ENDROOT
BRANCH   8  15
HETATM   15  C8  UNL     1      21.328   6.814  10.235  1.00  0.00     0.168 C 
BRANCH  15  16
HETATM   16  N4  UNL     1      22.126   6.006   9.360  1.00  0.00    -0.355 N 
HETATM   17  C9  UNL     1      23.119   5.077   9.471  1.00  0.00     0.236 C 
HETATM   18  O4  UNL     1      23.586   4.627  10.526  1.00  0.00    -0.272 OA
ATOM     19  H4  UNL     1      21.885   6.172   8.383  1.00  0.00     0.162 HD
BRANCH  17  20
HETATM   20  C10 UNL     1      23.746   4.550   8.194  1.00  0.00     0.240 C 
BRANCH  20  21
HETATM   21  N5  UNL     1      24.188   3.194   8.416  1.00  0.00    -0.215 N 
ATOM     22  H5  UNL     1      24.608   2.964   9.316  1.00  0.00     0.178 HD
BRANCH  21  23
HETATM   23  C11 UNL     1      24.082   2.277   7.552  1.00  0.00     0.710 A 
HETATM   24  N6  UNL     1      24.509   1.004   7.796  1.00  0.00    -0.115 N 
HETATM   25  N7  UNL     1      24.301   0.255   6.751  1.00  0.00    -0.213 N 
ATOM     26  H6  UNL     1      24.931   0.686   8.670  1.00  0.00     0.207 HD
HETATM   27  N8  UNL     1      23.749   1.013   5.836  1.00  0.00    -0.213 N 
ATOM     28  H7  UNL     1      24.525  -0.737   6.662  1.00  0.00     0.210 HD
HETATM   29  N9  UNL     1      23.604   2.267   6.307  1.00  0.00    -0.115 N 
ATOM     30  H8  UNL     1      23.471   0.699   4.906  1.00  0.00     0.210 HD
ATOM     31  H9  UNL     1      23.203   3.060   5.805  1.00  0.00     0.207 HD
ENDBRANCH  21  23
ENDBRANCH  20  21
ENDBRANCH  17  20
ENDBRANCH  15  16
ENDBRANCH   8  15
BRANCH  14  32
HETATM   32  C14 UNL     1      15.759   2.301  10.928  1.00  0.00     0.319 C 
BRANCH  32  33
HETATM   33  O7  UNL     1      16.176   1.133  10.266  1.00  0.00    -0.381 OA
ATOM     34  H7  UNL     1      15.403   0.643  10.011  1.00  0.00     0.211 HD
ENDBRANCH  32  33
ENDBRANCH  14  32
BRANCH   1  35
HETATM   35  N1  UNL     1      16.497   2.121  13.763  1.00  0.00    -0.150 N 
HETATM   36  C3  UNL     1      16.697   1.117  14.676  1.00  0.00     0.335 C 
HETATM   37  O3  UNL     1      16.563  -0.126  14.424  1.00  0.00    -0.261 OA
ATOM     38  H1  UNL     1      15.521   2.417  13.771  1.00  0.00     0.188 HD
BRANCH  36  39
HETATM   39  C2  UNL     1      17.106   1.487  16.046  1.00  0.00     0.351 C 
HETATM   40  O2  UNL     1      18.190   2.151  16.185  1.00  0.00    -0.254 OA
BRANCH  39  41
HETATM   41  O1  UNL     1      16.376   1.132  17.129  1.00  0.00    -0.319 OA
HETATM   42  C1  UNL     1      14.967   1.277  17.234  1.00  0.00     0.213 C 
ENDBRANCH  39  41
ENDBRANCH  36  39
ENDBRANCH   1  35
TORSDOF 10
ENDMDL
MODEL 2
REMARK VINA RESULT: -8.641164903      1.000      1.347
REMARK  10 active torsions:
REMARK  status: ('A' for Active; 'I' for Inactive)
REMARK    1  A    between atoms: O1_2  and  C2_3 
REMARK    2  A    between atoms: C2_3  and  C3_5 
REMARK       I    between atoms: C3_5  and  N1_7 
REMARK    3  A    between atoms: N1_7  and  C4_9 
REMARK    4  A    between atoms: C7_16  and  C8_17 
REMARK    5  A    between atoms: C8_17  and  N4_18 
REMARK       I    between atoms: N4_18  and  C9_20 
REMARK    6  A    between atoms: C9_20  and  C10_22 
REMARK    7  A    between atoms: C10_22  and  N5_23 
REMARK    8  A    between atoms: N5_23  and  C11_25 
REMARK    9  A    between atoms: N11_39  and  C14_40 
REMARK   10  A    between atoms: C14_40  and  O7_41 
ROOT
HETATM    1  C4  UNL     1      17.171   2.819  12.911  1.00  0.00     0.708 A 
HETATM    2  N2  UNL     1      18.232   3.523  13.468  1.00  0.00    -0.021 N 
ATOM      3  H2  UNL     1      18.400   3.453  14.472  1.00  0.00     0.203 HD
HETATM    4  C5  UNL     1      19.043   4.291  12.724  1.00  0.00     0.710 A 
HETATM    5  N3  UNL     1      20.014   5.043  13.270  1.00  0.00    -0.200 N 
ATOM      6  H3  UNL     1      20.179   4.972  14.274  1.00  0.00     0.183 HD
HETATM    7  C6  UNL     1      20.791   5.901  12.534  1.00  0.00     0.120 A 
HETATM    8  C7  UNL     1      20.589   6.014  11.199  1.00  0.00     0.045 A 
HETATM    9  C12 UNL     1      19.576   5.207  10.667  1.00  0.00     0.280 A 
HETATM   10  O5  UNL     1      19.359   5.263   9.420  1.00  0.00    -0.266 OA
HETATM   11  N10 UNL     1      18.822   4.376  11.400  1.00  0.00    -0.057 N 
HETATM   12  C13 UNL     1      17.802   3.695  10.874  1.00  0.00     0.366 A 
HETATM   13  O6  UNL     1      17.598   3.772   9.639  1.00  0.00    -0.245 OA
HETATM   14  N11 UNL     1      16.953   2.909  11.607  1.00  0.00    -0.109 N 
ENDROOT
BRANCH   8  15
HETATM   15  C8  UNL     1      21.372   6.878  10.274  1.00  0.00     0.168 C 
BRANCH  15  16
HETATM   16  N4  UNL     1      22.248   6.082   9.466  1.00  0.00    -0.355 N 
HETATM   17  C9  UNL     1      23.221   5.144   9.656  1.00  0.00     0.236 C 
HETATM   18  O4  UNL     1      23.579   4.671  10.743  1.00  0.00    -0.272 OA
ATOM     19  H4  UNL     1      22.105   6.268   8.474  1.00  0.00     0.162 HD
BRANCH  17  20
HETATM   20  C10 UNL     1      23.968   4.638   8.437  1.00  0.00     0.240 C 
BRANCH  20  21
HETATM   21  N5  UNL     1      23.197   3.584   7.821  1.00  0.00    -0.215 N 
ATOM     22  H5  UNL     1      23.045   2.725   8.349  1.00  0.00     0.178 HD
BRANCH  21  23
HETATM   23  C11 UNL     1      22.699   3.671   6.662  1.00  0.00     0.710 A 
HETATM   24  N6  UNL     1      23.336   3.166   5.565  1.00  0.00    -0.115 N 
HETATM   25  N7  UNL     1      22.628   3.392   4.495  1.00  0.00    -0.213 N 
ATOM     26  H6  UNL     1      24.234   2.683   5.581  1.00  0.00     0.207 HD
HETATM   27  N8  UNL     1      21.549   4.032   4.874  1.00  0.00    -0.213 N 
ATOM     28  H7  UNL     1      22.869   3.122   3.542  1.00  0.00     0.210 HD
HETATM   29  N9  UNL     1      21.570   4.216   6.208  1.00  0.00    -0.115 N 
ATOM     30  H8  UNL     1      20.804   4.344   4.250  1.00  0.00     0.210 HD
ATOM     31  H9  UNL     1      20.856   4.685   6.767  1.00  0.00     0.207 HD
ENDBRANCH  21  23
ENDBRANCH  20  21
ENDBRANCH  17  20
ENDBRANCH  15  16
ENDBRANCH   8  15
BRANCH  14  32
HETATM   32  C14 UNL     1      15.811   2.344  10.893  1.00  0.00     0.319 C 
BRANCH  32  33
HETATM   33  O7  UNL     1      16.228   1.157  10.266  1.00  0.00    -0.381 OA
ATOM     34  H7  UNL     1      16.092   1.251   9.330  1.00  0.00     0.211 HD
ENDBRANCH  32  33
ENDBRANCH  14  32
BRANCH   1  35
HETATM   35  N1  UNL     1      16.520   2.155  13.735  1.00  0.00    -0.150 N 
HETATM   36  C3  UNL     1      16.709   1.134  14.631  1.00  0.00     0.335 C 
HETATM   37  O3  UNL     1      16.559  -0.103  14.359  1.00  0.00    -0.261 OA
ATOM     38  H1  UNL     1      15.548   2.463  13.749  1.00  0.00     0.188 HD
BRANCH  36  39
HETATM   39  C2  UNL     1      17.127   1.476  16.005  1.00  0.00     0.351 C 
HETATM   40  O2  UNL     1      18.199   2.157  16.150  1.00  0.00    -0.254 OA
BRANCH  39  41
HETATM   41  O1  UNL     1      16.415   1.080  17.086  1.00  0.00    -0.319 OA
HETATM   42  C1  UNL     1      14.997   1.112  17.174  1.00  0.00     0.213 C 
ENDBRANCH  39  41
ENDBRANCH  36  39
ENDBRANCH   1  35
TORSDOF 10
ENDMDL
MODEL 3
REMARK VINA RESULT: -8.520332344      3.512      4.678
REMARK  10 active torsions:
REMARK  status: ('A' for Active; 'I' for Inactive)
REMARK    1  A    between atoms: O1_2  and  C2_3 
REMARK    2  A    between atoms: C2_3  and  C3_5 
REMARK       I    between atoms: C3_5  and  N1_7 
REMARK    3  A    between atoms: N1_7  and  C4_9 
REMARK    4  A    between atoms: C7_16  and  C8_17 
REMARK    5  A    between atoms: C8_17  and  N4_18 
REMARK       I    between atoms: N4_18  and  C9_20 
REMARK    6  A    between atoms: C9_20  and  C10_22 
REMARK    7  A    between atoms: C10_22  and  N5_23 
REMARK    8  A    between atoms: N5_23  and  C11_25 
REMARK    9  A    between atoms: N11_39  and  C14_40 
REMARK   10  A    between atoms: C14_40  and  O7_41 
ROOT
HETATM    1  C4  UNL     1      17.141   2.838  12.900  1.00  0.00     0.708 A 
HETATM    2  N2  UNL     1      18.145   3.596  13.491  1.00  0.00    -0.021 N 
ATOM      3  H2  UNL     1      18.295   3.522  14.497  1.00  0.00     0.203 HD
HETATM    4  C5  UNL     1      18.923   4.425  12.775  1.00  0.00     0.710 A 
HETATM    5  N3  UNL     1      19.833   5.226  13.354  1.00  0.00    -0.200 N 
ATOM      6  H3  UNL     1      19.981   5.150  14.360  1.00  0.00     0.183 HD
HETATM    7  C6  UNL     1      20.571   6.141  12.648  1.00  0.00     0.120 A 
HETATM    8  C7  UNL     1      20.391   6.263  11.310  1.00  0.00     0.045 A 
HETATM    9  C12 UNL     1      19.442   5.403  10.745  1.00  0.00     0.280 A 
HETATM   10  O5  UNL     1      19.248   5.465   9.494  1.00  0.00    -0.266 OA
HETATM   11  N10 UNL     1      18.725   4.516  11.449  1.00  0.00    -0.057 N 
HETATM   12  C13 UNL     1      17.760   3.783  10.890  1.00  0.00     0.366 A 
HETATM   13  O6  UNL     1      17.579   3.866   9.652  1.00  0.00    -0.245 OA
HETATM   14  N11 UNL     1      16.946   2.934  11.593  1.00  0.00    -0.109 N 
ENDROOT
BRANCH   8  15
HETATM   15  C8  UNL     1      21.139   7.187  10.416  1.00  0.00     0.168 C 
BRANCH  15  16
HETATM   16  N4  UNL     1      20.270   8.211   9.914  1.00  0.00    -0.355 N 
HETATM   17  C9  UNL     1      19.494   9.213  10.421  1.00  0.00     0.236 C 
HETATM   18  O4  UNL     1      19.398   9.532  11.613  1.00  0.00    -0.272 OA
ATOM     19  H4  UNL     1      20.216   8.182   8.896  1.00  0.00     0.162 HD
BRANCH  17  20
HETATM   20  C10 UNL     1      18.639  10.009   9.452  1.00  0.00     0.240 C 
BRANCH  20  21
HETATM   21  N5  UNL     1      17.293   9.490   9.485  1.00  0.00    -0.215 N 
ATOM     22  H5  UNL     1      16.541  10.115   9.778  1.00  0.00     0.178 HD
BRANCH  21  23
HETATM   23  C11 UNL     1      16.995   8.303   9.168  1.00  0.00     0.710 A 
HETATM   24  N6  UNL     1      16.252   7.503   9.988  1.00  0.00    -0.115 N 
HETATM   25  N7  UNL     1      16.095   6.330   9.444  1.00  0.00    -0.213 N 
ATOM     26  H6  UNL     1      15.876   7.784  10.894  1.00  0.00     0.207 HD
HETATM   27  N8  UNL     1      16.719   6.351   8.292  1.00  0.00    -0.213 N 
ATOM     28  H7  UNL     1      15.582   5.543   9.841  1.00  0.00     0.210 HD
HETATM   29  N9  UNL     1      17.284   7.559   8.099  1.00  0.00    -0.115 N 
ATOM     30  H8  UNL     1      16.770   5.569   7.639  1.00  0.00     0.210 HD
ATOM     31  H9  UNL     1      17.829   7.851   7.288  1.00  0.00     0.207 HD
ENDBRANCH  21  23
ENDBRANCH  20  21
ENDBRANCH  17  20
ENDBRANCH  15  16
ENDBRANCH   8  15
BRANCH  14  32
HETATM   32  C14 UNL     1      15.857   2.311  10.845  1.00  0.00     0.319 C 
BRANCH  32  33
HETATM   33  O7  UNL     1      16.264   1.019  10.470  1.00  0.00    -0.381 OA
ATOM     34  H7  UNL     1      16.887   1.099   9.757  1.00  0.00     0.211 HD
ENDBRANCH  32  33
ENDBRANCH  14  32
BRANCH   1  35
HETATM   35  N1  UNL     1      16.515   2.122  13.700  1.00  0.00    -0.150 N 
HETATM   36  C3  UNL     1      16.745   1.088  14.571  1.00  0.00     0.335 C 
HETATM   37  O3  UNL     1      16.657  -0.147  14.266  1.00  0.00    -0.261 OA
ATOM     38  H1  UNL     1      15.529   2.383  13.711  1.00  0.00     0.188 HD
BRANCH  36  39
HETATM   39  C2  UNL     1      17.131   1.415  15.959  1.00  0.00     0.351 C 
HETATM   40  O2  UNL     1      18.176   2.130  16.132  1.00  0.00    -0.254 OA
BRANCH  39  41
HETATM   41  O1  UNL     1      16.421   0.969  17.021  1.00  0.00    -0.319 OA
HETATM   42  C1  UNL     1      15.047   1.252  17.248  1.00  0.00     0.213 C 
ENDBRANCH  39  41
ENDBRANCH  36  39
ENDBRANCH   1  35
TORSDOF 10
ENDMDL
MODEL 4
REMARK VINA RESULT: -8.349019176      3.634      4.449
REMARK  10 active torsions:
REMARK  status: ('A' for Active; 'I' for Inactive)
REMARK    1  A    between atoms: O1_2  and  C2_3 
REMARK    2  A    between atoms: C2_3  and  C3_5 
REMARK       I    between atoms: C3_5  and  N1_7 
REMARK    3  A    between atoms: N1_7  and  C4_9 
REMARK    4  A    between atoms: C7_16  and  C8_17 
REMARK    5  A    between atoms: C8_17  and  N4_18 
REMARK       I    between atoms: N4_18  and  C9_20 
REMARK    6  A    between atoms: C9_20  and  C10_22 
REMARK    7  A    between atoms: C10_22  and  N5_23 
REMARK    8  A    between atoms: N5_23  and  C11_25 
REMARK    9  A    between atoms: N11_39  and  C14_40 
REMARK   10  A    between atoms: C14_40  and  O7_41 
ROOT
HETATM    1  C4  UNL     1      17.116   3.063  13.093  1.00  0.00     0.708 A 
HETATM    2  N2  UNL     1      17.935   3.966  13.760  1.00  0.00    -0.021 N 
ATOM      3  H2  UNL     1      17.968   3.946  14.779  1.00  0.00     0.203 HD
HETATM    4  C5  UNL     1      18.684   4.866  13.101  1.00  0.00     0.710 A 
HETATM    5  N3  UNL     1      19.407   5.798  13.743  1.00  0.00    -0.200 N 
ATOM      6  H3  UNL     1      19.439   5.777  14.762  1.00  0.00     0.183 HD
HETATM    7  C6  UNL     1      20.105   6.779  13.085  1.00  0.00     0.120 A 
HETATM    8  C7  UNL     1      20.077   6.830  11.731  1.00  0.00     0.045 A 
HETATM    9  C12 UNL     1      19.320   5.835  11.100  1.00  0.00     0.280 A 
HETATM   10  O5  UNL     1      19.275   5.830   9.834  1.00  0.00    -0.266 OA
HETATM   11  N10 UNL     1      18.640   4.886  11.758  1.00  0.00    -0.057 N 
HETATM   12  C13 UNL     1      17.852   4.013  11.127  1.00  0.00     0.366 A 
HETATM   13  O6  UNL     1      17.815   4.031   9.873  1.00  0.00    -0.245 OA
HETATM   14  N11 UNL     1      17.071   3.089  11.769  1.00  0.00    -0.109 N 
ENDROOT
BRANCH   8  15
HETATM   15  C8  UNL     1      20.806   7.815  10.886  1.00  0.00     0.168 C 
BRANCH  15  16
HETATM   16  N4  UNL     1      19.887   8.550  10.067  1.00  0.00    -0.355 N 
HETATM   17  C9  UNL     1      18.782   9.331  10.243  1.00  0.00     0.236 C 
HETATM   18  O4  UNL     1      18.285   9.662  11.327  1.00  0.00    -0.272 OA
ATOM     19  H4  UNL     1      20.125   8.465   9.079  1.00  0.00     0.162 HD
BRANCH  17  20
HETATM   20  C10 UNL     1      18.061   9.831   9.005  1.00  0.00     0.240 C 
BRANCH  20  21
HETATM   21  N5  UNL     1      17.001   8.908   8.678  1.00  0.00    -0.215 N 
ATOM     22  H5  UNL     1      16.037   9.202   8.836  1.00  0.00     0.178 HD
BRANCH  21  23
HETATM   23  C11 UNL     1      17.204   7.752   8.206  1.00  0.00     0.710 A 
HETATM   24  N6  UNL     1      18.142   7.522   7.242  1.00  0.00    -0.115 N 
HETATM   25  N7  UNL     1      18.148   6.260   6.918  1.00  0.00    -0.213 N 
ATOM     26  H6  UNL     1      18.749   8.234   6.835  1.00  0.00     0.207 HD
HETATM   27  N8  UNL     1      17.236   5.668   7.649  1.00  0.00    -0.213 N 
ATOM     28  H7  UNL     1      18.751   5.816   6.225  1.00  0.00     0.210 HD
HETATM   29  N9  UNL     1      16.639   6.569   8.453  1.00  0.00    -0.115 N 
ATOM     30  H8  UNL     1      17.013   4.673   7.615  1.00  0.00     0.210 HD
ATOM     31  H9  UNL     1      15.894   6.382   9.125  1.00  0.00     0.207 HD
ENDBRANCH  21  23
ENDBRANCH  20  21
ENDBRANCH  17  20
ENDBRANCH  15  16
ENDBRANCH   8  15
BRANCH  14  32
HETATM   32  C14 UNL     1      16.170   2.304  10.931  1.00  0.00     0.319 C 
BRANCH  32  33
HETATM   33  O7  UNL     1      16.399   0.942  11.194  1.00  0.00    -0.381 OA
ATOM     34  H7  UNL     1      16.346   0.467  10.373  1.00  0.00     0.211 HD
ENDBRANCH  32  33
ENDBRANCH  14  32
BRANCH   1  35
HETATM   35  N1  UNL     1      16.491   2.299  13.848  1.00  0.00    -0.150 N 
HETATM   36  C3  UNL     1      16.719   1.200  14.637  1.00  0.00     0.335 C 
HETATM   37  O3  UNL     1      16.608  -0.008  14.243  1.00  0.00    -0.261 OA
ATOM     38  H1  UNL     1      15.510   2.571  13.896  1.00  0.00     0.188 HD
BRANCH  36  39
HETATM   39  C2  UNL     1      17.132   1.417  16.038  1.00  0.00     0.351 C 
HETATM   40  O2  UNL     1      18.215   2.064  16.246  1.00  0.00    -0.254 OA
BRANCH  39  41
HETATM   41  O1  UNL     1      16.406   0.943  17.077  1.00  0.00    -0.319 OA
HETATM   42  C1  UNL     1      14.994   1.053  17.191  1.00  0.00     0.213 C 
ENDBRANCH  39  41
ENDBRANCH  36  39
ENDBRANCH   1  35
TORSDOF 10
ENDMDL
MODEL 5
REMARK VINA RESULT: -8.306290984      3.493      4.347
REMARK  10 active torsions:
REMARK  status: ('A' for Active; 'I' for Inactive)
REMARK    1  A    between atoms: O1_2  and  C2_3 
REMARK    2  A    between atoms: C2_3  and  C3_5 
REMARK       I    between atoms: C3_5  and  N1_7 
REMARK    3  A    between atoms: N1_7  and  C4_9 
REMARK    4  A    between atoms: C7_16  and  C8_17 
REMARK    5  A    between atoms: C8_17  and  N4_18 
REMARK       I    between atoms: N4_18  and  C9_20 
REMARK    6  A    between atoms: C9_20  and  C10_22 
REMARK    7  A    between atoms: C10_22  and  N5_23 
REMARK    8  A    between atoms: N5_23  and  C11_25 
REMARK    9  A    between atoms: N11_39  and  C14_40 
REMARK   10  A    between atoms: C14_40  and  O7_41 
ROOT
HETATM    1  C4  UNL     1      17.160   2.881  12.890  1.00  0.00     0.708 A 
HETATM    2  N2  UNL     1      18.172   3.628  13.480  1.00  0.00    -0.021 N 
ATOM      3  H2  UNL     1      18.321   3.553  14.486  1.00  0.00     0.203 HD
HETATM    4  C5  UNL     1      18.960   4.446  12.764  1.00  0.00     0.710 A 
HETATM    5  N3  UNL     1      19.880   5.237  13.341  1.00  0.00    -0.200 N 
ATOM      6  H3  UNL     1      20.027   5.161  14.348  1.00  0.00     0.183 HD
HETATM    7  C6  UNL     1      20.630   6.143  12.635  1.00  0.00     0.120 A 
HETATM    8  C7  UNL     1      20.451   6.264  11.296  1.00  0.00     0.045 A 
HETATM    9  C12 UNL     1      19.491   5.416  10.732  1.00  0.00     0.280 A 
HETATM   10  O5  UNL     1      19.299   5.479   9.481  1.00  0.00    -0.266 OA
HETATM   11  N10 UNL     1      18.764   4.538  11.437  1.00  0.00    -0.057 N 
HETATM   12  C13 UNL     1      17.790   3.816  10.879  1.00  0.00     0.366 A 
HETATM   13  O6  UNL     1      17.610   3.900   9.641  1.00  0.00    -0.245 OA
HETATM   14  N11 UNL     1      16.966   2.978  11.583  1.00  0.00    -0.109 N 
ENDROOT
BRANCH   8  15
HETATM   15  C8  UNL     1      21.210   7.179  10.401  1.00  0.00     0.168 C 
BRANCH  15  16
HETATM   16  N4  UNL     1      20.327   8.128   9.790  1.00  0.00    -0.355 N 
HETATM   17  C9  UNL     1      20.264   8.846   8.630  1.00  0.00     0.236 C 
HETATM   18  O4  UNL     1      21.063   8.784   7.688  1.00  0.00    -0.272 OA
ATOM     19  H4  UNL     1      19.523   8.320  10.386  1.00  0.00     0.162 HD
BRANCH  17  20
HETATM   20  C10 UNL     1      19.130   9.841   8.472  1.00  0.00     0.240 C 
BRANCH  20  21
HETATM   21  N5  UNL     1      18.091   9.240   7.671  1.00  0.00    -0.215 N 
ATOM     22  H5  UNL     1      17.756   9.748   6.852  1.00  0.00     0.178 HD
BRANCH  21  23
HETATM   23  C11 UNL     1      17.573   8.115   7.930  1.00  0.00     0.710 A 
HETATM   24  N6  UNL     1      17.709   7.049   7.089  1.00  0.00    -0.115 N 
HETATM   25  N7  UNL     1      17.078   6.017   7.572  1.00  0.00    -0.213 N 
ATOM     26  H6  UNL     1      18.228   7.059   6.210  1.00  0.00     0.207 HD
HETATM   27  N8  UNL     1      16.537   6.390   8.705  1.00  0.00    -0.213 N 
ATOM     28  H7  UNL     1      17.017   5.091   7.147  1.00  0.00     0.210 HD
HETATM   29  N9  UNL     1      16.829   7.683   8.948  1.00  0.00    -0.115 N 
ATOM     30  H8  UNL     1      15.978   5.790   9.313  1.00  0.00     0.210 HD
ATOM     31  H9  UNL     1      16.535   8.228   9.759  1.00  0.00     0.207 HD
ENDBRANCH  21  23
ENDBRANCH  20  21
ENDBRANCH  17  20
ENDBRANCH  15  16
ENDBRANCH   8  15
BRANCH  14  32
HETATM   32  C14 UNL     1      15.869   2.367  10.836  1.00  0.00     0.319 C 
BRANCH  32  33
HETATM   33  O7  UNL     1      16.259   1.067  10.468  1.00  0.00    -0.381 OA
ATOM     34  H7  UNL     1      15.477   0.572  10.253  1.00  0.00     0.211 HD
ENDBRANCH  32  33
ENDBRANCH  14  32
BRANCH   1  35
HETATM   35  N1  UNL     1      16.525   2.174  13.690  1.00  0.00    -0.150 N 
HETATM   36  C3  UNL     1      16.741   1.134  14.559  1.00  0.00     0.335 C 
HETATM   37  O3  UNL     1      16.631  -0.099  14.251  1.00  0.00    -0.261 OA
ATOM     38  H1  UNL     1      15.544   2.451  13.706  1.00  0.00     0.188 HD
BRANCH  36  39
HETATM   39  C2  UNL     1      17.138   1.451  15.945  1.00  0.00     0.351 C 
HETATM   40  O2  UNL     1      18.189   2.158  16.116  1.00  0.00    -0.254 OA
BRANCH  39  41
HETATM   41  O1  UNL     1      16.431   1.004  17.010  1.00  0.00    -0.319 OA
HETATM   42  C1  UNL     1      15.060   1.295  17.246  1.00  0.00     0.213 C 
ENDBRANCH  39  41
ENDBRANCH  36  39
ENDBRANCH   1  35
TORSDOF 10
ENDMDL
