MODEL 1
REMARK VINA RESULT: -6.392267086      0.000      0.000
REMARK  12 active torsions:
REMARK  status: ('A' for Active; 'I' for Inactive)
REMARK    1  A    between atoms: N2_7  and  C3_8 
REMARK    2  A    between atoms: C4_10  and  C5_11 
REMARK    3  A    between atoms: C4_10  and  C6_14 
REMARK    4  A    between atoms: C5_11  and  O4_12 
REMARK    5  A    between atoms: C6_14  and  O5_15 
REMARK    6  A    between atoms: C8_23  and  C9_24 
REMARK    7  A    between atoms: C9_24  and  C10_25 
REMARK    8  A    between atoms: C10_25  and  C11_26 
REMARK    9  A    between atoms: C11_26  and  N4_27 
REMARK   10  A    between atoms: N5_30  and  C14_31 
REMARK   11  A    between atoms: C14_31  and  C15_32 
REMARK   12  A    between atoms: C15_32  and  O8_33 
ROOT
HETATM    1  O1  UNL     1      19.636   5.225  11.905  1.00  0.00    -0.266 OA
HETATM    2  C1  UNL     1      18.779   4.616  12.587  1.00  0.00     0.269 A 
HETATM    3  N1  UNL     1      18.285   3.428  12.205  1.00  0.00    -0.274 N 
ATOM      4  H1  UNL     1      18.606   2.998  11.337  1.00  0.00     0.173 HD
HETATM    5  C2  UNL     1      17.361   2.800  12.968  1.00  0.00     0.332 A 
HETATM    6  O2  UNL     1      16.948   1.678  12.532  1.00  0.00    -0.246 OA
HETATM    7  N2  UNL     1      16.907   3.329  14.114  1.00  0.00    -0.266 N 
HETATM    8  C7  UNL     1      17.412   4.520  14.484  1.00  0.00     0.125 A 
HETATM    9  C8  UNL     1      18.357   5.223  13.762  1.00  0.00     0.101 A 
ENDROOT
BRANCH   7  10
HETATM   10  C3  UNL     1      15.927   2.616  14.873  1.00  0.00     0.380 C 
HETATM   11  O3  UNL     1      15.401   3.471  15.846  1.00  0.00    -0.315 OA
HETATM   12  C4  UNL     1      14.847   2.719  16.844  1.00  0.00     0.189 C 
HETATM   13  N3  UNL     1      15.894   1.881  17.428  1.00  0.00    -0.279 N 
HETATM   14  S1  UNL     1      16.709   1.402  15.956  1.00  0.00     0.276 S 
ATOM     15  H3  UNL     1      16.089   1.646  18.401  1.00  0.00     0.175 HD
HETATM   16  O6  UNL     1      16.335   0.014  15.596  1.00  0.00    -0.201 OA
HETATM   17  O7  UNL     1      18.181   1.618  16.047  1.00  0.00    -0.201 OA
BRANCH  12  18
HETATM   18  C5  UNL     1      13.686   1.864  16.402  1.00  0.00     0.228 C 
BRANCH  18  19
HETATM   19  O4  UNL     1      13.687   0.725  17.221  1.00  0.00    -0.396 OA
ATOM     20  H4  UNL     1      14.228   0.076  16.787  1.00  0.00     0.209 HD
ENDBRANCH  18  19
ENDBRANCH  12  18
BRANCH  12  21
HETATM   21  C6  UNL     1      14.378   3.638  17.936  1.00  0.00     0.228 C 
BRANCH  21  22
HETATM   22  O5  UNL     1      14.695   3.167  19.206  1.00  0.00    -0.396 OA
ATOM     23  H5  UNL     1      13.981   3.272  19.823  1.00  0.00     0.209 HD
ENDBRANCH  21  22
ENDBRANCH  12  21
ENDBRANCH   7  10
BRANCH   9  24
HETATM   24  C9  UNL     1      18.865   6.501  14.185  1.00  0.00    -0.058 C 
BRANCH  24  25
HETATM   25  C10 UNL     1      19.314   7.578  14.568  1.00  0.00    -0.070 C 
BRANCH  25  26
HETATM   26  C11 UNL     1      19.849   8.833  15.052  1.00  0.00     0.366 C 
BRANCH  26  27
HETATM   27  N4  UNL     1      19.259   9.969  14.453  1.00  0.00     0.102 N 
HETATM   28  C12 UNL     1      20.053  10.666  13.466  1.00  0.00     0.293 C 
HETATM   29  C13 UNL     1      19.498  12.106  13.487  1.00  0.00     0.147 C 
HETATM   30  N5  UNL     1      18.160  12.060  13.017  1.00  0.00    -0.407 N 
HETATM   31  C16 UNL     1      17.316  11.081  13.640  1.00  0.00     0.147 C 
HETATM   32  C17 UNL     1      17.975   9.730  13.823  1.00  0.00     0.293 C 
BRANCH  30  33
HETATM   33  C14 UNL     1      17.947  12.255  11.625  1.00  0.00     0.143 C 
BRANCH  33  34
HETATM   34  C15 UNL     1      18.298  13.665  11.231  1.00  0.00     0.183 C 
BRANCH  34  35
HETATM   35  O8  UNL     1      17.238  14.484  11.621  1.00  0.00    -0.399 OA
ATOM     36  H8  UNL     1      17.390  14.735  12.525  1.00  0.00     0.209 HD
ENDBRANCH  34  35
ENDBRANCH  33  34
ENDBRANCH  30  33
ENDBRANCH  26  27
ENDBRANCH  25  26
ENDBRANCH  24  25
ENDBRANCH   9  24
TORSDOF 12
ENDMDL
MODEL 2
REMARK VINA RESULT: -6.356461904      4.455      7.373
REMARK  12 active torsions:
REMARK  status: ('A' for Active; 'I' for Inactive)
REMARK    1  A    between atoms: N2_7  and  C3_8 
REMARK    2  A    between atoms: C4_10  and  C5_11 
REMARK    3  A    between atoms: C4_10  and  C6_14 
REMARK    4  A    between atoms: C5_11  and  O4_12 
REMARK    5  A    between atoms: C6_14  and  O5_15 
REMARK    6  A    between atoms: C8_23  and  C9_24 
REMARK    7  A    between atoms: C9_24  and  C10_25 
REMARK    8  A    between atoms: C10_25  and  C11_26 
REMARK    9  A    between atoms: C11_26  and  N4_27 
REMARK   10  A    between atoms: N5_30  and  C14_31 
REMARK   11  A    between atoms: C14_31  and  C15_32 
REMARK   12  A    between atoms: C15_32  and  O8_33 
ROOT
HETATM    1  O1  UNL     1      19.908   8.612  11.501  1.00  0.00    -0.266 OA
HETATM    2  C1  UNL     1      19.353   7.730  12.196  1.00  0.00     0.269 A 
HETATM    3  N1  UNL     1      18.880   7.989  13.425  1.00  0.00    -0.274 N 
ATOM      4  H1  UNL     1      18.969   8.927  13.818  1.00  0.00     0.173 HD
HETATM    5  C2  UNL     1      18.286   7.010  14.145  1.00  0.00     0.332 A 
HETATM    6  O2  UNL     1      17.865   7.344  15.299  1.00  0.00    -0.246 OA
HETATM    7  N2  UNL     1      18.149   5.763  13.671  1.00  0.00    -0.266 N 
HETATM    8  C7  UNL     1      18.628   5.518  12.438  1.00  0.00     0.125 A 
HETATM    9  C8  UNL     1      19.245   6.461  11.641  1.00  0.00     0.101 A 
ENDROOT
BRANCH   7  10
HETATM   10  C3  UNL     1      17.515   4.772  14.485  1.00  0.00     0.380 C 
HETATM   11  O3  UNL     1      17.742   3.513  13.920  1.00  0.00    -0.315 OA
HETATM   12  C4  UNL     1      16.791   2.644  14.378  1.00  0.00     0.189 C 
HETATM   13  N3  UNL     1      15.476   3.142  13.976  1.00  0.00    -0.279 N 
HETATM   14  S1  UNL     1      15.720   4.844  14.303  1.00  0.00     0.276 S 
ATOM     15  H3  UNL     1      14.662   2.647  13.615  1.00  0.00     0.175 HD
HETATM   16  O6  UNL     1      15.049   5.219  15.570  1.00  0.00    -0.201 OA
HETATM   17  O7  UNL     1      15.320   5.689  13.143  1.00  0.00    -0.201 OA
BRANCH  12  18
HETATM   18  C5  UNL     1      16.826   2.419  15.869  1.00  0.00     0.228 C 
BRANCH  18  19
HETATM   19  O4  UNL     1      18.051   1.798  16.156  1.00  0.00    -0.396 OA
ATOM     20  H4  UNL     1      18.027   0.942  15.745  1.00  0.00     0.209 HD
ENDBRANCH  18  19
ENDBRANCH  12  18
BRANCH  12  21
HETATM   21  C6  UNL     1      16.976   1.322  13.689  1.00  0.00     0.228 C 
BRANCH  21  22
HETATM   22  O5  UNL     1      16.584   0.247  14.481  1.00  0.00    -0.396 OA
ATOM     23  H5  UNL     1      16.904   0.314  15.373  1.00  0.00     0.209 HD
ENDBRANCH  21  22
ENDBRANCH  12  21
ENDBRANCH   7  10
BRANCH   9  24
HETATM   24  C9  UNL     1      19.755   6.158  10.330  1.00  0.00    -0.058 C 
BRANCH  24  25
HETATM   25  C10 UNL     1      20.161   5.897   9.200  1.00  0.00    -0.070 C 
BRANCH  25  26
HETATM   26  C11 UNL     1      20.610   5.604   7.855  1.00  0.00     0.366 C 
BRANCH  26  27
HETATM   27  N4  UNL     1      21.904   5.038   7.801  1.00  0.00     0.102 N 
HETATM   28  C12 UNL     1      22.324   4.274   8.953  1.00  0.00     0.293 C 
HETATM   29  C13 UNL     1      23.865   4.354   8.916  1.00  0.00     0.147 C 
HETATM   30  N5  UNL     1      24.304   3.669   7.753  1.00  0.00    -0.407 N 
HETATM   31  C16 UNL     1      23.653   4.039   6.530  1.00  0.00     0.147 C 
HETATM   32  C17 UNL     1      22.150   4.185   6.655  1.00  0.00     0.293 C 
BRANCH  30  33
HETATM   33  C14 UNL     1      24.620   2.288   7.887  1.00  0.00     0.143 C 
BRANCH  33  34
HETATM   34  C15 UNL     1      24.382   1.565   6.588  1.00  0.00     0.183 C 
BRANCH  34  35
HETATM   35  O8  UNL     1      23.396   0.606   6.819  1.00  0.00    -0.399 OA
ATOM     36  H8  UNL     1      23.247   0.148   5.999  1.00  0.00     0.209 HD
ENDBRANCH  34  35
ENDBRANCH  33  34
ENDBRANCH  30  33
ENDBRANCH  26  27
ENDBRANCH  25  26
ENDBRANCH  24  25
ENDBRANCH   9  24
TORSDOF 12
ENDMDL
MODEL 3
REMARK VINA RESULT: -6.212307156      4.445      6.827
REMARK  12 active torsions:
REMARK  status: ('A' for Active; 'I' for Inactive)
REMARK    1  A    between atoms: N2_7  and  C3_8 
REMARK    2  A    between atoms: C4_10  and  C5_11 
REMARK    3  A    between atoms: C4_10  and  C6_14 
REMARK    4  A    between atoms: C5_11  and  O4_12 
REMARK    5  A    between atoms: C6_14  and  O5_15 
REMARK    6  A    between atoms: C8_23  and  C9_24 
REMARK    7  A    between atoms: C9_24  and  C10_25 
REMARK    8  A    between atoms: C10_25  and  C11_26 
REMARK    9  A    between atoms: C11_26  and  N4_27 
REMARK   10  A    between atoms: N5_30  and  C14_31 
REMARK   11  A    between atoms: C14_31  and  C15_32 
REMARK   12  A    between atoms: C15_32  and  O8_33 
ROOT
HETATM    1  O1  UNL     1      19.152   8.615  11.144  1.00  0.00    -0.266 OA
HETATM    2  C1  UNL     1      18.523   7.660  11.656  1.00  0.00     0.269 A 
HETATM    3  N1  UNL     1      17.205   7.727  11.894  1.00  0.00    -0.274 N 
ATOM      4  H1  UNL     1      16.687   8.574  11.657  1.00  0.00     0.173 HD
HETATM    5  C2  UNL     1      16.560   6.675  12.449  1.00  0.00     0.332 A 
HETATM    6  O2  UNL     1      15.310   6.824  12.638  1.00  0.00    -0.246 OA
HETATM    7  N2  UNL     1      17.200   5.544  12.779  1.00  0.00    -0.266 N 
HETATM    8  C7  UNL     1      18.522   5.491  12.534  1.00  0.00     0.125 A 
HETATM    9  C8  UNL     1      19.251   6.520  11.971  1.00  0.00     0.101 A 
ENDROOT
BRANCH   7  10
HETATM   10  C3  UNL     1      16.461   4.468  13.366  1.00  0.00     0.380 C 
HETATM   11  O3  UNL     1      17.082   4.096  14.562  1.00  0.00    -0.315 OA
HETATM   12  C4  UNL     1      16.702   2.822  14.880  1.00  0.00     0.189 C 
HETATM   13  N3  UNL     1      17.123   1.930  13.800  1.00  0.00    -0.279 N 
HETATM   14  S1  UNL     1      16.701   2.940  12.435  1.00  0.00     0.276 S 
ATOM     15  H3  UNL     1      17.537   0.999  13.832  1.00  0.00     0.175 HD
HETATM   16  O6  UNL     1      15.440   2.462  11.819  1.00  0.00    -0.201 OA
HETATM   17  O7  UNL     1      17.829   3.059  11.469  1.00  0.00    -0.201 OA
BRANCH  12  18
HETATM   18  C5  UNL     1      15.224   2.663  15.136  1.00  0.00     0.228 C 
BRANCH  18  19
HETATM   19  O4  UNL     1      15.083   2.322  16.490  1.00  0.00    -0.396 OA
ATOM     20  H4  UNL     1      14.359   2.836  16.828  1.00  0.00     0.209 HD
ENDBRANCH  18  19
ENDBRANCH  12  18
BRANCH  12  21
HETATM   21  C6  UNL     1      17.451   2.388  16.108  1.00  0.00     0.228 C 
BRANCH  21  22
HETATM   22  O5  UNL     1      17.690   1.018  16.133  1.00  0.00    -0.396 OA
ATOM     23  H5  UNL     1      17.193   0.573  16.809  1.00  0.00     0.209 HD
ENDBRANCH  21  22
ENDBRANCH  12  21
ENDBRANCH   7  10
BRANCH   9  24
HETATM   24  C9  UNL     1      20.667   6.430  11.735  1.00  0.00    -0.058 C 
BRANCH  24  25
HETATM   25  C10 UNL     1      21.873   6.324  11.528  1.00  0.00    -0.070 C 
BRANCH  25  26
HETATM   26  C11 UNL     1      23.299   6.235  11.292  1.00  0.00     0.366 C 
BRANCH  26  27
HETATM   27  N4  UNL     1      23.634   5.562  10.095  1.00  0.00     0.102 N 
HETATM   28  C12 UNL     1      25.032   5.256   9.895  1.00  0.00     0.293 C 
HETATM   29  C13 UNL     1      25.179   5.157   8.362  1.00  0.00     0.147 C 
HETATM   30  N5  UNL     1      24.420   4.040   7.927  1.00  0.00    -0.407 N 
HETATM   31  C16 UNL     1      23.070   3.980   8.407  1.00  0.00     0.147 C 
HETATM   32  C17 UNL     1      22.926   4.315   9.877  1.00  0.00     0.293 C 
BRANCH  30  33
HETATM   33  C14 UNL     1      25.092   2.790   7.829  1.00  0.00     0.143 C 
BRANCH  33  34
HETATM   34  C15 UNL     1      24.285   1.820   7.009  1.00  0.00     0.183 C 
BRANCH  34  35
HETATM   35  O8  UNL     1      24.041   0.701   7.806  1.00  0.00    -0.399 OA
ATOM     36  H8  UNL     1      23.861  -0.029   7.224  1.00  0.00     0.209 HD
ENDBRANCH  34  35
ENDBRANCH  33  34
ENDBRANCH  30  33
ENDBRANCH  26  27
ENDBRANCH  25  26
ENDBRANCH  24  25
ENDBRANCH   9  24
TORSDOF 12
ENDMDL
MODEL 4
REMARK VINA RESULT: -6.136016044      0.631      1.073
REMARK  12 active torsions:
REMARK  status: ('A' for Active; 'I' for Inactive)
REMARK    1  A    between atoms: N2_7  and  C3_8 
REMARK    2  A    between atoms: C4_10  and  C5_11 
REMARK    3  A    between atoms: C4_10  and  C6_14 
REMARK    4  A    between atoms: C5_11  and  O4_12 
REMARK    5  A    between atoms: C6_14  and  O5_15 
REMARK    6  A    between atoms: C8_23  and  C9_24 
REMARK    7  A    between atoms: C9_24  and  C10_25 
REMARK    8  A    between atoms: C10_25  and  C11_26 
REMARK    9  A    between atoms: C11_26  and  N4_27 
REMARK   10  A    between atoms: N5_30  and  C14_31 
REMARK   11  A    between atoms: C14_31  and  C15_32 
REMARK   12  A    between atoms: C15_32  and  O8_33 
ROOT
HETATM    1  O1  UNL     1      19.650   5.263  11.960  1.00  0.00    -0.266 OA
HETATM    2  C1  UNL     1      18.791   4.646  12.631  1.00  0.00     0.269 A 
HETATM    3  N1  UNL     1      18.338   3.437  12.263  1.00  0.00    -0.274 N 
ATOM      4  H1  UNL     1      18.694   2.997  11.415  1.00  0.00     0.173 HD
HETATM    5  C2  UNL     1      17.410   2.802  13.015  1.00  0.00     0.332 A 
HETATM    6  O2  UNL     1      17.038   1.660  12.594  1.00  0.00    -0.246 OA
HETATM    7  N2  UNL     1      16.911   3.343  14.136  1.00  0.00    -0.266 N 
HETATM    8  C7  UNL     1      17.374   4.555  14.492  1.00  0.00     0.125 A 
HETATM    9  C8  UNL     1      18.320   5.267  13.780  1.00  0.00     0.101 A 
ENDROOT
BRANCH   7  10
HETATM   10  C3  UNL     1      15.929   2.622  14.884  1.00  0.00     0.380 C 
HETATM   11  O3  UNL     1      15.394   3.468  15.860  1.00  0.00    -0.315 OA
HETATM   12  C4  UNL     1      14.837   2.707  16.850  1.00  0.00     0.189 C 
HETATM   13  N3  UNL     1      15.884   1.868  17.434  1.00  0.00    -0.279 N 
HETATM   14  S1  UNL     1      16.709   1.403  15.963  1.00  0.00     0.276 S 
ATOM     15  H3  UNL     1      16.074   1.627  18.406  1.00  0.00     0.175 HD
HETATM   16  O6  UNL     1      16.342   0.016  15.591  1.00  0.00    -0.201 OA
HETATM   17  O7  UNL     1      18.180   1.623  16.064  1.00  0.00    -0.201 OA
BRANCH  12  18
HETATM   18  C5  UNL     1      13.682   1.852  16.395  1.00  0.00     0.228 C 
BRANCH  18  19
HETATM   19  O4  UNL     1      13.685   0.704  17.202  1.00  0.00    -0.396 OA
ATOM     20  H4  UNL     1      12.910   0.751  17.749  1.00  0.00     0.209 HD
ENDBRANCH  18  19
ENDBRANCH  12  18
BRANCH  12  21
HETATM   21  C6  UNL     1      14.358   3.617  17.945  1.00  0.00     0.228 C 
BRANCH  21  22
HETATM   22  O5  UNL     1      14.682   3.145  19.213  1.00  0.00    -0.396 OA
ATOM     23  H5  UNL     1      13.915   2.931  19.730  1.00  0.00     0.209 HD
ENDBRANCH  21  22
ENDBRANCH  12  21
ENDBRANCH   7  10
BRANCH   9  24
HETATM   24  C9  UNL     1      18.784   6.567  14.188  1.00  0.00    -0.058 C 
BRANCH  24  25
HETATM   25  C10 UNL     1      19.161   7.676  14.559  1.00  0.00    -0.070 C 
BRANCH  25  26
HETATM   26  C11 UNL     1      19.638   8.977  14.979  1.00  0.00     0.366 C 
BRANCH  26  27
HETATM   27  N4  UNL     1      19.705   9.921  13.930  1.00  0.00     0.102 N 
HETATM   28  C12 UNL     1      18.448  10.454  13.458  1.00  0.00     0.293 C 
HETATM   29  C13 UNL     1      18.743  10.885  12.006  1.00  0.00     0.147 C 
HETATM   30  N5  UNL     1      19.680  11.950  12.054  1.00  0.00    -0.407 N 
HETATM   31  C16 UNL     1      20.842  11.720  12.862  1.00  0.00     0.147 C 
HETATM   32  C17 UNL     1      20.543  11.074  14.198  1.00  0.00     0.293 C 
BRANCH  30  33
HETATM   33  C14 UNL     1      19.163  13.275  12.086  1.00  0.00     0.143 C 
BRANCH  33  34
HETATM   34  C15 UNL     1      17.909  13.372  11.258  1.00  0.00     0.183 C 
BRANCH  34  35
HETATM   35  O8  UNL     1      17.242  14.535  11.645  1.00  0.00    -0.399 OA
ATOM     36  H8  UNL     1      17.184  14.528  12.593  1.00  0.00     0.209 HD
ENDBRANCH  34  35
ENDBRANCH  33  34
ENDBRANCH  30  33
ENDBRANCH  26  27
ENDBRANCH  25  26
ENDBRANCH  24  25
ENDBRANCH   9  24
TORSDOF 12
ENDMDL
MODEL 5
REMARK VINA RESULT: -6.116652088      4.620      6.791
REMARK  12 active torsions:
REMARK  status: ('A' for Active; 'I' for Inactive)
REMARK    1  A    between atoms: N2_7  and  C3_8 
REMARK    2  A    between atoms: C4_10  and  C5_11 
REMARK    3  A    between atoms: C4_10  and  C6_14 
REMARK    4  A    between atoms: C5_11  and  O4_12 
REMARK    5  A    between atoms: C6_14  and  O5_15 
REMARK    6  A    between atoms: C8_23  and  C9_24 
REMARK    7  A    between atoms: C9_24  and  C10_25 
REMARK    8  A    between atoms: C10_25  and  C11_26 
REMARK    9  A    between atoms: C11_26  and  N4_27 
REMARK   10  A    between atoms: N5_30  and  C14_31 
REMARK   11  A    between atoms: C14_31  and  C15_32 
REMARK   12  A    between atoms: C15_32  and  O8_33 
ROOT
HETATM    1  O1  UNL     1      21.310   7.751  11.884  1.00  0.00    -0.266 OA
HETATM    2  C1  UNL     1      20.504   7.003  12.484  1.00  0.00     0.269 A 
HETATM    3  N1  UNL     1      19.668   7.470  13.423  1.00  0.00    -0.274 N 
ATOM      4  H1  UNL     1      19.678   8.461  13.667  1.00  0.00     0.173 HD
HETATM    5  C2  UNL     1      18.812   6.630  14.048  1.00  0.00     0.332 A 
HETATM    6  O2  UNL     1      18.053   7.158  14.924  1.00  0.00    -0.246 OA
HETATM    7  N2  UNL     1      18.764   5.321  13.763  1.00  0.00    -0.266 N 
HETATM    8  C7  UNL     1      19.609   4.866  12.819  1.00  0.00     0.125 A 
HETATM    9  C8  UNL     1      20.511   5.658  12.136  1.00  0.00     0.101 A 
ENDROOT
BRANCH   7  10
HETATM   10  C3  UNL     1      17.838   4.485  14.463  1.00  0.00     0.380 C 
HETATM   11  O3  UNL     1      17.993   3.169  14.017  1.00  0.00    -0.315 OA
HETATM   12  C4  UNL     1      16.852   2.470  14.297  1.00  0.00     0.189 C 
HETATM   13  N3  UNL     1      15.734   3.107  13.600  1.00  0.00    -0.279 N 
HETATM   14  S1  UNL     1      16.150   4.780  13.896  1.00  0.00     0.276 S 
ATOM     15  H3  UNL     1      14.950   2.698  13.094  1.00  0.00     0.175 HD
HETATM   16  O6  UNL     1      15.293   5.334  14.971  1.00  0.00    -0.201 OA
HETATM   17  O7  UNL     1      16.126   5.583  12.641  1.00  0.00    -0.201 OA
BRANCH  12  18
HETATM   18  C5  UNL     1      16.544   2.353  15.769  1.00  0.00     0.228 C 
BRANCH  18  19
HETATM   19  O4  UNL     1      17.680   1.797  16.377  1.00  0.00    -0.396 OA
ATOM     20  H4  UNL     1      17.397   1.000  16.808  1.00  0.00     0.209 HD
ENDBRANCH  18  19
ENDBRANCH  12  18
BRANCH  12  21
HETATM   21  C6  UNL     1      16.981   1.088  13.723  1.00  0.00     0.228 C 
BRANCH  21  22
HETATM   22  O5  UNL     1      16.555   0.100  14.606  1.00  0.00    -0.396 OA
ATOM     23  H5  UNL     1      17.278  -0.369  15.006  1.00  0.00     0.209 HD
ENDBRANCH  21  22
ENDBRANCH  12  21
ENDBRANCH   7  10
BRANCH   9  24
HETATM   24  C9  UNL     1      21.407   5.134  11.139  1.00  0.00    -0.058 C 
BRANCH  24  25
HETATM   25  C10 UNL     1      22.193   4.703  10.300  1.00  0.00    -0.070 C 
BRANCH  25  26
HETATM   26  C11 UNL     1      23.141   4.226   9.315  1.00  0.00     0.366 C 
BRANCH  26  27
HETATM   27  N4  UNL     1      22.835   4.625   7.994  1.00  0.00     0.102 N 
HETATM   28  C12 UNL     1      22.944   3.610   6.971  1.00  0.00     0.293 C 
HETATM   29  C13 UNL     1      23.201   4.409   5.676  1.00  0.00     0.147 C 
HETATM   30  N5  UNL     1      22.040   5.179   5.406  1.00  0.00    -0.407 N 
HETATM   31  C16 UNL     1      21.540   5.956   6.503  1.00  0.00     0.147 C 
HETATM   32  C17 UNL     1      21.521   5.213   7.823  1.00  0.00     0.293 C 
BRANCH  30  33
HETATM   33  C14 UNL     1      21.050   4.599   4.565  1.00  0.00     0.143 C 
BRANCH  33  34
HETATM   34  C15 UNL     1      20.257   5.671   3.867  1.00  0.00     0.183 C 
BRANCH  34  35
HETATM   35  O8  UNL     1      18.906   5.397   4.078  1.00  0.00    -0.399 OA
ATOM     36  H8  UNL     1      18.590   6.009   4.733  1.00  0.00     0.209 HD
ENDBRANCH  34  35
ENDBRANCH  33  34
ENDBRANCH  30  33
ENDBRANCH  26  27
ENDBRANCH  25  26
ENDBRANCH  24  25
ENDBRANCH   9  24
TORSDOF 12
ENDMDL
