MODEL 1
REMARK VINA RESULT: -7.169563729      0.000      0.000
REMARK  13 active torsions:
REMARK  status: ('A' for Active; 'I' for Inactive)
REMARK    1  A    between atoms: N1_1  and  C1_5 
REMARK    2  A    between atoms: C1_5  and  C2_6 
REMARK    3  A    between atoms: C1_5  and  C3_9 
REMARK    4  A    between atoms: C3_9  and  C4_11 
REMARK    5  A    between atoms: C4_11  and  C5_12 
REMARK    6  A    between atoms: C5_12  and  C6_13 
REMARK    7  A    between atoms: C8_18  and  C9_19 
REMARK    8  A    between atoms: C9_19  and  O5_20 
REMARK    9  A    between atoms: C9_19  and  C10_22 
REMARK       I    between atoms: C10_22  and  N2_24 
REMARK   10  A    between atoms: N2_24  and  C11_26 
REMARK   11  A    between atoms: N3_27  and  N4_28 
REMARK   12  A    between atoms: N6_33  and  O7_34 
REMARK   13  A    between atoms: N7_36  and  O8_37 
ROOT
HETATM    1  C6  UNL     1      16.106   5.873  13.811  1.00  0.00     0.130 C 
HETATM    2  S1  UNL     1      15.100   6.996  14.865  1.00  0.00    -0.077 SA
HETATM    3  S2  UNL     1      15.646   8.956  14.155  1.00  0.00    -0.018 SA
HETATM    4  C7  UNL     1      16.360   8.640  12.543  1.00  0.00     0.210 C 
HETATM    5  O4  UNL     1      15.911   9.250  11.588  1.00  0.00    -0.284 OA
HETATM    6  C8  UNL     1      17.459   7.651  12.451  1.00  0.00     0.176 C 
HETATM    7  C12 UNL     1      17.380   6.572  13.435  1.00  0.00     0.156 C 
HETATM    8  O9  UNL     1      18.393   6.202  13.997  1.00  0.00    -0.296 OA
ENDROOT
BRANCH   6   9
HETATM    9  C9  UNL     1      17.460   7.142  11.005  1.00  0.00     0.230 C 
BRANCH   9  10
HETATM   10  O5  UNL     1      17.756   8.285  10.226  1.00  0.00    -0.385 OA
ATOM     11  H5  UNL     1      18.072   7.936   9.400  1.00  0.00     0.210 HD
ENDBRANCH   9  10
BRANCH   9  12
HETATM   12  C10 UNL     1      18.515   6.147  10.768  1.00  0.00     0.266 C 
HETATM   13  O6  UNL     1      19.702   6.444  11.012  1.00  0.00    -0.270 OA
HETATM   14  N2  UNL     1      18.231   4.853  10.270  1.00  0.00    -0.151 N 
ATOM     15  H2  UNL     1      18.220   4.694   9.263  1.00  0.00     0.187 HD
BRANCH  14  16
HETATM   16  C11 UNL     1      17.982   3.854  11.084  1.00  0.00     0.767 A 
HETATM   17  N3  UNL     1      18.734   3.444  12.117  1.00  0.00    -0.005 N 
HETATM   18  N5  UNL     1      18.178   2.403  12.723  1.00  0.00    -0.162 N 
HETATM   19  N6  UNL     1      17.068   2.152  12.073  1.00  0.00    -0.035 N 
ATOM     20  H5  UNL     1      18.540   1.900  13.533  1.00  0.00     0.215 HD
HETATM   21  N7  UNL     1      16.922   3.023  11.066  1.00  0.00     0.064 N 
BRANCH  17  22
HETATM   22  N4  UNL     1      19.934   4.004  12.527  1.00  0.00    -0.308 N 
ATOM     23  H42 UNL     1      20.138   5.001  12.448  1.00  0.00     0.179 HD
ATOM     24  H41 UNL     1      20.722   3.504  12.939  1.00  0.00     0.179 HD
ENDBRANCH  17  22
BRANCH  19  25
HETATM   25  O7  UNL     1      16.185   1.135  12.388  1.00  0.00    -0.250 OA
ATOM     26  H7  UNL     1      15.252   1.254  12.531  1.00  0.00     0.248 HD
ENDBRANCH  19  25
BRANCH  21  27
HETATM   27  O8  UNL     1      15.876   3.041  10.193  1.00  0.00    -0.251 OA
ATOM     28  H8  UNL     1      15.715   2.437   9.478  1.00  0.00     0.247 HD
ENDBRANCH  21  27
ENDBRANCH  14  16
ENDBRANCH   9  12
ENDBRANCH   6   9
BRANCH   1  29
HETATM   29  C5  UNL     1      16.393   4.657  14.604  1.00  0.00     0.031 C 
BRANCH  29  30
HETATM   30  C4  UNL     1      15.359   3.599  14.638  1.00  0.00     0.083 C 
BRANCH  30  31
HETATM   31  C3  UNL     1      15.007   3.077  15.975  1.00  0.00     0.168 C 
HETATM   32  O3  UNL     1      14.457   3.800  16.778  1.00  0.00    -0.295 OA
BRANCH  31  33
HETATM   33  C1  UNL     1      15.300   1.680  16.396  1.00  0.00     0.352 C 
BRANCH  33  34
HETATM   34  N1  UNL     1      15.429   1.623  17.857  1.00  0.00    -0.058 N 
ATOM     35  H13 UNL     1      14.960   0.817  18.270  1.00  0.00     0.275 HD
ATOM     36  H12 UNL     1      16.374   1.396  18.168  1.00  0.00     0.275 HD
ATOM     37  H11 UNL     1      15.091   2.514  18.220  1.00  0.00     0.275 HD
ENDBRANCH  33  34
BRANCH  33  38
HETATM   38  C2  UNL     1      16.556   1.144  15.832  1.00  0.00     0.212 C 
HETATM   39  O1  UNL     1      16.538   0.095  15.124  1.00  0.00    -0.646 OA
HETATM   40  O2  UNL     1      17.806   1.717  16.021  1.00  0.00    -0.646 OA
ENDBRANCH  33  38
ENDBRANCH  31  33
ENDBRANCH  30  31
ENDBRANCH  29  30
ENDBRANCH   1  29
TORSDOF 13
ENDMDL
MODEL 2
REMARK VINA RESULT: -6.799321096      1.204      1.708
REMARK  13 active torsions:
REMARK  status: ('A' for Active; 'I' for Inactive)
REMARK    1  A    between atoms: N1_1  and  C1_5 
REMARK    2  A    between atoms: C1_5  and  C2_6 
REMARK    3  A    between atoms: C1_5  and  C3_9 
REMARK    4  A    between atoms: C3_9  and  C4_11 
REMARK    5  A    between atoms: C4_11  and  C5_12 
REMARK    6  A    between atoms: C5_12  and  C6_13 
REMARK    7  A    between atoms: C8_18  and  C9_19 
REMARK    8  A    between atoms: C9_19  and  O5_20 
REMARK    9  A    between atoms: C9_19  and  C10_22 
REMARK       I    between atoms: C10_22  and  N2_24 
REMARK   10  A    between atoms: N2_24  and  C11_26 
REMARK   11  A    between atoms: N3_27  and  N4_28 
REMARK   12  A    between atoms: N6_33  and  O7_34 
REMARK   13  A    between atoms: N7_36  and  O8_37 
ROOT
HETATM    1  C6  UNL     1      15.936   5.737  13.626  1.00  0.00     0.130 C 
HETATM    2  S1  UNL     1      15.300   7.111  14.672  1.00  0.00    -0.077 SA
HETATM    3  S2  UNL     1      15.824   8.871  13.545  1.00  0.00    -0.018 SA
HETATM    4  C7  UNL     1      16.114   8.245  11.892  1.00  0.00     0.210 C 
HETATM    5  O4  UNL     1      15.506   8.760  10.970  1.00  0.00    -0.284 OA
HETATM    6  C8  UNL     1      17.076   7.131  11.728  1.00  0.00     0.176 C 
HETATM    7  C12 UNL     1      17.140   6.221  12.872  1.00  0.00     0.156 C 
HETATM    8  O9  UNL     1      18.222   5.818  13.253  1.00  0.00    -0.296 OA
ENDROOT
BRANCH   6   9
HETATM    9  C9  UNL     1      16.697   6.423  10.422  1.00  0.00     0.230 C 
BRANCH   9  10
HETATM   10  O5  UNL     1      16.817   7.424   9.429  1.00  0.00    -0.385 OA
ATOM     11  H5  UNL     1      17.478   8.017   9.765  1.00  0.00     0.210 HD
ENDBRANCH   9  10
BRANCH   9  12
HETATM   12  C10 UNL     1      17.631   5.339  10.088  1.00  0.00     0.266 C 
HETATM   13  O6  UNL     1      18.860   5.560  10.115  1.00  0.00    -0.270 OA
HETATM   14  N2  UNL     1      17.185   4.043   9.734  1.00  0.00    -0.151 N 
ATOM     15  H2  UNL     1      16.997   3.828   8.756  1.00  0.00     0.187 HD
BRANCH  14  16
HETATM   16  C11 UNL     1      17.010   3.116  10.645  1.00  0.00     0.767 A 
HETATM   17  N3  UNL     1      16.000   2.236  10.721  1.00  0.00    -0.005 N 
HETATM   18  N5  UNL     1      16.144   1.440  11.773  1.00  0.00    -0.162 N 
HETATM   19  N6  UNL     1      17.250   1.817  12.367  1.00  0.00    -0.035 N 
ATOM     20  H5  UNL     1      15.519   0.687  12.062  1.00  0.00     0.215 HD
HETATM   21  N7  UNL     1      17.800   2.839  11.700  1.00  0.00     0.064 N 
BRANCH  17  22
HETATM   22  N4  UNL     1      14.933   2.137   9.840  1.00  0.00    -0.308 N 
ATOM     23  H42 UNL     1      13.960   2.214  10.136  1.00  0.00     0.179 HD
ATOM     24  H41 UNL     1      14.996   1.983   8.834  1.00  0.00     0.179 HD
ENDBRANCH  17  22
BRANCH  19  25
HETATM   25  O7  UNL     1      17.762   1.238  13.514  1.00  0.00    -0.250 OA
ATOM     26  H7  UNL     1      17.858   1.684  14.348  1.00  0.00     0.248 HD
ENDBRANCH  19  25
BRANCH  21  27
HETATM   27  O8  UNL     1      18.958   3.468  12.049  1.00  0.00    -0.251 OA
ATOM     28  H8  UNL     1      19.677   3.107  12.554  1.00  0.00     0.247 HD
ENDBRANCH  21  27
ENDBRANCH  14  16
ENDBRANCH   9  12
ENDBRANCH   6   9
BRANCH   1  29
HETATM   29  C5  UNL     1      16.299   4.622  14.529  1.00  0.00     0.031 C 
BRANCH  29  30
HETATM   30  C4  UNL     1      15.334   3.509  14.668  1.00  0.00     0.083 C 
BRANCH  30  31
HETATM   31  C3  UNL     1      14.934   3.164  16.048  1.00  0.00     0.168 C 
HETATM   32  O3  UNL     1      14.395   3.998  16.744  1.00  0.00    -0.295 OA
BRANCH  31  33
HETATM   33  C1  UNL     1      15.162   1.818  16.639  1.00  0.00     0.352 C 
BRANCH  33  34
HETATM   34  N1  UNL     1      15.286   1.934  18.096  1.00  0.00    -0.058 N 
ATOM     35  H13 UNL     1      14.389   2.055  18.567  1.00  0.00     0.275 HD
ATOM     36  H12 UNL     1      15.552   1.059  18.548  1.00  0.00     0.275 HD
ATOM     37  H11 UNL     1      15.941   2.695  18.278  1.00  0.00     0.275 HD
ENDBRANCH  33  34
BRANCH  33  38
HETATM   38  C2  UNL     1      16.393   1.159  16.154  1.00  0.00     0.212 C 
HETATM   39  O1  UNL     1      16.322   0.060  15.531  1.00  0.00    -0.646 OA
HETATM   40  O2  UNL     1      17.673   1.666  16.331  1.00  0.00    -0.646 OA
ENDBRANCH  33  38
ENDBRANCH  31  33
ENDBRANCH  30  31
ENDBRANCH  29  30
ENDBRANCH   1  29
TORSDOF 13
ENDMDL
MODEL 3
REMARK VINA RESULT: -6.783006588      2.733      5.913
REMARK  13 active torsions:
REMARK  status: ('A' for Active; 'I' for Inactive)
REMARK    1  A    between atoms: N1_1  and  C1_5 
REMARK    2  A    between atoms: C1_5  and  C2_6 
REMARK    3  A    between atoms: C1_5  and  C3_9 
REMARK    4  A    between atoms: C3_9  and  C4_11 
REMARK    5  A    between atoms: C4_11  and  C5_12 
REMARK    6  A    between atoms: C5_12  and  C6_13 
REMARK    7  A    between atoms: C8_18  and  C9_19 
REMARK    8  A    between atoms: C9_19  and  O5_20 
REMARK    9  A    between atoms: C9_19  and  C10_22 
REMARK       I    between atoms: C10_22  and  N2_24 
REMARK   10  A    between atoms: N2_24  and  C11_26 
REMARK   11  A    between atoms: N3_27  and  N4_28 
REMARK   12  A    between atoms: N6_33  and  O7_34 
REMARK   13  A    between atoms: N7_36  and  O8_37 
ROOT
HETATM    1  C6  UNL     1      18.197   6.250  12.985  1.00  0.00     0.130 C 
HETATM    2  S1  UNL     1      19.131   6.805  11.500  1.00  0.00    -0.077 SA
HETATM    3  S2  UNL     1      19.355   4.994  10.354  1.00  0.00    -0.018 SA
HETATM    4  C7  UNL     1      18.097   3.909  11.025  1.00  0.00     0.210 C 
HETATM    5  O4  UNL     1      17.305   3.403  10.250  1.00  0.00    -0.284 OA
HETATM    6  C8  UNL     1      18.082   3.684  12.489  1.00  0.00     0.176 C 
HETATM    7  C12 UNL     1      18.556   4.822  13.276  1.00  0.00     0.156 C 
HETATM    8  O9  UNL     1      19.286   4.625  14.230  1.00  0.00    -0.296 OA
ENDROOT
BRANCH   6   9
HETATM    9  C9  UNL     1      16.651   3.266  12.845  1.00  0.00     0.230 C 
BRANCH   9  10
HETATM   10  O5  UNL     1      16.745   1.883  13.129  1.00  0.00    -0.385 OA
ATOM     11  H5  UNL     1      15.882   1.539  12.930  1.00  0.00     0.210 HD
ENDBRANCH   9  10
BRANCH   9  12
HETATM   12  C10 UNL     1      16.160   3.944  14.053  1.00  0.00     0.266 C 
HETATM   13  O6  UNL     1      15.339   4.878  13.939  1.00  0.00    -0.270 OA
HETATM   14  N2  UNL     1      16.585   3.572  15.351  1.00  0.00    -0.151 N 
ATOM     15  H2  UNL     1      17.408   4.017  15.755  1.00  0.00     0.187 HD
BRANCH  14  16
HETATM   16  C11 UNL     1      15.937   2.665  16.042  1.00  0.00     0.767 A 
HETATM   17  N3  UNL     1      14.780   2.825  16.704  1.00  0.00    -0.005 N 
HETATM   18  N5  UNL     1      14.412   1.694  17.293  1.00  0.00    -0.162 N 
HETATM   19  N6  UNL     1      15.338   0.813  17.003  1.00  0.00    -0.035 N 
ATOM     20  H5  UNL     1      13.577   1.541  17.858  1.00  0.00     0.215 HD
HETATM   21  N7  UNL     1      16.283   1.379  16.240  1.00  0.00     0.064 N 
BRANCH  17  22
HETATM   22  N4  UNL     1      14.040   3.995  16.787  1.00  0.00    -0.308 N 
ATOM     23  H42 UNL     1      14.107   4.744  16.098  1.00  0.00     0.179 HD
ATOM     24  H41 UNL     1      13.370   4.232  17.518  1.00  0.00     0.179 HD
ENDBRANCH  17  22
BRANCH  19  25
HETATM   25  O7  UNL     1      15.332  -0.503  17.428  1.00  0.00    -0.250 OA
ATOM     26  H7  UNL     1      16.055  -1.111  17.316  1.00  0.00     0.248 HD
ENDBRANCH  19  25
BRANCH  21  27
HETATM   27  O8  UNL     1      17.387   0.740  15.761  1.00  0.00    -0.251 OA
ATOM     28  H8  UNL     1      17.688  -0.133  15.985  1.00  0.00     0.247 HD
ENDBRANCH  21  27
ENDBRANCH  14  16
ENDBRANCH   9  12
ENDBRANCH   6   9
BRANCH   1  29
HETATM   29  C5  UNL     1      18.590   7.126  14.111  1.00  0.00     0.031 C 
BRANCH  29  30
HETATM   30  C4  UNL     1      17.526   7.915  14.770  1.00  0.00     0.083 C 
BRANCH  30  31
HETATM   31  C3  UNL     1      16.833   8.909  13.923  1.00  0.00     0.168 C 
HETATM   32  O3  UNL     1      17.385   9.951  13.645  1.00  0.00    -0.295 OA
BRANCH  31  33
HETATM   33  C1  UNL     1      15.465   8.689  13.383  1.00  0.00     0.352 C 
BRANCH  33  34
HETATM   34  N1  UNL     1      14.764   7.695  14.204  1.00  0.00    -0.058 N 
ATOM     35  H13 UNL     1      13.751   7.813  14.200  1.00  0.00     0.275 HD
ATOM     36  H12 UNL     1      14.787   6.757  13.806  1.00  0.00     0.275 HD
ATOM     37  H11 UNL     1      15.170   7.744  15.139  1.00  0.00     0.275 HD
ENDBRANCH  33  34
BRANCH  33  38
HETATM   38  C2  UNL     1      15.451   8.185  11.994  1.00  0.00     0.212 C 
HETATM   39  O1  UNL     1      14.782   7.151  11.700  1.00  0.00    -0.646 OA
HETATM   40  O2  UNL     1      16.137   8.773  10.941  1.00  0.00    -0.646 OA
ENDBRANCH  33  38
ENDBRANCH  31  33
ENDBRANCH  30  31
ENDBRANCH  29  30
ENDBRANCH   1  29
TORSDOF 13
ENDMDL
MODEL 4
REMARK VINA RESULT: -6.744757417      1.327      1.543
REMARK  13 active torsions:
REMARK  status: ('A' for Active; 'I' for Inactive)
REMARK    1  A    between atoms: N1_1  and  C1_5 
REMARK    2  A    between atoms: C1_5  and  C2_6 
REMARK    3  A    between atoms: C1_5  and  C3_9 
REMARK    4  A    between atoms: C3_9  and  C4_11 
REMARK    5  A    between atoms: C4_11  and  C5_12 
REMARK    6  A    between atoms: C5_12  and  C6_13 
REMARK    7  A    between atoms: C8_18  and  C9_19 
REMARK    8  A    between atoms: C9_19  and  O5_20 
REMARK    9  A    between atoms: C9_19  and  C10_22 
REMARK       I    between atoms: C10_22  and  N2_24 
REMARK   10  A    between atoms: N2_24  and  C11_26 
REMARK   11  A    between atoms: N3_27  and  N4_28 
REMARK   12  A    between atoms: N6_33  and  O7_34 
REMARK   13  A    between atoms: N7_36  and  O8_37 
ROOT
HETATM    1  C6  UNL     1      17.198   6.736  13.598  1.00  0.00     0.130 C 
HETATM    2  S1  UNL     1      16.146   7.931  14.519  1.00  0.00    -0.077 SA
HETATM    3  S2  UNL     1      16.768   9.840  13.734  1.00  0.00    -0.018 SA
HETATM    4  C7  UNL     1      17.579   9.421  12.193  1.00  0.00     0.210 C 
HETATM    5  O4  UNL     1      17.202   9.980  11.178  1.00  0.00    -0.284 OA
HETATM    6  C8  UNL     1      18.665   8.415  12.230  1.00  0.00     0.176 C 
HETATM    7  C12 UNL     1      18.505   7.396  13.267  1.00  0.00     0.156 C 
HETATM    8  O9  UNL     1      19.474   7.046  13.913  1.00  0.00    -0.296 OA
ENDROOT
BRANCH   6   9
HETATM    9  C9  UNL     1      18.750   7.823  10.818  1.00  0.00     0.230 C 
BRANCH   9  10
HETATM   10  O5  UNL     1      19.348   8.842  10.040  1.00  0.00    -0.385 OA
ATOM     11  H5  UNL     1      20.271   8.801  10.262  1.00  0.00     0.210 HD
ENDBRANCH   9  10
BRANCH   9  12
HETATM   12  C10 UNL     1      19.623   6.641  10.764  1.00  0.00     0.266 C 
HETATM   13  O6  UNL     1      20.775   6.709  11.240  1.00  0.00    -0.270 OA
HETATM   14  N2  UNL     1      19.201   5.419  10.189  1.00  0.00    -0.151 N 
ATOM     15  H2  UNL     1      19.356   5.253   9.195  1.00  0.00     0.187 HD
BRANCH  14  16
HETATM   16  C11 UNL     1      18.614   4.497  10.913  1.00  0.00     0.767 A 
HETATM   17  N3  UNL     1      19.182   3.714  11.844  1.00  0.00    -0.005 N 
HETATM   18  N5  UNL     1      18.289   2.893  12.381  1.00  0.00    -0.162 N 
HETATM   19  N6  UNL     1      17.149   3.155  11.789  1.00  0.00    -0.035 N 
ATOM     20  H5  UNL     1      18.455   2.197  13.108  1.00  0.00     0.215 HD
HETATM   21  N7  UNL     1      17.318   4.131  10.887  1.00  0.00     0.064 N 
BRANCH  17  22
HETATM   22  N4  UNL     1      20.516   3.731  12.223  1.00  0.00    -0.308 N 
ATOM     23  H42 UNL     1      20.824   3.557  13.179  1.00  0.00     0.179 HD
ATOM     24  H41 UNL     1      21.312   3.912  11.612  1.00  0.00     0.179 HD
ENDBRANCH  17  22
BRANCH  19  25
HETATM   25  O7  UNL     1      15.955   2.513  12.063  1.00  0.00    -0.250 OA
ATOM     26  H7  UNL     1      15.681   1.692  11.670  1.00  0.00     0.248 HD
ENDBRANCH  19  25
BRANCH  21  27
HETATM   27  O8  UNL     1      16.333   4.644  10.097  1.00  0.00    -0.251 OA
ATOM     28  H8  UNL     1      16.265   5.533   9.771  1.00  0.00     0.247 HD
ENDBRANCH  21  27
ENDBRANCH  14  16
ENDBRANCH   9  12
ENDBRANCH   6   9
BRANCH   1  29
HETATM   29  C5  UNL     1      17.415   5.565  14.476  1.00  0.00     0.031 C 
BRANCH  29  30
HETATM   30  C4  UNL     1      16.246   4.707  14.778  1.00  0.00     0.083 C 
BRANCH  30  31
HETATM   31  C3  UNL     1      16.547   3.366  15.320  1.00  0.00     0.168 C 
HETATM   32  O3  UNL     1      17.700   3.015  15.452  1.00  0.00    -0.295 OA
BRANCH  31  33
HETATM   33  C1  UNL     1      15.485   2.404  15.721  1.00  0.00     0.352 C 
BRANCH  33  34
HETATM   34  N1  UNL     1      14.679   2.982  16.802  1.00  0.00    -0.058 N 
ATOM     35  H13 UNL     1      15.117   2.898  17.719  1.00  0.00     0.275 HD
ATOM     36  H12 UNL     1      14.638   4.001  16.772  1.00  0.00     0.275 HD
ATOM     37  H11 UNL     1      13.759   2.543  16.754  1.00  0.00     0.275 HD
ENDBRANCH  33  34
BRANCH  33  38
HETATM   38  C2  UNL     1      16.010   1.116  16.219  1.00  0.00     0.212 C 
HETATM   39  O1  UNL     1      16.148   0.924  17.463  1.00  0.00    -0.646 OA
HETATM   40  O2  UNL     1      16.380   0.054  15.405  1.00  0.00    -0.646 OA
ENDBRANCH  33  38
ENDBRANCH  31  33
ENDBRANCH  30  31
ENDBRANCH  29  30
ENDBRANCH   1  29
TORSDOF 13
ENDMDL
MODEL 5
REMARK VINA RESULT: -6.669726029      1.476      2.247
REMARK  13 active torsions:
REMARK  status: ('A' for Active; 'I' for Inactive)
REMARK    1  A    between atoms: N1_1  and  C1_5 
REMARK    2  A    between atoms: C1_5  and  C2_6 
REMARK    3  A    between atoms: C1_5  and  C3_9 
REMARK    4  A    between atoms: C3_9  and  C4_11 
REMARK    5  A    between atoms: C4_11  and  C5_12 
REMARK    6  A    between atoms: C5_12  and  C6_13 
REMARK    7  A    between atoms: C8_18  and  C9_19 
REMARK    8  A    between atoms: C9_19  and  O5_20 
REMARK    9  A    between atoms: C9_19  and  C10_22 
REMARK       I    between atoms: C10_22  and  N2_24 
REMARK   10  A    between atoms: N2_24  and  C11_26 
REMARK   11  A    between atoms: N3_27  and  N4_28 
REMARK   12  A    between atoms: N6_33  and  O7_34 
REMARK   13  A    between atoms: N7_36  and  O8_37 
ROOT
HETATM    1  C6  UNL     1      16.118   6.142  13.587  1.00  0.00     0.130 C 
HETATM    2  S1  UNL     1      14.856   7.207  12.776  1.00  0.00    -0.077 SA
HETATM    3  S2  UNL     1      15.998   8.914  12.123  1.00  0.00    -0.018 SA
HETATM    4  C7  UNL     1      17.689   8.322  12.135  1.00  0.00     0.210 C 
HETATM    5  O4  UNL     1      18.346   8.447  11.116  1.00  0.00    -0.284 OA
HETATM    6  C8  UNL     1      18.203   7.709  13.382  1.00  0.00     0.176 C 
HETATM    7  C12 UNL     1      17.186   7.019  14.175  1.00  0.00     0.156 C 
HETATM    8  O9  UNL     1      17.184   7.147  15.384  1.00  0.00    -0.296 OA
ENDROOT
BRANCH   6   9
HETATM    9  C9  UNL     1      19.359   6.793  12.966  1.00  0.00     0.230 C 
BRANCH   9  10
HETATM   10  O5  UNL     1      20.468   7.261  13.709  1.00  0.00    -0.385 OA
ATOM     11  H5  UNL     1      20.862   6.474  14.071  1.00  0.00     0.210 HD
ENDBRANCH   9  10
BRANCH   9  12
HETATM   12  C10 UNL     1      19.120   5.393  13.340  1.00  0.00     0.266 C 
HETATM   13  O6  UNL     1      18.822   5.118  14.521  1.00  0.00    -0.270 OA
HETATM   14  N2  UNL     1      19.215   4.336  12.404  1.00  0.00    -0.151 N 
ATOM     15  H2  UNL     1      20.111   3.870  12.263  1.00  0.00     0.187 HD
BRANCH  14  16
HETATM   16  C11 UNL     1      18.169   3.946  11.715  1.00  0.00     0.767 A 
HETATM   17  N3  UNL     1      17.640   4.546  10.638  1.00  0.00    -0.005 N 
HETATM   18  N5  UNL     1      16.584   3.875  10.194  1.00  0.00    -0.162 N 
HETATM   19  N6  UNL     1      16.444   2.845  10.993  1.00  0.00    -0.035 N 
ATOM     20  H5  UNL     1      16.000   4.112   9.393  1.00  0.00     0.215 HD
HETATM   21  N7  UNL     1      17.398   2.863  11.932  1.00  0.00     0.064 N 
BRANCH  17  22
HETATM   22  N4  UNL     1      18.102   5.708  10.039  1.00  0.00    -0.308 N 
ATOM     23  H42 UNL     1      17.539   6.555   9.962  1.00  0.00     0.179 HD
ATOM     24  H41 UNL     1      19.022   5.845   9.622  1.00  0.00     0.179 HD
ENDBRANCH  17  22
BRANCH  19  25
HETATM   25  O7  UNL     1      15.452   1.888  10.874  1.00  0.00    -0.250 OA
ATOM     26  H7  UNL     1      15.528   1.092  10.360  1.00  0.00     0.248 HD
ENDBRANCH  19  25
BRANCH  21  27
HETATM   27  O8  UNL     1      17.541   1.935  12.920  1.00  0.00    -0.251 OA
ATOM     28  H8  UNL     1      16.905   1.283  13.191  1.00  0.00     0.247 HD
ENDBRANCH  21  27
ENDBRANCH  14  16
ENDBRANCH   9  12
ENDBRANCH   6   9
BRANCH   1  29
HETATM   29  C5  UNL     1      15.434   5.372  14.650  1.00  0.00     0.031 C 
BRANCH  29  30
HETATM   30  C4  UNL     1      15.476   3.895  14.562  1.00  0.00     0.083 C 
BRANCH  30  31
HETATM   31  C3  UNL     1      15.336   3.164  15.839  1.00  0.00     0.168 C 
HETATM   32  O3  UNL     1      14.322   3.282  16.492  1.00  0.00    -0.295 OA
BRANCH  31  33
HETATM   33  C1  UNL     1      16.399   2.271  16.374  1.00  0.00     0.352 C 
BRANCH  33  34
HETATM   34  N1  UNL     1      17.656   2.515  15.657  1.00  0.00    -0.058 N 
ATOM     35  H13 UNL     1      18.435   2.737  16.277  1.00  0.00     0.275 HD
ATOM     36  H12 UNL     1      18.054   1.671  15.245  1.00  0.00     0.275 HD
ATOM     37  H11 UNL     1      17.468   3.247  14.971  1.00  0.00     0.275 HD
ENDBRANCH  33  34
BRANCH  33  38
HETATM   38  C2  UNL     1      16.093   0.833  16.226  1.00  0.00     0.212 C 
HETATM   39  O1  UNL     1      16.495   0.199  15.206  1.00  0.00    -0.646 OA
HETATM   40  O2  UNL     1      15.374   0.086  17.149  1.00  0.00    -0.646 OA
ENDBRANCH  33  38
ENDBRANCH  31  33
ENDBRANCH  30  31
ENDBRANCH  29  30
ENDBRANCH   1  29
TORSDOF 13
ENDMDL
