MODEL 1
REMARK VINA RESULT: -7.643579704      0.000      0.000
REMARK  9 active torsions:
REMARK  status: ('A' for Active; 'I' for Inactive)
REMARK    1  A    between atoms: C4_8  and  N3_9 
REMARK       I    between atoms: N5_18  and  C10_20 
REMARK    2  A    between atoms: C10_20  and  C11_22 
REMARK    3  A    between atoms: C11_22  and  N6_23 
REMARK       I    between atoms: N6_23  and  C12_25 
REMARK    4  A    between atoms: C12_25  and  C13_27 
REMARK    5  A    between atoms: C13_27  and  N7_28 
REMARK    6  A    between atoms: C13_27  and  C14_32 
REMARK    7  A    between atoms: C14_32  and  C15_33 
REMARK    8  A    between atoms: C15_33  and  N8_34 
REMARK    9  A    between atoms: C15_33  and  O4_38 
ROOT
HETATM    1  N3  UNL     1      18.869   6.595  11.491  1.00  0.00    -0.170 N 
HETATM    2  C5  UNL     1      19.022   7.995  11.814  1.00  0.00     0.176 C 
HETATM    3  C6  UNL     1      17.629   8.636  11.735  1.00  0.00     0.253 C 
HETATM    4  N4  UNL     1      16.851   8.333  12.895  1.00  0.00    -0.073 N 
ATOM      5  H41 UNL     1      16.228   9.109  13.118  1.00  0.00     0.277 HD
ATOM      6  H42 UNL     1      17.438   8.336  13.728  1.00  0.00     0.277 HD
HETATM    7  C7  UNL     1      16.104   7.093  12.805  1.00  0.00     0.240 C 
HETATM    8  C8  UNL     1      17.045   5.959  13.180  1.00  0.00     0.104 C 
HETATM    9  C9  UNL     1      17.839   5.672  11.956  1.00  0.00     0.104 C 
HETATM   10  N5  UNL     1      17.685   4.656  11.254  1.00  0.00    -0.315 N 
ATOM     11  H5  UNL     1      18.330   4.665  10.465  1.00  0.00     0.170 HD
HETATM   12  C10 UNL     1      16.908   3.531  11.227  1.00  0.00     0.240 C 
HETATM   13  O2  UNL     1      16.980   2.818  10.145  1.00  0.00    -0.271 OA
ENDROOT
BRANCH   1  14
HETATM   14  C4  UNL     1      19.839   6.030  10.605  1.00  0.00     0.688 A 
HETATM   15  N2  UNL     1      21.050   5.521  10.929  1.00  0.00    -0.182 N 
HETATM   16  C3  UNL     1      21.683   5.084   9.825  1.00  0.00     0.162 A 
ATOM     17  H2  UNL     1      21.428   5.475  11.876  1.00  0.00     0.184 HD
HETATM   18  C2  UNL     1      22.902   4.490   9.544  1.00  0.00     0.282 A 
HETATM   19  C16 UNL     1      20.855   5.317   8.751  1.00  0.00     0.160 A 
HETATM   20  N1  UNL     1      23.293   4.144   8.305  1.00  0.00    -0.269 N 
HETATM   21  O1  UNL     1      23.671   4.268  10.513  1.00  0.00    -0.265 OA
HETATM   22  C1  UNL     1      24.580   3.521   8.037  1.00  0.00     0.164 C 
HETATM   23  C18 UNL     1      22.449   4.392   7.284  1.00  0.00     0.332 A 
HETATM   24  N10 UNL     1      21.259   4.966   7.518  1.00  0.00    -0.287 N 
HETATM   25  O5  UNL     1      22.795   4.077   6.121  1.00  0.00    -0.246 OA
HETATM   26  C17 UNL     1      20.390   5.213   6.403  1.00  0.00     0.163 C 
HETATM   27  N9  UNL     1      19.738   5.897   9.275  1.00  0.00    -0.173 N 
ATOM     28  H9  UNL     1      18.931   6.191   8.726  1.00  0.00     0.186 HD
ENDBRANCH   1  14
BRANCH  12  29
HETATM   29  C11 UNL     1      15.991   2.982  12.232  1.00  0.00     0.225 C 
BRANCH  29  30
HETATM   30  N6  UNL     1      16.666   2.361  13.348  1.00  0.00    -0.351 N 
HETATM   31  C12 UNL     1      16.191   2.625  14.655  1.00  0.00     0.248 C 
HETATM   32  O3  UNL     1      15.204   3.387  14.811  1.00  0.00    -0.271 OA
ATOM     33  H6  UNL     1      17.466   1.746  13.197  1.00  0.00     0.163 HD
BRANCH  31  34
HETATM   34  C13 UNL     1      16.841   2.018  15.864  1.00  0.00     0.278 C 
BRANCH  34  35
HETATM   35  N7  UNL     1      18.131   2.633  16.025  1.00  0.00    -0.066 N 
ATOM     36  H73 UNL     1      18.730   2.515  15.208  1.00  0.00     0.275 HD
ATOM     37  H72 UNL     1      18.088   3.652  16.015  1.00  0.00     0.275 HD
ATOM     38  H71 UNL     1      18.548   2.262  16.879  1.00  0.00     0.275 HD
ENDBRANCH  34  35
BRANCH  34  39
HETATM   39  C14 UNL     1      15.927   2.279  17.023  1.00  0.00     0.103 C 
BRANCH  39  40
HETATM   40  C15 UNL     1      15.077   1.095  17.393  1.00  0.00     0.318 C 
BRANCH  40  41
HETATM   41  N8  UNL     1      13.729   1.372  16.877  1.00  0.00    -0.053 N 
ATOM     42  H83 UNL     1      13.702   2.144  16.211  1.00  0.00     0.277 HD
ATOM     43  H82 UNL     1      13.381   0.649  16.247  1.00  0.00     0.277 HD
ATOM     44  H81 UNL     1      13.132   1.520  17.691  1.00  0.00     0.277 HD
ENDBRANCH  40  41
BRANCH  40  45
HETATM   45  O4  UNL     1      15.563  -0.056  16.782  1.00  0.00    -0.370 OA
ATOM     46  H4  UNL     1      16.372  -0.331  17.197  1.00  0.00     0.212 HD
ENDBRANCH  40  45
ENDBRANCH  39  40
ENDBRANCH  34  39
ENDBRANCH  31  34
ENDBRANCH  29  30
ENDBRANCH  12  29
TORSDOF 9
ENDMDL
MODEL 2
REMARK VINA RESULT: -7.505720051      3.386      4.704
REMARK  9 active torsions:
REMARK  status: ('A' for Active; 'I' for Inactive)
REMARK    1  A    between atoms: C4_8  and  N3_9 
REMARK       I    between atoms: N5_18  and  C10_20 
REMARK    2  A    between atoms: C10_20  and  C11_22 
REMARK    3  A    between atoms: C11_22  and  N6_23 
REMARK       I    between atoms: N6_23  and  C12_25 
REMARK    4  A    between atoms: C12_25  and  C13_27 
REMARK    5  A    between atoms: C13_27  and  N7_28 
REMARK    6  A    between atoms: C13_27  and  C14_32 
REMARK    7  A    between atoms: C14_32  and  C15_33 
REMARK    8  A    between atoms: C15_33  and  N8_34 
REMARK    9  A    between atoms: C15_33  and  O4_38 
ROOT
HETATM    1  N3  UNL     1      16.172   7.495  11.760  1.00  0.00    -0.170 N 
HETATM    2  C5  UNL     1      15.546   8.568  12.496  1.00  0.00     0.176 C 
HETATM    3  C6  UNL     1      14.632   7.926  13.550  1.00  0.00     0.253 C 
HETATM    4  N4  UNL     1      15.385   7.443  14.665  1.00  0.00    -0.073 N 
ATOM      5  H41 UNL     1      14.841   7.527  15.524  1.00  0.00     0.277 HD
ATOM      6  H42 UNL     1      16.150   8.081  14.881  1.00  0.00     0.277 HD
HETATM    7  C7  UNL     1      15.881   6.089  14.509  1.00  0.00     0.240 C 
HETATM    8  C8  UNL     1      17.173   6.160  13.709  1.00  0.00     0.104 C 
HETATM    9  C9  UNL     1      16.761   6.267  12.285  1.00  0.00     0.104 C 
HETATM   10  N5  UNL     1      16.876   5.343  11.460  1.00  0.00    -0.315 N 
ATOM     11  H5  UNL     1      16.528   5.633  10.547  1.00  0.00     0.170 HD
HETATM   12  C10 UNL     1      17.332   4.055  11.414  1.00  0.00     0.240 C 
HETATM   13  O2  UNL     1      17.062   3.396  10.329  1.00  0.00    -0.271 OA
ENDROOT
BRANCH   1  14
HETATM   14  C4  UNL     1      16.230   7.639  10.338  1.00  0.00     0.688 A 
HETATM   15  N2  UNL     1      15.195   7.844   9.491  1.00  0.00    -0.182 N 
HETATM   16  C3  UNL     1      15.640   7.923   8.222  1.00  0.00     0.162 A 
ATOM     17  H2  UNL     1      14.218   7.926   9.773  1.00  0.00     0.184 HD
HETATM   18  C2  UNL     1      15.068   8.117   6.976  1.00  0.00     0.282 A 
HETATM   19  C16 UNL     1      17.006   7.765   8.250  1.00  0.00     0.160 A 
HETATM   20  N1  UNL     1      15.773   8.155   5.832  1.00  0.00    -0.269 N 
HETATM   21  O1  UNL     1      13.821   8.264   6.932  1.00  0.00    -0.265 OA
HETATM   22  C1  UNL     1      15.147   8.359   4.534  1.00  0.00     0.164 C 
HETATM   23  C18 UNL     1      17.109   7.995   5.908  1.00  0.00     0.332 A 
HETATM   24  N10 UNL     1      17.698   7.806   7.098  1.00  0.00    -0.287 N 
HETATM   25  O5  UNL     1      17.784   8.027   4.853  1.00  0.00    -0.246 OA
HETATM   26  C17 UNL     1      19.124   7.639   7.135  1.00  0.00     0.163 C 
HETATM   27  N9  UNL     1      17.324   7.594   9.565  1.00  0.00    -0.173 N 
ATOM     28  H9  UNL     1      18.271   7.451   9.914  1.00  0.00     0.186 HD
ENDBRANCH   1  14
BRANCH  12  29
HETATM   29  C11 UNL     1      18.091   3.277  12.400  1.00  0.00     0.225 C 
BRANCH  29  30
HETATM   30  N6  UNL     1      17.292   2.298  13.099  1.00  0.00    -0.351 N 
HETATM   31  C12 UNL     1      17.235   2.357  14.511  1.00  0.00     0.248 C 
HETATM   32  O3  UNL     1      17.875   3.253  15.118  1.00  0.00    -0.271 OA
ATOM     33  H6  UNL     1      16.781   1.580  12.585  1.00  0.00     0.163 HD
BRANCH  31  34
HETATM   34  C13 UNL     1      16.426   1.374  15.307  1.00  0.00     0.278 C 
BRANCH  34  35
HETATM   35  N7  UNL     1      17.146   0.129  15.327  1.00  0.00    -0.066 N 
ATOM     36  H73 UNL     1      16.559  -0.672  15.091  1.00  0.00     0.275 HD
ATOM     37  H72 UNL     1      17.809   0.042  14.556  1.00  0.00     0.275 HD
ATOM     38  H71 UNL     1      17.589   0.040  16.242  1.00  0.00     0.275 HD
ENDBRANCH  34  35
BRANCH  34  39
HETATM   39  C14 UNL     1      16.252   1.962  16.674  1.00  0.00     0.103 C 
BRANCH  39  40
HETATM   40  C15 UNL     1      15.160   1.304  17.473  1.00  0.00     0.318 C 
BRANCH  40  41
HETATM   41  N8  UNL     1      13.890   1.701  16.850  1.00  0.00    -0.053 N 
ATOM     42  H83 UNL     1      13.910   2.640  16.454  1.00  0.00     0.277 HD
ATOM     43  H82 UNL     1      13.693   1.202  15.982  1.00  0.00     0.277 HD
ATOM     44  H81 UNL     1      13.168   1.577  17.560  1.00  0.00     0.277 HD
ENDBRANCH  40  41
BRANCH  40  45
HETATM   45  O4  UNL     1      15.281  -0.079  17.404  1.00  0.00    -0.370 OA
ATOM     46  H4  UNL     1      15.360  -0.446  18.277  1.00  0.00     0.212 HD
ENDBRANCH  40  45
ENDBRANCH  39  40
ENDBRANCH  34  39
ENDBRANCH  31  34
ENDBRANCH  29  30
ENDBRANCH  12  29
TORSDOF 9
ENDMDL
MODEL 3
REMARK VINA RESULT: -7.358820034      3.560      4.548
REMARK  9 active torsions:
REMARK  status: ('A' for Active; 'I' for Inactive)
REMARK    1  A    between atoms: C4_8  and  N3_9 
REMARK       I    between atoms: N5_18  and  C10_20 
REMARK    2  A    between atoms: C10_20  and  C11_22 
REMARK    3  A    between atoms: C11_22  and  N6_23 
REMARK       I    between atoms: N6_23  and  C12_25 
REMARK    4  A    between atoms: C12_25  and  C13_27 
REMARK    5  A    between atoms: C13_27  and  N7_28 
REMARK    6  A    between atoms: C13_27  and  C14_32 
REMARK    7  A    between atoms: C14_32  and  C15_33 
REMARK    8  A    between atoms: C15_33  and  N8_34 
REMARK    9  A    between atoms: C15_33  and  O4_38 
ROOT
HETATM    1  N3  UNL     1      16.169   7.449  11.768  1.00  0.00    -0.170 N 
HETATM    2  C5  UNL     1      15.568   8.529  12.516  1.00  0.00     0.176 C 
HETATM    3  C6  UNL     1      14.670   7.897  13.588  1.00  0.00     0.253 C 
HETATM    4  N4  UNL     1      15.439   7.406  14.688  1.00  0.00    -0.073 N 
ATOM      5  H41 UNL     1      14.914   7.497  15.558  1.00  0.00     0.277 HD
ATOM      6  H42 UNL     1      16.216   8.036  14.888  1.00  0.00     0.277 HD
HETATM    7  C7  UNL     1      15.918   6.047  14.524  1.00  0.00     0.240 C 
HETATM    8  C8  UNL     1      17.194   6.104  13.698  1.00  0.00     0.104 C 
HETATM    9  C9  UNL     1      16.754   6.215  12.282  1.00  0.00     0.104 C 
HETATM   10  N5  UNL     1      16.844   5.289  11.456  1.00  0.00    -0.315 N 
ATOM     11  H5  UNL     1      16.480   5.582  10.549  1.00  0.00     0.170 HD
HETATM   12  C10 UNL     1      17.285   3.996  11.401  1.00  0.00     0.240 C 
HETATM   13  O2  UNL     1      16.985   3.339  10.323  1.00  0.00    -0.271 OA
ENDROOT
BRANCH   1  14
HETATM   14  C4  UNL     1      16.199   7.591  10.345  1.00  0.00     0.688 A 
HETATM   15  N2  UNL     1      17.245   7.359   9.519  1.00  0.00    -0.182 N 
HETATM   16  C3  UNL     1      16.896   7.606   8.242  1.00  0.00     0.162 A 
ATOM     17  H2  UNL     1      18.167   7.042   9.821  1.00  0.00     0.184 HD
HETATM   18  C2  UNL     1      17.521   7.548   7.009  1.00  0.00     0.282 A 
HETATM   19  C16 UNL     1      15.580   8.011   8.243  1.00  0.00     0.160 A 
HETATM   20  N1  UNL     1      16.913   7.861   5.851  1.00  0.00    -0.269 N 
HETATM   21  O1  UNL     1      18.722   7.180   6.989  1.00  0.00    -0.265 OA
HETATM   22  C1  UNL     1      17.593   7.791   4.567  1.00  0.00     0.164 C 
HETATM   23  C18 UNL     1      15.624   8.252   5.900  1.00  0.00     0.332 A 
HETATM   24  N10 UNL     1      14.986   8.320   7.078  1.00  0.00    -0.287 N 
HETATM   25  O5  UNL     1      15.039   8.548   4.832  1.00  0.00    -0.246 OA
HETATM   26  C17 UNL     1      13.613   8.741   7.087  1.00  0.00     0.163 C 
HETATM   27  N9  UNL     1      15.195   7.986   9.550  1.00  0.00    -0.173 N 
ATOM     28  H9  UNL     1      14.263   8.236   9.881  1.00  0.00     0.186 HD
ENDBRANCH   1  14
BRANCH  12  29
HETATM   29  C11 UNL     1      18.055   3.211  12.373  1.00  0.00     0.225 C 
BRANCH  29  30
HETATM   30  N6  UNL     1      17.259   2.242  13.089  1.00  0.00    -0.351 N 
HETATM   31  C12 UNL     1      17.221   2.313  14.502  1.00  0.00     0.248 C 
HETATM   32  O3  UNL     1      17.875   3.209  15.093  1.00  0.00    -0.271 OA
ATOM     33  H6  UNL     1      16.736   1.523  12.589  1.00  0.00     0.163 HD
BRANCH  31  34
HETATM   34  C13 UNL     1      16.418   1.341  15.316  1.00  0.00     0.278 C 
BRANCH  34  35
HETATM   35  N7  UNL     1      17.159   0.110  15.387  1.00  0.00    -0.066 N 
ATOM     36  H73 UNL     1      18.006   0.125  14.819  1.00  0.00     0.275 HD
ATOM     37  H72 UNL     1      17.606  -0.032  16.293  1.00  0.00     0.275 HD
ATOM     38  H71 UNL     1      16.526  -0.650  15.135  1.00  0.00     0.275 HD
ENDBRANCH  34  35
BRANCH  34  39
HETATM   39  C14 UNL     1      16.211   1.969  16.661  1.00  0.00     0.103 C 
BRANCH  39  40
HETATM   40  C15 UNL     1      15.118   1.317  17.464  1.00  0.00     0.318 C 
BRANCH  40  41
HETATM   41  N8  UNL     1      13.851   1.678  16.813  1.00  0.00    -0.053 N 
ATOM     42  H83 UNL     1      13.094   1.856  17.473  1.00  0.00     0.277 HD
ATOM     43  H82 UNL     1      13.866   2.604  16.385  1.00  0.00     0.277 HD
ATOM     44  H81 UNL     1      13.642   0.930  16.151  1.00  0.00     0.277 HD
ENDBRANCH  40  41
BRANCH  40  45
HETATM   45  O4  UNL     1      15.260  -0.065  17.435  1.00  0.00    -0.370 OA
ATOM     46  H4  UNL     1      15.546  -0.349  16.575  1.00  0.00     0.212 HD
ENDBRANCH  40  45
ENDBRANCH  39  40
ENDBRANCH  34  39
ENDBRANCH  31  34
ENDBRANCH  29  30
ENDBRANCH  12  29
TORSDOF 9
ENDMDL
MODEL 4
REMARK VINA RESULT: -7.305368402      0.834      1.786
REMARK  9 active torsions:
REMARK  status: ('A' for Active; 'I' for Inactive)
REMARK    1  A    between atoms: C4_8  and  N3_9 
REMARK       I    between atoms: N5_18  and  C10_20 
REMARK    2  A    between atoms: C10_20  and  C11_22 
REMARK    3  A    between atoms: C11_22  and  N6_23 
REMARK       I    between atoms: N6_23  and  C12_25 
REMARK    4  A    between atoms: C12_25  and  C13_27 
REMARK    5  A    between atoms: C13_27  and  N7_28 
REMARK    6  A    between atoms: C13_27  and  C14_32 
REMARK    7  A    between atoms: C14_32  and  C15_33 
REMARK    8  A    between atoms: C15_33  and  N8_34 
REMARK    9  A    between atoms: C15_33  and  O4_38 
ROOT
HETATM    1  N3  UNL     1      18.614   6.766  11.379  1.00  0.00    -0.170 N 
HETATM    2  C5  UNL     1      18.644   8.194  11.589  1.00  0.00     0.176 C 
HETATM    3  C6  UNL     1      17.218   8.718  11.364  1.00  0.00     0.253 C 
HETATM    4  N4  UNL     1      16.382   8.451  12.492  1.00  0.00    -0.073 N 
ATOM      5  H41 UNL     1      15.692   9.192  12.606  1.00  0.00     0.277 HD
ATOM      6  H42 UNL     1      16.907   8.567  13.359  1.00  0.00     0.277 HD
HETATM    7  C7  UNL     1      15.734   7.154  12.462  1.00  0.00     0.240 C 
HETATM    8  C8  UNL     1      16.725   6.130  12.994  1.00  0.00     0.104 C 
HETATM    9  C9  UNL     1      17.622   5.806  11.854  1.00  0.00     0.104 C 
HETATM   10  N5  UNL     1      17.592   4.728  11.234  1.00  0.00    -0.315 N 
ATOM     11  H5  UNL     1      18.290   4.723  10.490  1.00  0.00     0.170 HD
HETATM   12  C10 UNL     1      16.901   3.548  11.253  1.00  0.00     0.240 C 
HETATM   13  O2  UNL     1      17.101   2.757  10.244  1.00  0.00    -0.271 OA
ENDROOT
BRANCH   1  14
HETATM   14  C4  UNL     1      19.683   6.206  10.609  1.00  0.00     0.688 A 
HETATM   15  N2  UNL     1      19.694   5.957   9.280  1.00  0.00    -0.182 N 
HETATM   16  C3  UNL     1      20.876   5.423   8.915  1.00  0.00     0.162 A 
ATOM     17  H2  UNL     1      18.918   6.145   8.645  1.00  0.00     0.184 HD
HETATM   18  C2  UNL     1      21.447   4.980   7.735  1.00  0.00     0.282 A 
HETATM   19  C16 UNL     1      21.654   5.325  10.046  1.00  0.00     0.160 A 
HETATM   20  N1  UNL     1      22.690   4.476   7.654  1.00  0.00    -0.269 N 
HETATM   21  O1  UNL     1      20.751   5.063   6.692  1.00  0.00    -0.265 OA
HETATM   22  C1  UNL     1      23.268   4.017   6.400  1.00  0.00     0.164 C 
HETATM   23  C18 UNL     1      23.416   4.399   8.787  1.00  0.00     0.332 A 
HETATM   24  N10 UNL     1      22.895   4.819   9.950  1.00  0.00    -0.287 N 
HETATM   25  O5  UNL     1      24.577   3.932   8.733  1.00  0.00    -0.246 OA
HETATM   26  C17 UNL     1      23.701   4.720  11.134  1.00  0.00     0.163 C 
HETATM   27  N9  UNL     1      20.884   5.816  11.059  1.00  0.00    -0.173 N 
ATOM     28  H9  UNL     1      21.183   5.878  12.031  1.00  0.00     0.186 HD
ENDBRANCH   1  14
BRANCH  12  29
HETATM   29  C11 UNL     1      15.957   3.014  12.240  1.00  0.00     0.225 C 
BRANCH  29  30
HETATM   30  N6  UNL     1      16.599   2.351  13.351  1.00  0.00    -0.351 N 
HETATM   31  C12 UNL     1      16.156   2.648  14.662  1.00  0.00     0.248 C 
HETATM   32  O3  UNL     1      15.224   3.474  14.826  1.00  0.00    -0.271 OA
ATOM     33  H6  UNL     1      17.354   1.683  13.194  1.00  0.00     0.163 HD
BRANCH  31  34
HETATM   34  C13 UNL     1      16.775   2.000  15.866  1.00  0.00     0.278 C 
BRANCH  34  35
HETATM   35  N7  UNL     1      18.096   2.546  16.028  1.00  0.00    -0.066 N 
ATOM     36  H73 UNL     1      18.121   3.560  15.918  1.00  0.00     0.275 HD
ATOM     37  H72 UNL     1      18.425   2.507  16.993  1.00  0.00     0.275 HD
ATOM     38  H71 UNL     1      18.715   2.061  15.379  1.00  0.00     0.275 HD
ENDBRANCH  34  35
BRANCH  34  39
HETATM   39  C14 UNL     1      15.879   2.301  17.028  1.00  0.00     0.103 C 
BRANCH  39  40
HETATM   40  C15 UNL     1      14.999   1.145  17.421  1.00  0.00     0.318 C 
BRANCH  40  41
HETATM   41  N8  UNL     1      13.676   1.412  16.841  1.00  0.00    -0.053 N 
ATOM     42  H83 UNL     1      13.584   2.354  16.461  1.00  0.00     0.277 HD
ATOM     43  H82 UNL     1      13.507   0.907  15.970  1.00  0.00     0.277 HD
ATOM     44  H81 UNL     1      12.993   1.201  17.569  1.00  0.00     0.277 HD
ENDBRANCH  40  41
BRANCH  40  45
HETATM   45  O4  UNL     1      15.494  -0.038  16.885  1.00  0.00    -0.370 OA
ATOM     46  H4  UNL     1      14.808  -0.498  16.416  1.00  0.00     0.212 HD
ENDBRANCH  40  45
ENDBRANCH  39  40
ENDBRANCH  34  39
ENDBRANCH  31  34
ENDBRANCH  29  30
ENDBRANCH  12  29
TORSDOF 9
ENDMDL
MODEL 5
REMARK VINA RESULT: -7.297940180      1.786      2.578
REMARK  9 active torsions:
REMARK  status: ('A' for Active; 'I' for Inactive)
REMARK    1  A    between atoms: C4_8  and  N3_9 
REMARK       I    between atoms: N5_18  and  C10_20 
REMARK    2  A    between atoms: C10_20  and  C11_22 
REMARK    3  A    between atoms: C11_22  and  N6_23 
REMARK       I    between atoms: N6_23  and  C12_25 
REMARK    4  A    between atoms: C12_25  and  C13_27 
REMARK    5  A    between atoms: C13_27  and  N7_28 
REMARK    6  A    between atoms: C13_27  and  C14_32 
REMARK    7  A    between atoms: C14_32  and  C15_33 
REMARK    8  A    between atoms: C15_33  and  N8_34 
REMARK    9  A    between atoms: C15_33  and  O4_38 
ROOT
HETATM    1  N3  UNL     1      18.741   6.509   9.023  1.00  0.00    -0.170 N 
HETATM    2  C5  UNL     1      18.150   7.402   8.053  1.00  0.00     0.176 C 
HETATM    3  C6  UNL     1      16.647   7.094   8.006  1.00  0.00     0.253 C 
HETATM    4  N4  UNL     1      15.964   7.667   9.124  1.00  0.00    -0.073 N 
ATOM      5  H41 UNL     1      15.019   7.945   8.859  1.00  0.00     0.277 HD
ATOM      6  H42 UNL     1      16.356   8.581   9.351  1.00  0.00     0.277 HD
HETATM    7  C7  UNL     1      15.933   6.823  10.302  1.00  0.00     0.240 C 
HETATM    8  C8  UNL     1      17.245   7.017  11.045  1.00  0.00     0.104 C 
HETATM    9  C9  UNL     1      18.236   6.157  10.346  1.00  0.00     0.104 C 
HETATM   10  N5  UNL     1      18.691   5.101  10.820  1.00  0.00    -0.315 N 
ATOM     11  H5  UNL     1      19.351   4.672  10.171  1.00  0.00     0.170 HD
HETATM   12  C10 UNL     1      18.570   4.343  11.952  1.00  0.00     0.240 C 
HETATM   13  O2  UNL     1      19.125   3.171  11.913  1.00  0.00    -0.271 OA
ENDROOT
BRANCH   1  14
HETATM   14  C4  UNL     1      19.973   5.883   8.654  1.00  0.00     0.688 A 
HETATM   15  N2  UNL     1      20.338   5.450   7.426  1.00  0.00    -0.182 N 
HETATM   16  C3  UNL     1      21.572   4.910   7.469  1.00  0.00     0.162 A 
ATOM     17  H2  UNL     1      19.762   5.521   6.587  1.00  0.00     0.184 HD
HETATM   18  C2  UNL     1      22.436   4.325   6.560  1.00  0.00     0.282 A 
HETATM   19  C16 UNL     1      22.018   4.998   8.768  1.00  0.00     0.160 A 
HETATM   20  N1  UNL     1      23.653   3.856   6.886  1.00  0.00    -0.269 N 
HETATM   21  O1  UNL     1      22.045   4.236   5.369  1.00  0.00    -0.265 OA
HETATM   22  C1  UNL     1      24.543   3.244   5.910  1.00  0.00     0.164 C 
HETATM   23  C18 UNL     1      24.048   3.964   8.170  1.00  0.00     0.332 A 
HETATM   24  N10 UNL     1      23.237   4.526   9.079  1.00  0.00    -0.287 N 
HETATM   25  O5  UNL     1      25.179   3.533   8.494  1.00  0.00    -0.246 OA
HETATM   26  C17 UNL     1      23.696   4.621  10.436  1.00  0.00     0.163 C 
HETATM   27  N9  UNL     1      21.008   5.601   9.458  1.00  0.00    -0.173 N 
ATOM     28  H9  UNL     1      21.036   5.809  10.455  1.00  0.00     0.186 HD
ENDBRANCH   1  14
BRANCH  12  29
HETATM   29  C11 UNL     1      17.908   4.637  13.228  1.00  0.00     0.225 C 
BRANCH  29  30
HETATM   30  N6  UNL     1      17.752   3.478  14.075  1.00  0.00    -0.351 N 
HETATM   31  C12 UNL     1      16.445   3.000  14.331  1.00  0.00     0.248 C 
HETATM   32  O3  UNL     1      15.461   3.591  13.819  1.00  0.00    -0.271 OA
ATOM     33  H6  UNL     1      18.566   3.014  14.480  1.00  0.00     0.163 HD
BRANCH  31  34
HETATM   34  C13 UNL     1      16.202   1.802  15.201  1.00  0.00     0.278 C 
BRANCH  34  35
HETATM   35  N7  UNL     1      17.388   0.988  15.167  1.00  0.00    -0.066 N 
ATOM     36  H73 UNL     1      17.871   1.029  14.270  1.00  0.00     0.275 HD
ATOM     37  H72 UNL     1      18.142   1.362  15.744  1.00  0.00     0.275 HD
ATOM     38  H71 UNL     1      17.121   0.038  15.430  1.00  0.00     0.275 HD
ENDBRANCH  34  35
BRANCH  34  39
HETATM   39  C14 UNL     1      15.896   2.319  16.574  1.00  0.00     0.103 C 
BRANCH  39  40
HETATM   40  C15 UNL     1      15.012   1.402  17.375  1.00  0.00     0.318 C 
BRANCH  40  41
HETATM   41  N8  UNL     1      13.653   1.561  16.840  1.00  0.00    -0.053 N 
ATOM     42  H83 UNL     1      12.933   1.574  17.563  1.00  0.00     0.277 HD
ATOM     43  H82 UNL     1      13.473   2.493  16.466  1.00  0.00     0.277 HD
ATOM     44  H81 UNL     1      13.522   0.818  16.154  1.00  0.00     0.277 HD
ENDBRANCH  40  41
BRANCH  40  45
HETATM   45  O4  UNL     1      15.410   0.081  17.205  1.00  0.00    -0.370 OA
ATOM     46  H4  UNL     1      15.180  -0.433  17.970  1.00  0.00     0.212 HD
ENDBRANCH  40  45
ENDBRANCH  39  40
ENDBRANCH  34  39
ENDBRANCH  31  34
ENDBRANCH  29  30
ENDBRANCH  12  29
TORSDOF 9
ENDMDL
