MODEL 1
REMARK VINA RESULT: -7.897842397      0.000      0.000
REMARK  10 active torsions:
REMARK  status: ('A' for Active; 'I' for Inactive)
REMARK    1  A    between atoms: C3_3  and  N1_4 
REMARK    2  A    between atoms: C5_7  and  N2_8 
REMARK    3  A    between atoms: N2_8  and  C7_11 
REMARK    4  A    between atoms: C8_14  and  N5_15 
REMARK    5  A    between atoms: N5_15  and  C9_16 
REMARK    6  A    between atoms: C13_23  and  C14_24 
REMARK    7  A    between atoms: C14_24  and  C15_25 
REMARK    8  A    between atoms: C17_32  and  O3_33 
REMARK    9  A    between atoms: C20_40  and  C21_41 
REMARK   10  A    between atoms: C21_41  and  O5_42 
ROOT
HETATM    1  C1  UNL     1      -3.580   1.654  11.961  1.00  0.00     0.014 C 
HETATM    2  C2  UNL     1      -2.553   2.102  11.517  1.00  0.00    -0.098 C 
HETATM    3  C3  UNL     1      -1.288   2.630  10.973  1.00  0.00     0.222 C 
ENDROOT
BRANCH   3   4
HETATM    4  N1  UNL     1      -1.201   4.059  11.080  1.00  0.00    -0.311 N 
HETATM    5  C4  UNL     1      -0.982   4.737  12.315  1.00  0.00     0.249 C 
HETATM    6  O1  UNL     1      -1.219   4.070  13.373  1.00  0.00    -0.271 OA
HETATM    7  C5  UNL     1      -0.503   6.140  12.397  1.00  0.00     0.235 C 
HETATM    8  C19 UNL     1      -0.244   6.615  10.970  1.00  0.00     0.207 C 
HETATM    9  O4  UNL     1      -1.251   6.215  10.133  1.00  0.00    -0.362 OA
HETATM   10  C20 UNL     1      -1.343   4.867   9.897  1.00  0.00     0.250 C 
BRANCH   7  11
HETATM   11  N2  UNL     1      -1.523   7.010  12.949  1.00  0.00    -0.101 N 
HETATM   12  C6  UNL     1      -1.089   8.108  13.701  1.00  0.00     0.200 C 
HETATM   13  N3  UNL     1      -0.744   9.037  14.337  1.00  0.00    -0.171 NA
BRANCH  11  14
HETATM   14  C7  UNL     1      -2.930   6.761  12.739  1.00  0.00     0.699 A 
HETATM   15  N4  UNL     1      -3.537   7.189  11.636  1.00  0.00    -0.146 N 
HETATM   16  C8  UNL     1      -4.869   6.994  11.362  1.00  0.00     0.292 A 
ATOM     17  H4  UNL     1      -2.977   7.695  10.950  1.00  0.00     0.188 HD
HETATM   18  N6  UNL     1      -5.559   6.307  12.327  1.00  0.00    -0.195 N 
HETATM   19  N7  UNL     1      -6.826   5.944  12.398  1.00  0.00    -0.299 N 
HETATM   20  C18 UNL     1      -4.955   5.869  13.444  1.00  0.00     0.158 A 
HETATM   21  C12 UNL     1      -7.060   5.278  13.544  1.00  0.00     0.123 A 
ATOM     22  H7  UNL     1      -7.528   6.141  11.686  1.00  0.00     0.186 HD
HETATM   23  C13 UNL     1      -5.882   5.204  14.251  1.00  0.00     0.030 A 
HETATM   24  N10 UNL     1      -3.663   6.096  13.641  1.00  0.00    -0.173 N 
ATOM     25  H10 UNL     1      -3.220   5.759  14.496  1.00  0.00     0.186 HD
BRANCH  16  26
HETATM   26  N5  UNL     1      -5.428   7.372  10.378  1.00  0.00    -0.408 NA
BRANCH  26  27
HETATM   27  C9  UNL     1      -6.248   7.867   9.436  1.00  0.00     0.167 A 
HETATM   28  C10 UNL     1      -7.757   7.820   9.473  1.00  0.00     0.042 A 
HETATM   29  C11 UNL     1      -7.080   6.848   8.613  1.00  0.00     0.042 A 
ENDBRANCH  26  27
ENDBRANCH  16  26
BRANCH  23  30
HETATM   30  C14 UNL     1      -5.652   4.644  15.421  1.00  0.00     0.051 C 
BRANCH  30  31
HETATM   31  C15 UNL     1      -5.078   3.341  15.603  1.00  0.00     0.088 A 
HETATM   32  N8  UNL     1      -5.759   2.190  15.708  1.00  0.00    -0.305 N 
HETATM   33  C16 UNL     1      -4.900   1.162  15.870  1.00  0.00     0.326 A 
ATOM     34  H8  UNL     1      -6.775   2.104  15.672  1.00  0.00     0.171 HD
HETATM   35  O2  UNL     1      -5.184  -0.055  16.002  1.00  0.00    -0.247 OA
HETATM   36  N9  UNL     1      -3.647   1.651  15.871  1.00  0.00    -0.287 N 
HETATM   37  C17 UNL     1      -3.745   3.004  15.705  1.00  0.00     0.171 A 
ATOM     38  H9  UNL     1      -2.787   1.114  15.975  1.00  0.00     0.172 HD
BRANCH  37  39
HETATM   39  O3  UNL     1      -2.640   3.847  15.657  1.00  0.00    -0.344 OA
ATOM     40  H3  UNL     1      -2.075   4.115  16.372  1.00  0.00     0.219 HD
ENDBRANCH  37  39
ENDBRANCH  30  31
ENDBRANCH  23  30
ENDBRANCH  11  14
ENDBRANCH   7  11
BRANCH  10  41
HETATM   41  C21 UNL     1      -0.426   4.444   8.770  1.00  0.00     0.217 C 
BRANCH  41  42
HETATM   42  O5  UNL     1      -1.022   4.445   7.538  1.00  0.00    -0.397 OA
ATOM     43  H5  UNL     1      -1.003   5.289   7.102  1.00  0.00     0.209 HD
ENDBRANCH  41  42
ENDBRANCH  10  41
ENDBRANCH   3   4
TORSDOF 10
ENDMDL
MODEL 2
REMARK VINA RESULT: -7.887565821      2.382      6.816
REMARK  10 active torsions:
REMARK  status: ('A' for Active; 'I' for Inactive)
REMARK    1  A    between atoms: C3_3  and  N1_4 
REMARK    2  A    between atoms: C5_7  and  N2_8 
REMARK    3  A    between atoms: N2_8  and  C7_11 
REMARK    4  A    between atoms: C8_14  and  N5_15 
REMARK    5  A    between atoms: N5_15  and  C9_16 
REMARK    6  A    between atoms: C13_23  and  C14_24 
REMARK    7  A    between atoms: C14_24  and  C15_25 
REMARK    8  A    between atoms: C17_32  and  O3_33 
REMARK    9  A    between atoms: C20_40  and  C21_41 
REMARK   10  A    between atoms: C21_41  and  O5_42 
ROOT
HETATM    1  C1  UNL     1      -1.841   1.569  11.202  1.00  0.00     0.014 C 
HETATM    2  C2  UNL     1      -2.812   1.350  11.881  1.00  0.00    -0.098 C 
HETATM    3  C3  UNL     1      -4.002   1.062  12.703  1.00  0.00     0.222 C 
ENDROOT
BRANCH   3   4
HETATM    4  N1  UNL     1      -4.576   2.250  13.268  1.00  0.00    -0.311 N 
HETATM    5  C4  UNL     1      -5.535   3.055  12.585  1.00  0.00     0.249 C 
HETATM    6  O1  UNL     1      -5.607   2.896  11.325  1.00  0.00    -0.271 OA
HETATM    7  C5  UNL     1      -6.416   4.031  13.276  1.00  0.00     0.235 C 
HETATM    8  C19 UNL     1      -6.134   3.917  14.771  1.00  0.00     0.207 C 
HETATM    9  O4  UNL     1      -4.788   3.824  15.007  1.00  0.00    -0.362 OA
HETATM   10  C20 UNL     1      -4.176   2.671  14.586  1.00  0.00     0.250 C 
BRANCH   7  11
HETATM   11  N2  UNL     1      -6.094   5.391  12.891  1.00  0.00    -0.101 N 
HETATM   12  C6  UNL     1      -7.147   6.311  12.850  1.00  0.00     0.200 C 
HETATM   13  N3  UNL     1      -8.020   7.100  12.809  1.00  0.00    -0.171 NA
BRANCH  11  14
HETATM   14  C7  UNL     1      -4.745   5.788  12.561  1.00  0.00     0.699 A 
HETATM   15  N4  UNL     1      -3.993   6.436  13.446  1.00  0.00    -0.146 N 
HETATM   16  C8  UNL     1      -2.704   6.849  13.210  1.00  0.00     0.292 A 
ATOM     17  H4  UNL     1      -4.400   6.641  14.359  1.00  0.00     0.188 HD
HETATM   18  N6  UNL     1      -2.222   6.541  11.964  1.00  0.00    -0.195 N 
HETATM   19  N7  UNL     1      -1.051   6.776  11.402  1.00  0.00    -0.299 N 
HETATM   20  C18 UNL     1      -2.972   5.886  11.063  1.00  0.00     0.158 A 
HETATM   21  C12 UNL     1      -1.025   6.286  10.149  1.00  0.00     0.123 A 
ATOM     22  H7  UNL     1      -0.276   7.260  11.854  1.00  0.00     0.186 HD
HETATM   23  C13 UNL     1      -2.243   5.702   9.886  1.00  0.00     0.030 A 
HETATM   24  N10 UNL     1      -4.212   5.519  11.363  1.00  0.00    -0.173 N 
ATOM     25  H10 UNL     1      -4.770   5.024  10.667  1.00  0.00     0.186 HD
BRANCH  16  26
HETATM   26  N5  UNL     1      -2.017   7.431  13.993  1.00  0.00    -0.408 NA
BRANCH  26  27
HETATM   27  C9  UNL     1      -1.170   8.228  14.666  1.00  0.00     0.167 A 
HETATM   28  C10 UNL     1      -1.476   8.940  15.962  1.00  0.00     0.042 A 
HETATM   29  C11 UNL     1      -1.520   9.738  14.735  1.00  0.00     0.042 A 
ENDBRANCH  26  27
ENDBRANCH  16  26
BRANCH  23  30
HETATM   30  C14 UNL     1      -2.654   5.102   8.787  1.00  0.00     0.051 C 
BRANCH  30  31
HETATM   31  C15 UNL     1      -3.717   5.577   7.948  1.00  0.00     0.088 A 
HETATM   32  N8  UNL     1      -3.593   6.468   6.951  1.00  0.00    -0.305 N 
HETATM   33  C16 UNL     1      -4.795   6.682   6.377  1.00  0.00     0.326 A 
ATOM     34  H8  UNL     1      -2.722   6.916   6.670  1.00  0.00     0.171 HD
HETATM   35  O2  UNL     1      -5.054   7.450   5.416  1.00  0.00    -0.247 OA
HETATM   36  N9  UNL     1      -5.709   5.923   7.007  1.00  0.00    -0.287 N 
HETATM   37  C17 UNL     1      -5.051   5.232   7.985  1.00  0.00     0.171 A 
ATOM     38  H9  UNL     1      -6.705   5.873   6.795  1.00  0.00     0.172 HD
BRANCH  37  39
HETATM   39  O3  UNL     1      -5.685   4.342   8.845  1.00  0.00    -0.344 OA
ATOM     40  H3  UNL     1      -6.489   3.858   8.700  1.00  0.00     0.219 HD
ENDBRANCH  37  39
ENDBRANCH  30  31
ENDBRANCH  23  30
ENDBRANCH  11  14
ENDBRANCH   7  11
BRANCH  10  41
HETATM   41  C21 UNL     1      -4.294   1.577  15.625  1.00  0.00     0.217 C 
BRANCH  41  42
HETATM   42  O5  UNL     1      -3.203   1.470  16.445  1.00  0.00    -0.397 OA
ATOM     43  H5  UNL     1      -3.248   0.740  17.052  1.00  0.00     0.209 HD
ENDBRANCH  41  42
ENDBRANCH  10  41
ENDBRANCH   3   4
TORSDOF 10
ENDMDL
MODEL 3
REMARK VINA RESULT: -7.667108398      2.071      6.731
REMARK  10 active torsions:
REMARK  status: ('A' for Active; 'I' for Inactive)
REMARK    1  A    between atoms: C3_3  and  N1_4 
REMARK    2  A    between atoms: C5_7  and  N2_8 
REMARK    3  A    between atoms: N2_8  and  C7_11 
REMARK    4  A    between atoms: C8_14  and  N5_15 
REMARK    5  A    between atoms: N5_15  and  C9_16 
REMARK    6  A    between atoms: C13_23  and  C14_24 
REMARK    7  A    between atoms: C14_24  and  C15_25 
REMARK    8  A    between atoms: C17_32  and  O3_33 
REMARK    9  A    between atoms: C20_40  and  C21_41 
REMARK   10  A    between atoms: C21_41  and  O5_42 
ROOT
HETATM    1  C1  UNL     1      -1.883   1.142  11.093  1.00  0.00     0.014 C 
HETATM    2  C2  UNL     1      -2.902   1.058  11.731  1.00  0.00    -0.098 C 
HETATM    3  C3  UNL     1      -4.153   0.936  12.503  1.00  0.00     0.222 C 
ENDROOT
BRANCH   3   4
HETATM    4  N1  UNL     1      -4.550   2.179  13.101  1.00  0.00    -0.311 N 
HETATM    5  C4  UNL     1      -5.417   3.112  12.458  1.00  0.00     0.249 C 
HETATM    6  O1  UNL     1      -5.549   2.983  11.199  1.00  0.00    -0.271 OA
HETATM    7  C5  UNL     1      -6.142   4.182  13.189  1.00  0.00     0.235 C 
HETATM    8  C19 UNL     1      -5.830   4.010  14.672  1.00  0.00     0.207 C 
HETATM    9  O4  UNL     1      -4.501   3.741  14.863  1.00  0.00    -0.362 OA
HETATM   10  C20 UNL     1      -4.058   2.525  14.409  1.00  0.00     0.250 C 
BRANCH   7  11
HETATM   11  N2  UNL     1      -5.659   5.495  12.809  1.00  0.00    -0.101 N 
HETATM   12  C6  UNL     1      -6.603   6.414  12.338  1.00  0.00     0.200 C 
HETATM   13  N3  UNL     1      -7.383   7.201  11.939  1.00  0.00    -0.171 NA
BRANCH  11  14
HETATM   14  C7  UNL     1      -4.262   5.848  12.908  1.00  0.00     0.699 A 
HETATM   15  N4  UNL     1      -3.843   6.707  13.833  1.00  0.00    -0.146 N 
HETATM   16  C8  UNL     1      -2.534   7.095  13.992  1.00  0.00     0.292 A 
ATOM     17  H4  UNL     1      -4.538   7.103  14.465  1.00  0.00     0.188 HD
HETATM   18  N6  UNL     1      -1.655   6.523  13.109  1.00  0.00    -0.195 N 
HETATM   19  N7  UNL     1      -0.350   6.659  12.970  1.00  0.00    -0.299 N 
HETATM   20  C18 UNL     1      -2.067   5.654  12.171  1.00  0.00     0.158 A 
HETATM   21  C12 UNL     1       0.097   5.895  11.957  1.00  0.00     0.123 A 
ATOM     22  H7  UNL     1       0.237   7.259  13.549  1.00  0.00     0.186 HD
HETATM   23  C13 UNL     1      -0.975   5.228  11.411  1.00  0.00     0.030 A 
HETATM   24  N10 UNL     1      -3.350   5.327  12.077  1.00  0.00    -0.173 N 
ATOM     25  H10 UNL     1      -3.647   4.668  11.358  1.00  0.00     0.186 HD
BRANCH  16  26
HETATM   26  N5  UNL     1      -2.143   7.864  14.816  1.00  0.00    -0.408 NA
BRANCH  26  27
HETATM   27  C9  UNL     1      -1.756   8.912  15.562  1.00  0.00     0.167 A 
HETATM   28  C10 UNL     1      -1.561  10.323  15.061  1.00  0.00     0.042 A 
HETATM   29  C11 UNL     1      -0.358   9.515  15.266  1.00  0.00     0.042 A 
ENDBRANCH  26  27
ENDBRANCH  16  26
BRANCH  23  30
HETATM   30  C14 UNL     1      -0.997   4.377  10.405  1.00  0.00     0.051 C 
BRANCH  30  31
HETATM   31  C15 UNL     1       0.127   4.079   9.565  1.00  0.00     0.088 A 
HETATM   32  N8  UNL     1       1.356   3.742   9.986  1.00  0.00    -0.305 N 
HETATM   33  C16 UNL     1       2.163   3.532   8.926  1.00  0.00     0.326 A 
ATOM     34  H8  UNL     1       1.638   3.657  10.962  1.00  0.00     0.171 HD
HETATM   35  O2  UNL     1       3.376   3.202   8.944  1.00  0.00    -0.247 OA
HETATM   36  N9  UNL     1       1.451   3.735   7.802  1.00  0.00    -0.287 N 
HETATM   37  C17 UNL     1       0.184   4.075   8.187  1.00  0.00     0.171 A 
ATOM     38  H9  UNL     1       1.792   3.652   6.845  1.00  0.00     0.172 HD
BRANCH  37  39
HETATM   39  O3  UNL     1      -0.834   4.361   7.284  1.00  0.00    -0.344 OA
ATOM     40  H3  UNL     1      -0.931   5.129   6.733  1.00  0.00     0.219 HD
ENDBRANCH  37  39
ENDBRANCH  30  31
ENDBRANCH  23  30
ENDBRANCH  11  14
ENDBRANCH   7  11
BRANCH  10  41
HETATM   41  C21 UNL     1      -4.284   1.439  15.439  1.00  0.00     0.217 C 
BRANCH  41  42
HETATM   42  O5  UNL     1      -3.346   1.414  16.435  1.00  0.00    -0.397 OA
ATOM     43  H5  UNL     1      -2.639   0.797  16.284  1.00  0.00     0.209 HD
ENDBRANCH  41  42
ENDBRANCH  10  41
ENDBRANCH   3   4
TORSDOF 10
ENDMDL
MODEL 4
REMARK VINA RESULT: -7.549931922      2.000      3.262
REMARK  10 active torsions:
REMARK  status: ('A' for Active; 'I' for Inactive)
REMARK    1  A    between atoms: C3_3  and  N1_4 
REMARK    2  A    between atoms: C5_7  and  N2_8 
REMARK    3  A    between atoms: N2_8  and  C7_11 
REMARK    4  A    between atoms: C8_14  and  N5_15 
REMARK    5  A    between atoms: N5_15  and  C9_16 
REMARK    6  A    between atoms: C13_23  and  C14_24 
REMARK    7  A    between atoms: C14_24  and  C15_25 
REMARK    8  A    between atoms: C17_32  and  O3_33 
REMARK    9  A    between atoms: C20_40  and  C21_41 
REMARK   10  A    between atoms: C21_41  and  O5_42 
ROOT
HETATM    1  C1  UNL     1       3.442   7.605  11.100  1.00  0.00     0.014 C 
HETATM    2  C2  UNL     1       3.124   6.475  11.370  1.00  0.00    -0.098 C 
HETATM    3  C3  UNL     1       2.756   5.087  11.709  1.00  0.00     0.222 C 
ENDROOT
BRANCH   3   4
HETATM    4  N1  UNL     1       1.536   4.675  11.075  1.00  0.00    -0.311 N 
HETATM    5  C4  UNL     1       0.258   5.206  11.422  1.00  0.00     0.249 C 
HETATM    6  O1  UNL     1       0.180   5.793  12.548  1.00  0.00    -0.271 OA
HETATM    7  C5  UNL     1      -0.932   5.099  10.541  1.00  0.00     0.235 C 
HETATM    8  C19 UNL     1      -0.482   4.418   9.251  1.00  0.00     0.207 C 
HETATM    9  O4  UNL     1       0.348   3.363   9.522  1.00  0.00    -0.362 OA
HETATM   10  C20 UNL     1       1.579   3.676  10.040  1.00  0.00     0.250 C 
BRANCH   7  11
HETATM   11  N2  UNL     1      -1.946   4.248  11.131  1.00  0.00    -0.101 N 
HETATM   12  C6  UNL     1      -1.593   2.921  11.399  1.00  0.00     0.200 C 
HETATM   13  N3  UNL     1      -1.315   1.800  11.631  1.00  0.00    -0.171 NA
BRANCH  11  14
HETATM   14  C7  UNL     1      -3.269   4.742  11.434  1.00  0.00     0.699 A 
HETATM   15  N4  UNL     1      -3.997   5.349  10.502  1.00  0.00    -0.146 N 
HETATM   16  C8  UNL     1      -5.261   5.847  10.709  1.00  0.00     0.292 A 
ATOM     17  H4  UNL     1      -3.590   5.453   9.572  1.00  0.00     0.188 HD
HETATM   18  N6  UNL     1      -5.744   5.672  11.979  1.00  0.00    -0.195 N 
HETATM   19  N7  UNL     1      -6.896   6.015  12.526  1.00  0.00    -0.299 N 
HETATM   20  C18 UNL     1      -5.019   5.059  12.929  1.00  0.00     0.158 A 
HETATM   21  C12 UNL     1      -6.934   5.637  13.817  1.00  0.00     0.123 A 
ATOM     22  H7  UNL     1      -7.650   6.498  12.039  1.00  0.00     0.186 HD
HETATM   23  C13 UNL     1      -5.744   5.016  14.122  1.00  0.00     0.030 A 
HETATM   24  N10 UNL     1      -3.802   4.605  12.655  1.00  0.00    -0.173 N 
ATOM     25  H10 UNL     1      -3.263   4.144  13.388  1.00  0.00     0.186 HD
BRANCH  16  26
HETATM   26  N5  UNL     1      -5.925   6.394   9.882  1.00  0.00    -0.408 NA
BRANCH  26  27
HETATM   27  C9  UNL     1      -6.523   7.219   9.007  1.00  0.00     0.167 A 
HETATM   28  C10 UNL     1      -7.951   7.703   9.091  1.00  0.00     0.042 A 
HETATM   29  C11 UNL     1      -7.667   6.626   8.141  1.00  0.00     0.042 A 
ENDBRANCH  26  27
ENDBRANCH  16  26
BRANCH  23  30
HETATM   30  C14 UNL     1      -5.352   4.493  15.266  1.00  0.00     0.051 C 
BRANCH  30  31
HETATM   31  C15 UNL     1      -5.392   3.093  15.579  1.00  0.00     0.088 A 
HETATM   32  N8  UNL     1      -6.259   2.498  16.413  1.00  0.00    -0.305 N 
HETATM   33  C16 UNL     1      -6.006   1.174  16.468  1.00  0.00     0.326 A 
ATOM     34  H8  UNL     1      -6.999   2.975  16.928  1.00  0.00     0.171 HD
HETATM   35  O2  UNL     1      -6.618   0.309  17.145  1.00  0.00    -0.247 OA
HETATM   36  N9  UNL     1      -4.963   0.905  15.662  1.00  0.00    -0.287 N 
HETATM   37  C17 UNL     1      -4.573   2.090  15.104  1.00  0.00     0.171 A 
ATOM     38  H9  UNL     1      -4.543  -0.009  15.499  1.00  0.00     0.172 HD
BRANCH  37  39
HETATM   39  O3  UNL     1      -3.514   2.197  14.210  1.00  0.00    -0.344 OA
ATOM     40  H3  UNL     1      -3.547   2.228  13.261  1.00  0.00     0.219 HD
ENDBRANCH  37  39
ENDBRANCH  30  31
ENDBRANCH  23  30
ENDBRANCH  11  14
ENDBRANCH   7  11
BRANCH  10  41
HETATM   41  C21 UNL     1       2.570   3.995   8.942  1.00  0.00     0.217 C 
BRANCH  41  42
HETATM   42  O5  UNL     1       3.542   3.045   8.777  1.00  0.00    -0.397 OA
ATOM     43  H5  UNL     1       3.925   3.032   7.908  1.00  0.00     0.209 HD
ENDBRANCH  41  42
ENDBRANCH  10  41
ENDBRANCH   3   4
TORSDOF 10
ENDMDL
MODEL 5
REMARK VINA RESULT: -7.430036849      1.887      3.705
REMARK  10 active torsions:
REMARK  status: ('A' for Active; 'I' for Inactive)
REMARK    1  A    between atoms: C3_3  and  N1_4 
REMARK    2  A    between atoms: C5_7  and  N2_8 
REMARK    3  A    between atoms: N2_8  and  C7_11 
REMARK    4  A    between atoms: C8_14  and  N5_15 
REMARK    5  A    between atoms: N5_15  and  C9_16 
REMARK    6  A    between atoms: C13_23  and  C14_24 
REMARK    7  A    between atoms: C14_24  and  C15_25 
REMARK    8  A    between atoms: C17_32  and  O3_33 
REMARK    9  A    between atoms: C20_40  and  C21_41 
REMARK   10  A    between atoms: C21_41  and  O5_42 
ROOT
HETATM    1  C1  UNL     1      -2.415   8.789   9.927  1.00  0.00     0.014 C 
HETATM    2  C2  UNL     1      -1.607   7.918   9.728  1.00  0.00    -0.098 C 
HETATM    3  C3  UNL     1      -0.612   6.861   9.464  1.00  0.00     0.222 C 
ENDROOT
BRANCH   3   4
HETATM    4  N1  UNL     1      -0.808   5.707  10.295  1.00  0.00    -0.311 N 
HETATM    5  C4  UNL     1      -1.259   4.450   9.793  1.00  0.00     0.249 C 
HETATM    6  O1  UNL     1      -1.825   4.471   8.653  1.00  0.00    -0.271 OA
HETATM    7  C5  UNL     1      -1.092   3.174  10.532  1.00  0.00     0.235 C 
HETATM    8  C19 UNL     1      -0.316   3.486  11.808  1.00  0.00     0.207 C 
HETATM    9  O4  UNL     1      -0.781   4.634  12.392  1.00  0.00    -0.362 OA
HETATM   10  C20 UNL     1      -0.546   5.800  11.708  1.00  0.00     0.250 C 
BRANCH   7  11
HETATM   11  N2  UNL     1      -2.374   2.635  10.943  1.00  0.00    -0.101 N 
HETATM   12  C6  UNL     1      -2.537   1.247  10.876  1.00  0.00     0.200 C 
HETATM   13  N3  UNL     1      -2.693   0.081  10.825  1.00  0.00    -0.171 NA
BRANCH  11  14
HETATM   14  C7  UNL     1      -3.445   3.488  11.403  1.00  0.00     0.699 A 
HETATM   15  N4  UNL     1      -4.151   4.215  10.543  1.00  0.00    -0.146 N 
HETATM   16  C8  UNL     1      -5.182   5.051  10.899  1.00  0.00     0.292 A 
ATOM     17  H4  UNL     1      -3.911   4.148   9.553  1.00  0.00     0.188 HD
HETATM   18  N6  UNL     1      -5.449   5.091  12.243  1.00  0.00    -0.195 N 
HETATM   19  N7  UNL     1      -6.350   5.767  12.931  1.00  0.00    -0.299 N 
HETATM   20  C18 UNL     1      -4.743   4.360  13.122  1.00  0.00     0.158 A 
HETATM   21  C12 UNL     1      -6.243   5.491  14.244  1.00  0.00     0.123 A 
ATOM     22  H7  UNL     1      -7.031   6.407  12.525  1.00  0.00     0.186 HD
HETATM   23  C13 UNL     1      -5.219   4.587  14.415  1.00  0.00     0.030 A 
HETATM   24  N10 UNL     1      -3.758   3.575  12.702  1.00  0.00    -0.173 N 
ATOM     25  H10 UNL     1      -3.230   3.028  13.382  1.00  0.00     0.186 HD
BRANCH  16  26
HETATM   26  N5  UNL     1      -5.824   5.708  10.139  1.00  0.00    -0.408 NA
BRANCH  26  27
HETATM   27  C9  UNL     1      -6.327   6.591   9.259  1.00  0.00     0.167 A 
HETATM   28  C10 UNL     1      -6.147   8.089   9.318  1.00  0.00     0.042 A 
HETATM   29  C11 UNL     1      -7.431   7.553   9.773  1.00  0.00     0.042 A 
ENDBRANCH  26  27
ENDBRANCH  16  26
BRANCH  23  30
HETATM   30  C14 UNL     1      -4.770   4.045  15.529  1.00  0.00     0.051 C 
BRANCH  30  31
HETATM   31  C15 UNL     1      -5.241   2.808  16.081  1.00  0.00     0.088 A 
HETATM   32  N8  UNL     1      -6.523   2.493  16.326  1.00  0.00    -0.305 N 
HETATM   33  C16 UNL     1      -6.599   1.251  16.845  1.00  0.00     0.326 A 
ATOM     34  H8  UNL     1      -7.321   3.103  16.147  1.00  0.00     0.171 HD
HETATM   35  O2  UNL     1      -7.636   0.632  17.193  1.00  0.00    -0.247 OA
HETATM   36  N9  UNL     1      -5.353   0.752  16.940  1.00  0.00    -0.287 N 
HETATM   37  C17 UNL     1      -4.501   1.711  16.467  1.00  0.00     0.171 A 
ATOM     38  H9  UNL     1      -5.093  -0.167  17.296  1.00  0.00     0.172 HD
BRANCH  37  39
HETATM   39  O3  UNL     1      -3.122   1.543  16.414  1.00  0.00    -0.344 OA
ATOM     40  H3  UNL     1      -2.630   0.857  15.977  1.00  0.00     0.219 HD
ENDBRANCH  37  39
ENDBRANCH  30  31
ENDBRANCH  23  30
ENDBRANCH  11  14
ENDBRANCH   7  11
BRANCH  10  41
HETATM   41  C21 UNL     1       0.825   6.356  12.027  1.00  0.00     0.217 C 
BRANCH  41  42
HETATM   42  O5  UNL     1       0.801   7.602  12.594  1.00  0.00    -0.397 OA
ATOM     43  H5  UNL     1       0.242   7.666  13.360  1.00  0.00     0.209 HD
ENDBRANCH  41  42
ENDBRANCH  10  41
ENDBRANCH   3   4
TORSDOF 10
ENDMDL
