MODEL 1
REMARK VINA RESULT: -7.331743655      0.000      0.000
REMARK  11 active torsions:
REMARK  status: ('A' for Active; 'I' for Inactive)
REMARK    1  A    between atoms: C2_2  and  O1_3 
REMARK    2  A    between atoms: C2_2  and  C3_5 
REMARK    3  A    between atoms: C5_8  and  N2_9 
REMARK    4  A    between atoms: N3_13  and  C9_14 
REMARK    5  A    between atoms: C9_14  and  O2_15 
REMARK    6  A    between atoms: C12_19  and  N4_20 
REMARK    7  A    between atoms: N4_20  and  C13_22 
REMARK    8  A    between atoms: C13_22  and  O3_23 
REMARK    9  A    between atoms: C13_22  and  C14_25 
REMARK   10  A    between atoms: C14_25  and  N5_28 
REMARK   11  A    between atoms: C19_33  and  N7_34 
ROOT
HETATM    1  N7  UNL     1      -6.642   6.092   7.090  1.00  0.00    -0.126 N 
ATOM      2  H7  UNL     1      -7.622   5.820   7.166  1.00  0.00     0.197 HD
HETATM    3  C20 UNL     1      -5.633   5.095   6.986  1.00  0.00     0.196 C 
HETATM    4  N8  UNL     1      -4.818   4.278   6.916  1.00  0.00    -0.171 NA
ENDROOT
BRANCH   1   5
HETATM    5  C19 UNL     1      -6.279   7.477   7.086  1.00  0.00     0.686 A 
HETATM    6  N5  UNL     1      -6.097   8.413   8.112  1.00  0.00    -0.203 N 
HETATM    7  C17 UNL     1      -5.718   9.690   7.478  1.00  0.00     0.162 A 
HETATM    8  C18 UNL     1      -5.714   9.393   6.019  1.00  0.00     0.158 A 
HETATM    9  N6  UNL     1      -6.064   8.025   5.905  1.00  0.00    -0.224 N 
ATOM     10  H6  UNL     1      -6.141   7.526   5.019  1.00  0.00     0.177 HD
BRANCH   6  11
HETATM   11  C14 UNL     1      -6.247   8.191   9.514  1.00  0.00     0.086 C 
HETATM   12  C15 UNL     1      -7.702   7.853   9.801  1.00  0.00     0.043 C 
HETATM   13  C16 UNL     1      -5.760   9.309  10.378  1.00  0.00     0.043 C 
BRANCH  11  14
HETATM   14  C13 UNL     1      -5.475   6.926   9.956  1.00  0.00     0.242 C 
BRANCH  14  15
HETATM   15  N4  UNL     1      -4.701   7.295  11.060  1.00  0.00    -0.376 N 
ATOM     16  H4  UNL     1      -4.894   8.202  11.485  1.00  0.00     0.157 HD
BRANCH  15  17
HETATM   17  C12 UNL     1      -3.712   6.544  11.613  1.00  0.00     0.242 C 
HETATM   18  C11 UNL     1      -3.722   6.055  13.000  1.00  0.00     0.287 C 
HETATM   19  N1  UNL     1      -2.384   5.486  13.144  1.00  0.00     0.127 N 
HETATM   20  C10 UNL     1      -4.538   4.834  13.254  1.00  0.00     0.040 C 
HETATM   21  C3  UNL     1      -2.244   4.419  12.170  1.00  0.00     0.375 C 
HETATM   22  C4  UNL     1      -2.592   4.807  14.438  1.00  0.00     0.334 C 
HETATM   23  S1  UNL     1      -3.280   4.994  10.805  1.00  0.00     0.202 S 
HETATM   24  O4  UNL     1      -2.495   5.208   9.576  1.00  0.00    -0.223 OA
HETATM   25  O5  UNL     1      -4.451   4.109  10.620  1.00  0.00    -0.223 OA
HETATM   26  C5  UNL     1      -3.886   4.080  14.103  1.00  0.00     0.060 C 
BRANCH  21  27
HETATM   27  C2  UNL     1      -0.781   4.441  11.738  1.00  0.00     0.162 C 
HETATM   28  C1  UNL     1      -0.103   5.717  12.150  1.00  0.00     0.042 C 
BRANCH  27  29
HETATM   29  O1  UNL     1      -0.093   3.363  12.304  1.00  0.00    -0.393 OA
ATOM     30  H1  UNL     1       0.669   3.694  12.764  1.00  0.00     0.210 HD
ENDBRANCH  27  29
ENDBRANCH  21  27
BRANCH  26  31
HETATM   31  N2  UNL     1      -4.172   2.793  14.682  1.00  0.00    -0.267 N 
HETATM   32  C6  UNL     1      -4.371   2.612  16.019  1.00  0.00     0.118 A 
HETATM   33  C7  UNL     1      -4.620   1.287  16.270  1.00  0.00     0.038 A 
HETATM   34  C8  UNL     1      -4.569   0.657  15.060  1.00  0.00     0.114 A 
HETATM   35  N3  UNL     1      -4.296   1.606  14.136  1.00  0.00    -0.274 N 
BRANCH  35  36
HETATM   36  C9  UNL     1      -4.137   1.276  12.738  1.00  0.00     0.313 C 
BRANCH  36  37
HETATM   37  O2  UNL     1      -5.242   1.593  11.960  1.00  0.00    -0.380 OA
ATOM     38  H2  UNL     1      -5.290   1.105  11.146  1.00  0.00     0.211 HD
ENDBRANCH  36  37
ENDBRANCH  35  36
ENDBRANCH  26  31
ENDBRANCH  15  17
ENDBRANCH  14  15
BRANCH  14  39
HETATM   39  O3  UNL     1      -6.549   6.045  10.258  1.00  0.00    -0.375 OA
ATOM     40  H3  UNL     1      -7.252   6.049   9.620  1.00  0.00     0.212 HD
ENDBRANCH  14  39
ENDBRANCH  11  14
ENDBRANCH   6  11
ENDBRANCH   1   5
TORSDOF 11
ENDMDL
MODEL 2
REMARK VINA RESULT: -7.135163126      1.845      2.724
REMARK  11 active torsions:
REMARK  status: ('A' for Active; 'I' for Inactive)
REMARK    1  A    between atoms: C2_2  and  O1_3 
REMARK    2  A    between atoms: C2_2  and  C3_5 
REMARK    3  A    between atoms: C5_8  and  N2_9 
REMARK    4  A    between atoms: N3_13  and  C9_14 
REMARK    5  A    between atoms: C9_14  and  O2_15 
REMARK    6  A    between atoms: C12_19  and  N4_20 
REMARK    7  A    between atoms: N4_20  and  C13_22 
REMARK    8  A    between atoms: C13_22  and  O3_23 
REMARK    9  A    between atoms: C13_22  and  C14_25 
REMARK   10  A    between atoms: C14_25  and  N5_28 
REMARK   11  A    between atoms: C19_33  and  N7_34 
ROOT
HETATM    1  N7  UNL     1      -4.982   9.295   9.684  1.00  0.00    -0.126 N 
ATOM      2  H7  UNL     1      -5.797   9.838   9.971  1.00  0.00     0.197 HD
HETATM    3  C20 UNL     1      -3.906   9.093  10.591  1.00  0.00     0.196 C 
HETATM    4  N8  UNL     1      -3.028   8.946  11.330  1.00  0.00    -0.171 NA
ENDROOT
BRANCH   1   5
HETATM    5  C19 UNL     1      -4.921   8.735   8.367  1.00  0.00     0.686 A 
HETATM    6  N5  UNL     1      -5.420   7.549   7.817  1.00  0.00    -0.203 N 
HETATM    7  C17 UNL     1      -5.037   7.531   6.393  1.00  0.00     0.162 A 
HETATM    8  C18 UNL     1      -4.278   8.797   6.197  1.00  0.00     0.158 A 
HETATM    9  N6  UNL     1      -4.276   9.442   7.458  1.00  0.00    -0.224 N 
ATOM     10  H6  UNL     1      -3.832  10.342   7.641  1.00  0.00     0.177 HD
BRANCH   6  11
HETATM   11  C14 UNL     1      -6.161   6.533   8.493  1.00  0.00     0.086 C 
HETATM   12  C15 UNL     1      -6.670   5.535   7.465  1.00  0.00     0.043 C 
HETATM   13  C16 UNL     1      -7.267   7.041   9.361  1.00  0.00     0.043 C 
BRANCH  11  14
HETATM   14  C13 UNL     1      -5.237   5.692   9.405  1.00  0.00     0.242 C 
BRANCH  14  15
HETATM   15  N4  UNL     1      -5.685   5.885  10.715  1.00  0.00    -0.376 N 
ATOM     16  H4  UNL     1      -6.656   6.171  10.840  1.00  0.00     0.157 HD
BRANCH  15  17
HETATM   17  C12 UNL     1      -4.931   5.723  11.835  1.00  0.00     0.242 C 
HETATM   18  C11 UNL     1      -5.482   5.642  13.197  1.00  0.00     0.287 C 
HETATM   19  N1  UNL     1      -4.279   5.664  14.025  1.00  0.00     0.127 N 
HETATM   20  C10 UNL     1      -6.034   4.316  13.598  1.00  0.00     0.040 C 
HETATM   21  C3  UNL     1      -3.471   4.511  13.673  1.00  0.00     0.375 C 
HETATM   22  C4  UNL     1      -4.914   5.316  15.311  1.00  0.00     0.334 C 
HETATM   23  S1  UNL     1      -3.846   4.289  11.919  1.00  0.00     0.202 S 
HETATM   24  O4  UNL     1      -2.645   4.451  11.079  1.00  0.00    -0.223 OA
HETATM   25  O5  UNL     1      -4.570   3.019  11.689  1.00  0.00    -0.223 OA
HETATM   26  C5  UNL     1      -5.708   4.104  14.848  1.00  0.00     0.060 C 
BRANCH  21  27
HETATM   27  C2  UNL     1      -2.020   4.958  13.827  1.00  0.00     0.162 C 
HETATM   28  C1  UNL     1      -1.912   6.453  13.935  1.00  0.00     0.042 C 
BRANCH  27  29
HETATM   29  O1  UNL     1      -1.456   4.382  14.969  1.00  0.00    -0.393 OA
ATOM     30  H1  UNL     1      -1.976   4.628  15.725  1.00  0.00     0.210 HD
ENDBRANCH  27  29
ENDBRANCH  21  27
BRANCH  26  31
HETATM   31  N2  UNL     1      -5.943   2.999  15.742  1.00  0.00    -0.267 N 
HETATM   32  C6  UNL     1      -6.776   3.084  16.818  1.00  0.00     0.118 A 
HETATM   33  C7  UNL     1      -6.796   1.882  17.477  1.00  0.00     0.038 A 
HETATM   34  C8  UNL     1      -5.958   1.057  16.785  1.00  0.00     0.114 A 
HETATM   35  N3  UNL     1      -5.468   1.776  15.749  1.00  0.00    -0.274 N 
BRANCH  35  36
HETATM   36  C9  UNL     1      -4.513   1.212  14.823  1.00  0.00     0.313 C 
BRANCH  36  37
HETATM   37  O2  UNL     1      -4.672  -0.151  14.616  1.00  0.00    -0.380 OA
ATOM     38  H2  UNL     1      -5.423  -0.372  14.079  1.00  0.00     0.211 HD
ENDBRANCH  36  37
ENDBRANCH  35  36
ENDBRANCH  26  31
ENDBRANCH  15  17
ENDBRANCH  14  15
BRANCH  14  39
HETATM   39  O3  UNL     1      -5.464   4.387   8.891  1.00  0.00    -0.375 OA
ATOM     40  H3  UNL     1      -4.778   4.064   8.319  1.00  0.00     0.212 HD
ENDBRANCH  14  39
ENDBRANCH  11  14
ENDBRANCH   6  11
ENDBRANCH   1   5
TORSDOF 11
ENDMDL
MODEL 3
REMARK VINA RESULT: -7.121266312      2.109      2.501
REMARK  11 active torsions:
REMARK  status: ('A' for Active; 'I' for Inactive)
REMARK    1  A    between atoms: C2_2  and  O1_3 
REMARK    2  A    between atoms: C2_2  and  C3_5 
REMARK    3  A    between atoms: C5_8  and  N2_9 
REMARK    4  A    between atoms: N3_13  and  C9_14 
REMARK    5  A    between atoms: C9_14  and  O2_15 
REMARK    6  A    between atoms: C12_19  and  N4_20 
REMARK    7  A    between atoms: N4_20  and  C13_22 
REMARK    8  A    between atoms: C13_22  and  O3_23 
REMARK    9  A    between atoms: C13_22  and  C14_25 
REMARK   10  A    between atoms: C14_25  and  N5_28 
REMARK   11  A    between atoms: C19_33  and  N7_34 
ROOT
HETATM    1  N7  UNL     1      -3.170   5.674   6.318  1.00  0.00    -0.126 N 
ATOM      2  H7  UNL     1      -3.613   5.155   5.560  1.00  0.00     0.197 HD
HETATM    3  C20 UNL     1      -1.983   5.177   6.922  1.00  0.00     0.196 C 
HETATM    4  N8  UNL     1      -1.025   4.759   7.418  1.00  0.00    -0.171 NA
ENDROOT
BRANCH   1   5
HETATM    5  C19 UNL     1      -3.742   6.906   6.774  1.00  0.00     0.686 A 
HETATM    6  N5  UNL     1      -4.805   7.194   7.638  1.00  0.00    -0.203 N 
HETATM    7  C17 UNL     1      -4.914   8.663   7.723  1.00  0.00     0.162 A 
HETATM    8  C18 UNL     1      -3.833   9.167   6.831  1.00  0.00     0.158 A 
HETATM    9  N6  UNL     1      -3.191   8.014   6.317  1.00  0.00    -0.224 N 
ATOM     10  H6  UNL     1      -2.400   8.038   5.673  1.00  0.00     0.177 HD
BRANCH   6  11
HETATM   11  C14 UNL     1      -5.641   6.257   8.317  1.00  0.00     0.086 C 
HETATM   12  C15 UNL     1      -6.264   5.326   7.288  1.00  0.00     0.043 C 
HETATM   13  C16 UNL     1      -6.675   6.872   9.203  1.00  0.00     0.043 C 
BRANCH  11  14
HETATM   14  C13 UNL     1      -4.799   5.317   9.210  1.00  0.00     0.242 C 
BRANCH  14  15
HETATM   15  N4  UNL     1      -5.381   5.345  10.480  1.00  0.00    -0.376 N 
ATOM     16  H4  UNL     1      -6.399   5.391  10.528  1.00  0.00     0.157 HD
BRANCH  15  17
HETATM   17  C12 UNL     1      -4.701   5.317  11.658  1.00  0.00     0.242 C 
HETATM   18  C11 UNL     1      -5.342   5.331  12.982  1.00  0.00     0.287 C 
HETATM   19  N1  UNL     1      -4.200   5.481  13.882  1.00  0.00     0.127 N 
HETATM   20  C10 UNL     1      -5.867   4.023  13.466  1.00  0.00     0.040 C 
HETATM   21  C3  UNL     1      -3.325   4.339  13.690  1.00  0.00     0.375 C 
HETATM   22  C4  UNL     1      -4.908   5.220  15.150  1.00  0.00     0.334 C 
HETATM   23  S1  UNL     1      -3.569   3.946  11.943  1.00  0.00     0.202 S 
HETATM   24  O4  UNL     1      -2.320   4.087  11.172  1.00  0.00    -0.223 OA
HETATM   25  O5  UNL     1      -4.225   2.629  11.783  1.00  0.00    -0.223 OA
HETATM   26  C5  UNL     1      -5.620   3.936  14.748  1.00  0.00     0.060 C 
BRANCH  21  27
HETATM   27  C2  UNL     1      -1.907   4.863  13.898  1.00  0.00     0.162 C 
HETATM   28  C1  UNL     1      -1.868   6.365  13.895  1.00  0.00     0.042 C 
BRANCH  27  29
HETATM   29  O1  UNL     1      -1.394   4.401  15.113  1.00  0.00    -0.393 OA
ATOM     30  H1  UNL     1      -0.920   3.593  14.958  1.00  0.00     0.210 HD
ENDBRANCH  27  29
ENDBRANCH  21  27
BRANCH  26  31
HETATM   31  N2  UNL     1      -5.873   2.905  15.722  1.00  0.00    -0.267 N 
HETATM   32  C6  UNL     1      -6.723   3.075  16.774  1.00  0.00     0.118 A 
HETATM   33  C7  UNL     1      -6.758   1.929  17.525  1.00  0.00     0.038 A 
HETATM   34  C8  UNL     1      -5.910   1.051  16.914  1.00  0.00     0.114 A 
HETATM   35  N3  UNL     1      -5.402   1.686  15.833  1.00  0.00    -0.274 N 
BRANCH  35  36
HETATM   36  C9  UNL     1      -4.433   1.050  14.969  1.00  0.00     0.313 C 
BRANCH  36  37
HETATM   37  O2  UNL     1      -4.723  -0.278  14.686  1.00  0.00    -0.380 OA
ATOM     38  H2  UNL     1      -3.960  -0.796  14.458  1.00  0.00     0.211 HD
ENDBRANCH  36  37
ENDBRANCH  35  36
ENDBRANCH  26  31
ENDBRANCH  15  17
ENDBRANCH  14  15
BRANCH  14  39
HETATM   39  O3  UNL     1      -4.949   4.083   8.521  1.00  0.00    -0.375 OA
ATOM     40  H3  UNL     1      -5.599   4.095   7.829  1.00  0.00     0.212 HD
ENDBRANCH  14  39
ENDBRANCH  11  14
ENDBRANCH   6  11
ENDBRANCH   1   5
TORSDOF 11
ENDMDL
MODEL 4
REMARK VINA RESULT: -7.079780546      1.907      2.297
REMARK  11 active torsions:
REMARK  status: ('A' for Active; 'I' for Inactive)
REMARK    1  A    between atoms: C2_2  and  O1_3 
REMARK    2  A    between atoms: C2_2  and  C3_5 
REMARK    3  A    between atoms: C5_8  and  N2_9 
REMARK    4  A    between atoms: N3_13  and  C9_14 
REMARK    5  A    between atoms: C9_14  and  O2_15 
REMARK    6  A    between atoms: C12_19  and  N4_20 
REMARK    7  A    between atoms: N4_20  and  C13_22 
REMARK    8  A    between atoms: C13_22  and  O3_23 
REMARK    9  A    between atoms: C13_22  and  C14_25 
REMARK   10  A    between atoms: C14_25  and  N5_28 
REMARK   11  A    between atoms: C19_33  and  N7_34 
ROOT
HETATM    1  N7  UNL     1      -7.015   6.028   7.549  1.00  0.00    -0.126 N 
ATOM      2  H7  UNL     1      -7.943   5.640   7.718  1.00  0.00     0.197 HD
HETATM    3  C20 UNL     1      -5.932   5.167   7.223  1.00  0.00     0.196 C 
HETATM    4  N8  UNL     1      -5.053   4.457   6.972  1.00  0.00    -0.171 NA
ENDROOT
BRANCH   1   5
HETATM    5  C19 UNL     1      -6.801   7.441   7.639  1.00  0.00     0.686 A 
HETATM    6  N5  UNL     1      -6.154   8.244   8.588  1.00  0.00    -0.203 N 
HETATM    7  C17 UNL     1      -6.259   9.640   8.123  1.00  0.00     0.162 A 
HETATM    8  C18 UNL     1      -7.022   9.551   6.848  1.00  0.00     0.158 A 
HETATM    9  N6  UNL     1      -7.291   8.174   6.657  1.00  0.00    -0.224 N 
ATOM     10  H6  UNL     1      -7.801   7.795   5.860  1.00  0.00     0.177 HD
BRANCH   6  11
HETATM   11  C14 UNL     1      -5.511   7.810   9.786  1.00  0.00     0.086 C 
HETATM   12  C15 UNL     1      -5.245   9.024  10.662  1.00  0.00     0.043 C 
HETATM   13  C16 UNL     1      -4.271   7.003   9.570  1.00  0.00     0.043 C 
BRANCH  11  14
HETATM   14  C13 UNL     1      -6.463   6.936  10.636  1.00  0.00     0.242 C 
BRANCH  14  15
HETATM   15  N4  UNL     1      -5.742   5.794  10.996  1.00  0.00    -0.376 N 
ATOM     16  H4  UNL     1      -5.727   5.021  10.331  1.00  0.00     0.157 HD
BRANCH  15  17
HETATM   17  C12 UNL     1      -5.060   5.629  12.161  1.00  0.00     0.242 C 
HETATM   18  C11 UNL     1      -5.699   5.457  13.475  1.00  0.00     0.287 C 
HETATM   19  N1  UNL     1      -4.560   5.516  14.389  1.00  0.00     0.127 N 
HETATM   20  C10 UNL     1      -6.193   4.085  13.784  1.00  0.00     0.040 C 
HETATM   21  C3  UNL     1      -3.659   4.429  14.051  1.00  0.00     0.375 C 
HETATM   22  C4  UNL     1      -5.261   5.076  15.611  1.00  0.00     0.334 C 
HETATM   23  S1  UNL     1      -3.896   4.260  12.268  1.00  0.00     0.202 S 
HETATM   24  O4  UNL     1      -2.652   4.529  11.524  1.00  0.00    -0.223 OA
HETATM   25  O5  UNL     1      -4.521   2.960  11.938  1.00  0.00    -0.223 OA
HETATM   26  C5  UNL     1      -5.943   3.839  15.045  1.00  0.00     0.060 C 
BRANCH  21  27
HETATM   27  C2  UNL     1      -2.253   4.954  14.328  1.00  0.00     0.162 C 
HETATM   28  C1  UNL     1      -2.260   6.433  14.595  1.00  0.00     0.042 C 
BRANCH  27  29
HETATM   29  O1  UNL     1      -1.700   4.300  15.432  1.00  0.00    -0.393 OA
ATOM     30  H1  UNL     1      -0.753   4.358  15.379  1.00  0.00     0.210 HD
ENDBRANCH  27  29
ENDBRANCH  21  27
BRANCH  26  31
HETATM   31  N2  UNL     1      -6.170   2.685  15.876  1.00  0.00    -0.267 N 
HETATM   32  C6  UNL     1      -7.293   2.530  16.634  1.00  0.00     0.118 A 
HETATM   33  C7  UNL     1      -7.226   1.342  17.314  1.00  0.00     0.038 A 
HETATM   34  C8  UNL     1      -6.038   0.770  16.961  1.00  0.00     0.114 A 
HETATM   35  N3  UNL     1      -5.438   1.618  16.094  1.00  0.00    -0.274 N 
BRANCH  35  36
HETATM   36  C9  UNL     1      -4.134   1.335  15.541  1.00  0.00     0.313 C 
BRANCH  36  37
HETATM   37  O2  UNL     1      -3.083   1.749  16.348  1.00  0.00    -0.380 OA
ATOM     38  H2  UNL     1      -2.293   1.964  15.867  1.00  0.00     0.211 HD
ENDBRANCH  36  37
ENDBRANCH  35  36
ENDBRANCH  26  31
ENDBRANCH  15  17
ENDBRANCH  14  15
BRANCH  14  39
HETATM   39  O3  UNL     1      -6.748   7.817  11.714  1.00  0.00    -0.375 OA
ATOM     40  H3  UNL     1      -7.257   8.582  11.473  1.00  0.00     0.212 HD
ENDBRANCH  14  39
ENDBRANCH  11  14
ENDBRANCH   6  11
ENDBRANCH   1   5
TORSDOF 11
ENDMDL
MODEL 5
REMARK VINA RESULT: -6.966296096      1.250      1.565
REMARK  11 active torsions:
REMARK  status: ('A' for Active; 'I' for Inactive)
REMARK    1  A    between atoms: C2_2  and  O1_3 
REMARK    2  A    between atoms: C2_2  and  C3_5 
REMARK    3  A    between atoms: C5_8  and  N2_9 
REMARK    4  A    between atoms: N3_13  and  C9_14 
REMARK    5  A    between atoms: C9_14  and  O2_15 
REMARK    6  A    between atoms: C12_19  and  N4_20 
REMARK    7  A    between atoms: N4_20  and  C13_22 
REMARK    8  A    between atoms: C13_22  and  O3_23 
REMARK    9  A    between atoms: C13_22  and  C14_25 
REMARK   10  A    between atoms: C14_25  and  N5_28 
REMARK   11  A    between atoms: C19_33  and  N7_34 
ROOT
HETATM    1  N7  UNL     1      -5.594   7.512   5.920  1.00  0.00    -0.126 N 
ATOM      2  H7  UNL     1      -5.697   6.533   6.187  1.00  0.00     0.197 HD
HETATM    3  C20 UNL     1      -4.889   7.856   4.734  1.00  0.00     0.196 C 
HETATM    4  N8  UNL     1      -4.302   8.128   3.774  1.00  0.00    -0.171 NA
ENDROOT
BRANCH   1   5
HETATM    5  C19 UNL     1      -6.158   8.542   6.739  1.00  0.00     0.686 A 
HETATM    6  N5  UNL     1      -6.755   8.526   8.005  1.00  0.00    -0.203 N 
HETATM    7  C17 UNL     1      -7.137   9.915   8.327  1.00  0.00     0.162 A 
HETATM    8  C18 UNL     1      -6.714  10.701   7.135  1.00  0.00     0.158 A 
HETATM    9  N6  UNL     1      -6.132   9.766   6.245  1.00  0.00    -0.224 N 
ATOM     10  H6  UNL     1      -5.742  10.008   5.334  1.00  0.00     0.177 HD
BRANCH   6  11
HETATM   11  C14 UNL     1      -6.966   7.390   8.843  1.00  0.00     0.086 C 
HETATM   12  C15 UNL     1      -7.839   6.392   8.099  1.00  0.00     0.043 C 
HETATM   13  C16 UNL     1      -7.518   7.706  10.195  1.00  0.00     0.043 C 
BRANCH  11  14
HETATM   14  C13 UNL     1      -5.641   6.626   9.076  1.00  0.00     0.242 C 
BRANCH  14  15
HETATM   15  N4  UNL     1      -5.509   6.468  10.458  1.00  0.00    -0.376 N 
ATOM     16  H4  UNL     1      -6.278   6.795  11.043  1.00  0.00     0.157 HD
BRANCH  15  17
HETATM   17  C12 UNL     1      -4.438   5.916  11.088  1.00  0.00     0.242 C 
HETATM   18  C11 UNL     1      -4.385   5.626  12.529  1.00  0.00     0.287 C 
HETATM   19  N1  UNL     1      -2.990   5.233  12.721  1.00  0.00     0.127 N 
HETATM   20  C10 UNL     1      -5.057   4.369  12.966  1.00  0.00     0.040 C 
HETATM   21  C3  UNL     1      -2.738   4.063  11.899  1.00  0.00     0.375 C 
HETATM   22  C4  UNL     1      -3.114   4.722  14.100  1.00  0.00     0.334 C 
HETATM   23  S1  UNL     1      -3.839   4.325  10.491  1.00  0.00     0.202 S 
HETATM   24  O4  UNL     1      -3.091   4.451   9.228  1.00  0.00    -0.223 OA
HETATM   25  O5  UNL     1      -4.905   3.299  10.455  1.00  0.00    -0.223 OA
HETATM   26  C5  UNL     1      -4.320   3.817  13.896  1.00  0.00     0.060 C 
BRANCH  21  27
HETATM   27  C2  UNL     1      -1.289   4.186  11.438  1.00  0.00     0.162 C 
HETATM   28  C1  UNL     1      -0.771   5.585  11.613  1.00  0.00     0.042 C 
BRANCH  27  29
HETATM   29  O1  UNL     1      -0.474   3.310  12.162  1.00  0.00    -0.393 OA
ATOM     30  H1  UNL     1       0.412   3.652  12.168  1.00  0.00     0.210 HD
ENDBRANCH  27  29
ENDBRANCH  21  27
BRANCH  26  31
HETATM   31  N2  UNL     1      -4.457   2.599  14.652  1.00  0.00    -0.267 N 
HETATM   32  C6  UNL     1      -4.702   2.586  15.994  1.00  0.00     0.118 A 
HETATM   33  C7  UNL     1      -4.778   1.290  16.433  1.00  0.00     0.038 A 
HETATM   34  C8  UNL     1      -4.573   0.506  15.334  1.00  0.00     0.114 A 
HETATM   35  N3  UNL     1      -4.384   1.341  14.287  1.00  0.00    -0.274 N 
BRANCH  35  36
HETATM   36  C9  UNL     1      -4.104   0.839  12.962  1.00  0.00     0.313 C 
BRANCH  36  37
HETATM   37  O2  UNL     1      -5.180   0.932  12.090  1.00  0.00    -0.380 OA
ATOM     38  H2  UNL     1      -4.959   1.312  11.248  1.00  0.00     0.211 HD
ENDBRANCH  36  37
ENDBRANCH  35  36
ENDBRANCH  26  31
ENDBRANCH  15  17
ENDBRANCH  14  15
BRANCH  14  39
HETATM   39  O3  UNL     1      -5.895   5.421   8.367  1.00  0.00    -0.375 OA
ATOM     40  H3  UNL     1      -6.732   5.398   7.917  1.00  0.00     0.212 HD
ENDBRANCH  14  39
ENDBRANCH  11  14
ENDBRANCH   6  11
ENDBRANCH   1   5
TORSDOF 11
ENDMDL
