MODEL 1
REMARK VINA RESULT: -7.175288661      0.000      0.000
REMARK  8 active torsions:
REMARK  status: ('A' for Active; 'I' for Inactive)
REMARK    1  A    between atoms: C2_2  and  N1_3 
REMARK    2  A    between atoms: C6_11  and  N3_12 
REMARK    3  A    between atoms: N4_14  and  N5_15 
REMARK       I    between atoms: N5_15  and  C8_17 
REMARK    4  A    between atoms: C8_17  and  C9_19 
REMARK    5  A    between atoms: N6_20  and  O4_22 
REMARK    6  A    between atoms: C10_24  and  N7_25 
REMARK    7  A    between atoms: N8_28  and  C13_29 
REMARK    8  A    between atoms: C13_29  and  N9_30 
ROOT
HETATM    1  N1  UNL     1      -5.290   3.676  13.088  1.00  0.00    -0.284 N 
HETATM    2  C3  UNL     1      -4.650   2.649  13.664  1.00  0.00     0.331 A 
HETATM    3  O1  UNL     1      -5.177   2.155  14.690  1.00  0.00    -0.246 OA
HETATM    4  N2  UNL     1      -3.507   2.139  13.209  1.00  0.00    -0.274 N 
ATOM      5  H2  UNL     1      -3.058   1.356  13.684  1.00  0.00     0.173 HD
HETATM    6  C4  UNL     1      -2.950   2.693  12.089  1.00  0.00     0.268 A 
HETATM    7  O2  UNL     1      -1.881   2.251  11.625  1.00  0.00    -0.267 OA
HETATM    8  C5  UNL     1      -3.580   3.750  11.472  1.00  0.00     0.137 A 
HETATM    9  C6  UNL     1      -3.005   4.324  10.313  1.00  0.00     0.235 A 
HETATM   10  N4  UNL     1      -3.669   5.348   9.746  1.00  0.00    -0.053 N 
HETATM   11  C10 UNL     1      -4.846   5.845  10.254  1.00  0.00     0.706 A 
HETATM   12  N11 UNL     1      -5.342   5.264  11.358  1.00  0.00    -0.173 N 
ATOM     13  H11 UNL     1      -6.215   5.627  11.740  1.00  0.00     0.186 HD
HETATM   14  C20 UNL     1      -4.762   4.240  11.982  1.00  0.00     0.148 A 
ENDROOT
BRANCH  11  15
HETATM   15  N7  UNL     1      -5.534   6.946   9.649  1.00  0.00    -0.212 N 
HETATM   16  C11 UNL     1      -6.604   6.620   8.763  1.00  0.00     0.171 C 
HETATM   17  C12 UNL     1      -6.701   7.560   7.619  1.00  0.00     0.295 C 
HETATM   18  N8  UNL     1      -6.572   8.915   7.999  1.00  0.00     0.119 N 
HETATM   19  C18 UNL     1      -5.335   9.154   8.723  1.00  0.00     0.295 C 
HETATM   20  C19 UNL     1      -5.223   8.312   9.943  1.00  0.00     0.171 C 
BRANCH  18  21
HETATM   21  C13 UNL     1      -7.686   9.573   8.569  1.00  0.00     0.542 C 
BRANCH  21  22
HETATM   22  N9  UNL     1      -8.614   9.948   7.488  1.00  0.00     0.119 N 
HETATM   23  C14 UNL     1      -8.692  11.393   7.408  1.00  0.00     0.302 C 
HETATM   24  C15 UNL     1      -9.747  11.986   8.316  1.00  0.00     0.262 C 
HETATM   25  N10 UNL     1     -11.075  11.495   7.960  1.00  0.00    -0.072 N 
HETATM   26  C16 UNL     1     -10.958  10.287   7.139  1.00  0.00     0.262 C 
ATOM     27 2H10 UNL     1     -11.661  11.344   8.782  1.00  0.00     0.277 HD
ATOM     28 1H10 UNL     1     -11.640  12.213   7.506  1.00  0.00     0.277 HD
HETATM   29  C17 UNL     1      -9.929   9.383   7.768  1.00  0.00     0.302 C 
ENDBRANCH  21  22
ENDBRANCH  18  21
ENDBRANCH  11  15
BRANCH  10  30
HETATM   30  N5  UNL     1      -3.294   5.787   8.479  1.00  0.00    -0.241 N 
HETATM   31  C8  UNL     1      -3.680   5.189   7.271  1.00  0.00     0.278 C 
HETATM   32  O3  UNL     1      -4.503   4.191   7.258  1.00  0.00    -0.265 OA
ATOM     33  H5  UNL     1      -2.691   6.609   8.426  1.00  0.00     0.191 HD
BRANCH  31  34
HETATM   34  C9  UNL     1      -3.201   5.615   5.953  1.00  0.00     0.189 C 
HETATM   35  N6  UNL     1      -3.029   6.783   5.564  1.00  0.00    -0.275 N 
ATOM     36  H6  UNL     1      -2.689   6.822   4.603  1.00  0.00     0.193 HD
BRANCH  35  37
HETATM   37  O4  UNL     1      -3.177   7.978   6.085  1.00  0.00    -0.290 OA
ATOM     38  H4  UNL     1      -3.248   8.863   5.747  1.00  0.00     0.244 HD
ENDBRANCH  35  37
ENDBRANCH  31  34
ENDBRANCH  10  30
BRANCH   9  39
HETATM   39  N3  UNL     1      -1.878   3.954  10.027  1.00  0.00    -0.407 NA
HETATM   40  C7  UNL     1      -0.625   3.969   9.527  1.00  0.00     0.231 C 
ENDBRANCH   9  39
BRANCH   1  41
HETATM   41  C2  UNL     1      -6.535   4.200  13.588  1.00  0.00     0.131 C 
HETATM   42  C1  UNL     1      -6.212   5.238  14.647  1.00  0.00     0.027 C 
ENDBRANCH   1  41
TORSDOF 8
ENDMDL
MODEL 2
REMARK VINA RESULT: -7.151512409      2.536      8.031
REMARK  8 active torsions:
REMARK  status: ('A' for Active; 'I' for Inactive)
REMARK    1  A    between atoms: C2_2  and  N1_3 
REMARK    2  A    between atoms: C6_11  and  N3_12 
REMARK    3  A    between atoms: N4_14  and  N5_15 
REMARK       I    between atoms: N5_15  and  C8_17 
REMARK    4  A    between atoms: C8_17  and  C9_19 
REMARK    5  A    between atoms: N6_20  and  O4_22 
REMARK    6  A    between atoms: C10_24  and  N7_25 
REMARK    7  A    between atoms: N8_28  and  C13_29 
REMARK    8  A    between atoms: C13_29  and  N9_30 
ROOT
HETATM    1  N1  UNL     1      -6.425   7.237   8.147  1.00  0.00    -0.284 N 
HETATM    2  C3  UNL     1      -6.303   7.832   6.952  1.00  0.00     0.331 A 
HETATM    3  O1  UNL     1      -7.270   8.533   6.566  1.00  0.00    -0.246 OA
HETATM    4  N2  UNL     1      -5.230   7.718   6.172  1.00  0.00    -0.274 N 
ATOM      5  H2  UNL     1      -5.185   8.191   5.270  1.00  0.00     0.173 HD
HETATM    6  C4  UNL     1      -4.187   6.948   6.614  1.00  0.00     0.268 A 
HETATM    7  O2  UNL     1      -3.161   6.811   5.919  1.00  0.00    -0.267 OA
HETATM    8  C5  UNL     1      -4.278   6.322   7.836  1.00  0.00     0.137 A 
HETATM    9  C6  UNL     1      -3.202   5.526   8.293  1.00  0.00     0.235 A 
HETATM   10  N4  UNL     1      -3.341   4.946   9.499  1.00  0.00    -0.053 N 
HETATM   11  C10 UNL     1      -4.472   5.088  10.268  1.00  0.00     0.706 A 
HETATM   12  N11 UNL     1      -5.463   5.852   9.781  1.00  0.00    -0.173 N 
ATOM     13  H11 UNL     1      -6.305   5.963  10.347  1.00  0.00     0.186 HD
HETATM   14  C20 UNL     1      -5.411   6.474   8.604  1.00  0.00     0.148 A 
ENDROOT
BRANCH  11  15
HETATM   15  N7  UNL     1      -4.614   4.451  11.543  1.00  0.00    -0.212 N 
HETATM   16  C11 UNL     1      -4.481   5.289  12.692  1.00  0.00     0.171 C 
HETATM   17  C12 UNL     1      -3.821   4.597  13.826  1.00  0.00     0.295 C 
HETATM   18  N8  UNL     1      -4.307   3.286  14.038  1.00  0.00     0.119 N 
HETATM   19  C18 UNL     1      -4.197   2.472  12.839  1.00  0.00     0.295 C 
HETATM   20  C19 UNL     1      -4.926   3.063  11.687  1.00  0.00     0.171 C 
BRANCH  18  21
HETATM   21  C13 UNL     1      -5.536   3.116  14.715  1.00  0.00     0.542 C 
BRANCH  21  22
HETATM   22  N9  UNL     1      -5.259   2.900  16.145  1.00  0.00     0.119 N 
HETATM   23  C14 UNL     1      -4.246   1.872  16.284  1.00  0.00     0.302 C 
HETATM   24  C15 UNL     1      -4.817   0.472  16.337  1.00  0.00     0.262 C 
HETATM   25  N10 UNL     1      -5.704   0.315  17.486  1.00  0.00    -0.072 N 
HETATM   26  C16 UNL     1      -6.106   1.631  17.991  1.00  0.00     0.262 C 
ATOM     27 2H10 UNL     1      -6.508  -0.275  17.272  1.00  0.00     0.277 HD
ATOM     28 1H10 UNL     1      -5.287  -0.263  18.216  1.00  0.00     0.277 HD
HETATM   29  C17 UNL     1      -6.489   2.494  16.815  1.00  0.00     0.302 C 
ENDBRANCH  21  22
ENDBRANCH  18  21
ENDBRANCH  11  15
BRANCH  10  30
HETATM   30  N5  UNL     1      -2.233   4.363  10.109  1.00  0.00    -0.241 N 
HETATM   31  C8  UNL     1      -1.271   5.053  10.861  1.00  0.00     0.278 C 
HETATM   32  O3  UNL     1      -1.400   6.316  11.105  1.00  0.00    -0.265 OA
ATOM     33  H5  UNL     1      -2.112   3.356  10.000  1.00  0.00     0.191 HD
BRANCH  31  34
HETATM   34  C9  UNL     1      -0.066   4.433  11.420  1.00  0.00     0.189 C 
HETATM   35  N6  UNL     1       0.047   3.270  11.843  1.00  0.00    -0.275 N 
ATOM     36  H6  UNL     1       0.989   3.075  12.184  1.00  0.00     0.193 HD
BRANCH  35  37
HETATM   37  O4  UNL     1      -0.747   2.231  11.960  1.00  0.00    -0.290 OA
ATOM     38  H4  UNL     1      -0.743   1.335  11.646  1.00  0.00     0.244 HD
ENDBRANCH  35  37
ENDBRANCH  31  34
ENDBRANCH  10  30
BRANCH   9  39
HETATM   39  N3  UNL     1      -2.314   5.300   7.487  1.00  0.00    -0.407 NA
HETATM   40  C7  UNL     1      -1.114   4.936   6.987  1.00  0.00     0.231 C 
ENDBRANCH   9  39
BRANCH   1  41
HETATM   41  C2  UNL     1      -7.589   7.390   8.980  1.00  0.00     0.131 C 
HETATM   42  C1  UNL     1      -7.312   8.509   9.968  1.00  0.00     0.027 C 
ENDBRANCH   1  41
TORSDOF 8
ENDMDL
MODEL 3
REMARK VINA RESULT: -7.099868577      5.639      8.333
REMARK  8 active torsions:
REMARK  status: ('A' for Active; 'I' for Inactive)
REMARK    1  A    between atoms: C2_2  and  N1_3 
REMARK    2  A    between atoms: C6_11  and  N3_12 
REMARK    3  A    between atoms: N4_14  and  N5_15 
REMARK       I    between atoms: N5_15  and  C8_17 
REMARK    4  A    between atoms: C8_17  and  C9_19 
REMARK    5  A    between atoms: N6_20  and  O4_22 
REMARK    6  A    between atoms: C10_24  and  N7_25 
REMARK    7  A    between atoms: N8_28  and  C13_29 
REMARK    8  A    between atoms: C13_29  and  N9_30 
ROOT
HETATM    1  N1  UNL     1       0.482   8.672  12.398  1.00  0.00    -0.284 N 
HETATM    2  C3  UNL     1       1.608   9.164  11.863  1.00  0.00     0.331 A 
HETATM    3  O1  UNL     1       1.825  10.389  12.023  1.00  0.00    -0.246 OA
HETATM    4  N2  UNL     1       2.490   8.430  11.187  1.00  0.00    -0.274 N 
ATOM      5  H2  UNL     1       3.334   8.852  10.799  1.00  0.00     0.173 HD
HETATM    6  C4  UNL     1       2.234   7.095  11.025  1.00  0.00     0.268 A 
HETATM    7  O2  UNL     1       3.030   6.367  10.399  1.00  0.00    -0.267 OA
HETATM    8  C5  UNL     1       1.086   6.557  11.561  1.00  0.00     0.137 A 
HETATM    9  C6  UNL     1       0.821   5.177  11.394  1.00  0.00     0.235 A 
HETATM   10  N4  UNL     1      -0.311   4.702  11.946  1.00  0.00    -0.053 N 
HETATM   11  C10 UNL     1      -1.195   5.500  12.633  1.00  0.00     0.706 A 
HETATM   12  N11 UNL     1      -0.893   6.802  12.756  1.00  0.00    -0.173 N 
ATOM     13  H11 UNL     1      -1.545   7.400  13.265  1.00  0.00     0.186 HD
HETATM   14  C20 UNL     1       0.207   7.360  12.253  1.00  0.00     0.148 A 
ENDROOT
BRANCH  11  15
HETATM   15  N7  UNL     1      -2.405   4.985  13.202  1.00  0.00    -0.212 N 
HETATM   16  C11 UNL     1      -3.445   4.642  12.286  1.00  0.00     0.171 C 
HETATM   17  C12 UNL     1      -4.796   4.930  12.826  1.00  0.00     0.295 C 
HETATM   18  N8  UNL     1      -4.959   4.517  14.168  1.00  0.00     0.119 N 
HETATM   19  C18 UNL     1      -3.951   5.101  15.037  1.00  0.00     0.295 C 
HETATM   20  C19 UNL     1      -2.569   4.763  14.606  1.00  0.00     0.171 C 
BRANCH  18  21
HETATM   21  C13 UNL     1      -5.198   3.149  14.436  1.00  0.00     0.542 C 
BRANCH  21  22
HETATM   22  N9  UNL     1      -5.023   2.915  15.880  1.00  0.00     0.119 N 
HETATM   23  C14 UNL     1      -4.074   1.837  16.076  1.00  0.00     0.302 C 
HETATM   24  C15 UNL     1      -4.718   0.468  16.084  1.00  0.00     0.262 C 
HETATM   25  N10 UNL     1      -5.682   0.353  17.175  1.00  0.00    -0.072 N 
HETATM   26  C16 UNL     1      -6.047   1.687  17.661  1.00  0.00     0.262 C 
ATOM     27 2H10 UNL     1      -6.500  -0.195  16.908  1.00  0.00     0.277 HD
ATOM     28 1H10 UNL     1      -5.341  -0.248  17.925  1.00  0.00     0.277 HD
HETATM   29  C17 UNL     1      -6.312   2.570  16.469  1.00  0.00     0.302 C 
ENDBRANCH  21  22
ENDBRANCH  18  21
ENDBRANCH  11  15
BRANCH  10  30
HETATM   30  N5  UNL     1      -0.504   3.326  12.034  1.00  0.00    -0.241 N 
HETATM   31  C8  UNL     1      -1.126   2.536  11.056  1.00  0.00     0.278 C 
HETATM   32  O3  UNL     1      -1.511   3.050   9.934  1.00  0.00    -0.265 OA
ATOM     33  H5  UNL     1      -0.166   2.856  12.874  1.00  0.00     0.191 HD
BRANCH  31  34
HETATM   34  C9  UNL     1      -1.397   1.104  11.208  1.00  0.00     0.189 C 
HETATM   35  N6  UNL     1      -2.380   0.480  10.773  1.00  0.00    -0.275 N 
ATOM     36  H6  UNL     1      -2.342  -0.512  11.011  1.00  0.00     0.193 HD
BRANCH  35  37
HETATM   37  O4  UNL     1      -3.455   0.783  10.084  1.00  0.00    -0.290 OA
ATOM     38  H4  UNL     1      -3.965   0.365   9.400  1.00  0.00     0.244 HD
ENDBRANCH  35  37
ENDBRANCH  31  34
ENDBRANCH  10  30
BRANCH   9  39
HETATM   39  N3  UNL     1       1.552   4.573  10.626  1.00  0.00    -0.407 NA
HETATM   40  C7  UNL     1       1.957   3.695   9.684  1.00  0.00     0.231 C 
ENDBRANCH   9  39
BRANCH   1  41
HETATM   41  C2  UNL     1      -0.448   9.482  13.141  1.00  0.00     0.131 C 
HETATM   42  C1  UNL     1       0.028   9.536  14.581  1.00  0.00     0.027 C 
ENDBRANCH   1  41
TORSDOF 8
ENDMDL
MODEL 4
REMARK VINA RESULT: -6.950073336      2.606      7.995
REMARK  8 active torsions:
REMARK  status: ('A' for Active; 'I' for Inactive)
REMARK    1  A    between atoms: C2_2  and  N1_3 
REMARK    2  A    between atoms: C6_11  and  N3_12 
REMARK    3  A    between atoms: N4_14  and  N5_15 
REMARK       I    between atoms: N5_15  and  C8_17 
REMARK    4  A    between atoms: C8_17  and  C9_19 
REMARK    5  A    between atoms: N6_20  and  O4_22 
REMARK    6  A    between atoms: C10_24  and  N7_25 
REMARK    7  A    between atoms: N8_28  and  C13_29 
REMARK    8  A    between atoms: C13_29  and  N9_30 
ROOT
HETATM    1  N1  UNL     1      -6.233   6.994   8.087  1.00  0.00    -0.284 N 
HETATM    2  C3  UNL     1      -6.029   7.576   6.898  1.00  0.00     0.331 A 
HETATM    3  O1  UNL     1      -6.998   8.195   6.396  1.00  0.00    -0.246 OA
HETATM    4  N2  UNL     1      -4.873   7.532   6.239  1.00  0.00    -0.274 N 
ATOM      5  H2  UNL     1      -4.768   7.993   5.335  1.00  0.00     0.173 HD
HETATM    6  C4  UNL     1      -3.829   6.852   6.806  1.00  0.00     0.268 A 
HETATM    7  O2  UNL     1      -2.727   6.782   6.226  1.00  0.00    -0.267 OA
HETATM    8  C5  UNL     1      -4.003   6.240   8.026  1.00  0.00     0.137 A 
HETATM    9  C6  UNL     1      -2.925   5.536   8.613  1.00  0.00     0.235 A 
HETATM   10  N4  UNL     1      -3.148   4.967   9.811  1.00  0.00    -0.053 N 
HETATM   11  C10 UNL     1      -4.362   5.035  10.453  1.00  0.00     0.706 A 
HETATM   12  N11 UNL     1      -5.350   5.713   9.847  1.00  0.00    -0.173 N 
ATOM     13  H11 UNL     1      -6.253   5.768  10.318  1.00  0.00     0.186 HD
HETATM   14  C20 UNL     1      -5.220   6.317   8.667  1.00  0.00     0.148 A 
ENDROOT
BRANCH  11  15
HETATM   15  N7  UNL     1      -4.591   4.410  11.721  1.00  0.00    -0.212 N 
HETATM   16  C11 UNL     1      -4.285   5.187  12.879  1.00  0.00     0.171 C 
HETATM   17  C12 UNL     1      -3.739   4.365  13.987  1.00  0.00     0.295 C 
HETATM   18  N8  UNL     1      -4.450   3.160  14.191  1.00  0.00     0.119 N 
HETATM   19  C18 UNL     1      -4.514   2.363  12.977  1.00  0.00     0.295 C 
HETATM   20  C19 UNL     1      -5.148   3.098  11.851  1.00  0.00     0.171 C 
BRANCH  18  21
HETATM   21  C13 UNL     1      -5.676   3.202  14.894  1.00  0.00     0.542 C 
BRANCH  21  22
HETATM   22  N9  UNL     1      -5.410   2.943  16.319  1.00  0.00     0.119 N 
HETATM   23  C14 UNL     1      -4.410   1.900  16.434  1.00  0.00     0.302 C 
HETATM   24  C15 UNL     1      -4.997   0.506  16.444  1.00  0.00     0.262 C 
HETATM   25  N10 UNL     1      -5.892   0.327  17.584  1.00  0.00    -0.072 N 
HETATM   26  C16 UNL     1      -6.281   1.633  18.123  1.00  0.00     0.262 C 
ATOM     27 2H10 UNL     1      -6.702  -0.247  17.349  1.00  0.00     0.277 HD
ATOM     28 1H10 UNL     1      -5.486  -0.276  18.299  1.00  0.00     0.277 HD
HETATM   29  C17 UNL     1      -6.648   2.532  16.970  1.00  0.00     0.302 C 
ENDBRANCH  21  22
ENDBRANCH  18  21
ENDBRANCH  11  15
BRANCH  10  30
HETATM   30  N5  UNL     1      -2.072   4.480  10.548  1.00  0.00    -0.241 N 
HETATM   31  C8  UNL     1      -1.748   3.125  10.703  1.00  0.00     0.278 C 
HETATM   32  O3  UNL     1      -2.418   2.208  10.085  1.00  0.00    -0.265 OA
ATOM     33  H5  UNL     1      -1.472   5.163  11.011  1.00  0.00     0.191 HD
BRANCH  31  34
HETATM   34  C9  UNL     1      -0.662   2.632  11.555  1.00  0.00     0.189 C 
HETATM   35  N6  UNL     1       0.166   3.317  12.180  1.00  0.00    -0.275 N 
ATOM     36  H6  UNL     1       0.826   2.740  12.702  1.00  0.00     0.193 HD
BRANCH  35  37
HETATM   37  O4  UNL     1       0.400   4.599  12.333  1.00  0.00    -0.290 OA
ATOM     38  H4  UNL     1       0.309   5.227  13.039  1.00  0.00     0.244 HD
ENDBRANCH  35  37
ENDBRANCH  31  34
ENDBRANCH  10  30
BRANCH   9  39
HETATM   39  N3  UNL     1      -1.942   5.366   7.910  1.00  0.00    -0.407 NA
HETATM   40  C7  UNL     1      -0.773   4.863   7.462  1.00  0.00     0.231 C 
ENDBRANCH   9  39
BRANCH   1  41
HETATM   41  C2  UNL     1      -7.487   7.070   8.790  1.00  0.00     0.131 C 
HETATM   42  C1  UNL     1      -7.433   8.276   9.712  1.00  0.00     0.027 C 
ENDBRANCH   1  41
TORSDOF 8
ENDMDL
MODEL 5
REMARK VINA RESULT: -6.680606050      1.170      1.606
REMARK  8 active torsions:
REMARK  status: ('A' for Active; 'I' for Inactive)
REMARK    1  A    between atoms: C2_2  and  N1_3 
REMARK    2  A    between atoms: C6_11  and  N3_12 
REMARK    3  A    between atoms: N4_14  and  N5_15 
REMARK       I    between atoms: N5_15  and  C8_17 
REMARK    4  A    between atoms: C8_17  and  C9_19 
REMARK    5  A    between atoms: N6_20  and  O4_22 
REMARK    6  A    between atoms: C10_24  and  N7_25 
REMARK    7  A    between atoms: N8_28  and  C13_29 
REMARK    8  A    between atoms: C13_29  and  N9_30 
ROOT
HETATM    1  N1  UNL     1      -5.343   3.555  13.413  1.00  0.00    -0.284 N 
HETATM    2  C3  UNL     1      -4.728   2.493  13.952  1.00  0.00     0.331 A 
HETATM    3  O1  UNL     1      -5.244   2.003  14.986  1.00  0.00    -0.246 OA
HETATM    4  N2  UNL     1      -3.621   1.946  13.455  1.00  0.00    -0.274 N 
ATOM      5  H2  UNL     1      -3.190   1.137  13.903  1.00  0.00     0.173 HD
HETATM    6  C4  UNL     1      -3.076   2.497  12.326  1.00  0.00     0.268 A 
HETATM    7  O2  UNL     1      -2.040   2.020  11.823  1.00  0.00    -0.267 OA
HETATM    8  C5  UNL     1      -3.681   3.588  11.746  1.00  0.00     0.137 A 
HETATM    9  C6  UNL     1      -3.119   4.159  10.580  1.00  0.00     0.235 A 
HETATM   10  N4  UNL     1      -3.757   5.218  10.050  1.00  0.00    -0.053 N 
HETATM   11  C10 UNL     1      -4.897   5.753  10.602  1.00  0.00     0.706 A 
HETATM   12  N11 UNL     1      -5.383   5.173  11.711  1.00  0.00    -0.173 N 
ATOM     13  H11 UNL     1      -6.229   5.564  12.126  1.00  0.00     0.186 HD
HETATM   14  C20 UNL     1      -4.826   4.116  12.301  1.00  0.00     0.148 A 
ENDROOT
BRANCH  11  15
HETATM   15  N7  UNL     1      -5.558   6.891  10.036  1.00  0.00    -0.212 N 
HETATM   16  C11 UNL     1      -4.999   8.169  10.341  1.00  0.00     0.171 C 
HETATM   17  C12 UNL     1      -6.034   9.220  10.495  1.00  0.00     0.295 C 
HETATM   18  N8  UNL     1      -7.027   9.176   9.490  1.00  0.00     0.119 N 
HETATM   19  C18 UNL     1      -7.663   7.871   9.420  1.00  0.00     0.295 C 
HETATM   20  C19 UNL     1      -6.686   6.780   9.164  1.00  0.00     0.171 C 
BRANCH  18  21
HETATM   21  C13 UNL     1      -6.735   9.720   8.218  1.00  0.00     0.542 C 
BRANCH  21  22
HETATM   22  N9  UNL     1      -7.981   9.781   7.435  1.00  0.00     0.119 N 
HETATM   23  C14 UNL     1      -7.656   9.814   6.023  1.00  0.00     0.302 C 
HETATM   24  C15 UNL     1      -7.431  11.214   5.494  1.00  0.00     0.262 C 
HETATM   25  N10 UNL     1      -8.635  12.026   5.644  1.00  0.00    -0.072 N 
HETATM   26  C16 UNL     1      -9.538  11.405   6.618  1.00  0.00     0.262 C 
ATOM     27 2H10 UNL     1      -8.418  12.993   5.886  1.00  0.00     0.277 HD
ATOM     28 1H10 UNL     1      -9.096  12.197   4.750  1.00  0.00     0.277 HD
HETATM   29  C17 UNL     1      -8.726  10.977   7.813  1.00  0.00     0.302 C 
ENDBRANCH  21  22
ENDBRANCH  18  21
ENDBRANCH  11  15
BRANCH  10  30
HETATM   30  N5  UNL     1      -3.403   5.664   8.779  1.00  0.00    -0.241 N 
HETATM   31  C8  UNL     1      -3.847   5.101   7.574  1.00  0.00     0.278 C 
HETATM   32  O3  UNL     1      -4.708   4.135   7.571  1.00  0.00    -0.265 OA
ATOM     33  H5  UNL     1      -2.770   6.462   8.721  1.00  0.00     0.191 HD
BRANCH  31  34
HETATM   34  C9  UNL     1      -3.391   5.530   6.249  1.00  0.00     0.189 C 
HETATM   35  N6  UNL     1      -2.216   5.609   5.853  1.00  0.00    -0.275 N 
ATOM     36  H6  UNL     1      -2.156   5.936   4.889  1.00  0.00     0.193 HD
BRANCH  35  37
HETATM   37  O4  UNL     1      -1.033   5.374   6.371  1.00  0.00    -0.290 OA
ATOM     38  H4  UNL     1      -0.688   4.803   7.047  1.00  0.00     0.244 HD
ENDBRANCH  35  37
ENDBRANCH  31  34
ENDBRANCH  10  30
BRANCH   9  39
HETATM   39  N3  UNL     1      -2.017   3.748  10.253  1.00  0.00    -0.407 NA
HETATM   40  C7  UNL     1      -0.778   3.724   9.720  1.00  0.00     0.231 C 
ENDBRANCH   9  39
BRANCH   1  41
HETATM   41  C2  UNL     1      -6.551   4.119  13.959  1.00  0.00     0.131 C 
HETATM   42  C1  UNL     1      -6.154   5.119  15.031  1.00  0.00     0.027 C 
ENDBRANCH   1  41
TORSDOF 8
ENDMDL
