MODEL 1
REMARK VINA RESULT: -8.714380664      0.000      0.000
REMARK  9 active torsions:
REMARK  status: ('A' for Active; 'I' for Inactive)
REMARK    1  A    between atoms: N2_7  and  C4_8 
REMARK    2  A    between atoms: C4_8  and  C5_9 
REMARK    3  A    between atoms: C8_12  and  N3_13 
REMARK    4  A    between atoms: C11_22  and  C12_23 
REMARK       I    between atoms: C12_23  and  N6_25 
REMARK    5  A    between atoms: N6_25  and  C13_27 
REMARK    6  A    between atoms: C13_27  and  C14_28 
REMARK    7  A    between atoms: C15_29  and  C16_30 
REMARK    8  A    between atoms: C16_30  and  N7_31 
REMARK    9  A    between atoms: N7_31  and  C17_33 
ROOT
HETATM    1  O1  UNL     1      -3.281   1.128  10.175  1.00  0.00    -0.271 OA
HETATM    2  C1  UNL     1      -3.191   2.248  10.644  1.00  0.00     0.241 C 
HETATM    3  C2  UNL     1      -4.437   3.089  10.570  1.00  0.00     0.257 C 
HETATM    4  N1  UNL     1      -4.428   3.898  11.784  1.00  0.00    -0.227 N 
HETATM    5  C3  UNL     1      -5.410   3.864  12.675  1.00  0.00     0.348 A 
HETATM    6  O2  UNL     1      -6.495   3.219  12.683  1.00  0.00    -0.245 OA
HETATM    7  N2  UNL     1      -5.088   4.703  13.704  1.00  0.00    -0.243 N 
HETATM    8  C9  UNL     1      -3.894   5.218  13.375  1.00  0.00     0.348 A 
HETATM    9  O5  UNL     1      -3.227   6.050  14.061  1.00  0.00    -0.245 OA
HETATM   10  N5  UNL     1      -3.481   4.712  12.172  1.00  0.00    -0.233 N 
HETATM   11  C10 UNL     1      -2.202   5.112  11.565  1.00  0.00     0.197 C 
HETATM   12  C11 UNL     1      -1.388   3.985  11.038  1.00  0.00     0.150 A 
HETATM   13  C20 UNL     1      -0.703   3.026  11.885  1.00  0.00     0.170 A 
HETATM   14  N10 UNL     1      -1.986   2.691  11.215  1.00  0.00    -0.326 N 
ENDROOT
BRANCH  12  15
HETATM   15  C12 UNL     1      -0.739   4.204   9.694  1.00  0.00     0.250 C 
HETATM   16  O6  UNL     1      -1.467   4.520   8.716  1.00  0.00    -0.271 OA
HETATM   17  N6  UNL     1       0.640   4.087   9.456  1.00  0.00    -0.348 N 
ATOM     18  H6  UNL     1       1.244   3.824  10.235  1.00  0.00     0.163 HD
BRANCH  17  19
HETATM   19  C13 UNL     1       1.241   4.317   8.181  1.00  0.00     0.217 C 
BRANCH  19  20
HETATM   20  C14 UNL     1       2.600   3.818   8.072  1.00  0.00    -0.085 C 
HETATM   21  C15 UNL     1       3.727   3.398   8.014  1.00  0.00    -0.085 C 
BRANCH  21  22
HETATM   22  C16 UNL     1       5.088   2.871   7.975  1.00  0.00     0.217 C 
BRANCH  22  23
HETATM   23  N7  UNL     1       5.513   2.438   6.677  1.00  0.00    -0.352 N 
ATOM     24  H7  UNL     1       5.911   3.104   6.016  1.00  0.00     0.163 HD
BRANCH  23  25
HETATM   25  C17 UNL     1       5.373   1.051   6.319  1.00  0.00     0.171 C 
HETATM   26  N8  UNL     1       6.028   0.059   6.809  1.00  0.00    -0.361 N 
HETATM   27  C18 UNL     1       5.646  -1.204   6.232  1.00  0.00     0.142 C 
ATOM     28  H8  UNL     1       6.743   0.156   7.531  1.00  0.00     0.162 HD
HETATM   29  C19 UNL     1       4.923  -0.776   4.950  1.00  0.00     0.142 C 
HETATM   30  N9  UNL     1       4.466   0.536   5.353  1.00  0.00    -0.361 N 
ATOM     31  H9  UNL     1       3.634   1.011   5.004  1.00  0.00     0.162 HD
ENDBRANCH  23  25
ENDBRANCH  22  23
ENDBRANCH  21  22
ENDBRANCH  19  20
ENDBRANCH  17  19
ENDBRANCH  12  15
BRANCH   7  32
HETATM   32  C4  UNL     1      -5.846   4.983  14.894  1.00  0.00     0.195 C 
BRANCH  32  33
HETATM   33  C5  UNL     1      -6.040   3.785  15.740  1.00  0.00     0.029 A 
HETATM   34  C6  UNL     1      -6.777   3.675  16.886  1.00  0.00     0.030 A 
HETATM   35  C7  UNL     1      -6.703   2.389  17.369  1.00  0.00     0.057 A 
HETATM   36  C8  UNL     1      -5.891   1.691  16.485  1.00  0.00     0.174 A 
HETATM   37  N4  UNL     1      -5.520   2.568  15.528  1.00  0.00    -0.340 N 
ATOM     38  H4  UNL     1      -4.917   2.334  14.739  1.00  0.00     0.167 HD
BRANCH  36  39
HETATM   39  N3  UNL     1      -5.564   0.320  16.610  1.00  0.00    -0.098 N 
HETATM   40  O3  UNL     1      -5.917  -0.304  17.619  1.00  0.00    -0.531 OA
HETATM   41  O4  UNL     1      -4.867  -0.345  15.636  1.00  0.00    -0.531 OA
ENDBRANCH  36  39
ENDBRANCH  32  33
ENDBRANCH   7  32
TORSDOF 9
ENDMDL
MODEL 2
REMARK VINA RESULT: -8.711398507      1.977      3.549
REMARK  9 active torsions:
REMARK  status: ('A' for Active; 'I' for Inactive)
REMARK    1  A    between atoms: N2_7  and  C4_8 
REMARK    2  A    between atoms: C4_8  and  C5_9 
REMARK    3  A    between atoms: C8_12  and  N3_13 
REMARK    4  A    between atoms: C11_22  and  C12_23 
REMARK       I    between atoms: C12_23  and  N6_25 
REMARK    5  A    between atoms: N6_25  and  C13_27 
REMARK    6  A    between atoms: C13_27  and  C14_28 
REMARK    7  A    between atoms: C15_29  and  C16_30 
REMARK    8  A    between atoms: C16_30  and  N7_31 
REMARK    9  A    between atoms: N7_31  and  C17_33 
ROOT
HETATM    1  O1  UNL     1       0.345   7.400   9.243  1.00  0.00    -0.271 OA
HETATM    2  C1  UNL     1       0.079   6.286   9.657  1.00  0.00     0.241 C 
HETATM    3  C2  UNL     1      -0.390   6.214  11.085  1.00  0.00     0.257 C 
HETATM    4  N1  UNL     1      -1.369   5.133  11.115  1.00  0.00    -0.227 N 
HETATM    5  C3  UNL     1      -2.624   5.313  11.502  1.00  0.00     0.348 A 
HETATM    6  O2  UNL     1      -3.217   6.344  11.926  1.00  0.00    -0.245 OA
HETATM    7  N2  UNL     1      -3.287   4.124  11.384  1.00  0.00    -0.243 N 
HETATM    8  C9  UNL     1      -2.374   3.258  10.919  1.00  0.00     0.348 A 
HETATM    9  O5  UNL     1      -2.571   2.032  10.665  1.00  0.00    -0.245 OA
HETATM   10  N5  UNL     1      -1.172   3.892  10.750  1.00  0.00    -0.233 N 
HETATM   11  C10 UNL     1       0.014   3.176  10.254  1.00  0.00     0.197 C 
HETATM   12  C11 UNL     1       0.769   3.892   9.192  1.00  0.00     0.150 A 
HETATM   13  C20 UNL     1       0.283   4.055   7.834  1.00  0.00     0.170 A 
HETATM   14  N10 UNL     1       0.210   5.162   8.822  1.00  0.00    -0.326 N 
ENDROOT
BRANCH  12  15
HETATM   15  C12 UNL     1       2.273   3.874   9.317  1.00  0.00     0.250 C 
HETATM   16  O6  UNL     1       2.787   4.066  10.451  1.00  0.00    -0.271 OA
HETATM   17  N6  UNL     1       3.150   3.646   8.244  1.00  0.00    -0.348 N 
ATOM     18  H6  UNL     1       2.751   3.495   7.317  1.00  0.00     0.163 HD
BRANCH  17  19
HETATM   19  C13 UNL     1       4.571   3.613   8.384  1.00  0.00     0.217 C 
BRANCH  19  20
HETATM   20  C14 UNL     1       5.190   2.424   7.825  1.00  0.00    -0.085 C 
HETATM   21  C15 UNL     1       5.689   1.446   7.333  1.00  0.00    -0.085 C 
BRANCH  21  22
HETATM   22  C16 UNL     1       6.290   0.273   6.703  1.00  0.00     0.217 C 
BRANCH  22  23
HETATM   23  N7  UNL     1       5.397  -0.461   5.856  1.00  0.00    -0.352 N 
ATOM     24  H7  UNL     1       4.899   0.009   5.100  1.00  0.00     0.163 HD
BRANCH  23  25
HETATM   25  C17 UNL     1       5.212  -1.870   6.086  1.00  0.00     0.171 C 
HETATM   26  N8  UNL     1       5.977  -2.647   6.767  1.00  0.00    -0.361 N 
HETATM   27  C18 UNL     1       5.506  -4.007   6.802  1.00  0.00     0.142 C 
ATOM     28  H8  UNL     1       6.828  -2.332   7.235  1.00  0.00     0.162 HD
HETATM   29  C19 UNL     1       4.517  -4.044   5.631  1.00  0.00     0.142 C 
HETATM   30  N9  UNL     1       4.130  -2.651   5.595  1.00  0.00    -0.361 N 
ATOM     31  H9  UNL     1       3.232  -2.289   5.271  1.00  0.00     0.162 HD
ENDBRANCH  23  25
ENDBRANCH  22  23
ENDBRANCH  21  22
ENDBRANCH  19  20
ENDBRANCH  17  19
ENDBRANCH  12  15
BRANCH   7  32
HETATM   32  C4  UNL     1      -4.666   3.842  11.681  1.00  0.00     0.195 C 
BRANCH  32  33
HETATM   33  C5  UNL     1      -4.852   3.267  13.032  1.00  0.00     0.029 A 
HETATM   34  C6  UNL     1      -5.615   3.754  14.055  1.00  0.00     0.030 A 
HETATM   35  C7  UNL     1      -5.522   2.921  15.147  1.00  0.00     0.057 A 
HETATM   36  C8  UNL     1      -4.670   1.889  14.773  1.00  0.00     0.174 A 
HETATM   37  N4  UNL     1      -4.297   2.141  13.500  1.00  0.00    -0.340 N 
ATOM     38  H4  UNL     1      -3.668   1.546  12.960  1.00  0.00     0.167 HD
BRANCH  36  39
HETATM   39  N3  UNL     1      -4.312   0.804  15.608  1.00  0.00    -0.098 N 
HETATM   40  O3  UNL     1      -3.539   0.990  16.556  1.00  0.00    -0.531 OA
HETATM   41  O4  UNL     1      -4.807  -0.456  15.400  1.00  0.00    -0.531 OA
ENDBRANCH  36  39
ENDBRANCH  32  33
ENDBRANCH   7  32
TORSDOF 9
ENDMDL
MODEL 3
REMARK VINA RESULT: -8.659181315      3.923      5.868
REMARK  9 active torsions:
REMARK  status: ('A' for Active; 'I' for Inactive)
REMARK    1  A    between atoms: N2_7  and  C4_8 
REMARK    2  A    between atoms: C4_8  and  C5_9 
REMARK    3  A    between atoms: C8_12  and  N3_13 
REMARK    4  A    between atoms: C11_22  and  C12_23 
REMARK       I    between atoms: C12_23  and  N6_25 
REMARK    5  A    between atoms: N6_25  and  C13_27 
REMARK    6  A    between atoms: C13_27  and  C14_28 
REMARK    7  A    between atoms: C15_29  and  C16_30 
REMARK    8  A    between atoms: C16_30  and  N7_31 
REMARK    9  A    between atoms: N7_31  and  C17_33 
ROOT
HETATM    1  O1  UNL     1      -3.644   1.358  10.091  1.00  0.00    -0.271 OA
HETATM    2  C1  UNL     1      -3.513   2.456  10.601  1.00  0.00     0.241 C 
HETATM    3  C2  UNL     1      -4.753   3.309  10.640  1.00  0.00     0.257 C 
HETATM    4  N1  UNL     1      -4.660   4.065  11.884  1.00  0.00    -0.227 N 
HETATM    5  C3  UNL     1      -5.585   4.001  12.833  1.00  0.00     0.348 A 
HETATM    6  O2  UNL     1      -6.674   3.364  12.882  1.00  0.00    -0.245 OA
HETATM    7  N2  UNL     1      -5.190   4.793  13.874  1.00  0.00    -0.243 N 
HETATM    8  C9  UNL     1      -4.015   5.313  13.493  1.00  0.00     0.348 A 
HETATM    9  O5  UNL     1      -3.298   6.110  14.169  1.00  0.00    -0.245 OA
HETATM   10  N5  UNL     1      -3.683   4.855  12.246  1.00  0.00    -0.233 N 
HETATM   11  C10 UNL     1      -2.440   5.271  11.577  1.00  0.00     0.197 C 
HETATM   12  C11 UNL     1      -1.672   4.162  10.953  1.00  0.00     0.150 A 
HETATM   13  C20 UNL     1      -0.944   3.163  11.714  1.00  0.00     0.170 A 
HETATM   14  N10 UNL     1      -2.270   2.866  11.113  1.00  0.00    -0.326 N 
ENDROOT
BRANCH  12  15
HETATM   15  C12 UNL     1      -1.106   4.433   9.581  1.00  0.00     0.250 C 
HETATM   16  O6  UNL     1      -0.507   3.501   8.980  1.00  0.00    -0.271 OA
HETATM   17  N6  UNL     1      -1.210   5.664   8.914  1.00  0.00    -0.348 N 
ATOM     18  H6  UNL     1      -1.686   6.432   9.389  1.00  0.00     0.163 HD
BRANCH  17  19
HETATM   19  C13 UNL     1      -0.685   5.898   7.606  1.00  0.00     0.217 C 
BRANCH  19  20
HETATM   20  C14 UNL     1      -1.652   6.452   6.675  1.00  0.00    -0.085 C 
HETATM   21  C15 UNL     1      -2.475   6.914   5.928  1.00  0.00    -0.085 C 
BRANCH  21  22
HETATM   22  C16 UNL     1      -3.492   7.484   5.049  1.00  0.00     0.217 C 
BRANCH  22  23
HETATM   23  N7  UNL     1      -4.604   8.069   5.739  1.00  0.00    -0.352 N 
ATOM     24  H7  UNL     1      -4.820   9.059   5.623  1.00  0.00     0.163 HD
BRANCH  23  25
HETATM   25  C17 UNL     1      -5.411   7.242   6.598  1.00  0.00     0.171 C 
HETATM   26  N8  UNL     1      -6.079   6.198   6.256  1.00  0.00    -0.361 N 
HETATM   27  C18 UNL     1      -6.783   5.599   7.360  1.00  0.00     0.142 C 
ATOM     28  H8  UNL     1      -6.107   5.833   5.304  1.00  0.00     0.162 HD
HETATM   29  C19 UNL     1      -6.793   6.726   8.398  1.00  0.00     0.142 C 
HETATM   30  N9  UNL     1      -5.602   7.441   7.993  1.00  0.00    -0.361 N 
ATOM     31  H9  UNL     1      -5.002   7.995   8.604  1.00  0.00     0.162 HD
ENDBRANCH  23  25
ENDBRANCH  22  23
ENDBRANCH  21  22
ENDBRANCH  19  20
ENDBRANCH  17  19
ENDBRANCH  12  15
BRANCH   7  32
HETATM   32  C4  UNL     1      -5.871   5.027  15.120  1.00  0.00     0.195 C 
BRANCH  32  33
HETATM   33  C5  UNL     1      -6.056   3.790  15.909  1.00  0.00     0.029 A 
HETATM   34  C6  UNL     1      -6.792   3.622  17.048  1.00  0.00     0.030 A 
HETATM   35  C7  UNL     1      -6.709   2.314  17.471  1.00  0.00     0.057 A 
HETATM   36  C8  UNL     1      -5.892   1.664  16.555  1.00  0.00     0.174 A 
HETATM   37  N4  UNL     1      -5.527   2.588  15.640  1.00  0.00    -0.340 N 
ATOM     38  H4  UNL     1      -4.923   2.396  14.841  1.00  0.00     0.167 HD
BRANCH  36  39
HETATM   39  N3  UNL     1      -5.555   0.291  16.616  1.00  0.00    -0.098 N 
HETATM   40  O3  UNL     1      -5.916  -0.385  17.587  1.00  0.00    -0.531 OA
HETATM   41  O4  UNL     1      -4.841  -0.319  15.619  1.00  0.00    -0.531 OA
ENDBRANCH  36  39
ENDBRANCH  32  33
ENDBRANCH   7  32
TORSDOF 9
ENDMDL
MODEL 4
REMARK VINA RESULT: -8.602317142      1.992      2.557
REMARK  9 active torsions:
REMARK  status: ('A' for Active; 'I' for Inactive)
REMARK    1  A    between atoms: N2_7  and  C4_8 
REMARK    2  A    between atoms: C4_8  and  C5_9 
REMARK    3  A    between atoms: C8_12  and  N3_13 
REMARK    4  A    between atoms: C11_22  and  C12_23 
REMARK       I    between atoms: C12_23  and  N6_25 
REMARK    5  A    between atoms: N6_25  and  C13_27 
REMARK    6  A    between atoms: C13_27  and  C14_28 
REMARK    7  A    between atoms: C15_29  and  C16_30 
REMARK    8  A    between atoms: C16_30  and  N7_31 
REMARK    9  A    between atoms: N7_31  and  C17_33 
ROOT
HETATM    1  O1  UNL     1      -4.397   3.679   9.089  1.00  0.00    -0.271 OA
HETATM    2  C1  UNL     1      -3.938   4.047  10.155  1.00  0.00     0.241 C 
HETATM    3  C2  UNL     1      -4.481   5.346  10.687  1.00  0.00     0.257 C 
HETATM    4  N1  UNL     1      -4.505   5.188  12.137  1.00  0.00    -0.227 N 
HETATM    5  C3  UNL     1      -5.617   5.300  12.852  1.00  0.00     0.348 A 
HETATM    6  O2  UNL     1      -6.799   5.572  12.502  1.00  0.00    -0.245 OA
HETATM    7  N2  UNL     1      -5.312   5.066  14.163  1.00  0.00    -0.243 N 
HETATM    8  C9  UNL     1      -3.994   4.818  14.178  1.00  0.00     0.348 A 
HETATM    9  O5  UNL     1      -3.298   4.550  15.202  1.00  0.00    -0.245 OA
HETATM   10  N5  UNL     1      -3.490   4.894  12.907  1.00  0.00    -0.233 N 
HETATM   11  C10 UNL     1      -2.062   4.671  12.630  1.00  0.00     0.197 C 
HETATM   12  C11 UNL     1      -1.789   3.779  11.473  1.00  0.00     0.150 A 
HETATM   13  C20 UNL     1      -2.023   2.347  11.491  1.00  0.00     0.170 A 
HETATM   14  N10 UNL     1      -2.967   3.278  10.821  1.00  0.00    -0.326 N 
ENDROOT
BRANCH  12  15
HETATM   15  C12 UNL     1      -0.687   4.217  10.539  1.00  0.00     0.250 C 
HETATM   16  O6  UNL     1      -0.407   5.444  10.470  1.00  0.00    -0.271 OA
HETATM   17  N6  UNL     1       0.064   3.340   9.740  1.00  0.00    -0.348 N 
ATOM     18  H6  UNL     1      -0.154   2.344   9.778  1.00  0.00     0.163 HD
BRANCH  17  19
HETATM   19  C13 UNL     1       1.118   3.770   8.876  1.00  0.00     0.217 C 
BRANCH  19  20
HETATM   20  C14 UNL     1       0.694   4.017   7.510  1.00  0.00    -0.085 C 
HETATM   21  C15 UNL     1       0.374   4.221   6.367  1.00  0.00    -0.085 C 
BRANCH  21  22
HETATM   22  C16 UNL     1       0.018   4.457   4.971  1.00  0.00     0.217 C 
BRANCH  22  23
HETATM   23  N7  UNL     1       0.730   3.637   4.036  1.00  0.00    -0.352 N 
ATOM     24  H7  UNL     1       0.241   3.208   3.250  1.00  0.00     0.163 HD
BRANCH  23  25
HETATM   25  C17 UNL     1       2.142   3.426   4.220  1.00  0.00     0.171 C 
HETATM   26  N8  UNL     1       3.077   4.296   4.070  1.00  0.00    -0.361 N 
HETATM   27  C18 UNL     1       4.387   3.759   4.332  1.00  0.00     0.142 C 
ATOM     28  H8  UNL     1       2.908   5.264   3.796  1.00  0.00     0.162 HD
HETATM   29  C19 UNL     1       4.149   2.248   4.249  1.00  0.00     0.142 C 
HETATM   30  N9  UNL     1       2.748   2.201   4.611  1.00  0.00    -0.361 N 
ATOM     31  H9  UNL     1       2.277   1.421   5.070  1.00  0.00     0.162 HD
ENDBRANCH  23  25
ENDBRANCH  22  23
ENDBRANCH  21  22
ENDBRANCH  19  20
ENDBRANCH  17  19
ENDBRANCH  12  15
BRANCH   7  32
HETATM   32  C4  UNL     1      -6.198   5.072  15.296  1.00  0.00     0.195 C 
BRANCH  32  33
HETATM   33  C5  UNL     1      -6.208   3.782  16.020  1.00  0.00     0.029 A 
HETATM   34  C6  UNL     1      -6.747   3.509  17.245  1.00  0.00     0.030 A 
HETATM   35  C7  UNL     1      -6.547   2.185  17.561  1.00  0.00     0.057 A 
HETATM   36  C8  UNL     1      -5.861   1.632  16.488  1.00  0.00     0.174 A 
HETATM   37  N4  UNL     1      -5.682   2.626  15.591  1.00  0.00    -0.340 N 
ATOM     38  H4  UNL     1      -5.205   2.512  14.697  1.00  0.00     0.167 HD
BRANCH  36  39
HETATM   39  N3  UNL     1      -5.464   0.276  16.403  1.00  0.00    -0.098 N 
HETATM   40  O3  UNL     1      -5.771  -0.509  17.309  1.00  0.00    -0.531 OA
HETATM   41  O4  UNL     1      -4.752  -0.200  15.334  1.00  0.00    -0.531 OA
ENDBRANCH  36  39
ENDBRANCH  32  33
ENDBRANCH   7  32
TORSDOF 9
ENDMDL
MODEL 5
REMARK VINA RESULT: -8.578089144      3.325      4.407
REMARK  9 active torsions:
REMARK  status: ('A' for Active; 'I' for Inactive)
REMARK    1  A    between atoms: N2_7  and  C4_8 
REMARK    2  A    between atoms: C4_8  and  C5_9 
REMARK    3  A    between atoms: C8_12  and  N3_13 
REMARK    4  A    between atoms: C11_22  and  C12_23 
REMARK       I    between atoms: C12_23  and  N6_25 
REMARK    5  A    between atoms: N6_25  and  C13_27 
REMARK    6  A    between atoms: C13_27  and  C14_28 
REMARK    7  A    between atoms: C15_29  and  C16_30 
REMARK    8  A    between atoms: C16_30  and  N7_31 
REMARK    9  A    between atoms: N7_31  and  C17_33 
ROOT
HETATM    1  O1  UNL     1      -4.640   3.472   9.138  1.00  0.00    -0.271 OA
HETATM    2  C1  UNL     1      -4.110   3.866  10.161  1.00  0.00     0.241 C 
HETATM    3  C2  UNL     1      -4.586   5.199  10.672  1.00  0.00     0.257 C 
HETATM    4  N1  UNL     1      -4.530   5.096  12.126  1.00  0.00    -0.227 N 
HETATM    5  C3  UNL     1      -5.594   5.267  12.899  1.00  0.00     0.348 A 
HETATM    6  O2  UNL     1      -6.787   5.560  12.606  1.00  0.00    -0.245 OA
HETATM    7  N2  UNL     1      -5.219   5.073  14.198  1.00  0.00    -0.243 N 
HETATM    8  C9  UNL     1      -3.910   4.788  14.146  1.00  0.00     0.348 A 
HETATM    9  O5  UNL     1      -3.162   4.538  15.139  1.00  0.00    -0.245 OA
HETATM   10  N5  UNL     1      -3.479   4.802  12.847  1.00  0.00    -0.233 N 
HETATM   11  C10 UNL     1      -2.076   4.527  12.497  1.00  0.00     0.197 C 
HETATM   12  C11 UNL     1      -1.895   3.585  11.361  1.00  0.00     0.150 A 
HETATM   13  C20 UNL     1      -2.166   2.162  11.449  1.00  0.00     0.170 A 
HETATM   14  N10 UNL     1      -3.123   3.095  10.798  1.00  0.00    -0.326 N 
ENDROOT
BRANCH  12  15
HETATM   15  C12 UNL     1      -0.839   3.956  10.350  1.00  0.00     0.250 C 
HETATM   16  O6  UNL     1      -0.603   3.159   9.403  1.00  0.00    -0.271 OA
HETATM   17  N6  UNL     1      -0.098   5.149  10.385  1.00  0.00    -0.348 N 
ATOM     18  H6  UNL     1      -0.271   5.803  11.149  1.00  0.00     0.163 HD
BRANCH  17  19
HETATM   19  C13 UNL     1       0.885   5.493   9.408  1.00  0.00     0.217 C 
BRANCH  19  20
HETATM   20  C14 UNL     1       2.251   5.413   9.894  1.00  0.00    -0.085 C 
HETATM   21  C15 UNL     1       3.394   5.350  10.266  1.00  0.00    -0.085 C 
BRANCH  21  22
HETATM   22  C16 UNL     1       4.791   5.287  10.686  1.00  0.00     0.217 C 
BRANCH  22  23
HETATM   23  N7  UNL     1       4.976   5.229  12.106  1.00  0.00    -0.352 N 
ATOM     24  H7  UNL     1       5.022   4.329  12.584  1.00  0.00     0.163 HD
BRANCH  23  25
HETATM   25  C17 UNL     1       5.094   6.456  12.849  1.00  0.00     0.171 C 
HETATM   26  N8  UNL     1       4.312   6.871  13.780  1.00  0.00    -0.361 N 
HETATM   27  C18 UNL     1       4.712   8.144  14.321  1.00  0.00     0.142 C 
ATOM     28  H8  UNL     1       3.494   6.353  14.103  1.00  0.00     0.162 HD
HETATM   29  C19 UNL     1       5.660   8.679  13.242  1.00  0.00     0.142 C 
HETATM   30  N9  UNL     1       6.118   7.428  12.678  1.00  0.00    -0.361 N 
ATOM     31  H9  UNL     1       7.022   7.270  12.233  1.00  0.00     0.162 HD
ENDBRANCH  23  25
ENDBRANCH  22  23
ENDBRANCH  21  22
ENDBRANCH  19  20
ENDBRANCH  17  19
ENDBRANCH  12  15
BRANCH   7  32
HETATM   32  C4  UNL     1      -6.037   5.147  15.379  1.00  0.00     0.195 C 
BRANCH  32  33
HETATM   33  C5  UNL     1      -6.164   3.844  16.067  1.00  0.00     0.029 A 
HETATM   34  C6  UNL     1      -6.871   3.557  17.201  1.00  0.00     0.030 A 
HETATM   35  C7  UNL     1      -6.735   2.224  17.513  1.00  0.00     0.057 A 
HETATM   36  C8  UNL     1      -5.914   1.680  16.534  1.00  0.00     0.174 A 
HETATM   37  N4  UNL     1      -5.599   2.688  15.692  1.00  0.00    -0.340 N 
ATOM     38  H4  UNL     1      -5.004   2.583  14.870  1.00  0.00     0.167 HD
BRANCH  36  39
HETATM   39  N3  UNL     1      -5.528   0.320  16.477  1.00  0.00    -0.098 N 
HETATM   40  O3  UNL     1      -5.812  -0.437  17.414  1.00  0.00    -0.531 OA
HETATM   41  O4  UNL     1      -4.850  -0.190  15.402  1.00  0.00    -0.531 OA
ENDBRANCH  36  39
ENDBRANCH  32  33
ENDBRANCH   7  32
TORSDOF 9
ENDMDL
