MODEL 1
REMARK VINA RESULT: -7.608918865      0.000      0.000
REMARK  8 active torsions:
REMARK  status: ('A' for Active; 'I' for Inactive)
REMARK    1  A    between atoms: C2_2  and  N1_3 
REMARK    2  A    between atoms: C5_9  and  N3_10 
REMARK    3  A    between atoms: N3_10  and  C6_12 
REMARK    4  A    between atoms: C6_12  and  C7_13 
REMARK    5  A    between atoms: C7_13  and  S1_14 
REMARK    6  A    between atoms: S1_14  and  C8_15 
REMARK    7  A    between atoms: N7_21  and  N8_22 
REMARK       I    between atoms: N8_22  and  C9_24 
REMARK    8  A    between atoms: C9_24  and  C10_26 
REMARK       I    between atoms: C10_26  and  N9_28 
ROOT
HETATM    1  C7  UNL     1      -1.596   8.326  82.217  1.00  0.00     0.103 C 
ENDROOT
BRANCH   1   2
HETATM    2  C6  UNL     1      -1.859   7.040  81.430  1.00  0.00     0.148 C 
BRANCH   2   3
HETATM    3  N3  UNL     1      -0.707   6.164  81.533  1.00  0.00    -0.225 N 
ATOM      4  H3  UNL     1       0.122   6.342  80.965  1.00  0.00     0.177 HD
BRANCH   3   5
HETATM    5  C5  UNL     1      -0.732   5.162  82.343  1.00  0.00     0.680 A 
HETATM    6  N2  UNL     1      -1.187   5.248  83.620  1.00  0.00    -0.182 N 
HETATM    7  C4  UNL     1      -1.072   4.027  84.177  1.00  0.00     0.162 A 
ATOM      8  H2  UNL     1      -1.549   6.086  84.074  1.00  0.00     0.184 HD
HETATM    9  C3  UNL     1      -1.375   3.528  85.434  1.00  0.00     0.282 A 
HETATM   10  C12 UNL     1      -0.533   3.148  83.235  1.00  0.00     0.160 A 
HETATM   11  N1  UNL     1      -1.153   2.235  85.729  1.00  0.00    -0.264 N 
HETATM   12  O1  UNL     1      -1.862   4.289  86.311  1.00  0.00    -0.265 OA
HETATM   13  C14 UNL     1      -0.631   1.429  84.785  1.00  0.00     0.332 A 
HETATM   14  N13 UNL     1      -0.320   1.859  83.555  1.00  0.00    -0.287 N 
HETATM   15  O4  UNL     1      -0.429   0.221  85.076  1.00  0.00    -0.246 OA
HETATM   16  C13 UNL     1       0.238   0.942  82.581  1.00  0.00     0.163 C 
HETATM   17  N12 UNL     1      -0.341   3.893  82.124  1.00  0.00    -0.174 N 
ATOM     18  H12 UNL     1       0.045   3.544  81.246  1.00  0.00     0.186 HD
BRANCH  11  19
HETATM   19  C2  UNL     1      -1.479   1.741  87.053  1.00  0.00     0.133 C 
HETATM   20  C1  UNL     1      -2.953   1.410  87.105  1.00  0.00     0.027 C 
ENDBRANCH  11  19
ENDBRANCH   3   5
ENDBRANCH   2   3
ENDBRANCH   1   2
BRANCH   1  21
HETATM   21  S1  UNL     1      -0.100   9.070  81.522  1.00  0.00    -0.088 SA
BRANCH  21  22
HETATM   22  C8  UNL     1       0.866   9.891  82.778  1.00  0.00     0.197 A 
HETATM   23  N4  UNL     1       0.612  11.088  83.294  1.00  0.00    -0.264 N 
HETATM   24  N5  UNL     1       1.542  11.346  84.186  1.00  0.00    -0.223 N 
ATOM     25  H4  UNL     1      -0.165  11.698  83.041  1.00  0.00     0.190 HD
HETATM   26  N6  UNL     1       2.363  10.305  84.215  1.00  0.00     0.019 NA
ATOM     27  H5  UNL     1       1.617  12.191  84.752  1.00  0.00     0.205 HD
HETATM   28  N7  UNL     1       1.977   9.381  83.355  1.00  0.00    -0.151 N 
BRANCH  28  29
HETATM   29  N8  UNL     1       2.572   8.147  83.088  1.00  0.00    -0.240 N 
HETATM   30  C9  UNL     1       2.096   7.002  83.760  1.00  0.00     0.329 C 
HETATM   31  O2  UNL     1       1.153   7.065  84.590  1.00  0.00    -0.261 OA
ATOM     32  H8  UNL     1       3.338   8.074  82.418  1.00  0.00     0.192 HD
BRANCH  30  33
HETATM   33  C10 UNL     1       2.712   5.717  83.486  1.00  0.00     0.317 C 
HETATM   34  O3  UNL     1       2.348   4.671  84.087  1.00  0.00    -0.262 OA
HETATM   35  N9  UNL     1       3.745   5.587  82.536  1.00  0.00    -0.295 N 
HETATM   36  C11 UNL     1       3.739   4.590  81.733  1.00  0.00     0.203 C 
ATOM     37  H9  UNL     1       4.491   6.281  82.489  1.00  0.00     0.171 HD
HETATM   38  N10 UNL     1       4.790   4.481  80.785  1.00  0.00    -0.066 NA
HETATM   39  N11 UNL     1       2.705   3.636  81.806  1.00  0.00    -0.066 NA
ENDBRANCH  30  33
ENDBRANCH  28  29
ENDBRANCH  21  22
ENDBRANCH   1  21
TORSDOF 8
ENDMDL
MODEL 2
REMARK VINA RESULT: -7.455497726      1.927      2.592
REMARK  8 active torsions:
REMARK  status: ('A' for Active; 'I' for Inactive)
REMARK    1  A    between atoms: C2_2  and  N1_3 
REMARK    2  A    between atoms: C5_9  and  N3_10 
REMARK    3  A    between atoms: N3_10  and  C6_12 
REMARK    4  A    between atoms: C6_12  and  C7_13 
REMARK    5  A    between atoms: C7_13  and  S1_14 
REMARK    6  A    between atoms: S1_14  and  C8_15 
REMARK    7  A    between atoms: N7_21  and  N8_22 
REMARK       I    between atoms: N8_22  and  C9_24 
REMARK    8  A    between atoms: C9_24  and  C10_26 
REMARK       I    between atoms: C10_26  and  N9_28 
ROOT
HETATM    1  C7  UNL     1       0.482   7.231  79.865  1.00  0.00     0.103 C 
ENDROOT
BRANCH   1   2
HETATM    2  C6  UNL     1      -0.578   6.244  80.362  1.00  0.00     0.148 C 
BRANCH   2   3
HETATM    3  N3  UNL     1      -0.045   4.895  80.313  1.00  0.00    -0.225 N 
ATOM      4  H3  UNL     1       0.421   4.560  79.470  1.00  0.00     0.177 HD
BRANCH   3   5
HETATM    5  C5  UNL     1      -0.161   4.121  81.339  1.00  0.00     0.680 A 
HETATM    6  N2  UNL     1      -0.549   4.562  82.563  1.00  0.00    -0.182 N 
HETATM    7  C4  UNL     1      -0.564   3.501  83.392  1.00  0.00     0.162 A 
ATOM      8  H2  UNL     1      -0.786   5.522  82.810  1.00  0.00     0.184 HD
HETATM    9  C3  UNL     1      -0.875   3.353  84.735  1.00  0.00     0.282 A 
HETATM   10  C12 UNL     1      -0.177   2.363  82.680  1.00  0.00     0.160 A 
HETATM   11  N1  UNL     1      -0.803   2.147  85.325  1.00  0.00    -0.264 N 
HETATM   12  O1  UNL     1      -1.227   4.354  85.412  1.00  0.00    -0.265 OA
HETATM   13  C14 UNL     1      -0.425   1.082  84.594  1.00  0.00     0.332 A 
HETATM   14  N13 UNL     1      -0.114   1.168  83.293  1.00  0.00    -0.287 N 
HETATM   15  O4  UNL     1      -0.362  -0.041  85.160  1.00  0.00    -0.246 OA
HETATM   16  C13 UNL     1       0.286  -0.016  82.558  1.00  0.00     0.163 C 
HETATM   17  N12 UNL     1       0.060   2.796  81.422  1.00  0.00    -0.174 N 
ATOM     18  H12 UNL     1       0.363   2.205  80.648  1.00  0.00     0.186 HD
BRANCH  11  19
HETATM   19  C2  UNL     1      -1.134   2.022  86.731  1.00  0.00     0.133 C 
HETATM   20  C1  UNL     1      -2.622   1.800  86.869  1.00  0.00     0.027 C 
ENDBRANCH  11  19
ENDBRANCH   3   5
ENDBRANCH   2   3
ENDBRANCH   1   2
BRANCH   1  21
HETATM   21  S1  UNL     1       0.828   8.363  81.233  1.00  0.00    -0.088 SA
BRANCH  21  22
HETATM   22  C8  UNL     1       1.058   7.483  82.768  1.00  0.00     0.197 A 
HETATM   23  N4  UNL     1       0.236   7.513  83.810  1.00  0.00    -0.264 N 
HETATM   24  N5  UNL     1       0.743   6.740  84.744  1.00  0.00    -0.223 N 
ATOM     25  H4  UNL     1      -0.634   8.042  83.874  1.00  0.00     0.190 HD
HETATM   26  N6  UNL     1       1.876   6.237  84.270  1.00  0.00     0.019 NA
ATOM     27  H5  UNL     1       0.340   6.559  85.663  1.00  0.00     0.205 HD
HETATM   28  N7  UNL     1       2.106   6.676  83.046  1.00  0.00    -0.151 N 
BRANCH  28  29
HETATM   29  N8  UNL     1       3.186   6.381  82.212  1.00  0.00    -0.240 N 
HETATM   30  C9  UNL     1       3.391   5.045  81.812  1.00  0.00     0.329 C 
HETATM   31  O2  UNL     1       2.629   4.117  82.185  1.00  0.00    -0.261 OA
ATOM     32  H8  UNL     1       3.815   7.120  81.898  1.00  0.00     0.192 HD
BRANCH  30  33
HETATM   33  C10 UNL     1       4.512   4.733  80.944  1.00  0.00     0.317 C 
HETATM   34  O3  UNL     1       4.347   4.464  79.725  1.00  0.00    -0.262 OA
HETATM   35  N9  UNL     1       5.834   4.718  81.433  1.00  0.00    -0.295 N 
HETATM   36  C11 UNL     1       6.771   5.236  80.730  1.00  0.00     0.203 C 
ATOM     37  H9  UNL     1       6.043   4.298  82.339  1.00  0.00     0.171 HD
HETATM   38  N10 UNL     1       8.093   5.209  81.245  1.00  0.00    -0.066 NA
HETATM   39  N11 UNL     1       6.473   5.814  79.481  1.00  0.00    -0.066 NA
ENDBRANCH  30  33
ENDBRANCH  28  29
ENDBRANCH  21  22
ENDBRANCH   1  21
TORSDOF 8
ENDMDL
MODEL 3
REMARK VINA RESULT: -7.282669292      2.778      3.869
REMARK  8 active torsions:
REMARK  status: ('A' for Active; 'I' for Inactive)
REMARK    1  A    between atoms: C2_2  and  N1_3 
REMARK    2  A    between atoms: C5_9  and  N3_10 
REMARK    3  A    between atoms: N3_10  and  C6_12 
REMARK    4  A    between atoms: C6_12  and  C7_13 
REMARK    5  A    between atoms: C7_13  and  S1_14 
REMARK    6  A    between atoms: S1_14  and  C8_15 
REMARK    7  A    between atoms: N7_21  and  N8_22 
REMARK       I    between atoms: N8_22  and  C9_24 
REMARK    8  A    between atoms: C9_24  and  C10_26 
REMARK       I    between atoms: C10_26  and  N9_28 
ROOT
HETATM    1  C7  UNL     1       0.640   8.149  80.944  1.00  0.00     0.103 C 
ENDROOT
BRANCH   1   2
HETATM    2  C6  UNL     1      -0.346   7.698  82.024  1.00  0.00     0.148 C 
BRANCH   2   3
HETATM    3  N3  UNL     1      -0.970   6.451  81.622  1.00  0.00    -0.225 N 
ATOM      4  H3  UNL     1      -1.422   6.377  80.710  1.00  0.00     0.177 HD
BRANCH   3   5
HETATM    5  C5  UNL     1      -0.951   5.437  82.419  1.00  0.00     0.680 A 
HETATM    6  N2  UNL     1      -1.443   5.475  83.683  1.00  0.00    -0.182 N 
HETATM    7  C4  UNL     1      -1.264   4.257  84.227  1.00  0.00     0.162 A 
ATOM      8  H2  UNL     1      -1.872   6.281  84.138  1.00  0.00     0.184 HD
HETATM    9  C3  UNL     1      -1.566   3.721  85.470  1.00  0.00     0.282 A 
HETATM   10  C12 UNL     1      -0.644   3.428  83.290  1.00  0.00     0.160 A 
HETATM   11  N1  UNL     1      -1.268   2.441  85.754  1.00  0.00    -0.264 N 
HETATM   12  O1  UNL     1      -2.125   4.436  86.343  1.00  0.00    -0.265 OA
HETATM   13  C14 UNL     1      -0.671   1.684  84.814  1.00  0.00     0.332 A 
HETATM   14  N13 UNL     1      -0.356   2.151  83.599  1.00  0.00    -0.287 N 
HETATM   15  O4  UNL     1      -0.398   0.488  85.095  1.00  0.00    -0.246 OA
HETATM   16  C13 UNL     1       0.286   1.287  82.628  1.00  0.00     0.163 C 
HETATM   17  N12 UNL     1      -0.472   4.200  82.194  1.00  0.00    -0.174 N 
ATOM     18  H12 UNL     1      -0.041   3.889  81.322  1.00  0.00     0.186 HD
BRANCH  11  19
HETATM   19  C2  UNL     1      -1.597   1.908  87.062  1.00  0.00     0.133 C 
HETATM   20  C1  UNL     1      -3.025   1.414  87.047  1.00  0.00     0.027 C 
ENDBRANCH  11  19
ENDBRANCH   3   5
ENDBRANCH   2   3
ENDBRANCH   1   2
BRANCH   1  21
HETATM   21  S1  UNL     1       2.302   7.922  81.623  1.00  0.00    -0.088 SA
BRANCH  21  22
HETATM   22  C8  UNL     1       2.567   6.240  82.154  1.00  0.00     0.197 A 
HETATM   23  N4  UNL     1       2.509   5.804  83.407  1.00  0.00    -0.264 N 
HETATM   24  N5  UNL     1       2.759   4.513  83.395  1.00  0.00    -0.223 N 
ATOM     25  H4  UNL     1       2.307   6.369  84.231  1.00  0.00     0.190 HD
HETATM   26  N6  UNL     1       2.969   4.162  82.133  1.00  0.00     0.019 NA
ATOM     27  H5  UNL     1       2.786   3.896  84.206  1.00  0.00     0.205 HD
HETATM   28  N7  UNL     1       2.860   5.207  81.333  1.00  0.00    -0.151 N 
BRANCH  28  29
HETATM   29  N8  UNL     1       3.009   5.251  79.946  1.00  0.00    -0.240 N 
HETATM   30  C9  UNL     1       1.879   5.028  79.133  1.00  0.00     0.329 C 
HETATM   31  O2  UNL     1       0.746   4.791  79.623  1.00  0.00    -0.261 OA
ATOM     32  H8  UNL     1       3.920   5.442  79.528  1.00  0.00     0.192 HD
BRANCH  30  33
HETATM   33  C10 UNL     1       2.029   5.073  77.690  1.00  0.00     0.317 C 
HETATM   34  O3  UNL     1       1.122   5.533  76.947  1.00  0.00    -0.262 OA
HETATM   35  N9  UNL     1       3.198   4.601  77.059  1.00  0.00    -0.295 N 
HETATM   36  C11 UNL     1       3.707   5.272  76.095  1.00  0.00     0.203 C 
ATOM     37  H9  UNL     1       3.635   3.733  77.369  1.00  0.00     0.171 HD
HETATM   38  N10 UNL     1       4.885   4.776  75.478  1.00  0.00    -0.066 NA
HETATM   39  N11 UNL     1       3.098   6.469  75.675  1.00  0.00    -0.066 NA
ENDBRANCH  30  33
ENDBRANCH  28  29
ENDBRANCH  21  22
ENDBRANCH   1  21
TORSDOF 8
ENDMDL
MODEL 4
REMARK VINA RESULT: -7.236195129      2.199      6.833
REMARK  8 active torsions:
REMARK  status: ('A' for Active; 'I' for Inactive)
REMARK    1  A    between atoms: C2_2  and  N1_3 
REMARK    2  A    between atoms: C5_9  and  N3_10 
REMARK    3  A    between atoms: N3_10  and  C6_12 
REMARK    4  A    between atoms: C6_12  and  C7_13 
REMARK    5  A    between atoms: C7_13  and  S1_14 
REMARK    6  A    between atoms: S1_14  and  C8_15 
REMARK    7  A    between atoms: N7_21  and  N8_22 
REMARK       I    between atoms: N8_22  and  C9_24 
REMARK    8  A    between atoms: C9_24  and  C10_26 
REMARK       I    between atoms: C10_26  and  N9_28 
ROOT
HETATM    1  C7  UNL     1      -1.466   7.813  84.677  1.00  0.00     0.103 C 
ENDROOT
BRANCH   1   2
HETATM    2  C6  UNL     1      -0.106   8.399  84.289  1.00  0.00     0.148 C 
BRANCH   2   3
HETATM    3  N3  UNL     1       0.951   7.522  84.757  1.00  0.00    -0.225 N 
ATOM      4  H3  UNL     1       0.929   7.157  85.709  1.00  0.00     0.177 HD
BRANCH   3   5
HETATM    5  C5  UNL     1       1.919   7.204  83.966  1.00  0.00     0.680 A 
HETATM    6  N2  UNL     1       1.935   6.063  83.231  1.00  0.00    -0.182 N 
HETATM    7  C4  UNL     1       3.082   6.049  82.524  1.00  0.00     0.162 A 
ATOM      8  H2  UNL     1       1.211   5.345  83.217  1.00  0.00     0.184 HD
HETATM    9  C3  UNL     1       3.626   5.149  81.621  1.00  0.00     0.282 A 
HETATM   10  C12 UNL     1       3.809   7.205  82.817  1.00  0.00     0.160 A 
HETATM   11  N1  UNL     1       4.819   5.391  81.049  1.00  0.00    -0.264 N 
HETATM   12  O1  UNL     1       3.002   4.095  81.331  1.00  0.00    -0.265 OA
HETATM   13  C14 UNL     1       5.479   6.520  81.366  1.00  0.00     0.332 A 
HETATM   14  N13 UNL     1       5.000   7.423  82.232  1.00  0.00    -0.287 N 
HETATM   15  O4  UNL     1       6.595   6.733  80.822  1.00  0.00    -0.246 OA
HETATM   16  C13 UNL     1       5.758   8.622  82.532  1.00  0.00     0.163 C 
HETATM   17  N12 UNL     1       3.053   7.883  83.709  1.00  0.00    -0.174 N 
ATOM     18  H12 UNL     1       3.304   8.779  84.126  1.00  0.00     0.186 HD
BRANCH  11  19
HETATM   19  C2  UNL     1       5.364   4.432  80.108  1.00  0.00     0.133 C 
HETATM   20  C1  UNL     1       4.985   4.849  78.705  1.00  0.00     0.027 C 
ENDBRANCH  11  19
ENDBRANCH   3   5
ENDBRANCH   2   3
ENDBRANCH   1   2
BRANCH   1  21
HETATM   21  S1  UNL     1      -2.294   7.344  83.138  1.00  0.00    -0.088 SA
BRANCH  21  22
HETATM   22  C8  UNL     1      -1.351   6.132  82.230  1.00  0.00     0.197 A 
HETATM   23  N4  UNL     1      -0.662   6.358  81.119  1.00  0.00    -0.264 N 
HETATM   24  N5  UNL     1      -0.105   5.225  80.754  1.00  0.00    -0.223 N 
ATOM     25  H4  UNL     1      -0.580   7.252  80.634  1.00  0.00     0.190 HD
HETATM   26  N6  UNL     1      -0.455   4.306  81.645  1.00  0.00     0.019 NA
ATOM     27  H5  UNL     1       0.487   5.079  79.936  1.00  0.00     0.205 HD
HETATM   28  N7  UNL     1      -1.229   4.831  82.577  1.00  0.00    -0.151 N 
BRANCH  28  29
HETATM   29  N8  UNL     1      -1.801   4.197  83.681  1.00  0.00    -0.240 N 
HETATM   30  C9  UNL     1      -1.063   4.120  84.880  1.00  0.00     0.329 C 
HETATM   31  O2  UNL     1       0.092   4.607  84.979  1.00  0.00    -0.261 OA
ATOM     32  H8  UNL     1      -2.737   3.796  83.621  1.00  0.00     0.192 HD
BRANCH  30  33
HETATM   33  C10 UNL     1      -1.654   3.462  86.031  1.00  0.00     0.317 C 
HETATM   34  O3  UNL     1      -2.634   3.961  86.644  1.00  0.00    -0.262 OA
HETATM   35  N9  UNL     1      -1.153   2.235  86.510  1.00  0.00    -0.295 N 
HETATM   36  C11 UNL     1      -1.972   1.317  86.867  1.00  0.00     0.203 C 
ATOM     37  H9  UNL     1      -0.147   2.079  86.572  1.00  0.00     0.171 HD
HETATM   38  N10 UNL     1      -1.442   0.090  87.345  1.00  0.00    -0.066 NA
HETATM   39  N11 UNL     1      -3.359   1.541  86.777  1.00  0.00    -0.066 NA
ENDBRANCH  30  33
ENDBRANCH  28  29
ENDBRANCH  21  22
ENDBRANCH   1  21
TORSDOF 8
ENDMDL
MODEL 5
REMARK VINA RESULT: -7.160959151      2.891      4.857
REMARK  8 active torsions:
REMARK  status: ('A' for Active; 'I' for Inactive)
REMARK    1  A    between atoms: C2_2  and  N1_3 
REMARK    2  A    between atoms: C5_9  and  N3_10 
REMARK    3  A    between atoms: N3_10  and  C6_12 
REMARK    4  A    between atoms: C6_12  and  C7_13 
REMARK    5  A    between atoms: C7_13  and  S1_14 
REMARK    6  A    between atoms: S1_14  and  C8_15 
REMARK    7  A    between atoms: N7_21  and  N8_22 
REMARK       I    between atoms: N8_22  and  C9_24 
REMARK    8  A    between atoms: C9_24  and  C10_26 
REMARK       I    between atoms: C10_26  and  N9_28 
ROOT
HETATM    1  C7  UNL     1       3.559   4.680  81.257  1.00  0.00     0.103 C 
ENDROOT
BRANCH   1   2
HETATM    2  C6  UNL     1       3.230   6.052  81.849  1.00  0.00     0.148 C 
BRANCH   2   3
HETATM    3  N3  UNL     1       3.254   5.973  83.298  1.00  0.00    -0.225 N 
ATOM      4  H3  UNL     1       4.087   6.259  83.812  1.00  0.00     0.177 HD
BRANCH   3   5
HETATM    5  C5  UNL     1       2.219   5.541  83.935  1.00  0.00     0.680 A 
HETATM    6  N2  UNL     1       2.208   4.379  84.636  1.00  0.00    -0.182 N 
HETATM    7  C4  UNL     1       0.980   4.235  85.170  1.00  0.00     0.162 A 
ATOM      8  H2  UNL     1       2.989   3.731  84.741  1.00  0.00     0.184 HD
HETATM    9  C3  UNL     1       0.402   3.259  85.967  1.00  0.00     0.282 A 
HETATM   10  C12 UNL     1       0.194   5.328  84.799  1.00  0.00     0.160 A 
HETATM   11  N1  UNL     1      -0.877   3.370  86.366  1.00  0.00    -0.264 N 
HETATM   12  O1  UNL     1       1.077   2.258  86.322  1.00  0.00    -0.265 OA
HETATM   13  C14 UNL     1      -1.591   4.444  85.980  1.00  0.00     0.332 A 
HETATM   14  N13 UNL     1      -1.083   5.416  85.211  1.00  0.00    -0.287 N 
HETATM   15  O4  UNL     1      -2.788   4.534  86.361  1.00  0.00    -0.246 OA
HETATM   16  C13 UNL     1      -1.903   6.549  84.829  1.00  0.00     0.163 C 
HETATM   17  N12 UNL     1       1.000   6.103  84.039  1.00  0.00    -0.174 N 
ATOM     18  H12 UNL     1       0.725   6.986  83.608  1.00  0.00     0.186 HD
BRANCH  11  19
HETATM   19  C2  UNL     1      -1.455   2.334  87.199  1.00  0.00     0.133 C 
HETATM   20  C1  UNL     1      -2.518   1.604  86.411  1.00  0.00     0.027 C 
ENDBRANCH  11  19
ENDBRANCH   3   5
ENDBRANCH   2   3
ENDBRANCH   1   2
BRANCH   1  21
HETATM   21  S1  UNL     1       3.514   4.860  79.457  1.00  0.00    -0.088 SA
BRANCH  21  22
HETATM   22  C8  UNL     1       2.153   5.889  78.936  1.00  0.00     0.197 A 
HETATM   23  N4  UNL     1       2.245   7.143  78.511  1.00  0.00    -0.264 N 
HETATM   24  N5  UNL     1       1.033   7.559  78.220  1.00  0.00    -0.223 N 
ATOM     25  H4  UNL     1       3.105   7.686  78.425  1.00  0.00     0.190 HD
HETATM   26  N6  UNL     1       0.200   6.557  78.468  1.00  0.00     0.019 NA
ATOM     27  H5  UNL     1       0.780   8.483  77.868  1.00  0.00     0.205 HD
HETATM   28  N7  UNL     1       0.857   5.503  78.915  1.00  0.00    -0.151 N 
BRANCH  28  29
HETATM   29  N8  UNL     1       0.344   4.260  79.287  1.00  0.00    -0.240 N 
HETATM   30  C9  UNL     1      -0.144   4.089  80.598  1.00  0.00     0.329 C 
HETATM   31  O2  UNL     1      -0.129   5.026  81.438  1.00  0.00    -0.261 OA
ATOM     32  H8  UNL     1       0.322   3.488  78.620  1.00  0.00     0.192 HD
BRANCH  30  33
HETATM   33  C10 UNL     1      -0.679   2.798  80.990  1.00  0.00     0.317 C 
HETATM   34  O3  UNL     1      -1.308   2.071  80.176  1.00  0.00    -0.262 OA
HETATM   35  N9  UNL     1      -0.517   2.304  82.300  1.00  0.00    -0.295 N 
HETATM   36  C11 UNL     1      -0.215   1.072  82.475  1.00  0.00     0.203 C 
ATOM     37  H9  UNL     1      -0.638   2.923  83.102  1.00  0.00     0.171 HD
HETATM   38  N10 UNL     1      -0.056   0.600  83.804  1.00  0.00    -0.066 NA
HETATM   39  N11 UNL     1      -0.050   0.226  81.362  1.00  0.00    -0.066 NA
ENDBRANCH  30  33
ENDBRANCH  28  29
ENDBRANCH  21  22
ENDBRANCH   1  21
TORSDOF 8
ENDMDL
