MODEL 1
REMARK VINA RESULT: -7.864264747      0.000      0.000
REMARK  8 active torsions:
REMARK  status: ('A' for Active; 'I' for Inactive)
REMARK    1  A    between atoms: C3_5  and  C4_6 
REMARK       I    between atoms: C4_6  and  N2_8 
REMARK    2  A    between atoms: N2_8  and  C5_10 
REMARK    3  A    between atoms: C5_10  and  C6_11 
REMARK    4  A    between atoms: C5_10  and  C9_22 
REMARK       I    between atoms: C6_11  and  N3_13 
REMARK    5  A    between atoms: N3_13  and  N4_15 
REMARK       I    between atoms: N4_15  and  C7_17 
REMARK    6  A    between atoms: C7_17  and  C8_19 
REMARK    7  A    between atoms: C8_19  and  O5_20 
REMARK    8  A    between atoms: C15_28  and  N5_29 
ROOT
HETATM    1  C4  UNL     1       1.292   5.054  80.151  1.00  0.00     0.260 C 
HETATM    2  O2  UNL     1       0.450   4.345  79.565  1.00  0.00    -0.267 OA
HETATM    3  N2  UNL     1       0.833   5.661  81.355  1.00  0.00    -0.339 N 
ATOM      4  H2  UNL     1       1.488   6.255  81.863  1.00  0.00     0.164 HD
ENDROOT
BRANCH   3   5
HETATM    5  C5  UNL     1      -0.489   5.498  81.910  1.00  0.00     0.212 C 
BRANCH   5   6
HETATM    6  C6  UNL     1      -0.612   4.196  82.623  1.00  0.00     0.263 C 
HETATM    7  O3  UNL     1      -1.660   3.537  82.456  1.00  0.00    -0.269 OA
HETATM    8  N3  UNL     1       0.400   3.701  83.460  1.00  0.00    -0.265 N 
ATOM      9  H3  UNL     1       1.259   4.233  83.601  1.00  0.00     0.190 HD
BRANCH   8  10
HETATM   10  N4  UNL     1       0.218   2.464  84.103  1.00  0.00    -0.266 N 
HETATM   11  C7  UNL     1      -0.379   2.353  85.377  1.00  0.00     0.259 C 
HETATM   12  O4  UNL     1      -0.788   3.349  86.028  1.00  0.00    -0.269 OA
ATOM     13  H4  UNL     1       0.529   1.615  83.632  1.00  0.00     0.190 HD
BRANCH  11  14
HETATM   14  C8  UNL     1      -0.541   1.010  86.001  1.00  0.00     0.268 C 
BRANCH  14  15
HETATM   15  O5  UNL     1      -0.450   0.003  85.066  1.00  0.00    -0.392 OA
ATOM     16  H5  UNL     1      -0.945  -0.764  85.328  1.00  0.00     0.210 HD
ENDBRANCH  14  15
ENDBRANCH  11  14
ENDBRANCH   8  10
ENDBRANCH   5   6
BRANCH   5  17
HETATM   17  C9  UNL     1      -0.730   6.568  82.895  1.00  0.00    -0.026 A 
HETATM   18  C10 UNL     1      -2.013   6.940  83.223  1.00  0.00     0.010 A 
HETATM   19  C11 UNL     1      -2.262   7.938  84.154  1.00  0.00     0.001 A 
HETATM   20  C12 UNL     1      -1.195   8.590  84.782  1.00  0.00     0.000 A 
HETATM   21  C13 UNL     1       0.081   8.220  84.456  1.00  0.00     0.001 A 
HETATM   22  C14 UNL     1       0.297   7.222  83.523  1.00  0.00     0.010 A 
ENDBRANCH   5  17
ENDBRANCH   3   5
BRANCH   1  23
HETATM   23  C3  UNL     1       2.612   5.238  79.639  1.00  0.00     0.138 C 
HETATM   24  C2  UNL     1       2.734   5.733  78.321  1.00  0.00     0.269 C 
HETATM   25  N1  UNL     1       3.645   5.389  77.394  1.00  0.00    -0.270 N 
HETATM   26  O1  UNL     1       1.889   6.595  77.983  1.00  0.00    -0.267 OA
HETATM   27  C1  UNL     1       3.341   5.746  76.022  1.00  0.00     0.164 C 
HETATM   28  C18 UNL     1       4.828   4.754  77.600  1.00  0.00     0.333 C 
HETATM   29  N6  UNL     1       5.489   4.444  78.754  1.00  0.00    -0.268 N 
HETATM   30  O9  UNL     1       5.467   4.362  76.597  1.00  0.00    -0.246 OA
HETATM   31  C16 UNL     1       5.046   4.754  79.985  1.00  0.00     0.285 C 
HETATM   32  C17 UNL     1       6.743   3.734  78.651  1.00  0.00     0.164 C 
HETATM   33  C15 UNL     1       3.695   4.918  80.404  1.00  0.00     0.192 C 
HETATM   34  O8  UNL     1       5.917   4.913  80.845  1.00  0.00    -0.265 OA
BRANCH  33  35
HETATM   35  N5  UNL     1       3.497   4.751  81.780  1.00  0.00    -0.109 N 
HETATM   36  O6  UNL     1       3.504   5.656  82.615  1.00  0.00    -0.532 OA
HETATM   37  O7  UNL     1       3.215   3.445  82.191  1.00  0.00    -0.532 OA
ENDBRANCH  33  35
ENDBRANCH   1  23
TORSDOF 8
ENDMDL
MODEL 2
REMARK VINA RESULT: -7.712201156      2.364      3.288
REMARK  8 active torsions:
REMARK  status: ('A' for Active; 'I' for Inactive)
REMARK    1  A    between atoms: C3_5  and  C4_6 
REMARK       I    between atoms: C4_6  and  N2_8 
REMARK    2  A    between atoms: N2_8  and  C5_10 
REMARK    3  A    between atoms: C5_10  and  C6_11 
REMARK    4  A    between atoms: C5_10  and  C9_22 
REMARK       I    between atoms: C6_11  and  N3_13 
REMARK    5  A    between atoms: N3_13  and  N4_15 
REMARK       I    between atoms: N4_15  and  C7_17 
REMARK    6  A    between atoms: C7_17  and  C8_19 
REMARK    7  A    between atoms: C8_19  and  O5_20 
REMARK    8  A    between atoms: C15_28  and  N5_29 
ROOT
HETATM    1  C4  UNL     1       2.435   6.049  81.798  1.00  0.00     0.260 C 
HETATM    2  O2  UNL     1       1.846   6.320  80.732  1.00  0.00    -0.267 OA
HETATM    3  N2  UNL     1       1.632   5.404  82.781  1.00  0.00    -0.339 N 
ATOM      4  H2  UNL     1       2.073   5.170  83.671  1.00  0.00     0.164 HD
ENDROOT
BRANCH   3   5
HETATM    5  C5  UNL     1       0.242   5.056  82.615  1.00  0.00     0.212 C 
BRANCH   5   6
HETATM    6  C6  UNL     1      -0.093   3.818  83.373  1.00  0.00     0.263 C 
HETATM    7  O3  UNL     1      -0.822   2.971  82.815  1.00  0.00    -0.269 OA
HETATM    8  N3  UNL     1       0.380   3.584  84.674  1.00  0.00    -0.265 N 
ATOM      9  H3  UNL     1       0.976   4.271  85.136  1.00  0.00     0.190 HD
BRANCH   8  10
HETATM   10  N4  UNL     1       0.025   2.394  85.333  1.00  0.00    -0.266 N 
HETATM   11  C7  UNL     1      -1.049   2.325  86.245  1.00  0.00     0.259 C 
HETATM   12  O4  UNL     1      -1.763   3.320  86.535  1.00  0.00    -0.269 OA
ATOM     13  H4  UNL     1       0.564   1.549  85.146  1.00  0.00     0.190 HD
BRANCH  11  14
HETATM   14  C8  UNL     1      -1.372   1.031  86.908  1.00  0.00     0.268 C 
BRANCH  14  15
HETATM   15  O5  UNL     1      -2.685   0.671  86.703  1.00  0.00    -0.392 OA
ATOM     16  H5  UNL     1      -2.753  -0.119  86.180  1.00  0.00     0.210 HD
ENDBRANCH  14  15
ENDBRANCH  11  14
ENDBRANCH   8  10
ENDBRANCH   5   6
BRANCH   5  17
HETATM   17  C9  UNL     1      -0.593   6.145  83.152  1.00  0.00    -0.026 A 
HETATM   18  C10 UNL     1      -1.865   6.353  82.671  1.00  0.00     0.010 A 
HETATM   19  C11 UNL     1      -2.670   7.367  83.170  1.00  0.00     0.001 A 
HETATM   20  C12 UNL     1      -2.193   8.205  84.183  1.00  0.00     0.000 A 
HETATM   21  C13 UNL     1      -0.928   7.998  84.661  1.00  0.00     0.001 A 
HETATM   22  C14 UNL     1      -0.148   6.980  84.143  1.00  0.00     0.010 A 
ENDBRANCH   5  17
ENDBRANCH   3   5
BRANCH   1  23
HETATM   23  C3  UNL     1       3.811   6.371  82.002  1.00  0.00     0.138 C 
HETATM   24  C2  UNL     1       4.100   7.526  82.763  1.00  0.00     0.269 C 
HETATM   25  N1  UNL     1       5.095   8.410  82.571  1.00  0.00    -0.270 N 
HETATM   26  O1  UNL     1       3.334   7.747  83.731  1.00  0.00    -0.267 OA
HETATM   27  C1  UNL     1       4.963   9.692  83.238  1.00  0.00     0.164 C 
HETATM   28  C18 UNL     1       6.220   8.232  81.832  1.00  0.00     0.333 C 
HETATM   29  N6  UNL     1       6.734   7.117  81.235  1.00  0.00    -0.268 N 
HETATM   30  O9  UNL     1       6.952   9.229  81.627  1.00  0.00    -0.246 OA
HETATM   31  C16 UNL     1       6.168   5.899  81.298  1.00  0.00     0.285 C 
HETATM   32  C17 UNL     1       7.962   7.249  80.485  1.00  0.00     0.164 C 
HETATM   33  C15 UNL     1       4.787   5.592  81.454  1.00  0.00     0.192 C 
HETATM   34  O8  UNL     1       6.943   4.942  81.209  1.00  0.00    -0.265 OA
BRANCH  33  35
HETATM   35  N5  UNL     1       4.428   4.316  81.004  1.00  0.00    -0.109 N 
HETATM   36  O6  UNL     1       4.053   3.388  81.722  1.00  0.00    -0.532 OA
HETATM   37  O7  UNL     1       4.456   4.138  79.619  1.00  0.00    -0.532 OA
ENDBRANCH  33  35
ENDBRANCH   1  23
TORSDOF 8
ENDMDL
MODEL 3
REMARK VINA RESULT: -7.686642293      3.041      4.631
REMARK  8 active torsions:
REMARK  status: ('A' for Active; 'I' for Inactive)
REMARK    1  A    between atoms: C3_5  and  C4_6 
REMARK       I    between atoms: C4_6  and  N2_8 
REMARK    2  A    between atoms: N2_8  and  C5_10 
REMARK    3  A    between atoms: C5_10  and  C6_11 
REMARK    4  A    between atoms: C5_10  and  C9_22 
REMARK       I    between atoms: C6_11  and  N3_13 
REMARK    5  A    between atoms: N3_13  and  N4_15 
REMARK       I    between atoms: N4_15  and  C7_17 
REMARK    6  A    between atoms: C7_17  and  C8_19 
REMARK    7  A    between atoms: C8_19  and  O5_20 
REMARK    8  A    between atoms: C15_28  and  N5_29 
ROOT
HETATM    1  C4  UNL     1       0.895   6.052  82.924  1.00  0.00     0.260 C 
HETATM    2  O2  UNL     1       0.111   6.269  81.979  1.00  0.00    -0.267 OA
HETATM    3  N2  UNL     1       0.438   5.096  83.876  1.00  0.00    -0.339 N 
ATOM      4  H2  UNL     1       1.047   4.893  84.669  1.00  0.00     0.164 HD
ENDROOT
BRANCH   3   5
HETATM    5  C5  UNL     1      -0.819   4.394  83.804  1.00  0.00     0.212 C 
BRANCH   5   6
HETATM    6  C6  UNL     1      -0.698   3.167  82.967  1.00  0.00     0.263 C 
HETATM    7  O3  UNL     1      -1.659   2.868  82.228  1.00  0.00    -0.269 OA
HETATM    8  N3  UNL     1       0.447   2.355  82.989  1.00  0.00    -0.265 N 
ATOM      9  H3  UNL     1       1.236   2.592  83.590  1.00  0.00     0.190 HD
BRANCH   8  10
HETATM   10  N4  UNL     1       0.495   1.209  82.174  1.00  0.00    -0.266 N 
HETATM   11  C7  UNL     1       0.133  -0.071  82.644  1.00  0.00     0.259 C 
HETATM   12  O4  UNL     1      -0.256  -0.280  83.823  1.00  0.00    -0.269 OA
ATOM     13  H4  UNL     1       0.804   1.307  81.207  1.00  0.00     0.190 HD
BRANCH  11  14
HETATM   14  C8  UNL     1       0.207  -1.241  81.726  1.00  0.00     0.268 C 
BRANCH  14  15
HETATM   15  O5  UNL     1       1.458  -1.815  81.737  1.00  0.00    -0.392 OA
ATOM     16  H5  UNL     1       1.697  -2.117  82.605  1.00  0.00     0.210 HD
ENDBRANCH  14  15
ENDBRANCH  11  14
ENDBRANCH   8  10
ENDBRANCH   5   6
BRANCH   5  17
HETATM   17  C9  UNL     1      -1.210   3.969  85.160  1.00  0.00    -0.026 A 
HETATM   18  C10 UNL     1      -2.195   4.641  85.846  1.00  0.00     0.010 A 
HETATM   19  C11 UNL     1      -2.585   4.252  87.119  1.00  0.00     0.001 A 
HETATM   20  C12 UNL     1      -1.972   3.155  87.733  1.00  0.00     0.000 A 
HETATM   21  C13 UNL     1      -0.992   2.486  87.051  1.00  0.00     0.001 A 
HETATM   22  C14 UNL     1      -0.625   2.898  85.783  1.00  0.00     0.010 A 
ENDBRANCH   5  17
ENDBRANCH   3   5
BRANCH   1  23
HETATM   23  C3  UNL     1       2.152   6.722  83.031  1.00  0.00     0.138 C 
HETATM   24  C2  UNL     1       2.198   7.891  83.824  1.00  0.00     0.269 C 
HETATM   25  N1  UNL     1       2.905   9.011  83.596  1.00  0.00    -0.270 N 
HETATM   26  O1  UNL     1       1.494   7.873  84.861  1.00  0.00    -0.267 OA
HETATM   27  C1  UNL     1       2.504  10.193  84.335  1.00  0.00     0.164 C 
HETATM   28  C18 UNL     1       3.964   9.159  82.759  1.00  0.00     0.333 C 
HETATM   29  N6  UNL     1       4.694   8.236  82.067  1.00  0.00    -0.268 N 
HETATM   30  O9  UNL     1       4.387  10.319  82.545  1.00  0.00    -0.246 OA
HETATM   31  C16 UNL     1       4.475   6.910  82.113  1.00  0.00     0.285 C 
HETATM   32  C17 UNL     1       5.770   8.709  81.226  1.00  0.00     0.164 C 
HETATM   33  C15 UNL     1       3.243   6.244  82.366  1.00  0.00     0.192 C 
HETATM   34  O8  UNL     1       5.461   6.196  81.913  1.00  0.00    -0.265 OA
BRANCH  33  35
HETATM   35  N5  UNL     1       3.190   4.931  81.883  1.00  0.00    -0.109 N 
HETATM   36  O6  UNL     1       3.176   3.917  82.581  1.00  0.00    -0.532 OA
HETATM   37  O7  UNL     1       3.090   4.806  80.495  1.00  0.00    -0.532 OA
ENDBRANCH  33  35
ENDBRANCH   1  23
TORSDOF 8
ENDMDL
MODEL 4
REMARK VINA RESULT: -7.474407668      2.577      7.119
REMARK  8 active torsions:
REMARK  status: ('A' for Active; 'I' for Inactive)
REMARK    1  A    between atoms: C3_5  and  C4_6 
REMARK       I    between atoms: C4_6  and  N2_8 
REMARK    2  A    between atoms: N2_8  and  C5_10 
REMARK    3  A    between atoms: C5_10  and  C6_11 
REMARK    4  A    between atoms: C5_10  and  C9_22 
REMARK       I    between atoms: C6_11  and  N3_13 
REMARK    5  A    between atoms: N3_13  and  N4_15 
REMARK       I    between atoms: N4_15  and  C7_17 
REMARK    6  A    between atoms: C7_17  and  C8_19 
REMARK    7  A    between atoms: C8_19  and  O5_20 
REMARK    8  A    between atoms: C15_28  and  N5_29 
ROOT
HETATM    1  C4  UNL     1      -0.007   5.952  83.027  1.00  0.00     0.260 C 
HETATM    2  O2  UNL     1       0.957   6.527  83.572  1.00  0.00    -0.267 OA
HETATM    3  N2  UNL     1      -0.515   6.600  81.866  1.00  0.00    -0.339 N 
ATOM      4  H2  UNL     1      -1.308   6.166  81.392  1.00  0.00     0.164 HD
ENDROOT
BRANCH   3   5
HETATM    5  C5  UNL     1       0.005   7.824  81.308  1.00  0.00     0.212 C 
BRANCH   5   6
HETATM    6  C6  UNL     1       1.207   7.560  80.468  1.00  0.00     0.263 C 
HETATM    7  O3  UNL     1       2.137   8.393  80.503  1.00  0.00    -0.269 OA
HETATM    8  N3  UNL     1       1.318   6.421  79.656  1.00  0.00    -0.265 N 
ATOM      9  H3  UNL     1       0.563   5.736  79.622  1.00  0.00     0.190 HD
BRANCH   8  10
HETATM   10  N4  UNL     1       2.481   6.233  78.887  1.00  0.00    -0.266 N 
HETATM   11  C7  UNL     1       2.633   5.150  77.996  1.00  0.00     0.259 C 
HETATM   12  O4  UNL     1       1.744   4.276  77.826  1.00  0.00    -0.269 OA
ATOM     13  H4  UNL     1       3.243   6.905  78.977  1.00  0.00     0.190 HD
BRANCH  11  14
HETATM   14  C8  UNL     1       3.891   5.012  77.211  1.00  0.00     0.268 C 
BRANCH  14  15
HETATM   15  O5  UNL     1       4.024   3.747  76.685  1.00  0.00    -0.392 OA
ATOM     16  H5  UNL     1       3.635   3.091  77.251  1.00  0.00     0.210 HD
ENDBRANCH  14  15
ENDBRANCH  11  14
ENDBRANCH   8  10
ENDBRANCH   5   6
BRANCH   5  17
HETATM   17  C9  UNL     1      -1.020   8.429  80.438  1.00  0.00    -0.026 A 
HETATM   18  C10 UNL     1      -2.049   7.667  79.937  1.00  0.00     0.010 A 
HETATM   19  C11 UNL     1      -3.029   8.219  79.124  1.00  0.00     0.001 A 
HETATM   20  C12 UNL     1      -2.983   9.578  78.798  1.00  0.00     0.000 A 
HETATM   21  C13 UNL     1      -1.960  10.336  79.297  1.00  0.00     0.001 A 
HETATM   22  C14 UNL     1      -0.997   9.758  80.104  1.00  0.00     0.010 A 
ENDBRANCH   5  17
ENDBRANCH   3   5
BRANCH   1  23
HETATM   23  C3  UNL     1      -0.549   4.736  83.543  1.00  0.00     0.138 C 
HETATM   24  C2  UNL     1      -1.531   4.842  84.554  1.00  0.00     0.269 C 
HETATM   25  N1  UNL     1      -1.702   4.043  85.622  1.00  0.00    -0.270 N 
HETATM   26  O1  UNL     1      -2.336   5.795  84.433  1.00  0.00    -0.267 OA
HETATM   27  C1  UNL     1      -2.523   4.565  86.698  1.00  0.00     0.164 C 
HETATM   28  C18 UNL     1      -1.200   2.794  85.802  1.00  0.00     0.333 C 
HETATM   29  N6  UNL     1      -0.554   1.955  84.941  1.00  0.00    -0.268 N 
HETATM   30  O9  UNL     1      -1.320   2.270  86.934  1.00  0.00    -0.246 OA
HETATM   31  C16 UNL     1      -0.296   2.246  83.654  1.00  0.00     0.285 C 
HETATM   32  C17 UNL     1      -0.115   0.672  85.440  1.00  0.00     0.164 C 
HETATM   33  C15 UNL     1      -0.103   3.534  83.078  1.00  0.00     0.192 C 
HETATM   34  O8  UNL     1      -0.221   1.280  82.889  1.00  0.00    -0.265 OA
BRANCH  33  35
HETATM   35  N5  UNL     1       0.614   3.524  81.876  1.00  0.00    -0.109 N 
HETATM   36  O6  UNL     1       0.125   3.673  80.756  1.00  0.00    -0.532 OA
HETATM   37  O7  UNL     1       1.999   3.387  82.005  1.00  0.00    -0.532 OA
ENDBRANCH  33  35
ENDBRANCH   1  23
TORSDOF 8
ENDMDL
MODEL 5
REMARK VINA RESULT: -7.378468508      2.215      2.922
REMARK  8 active torsions:
REMARK  status: ('A' for Active; 'I' for Inactive)
REMARK    1  A    between atoms: C3_5  and  C4_6 
REMARK       I    between atoms: C4_6  and  N2_8 
REMARK    2  A    between atoms: N2_8  and  C5_10 
REMARK    3  A    between atoms: C5_10  and  C6_11 
REMARK    4  A    between atoms: C5_10  and  C9_22 
REMARK       I    between atoms: C6_11  and  N3_13 
REMARK    5  A    between atoms: N3_13  and  N4_15 
REMARK       I    between atoms: N4_15  and  C7_17 
REMARK    6  A    between atoms: C7_17  and  C8_19 
REMARK    7  A    between atoms: C8_19  and  O5_20 
REMARK    8  A    between atoms: C15_28  and  N5_29 
ROOT
HETATM    1  C4  UNL     1       2.041   5.794  81.564  1.00  0.00     0.260 C 
HETATM    2  O2  UNL     1       1.167   5.916  80.683  1.00  0.00    -0.267 OA
HETATM    3  N2  UNL     1       1.576   5.266  82.802  1.00  0.00    -0.339 N 
ATOM      4  H2  UNL     1       2.258   5.155  83.553  1.00  0.00     0.164 HD
ENDROOT
BRANCH   3   5
HETATM    5  C5  UNL     1       0.215   4.877  83.076  1.00  0.00     0.212 C 
BRANCH   5   6
HETATM    6  C6  UNL     1       0.159   3.858  84.161  1.00  0.00     0.263 C 
HETATM    7  O3  UNL     1       1.106   3.819  84.974  1.00  0.00    -0.269 OA
HETATM    8  N3  UNL     1      -0.910   2.957  84.289  1.00  0.00    -0.265 N 
ATOM      9  H3  UNL     1      -1.687   2.983  83.629  1.00  0.00     0.190 HD
BRANCH   8  10
HETATM   10  N4  UNL     1      -0.899   2.019  85.336  1.00  0.00    -0.266 N 
HETATM   11  C7  UNL     1      -1.618   2.213  86.535  1.00  0.00     0.259 C 
HETATM   12  O4  UNL     1      -2.316   3.237  86.754  1.00  0.00    -0.269 OA
ATOM     13  H4  UNL     1      -0.351   1.166  85.226  1.00  0.00     0.190 HD
BRANCH  11  14
HETATM   14  C8  UNL     1      -1.563   1.177  87.604  1.00  0.00     0.268 C 
BRANCH  14  15
HETATM   15  O5  UNL     1      -1.507  -0.093  87.075  1.00  0.00    -0.392 OA
ATOM     16  H5  UNL     1      -1.117  -0.094  86.209  1.00  0.00     0.210 HD
ENDBRANCH  14  15
ENDBRANCH  11  14
ENDBRANCH   8  10
ENDBRANCH   5   6
BRANCH   5  17
HETATM   17  C9  UNL     1      -0.538   6.058  83.537  1.00  0.00    -0.026 A 
HETATM   18  C10 UNL     1      -1.733   6.398  82.948  1.00  0.00     0.010 A 
HETATM   19  C11 UNL     1      -2.462   7.500  83.373  1.00  0.00     0.001 A 
HETATM   20  C12 UNL     1      -1.984   8.292  84.423  1.00  0.00     0.000 A 
HETATM   21  C13 UNL     1      -0.795   7.953  85.009  1.00  0.00     0.001 A 
HETATM   22  C14 UNL     1      -0.091   6.849  84.562  1.00  0.00     0.010 A 
ENDBRANCH   5  17
ENDBRANCH   3   5
BRANCH   1  23
HETATM   23  C3  UNL     1       3.401   6.162  81.333  1.00  0.00     0.138 C 
HETATM   24  C2  UNL     1       4.133   5.392  80.402  1.00  0.00     0.269 C 
HETATM   25  N1  UNL     1       5.427   5.034  80.466  1.00  0.00    -0.270 N 
HETATM   26  O1  UNL     1       3.492   4.999  79.398  1.00  0.00    -0.267 OA
HETATM   27  C1  UNL     1       5.844   3.948  79.600  1.00  0.00     0.164 C 
HETATM   28  C18 UNL     1       6.395   5.586  81.244  1.00  0.00     0.333 C 
HETATM   29  N6  UNL     1       6.388   6.708  82.020  1.00  0.00    -0.268 N 
HETATM   30  O9  UNL     1       7.505   5.009  81.298  1.00  0.00    -0.246 OA
HETATM   31  C16 UNL     1       5.334   7.534  82.145  1.00  0.00     0.285 C 
HETATM   32  C17 UNL     1       7.585   7.033  82.760  1.00  0.00     0.164 C 
HETATM   33  C15 UNL     1       3.955   7.205  82.016  1.00  0.00     0.192 C 
HETATM   34  O8  UNL     1       5.602   8.712  82.400  1.00  0.00    -0.265 OA
BRANCH  33  35
HETATM   35  N5  UNL     1       3.089   8.097  82.659  1.00  0.00    -0.109 N 
HETATM   36  O6  UNL     1       2.416   8.963  82.099  1.00  0.00    -0.532 OA
HETATM   37  O7  UNL     1       2.964   7.922  84.040  1.00  0.00    -0.532 OA
ENDBRANCH  33  35
ENDBRANCH   1  23
TORSDOF 8
ENDMDL
