MODEL 1
REMARK VINA RESULT: -7.665499020      0.000      0.000
REMARK  4 active torsions:
REMARK  status: ('A' for Active; 'I' for Inactive)
REMARK    1  A    between atoms: N2_6  and  C4_8 
REMARK    2  A    between atoms: C4_8  and  C6_10 
REMARK    3  A    between atoms: C11_17  and  N3_18 
REMARK    4  A    between atoms: C15_22  and  N4_23 
ROOT
HETATM    1  C1  UNL     1      88.347 121.146  10.785  1.00  0.00     0.070 C 
HETATM    2  C2  UNL     1      88.601 120.134  11.847  1.00  0.00     0.029 A 
HETATM    3  N1  UNL     1      88.142 120.317  13.088  1.00  0.00    -0.344 N 
ATOM      4  H1  UNL     1      87.611 121.158  13.313  1.00  0.00     0.167 HD
HETATM    5  C3  UNL     1      88.375 119.398  14.039  1.00  0.00     0.108 A 
HETATM    6  N2  UNL     1      87.910 119.631  15.203  1.00  0.00    -0.371 N 
ATOM      7  H2  UNL     1      88.100 118.922  15.910  1.00  0.00     0.161 HD
HETATM    8  C7  UNL     1      89.082 118.254  13.786  1.00  0.00    -0.004 A 
HETATM    9  C8  UNL     1      89.570 118.027  12.534  1.00  0.00    -0.022 A 
HETATM   10  C9  UNL     1      89.318 118.992  11.555  1.00  0.00     0.063 A 
HETATM   11 CL1  UNL     1      89.956 118.672   9.957  1.00  0.00    -0.082 Cl
HETATM   12  C10 UNL     1      90.342 116.795  12.224  1.00  0.00     0.076 C 
HETATM   13  C11 UNL     1      89.782 115.701  13.129  1.00  0.00     0.224 C 
HETATM   14  C15 UNL     1      90.079 116.098  14.539  1.00  0.00     0.219 C 
HETATM   15  C16 UNL     1      89.276 117.310  14.922  1.00  0.00     0.077 C 
ENDROOT
BRANCH   6  16
HETATM   16  C4  UNL     1      87.160 120.759  15.634  1.00  0.00     0.089 C 
HETATM   17  C5  UNL     1      87.879 122.061  15.596  1.00  0.00     0.033 C 
BRANCH  16  18
HETATM   18  C6  UNL     1      86.576 120.565  17.032  1.00  0.00     0.111 C 
HETATM   19  S1  UNL     1      87.444 119.227  17.906  1.00  0.00    -0.096 SA
ENDBRANCH  16  18
ENDBRANCH   6  16
BRANCH  14  20
HETATM   20  N4  UNL     1      89.895 115.084  15.500  1.00  0.00    -0.073 N 
ATOM     21  H43 UNL     1      88.906 115.000  15.735  1.00  0.00     0.274 HD
ATOM     22  H42 UNL     1      90.058 114.169  15.080  1.00  0.00     0.274 HD
ATOM     23  H41 UNL     1      90.450 115.184  16.349  1.00  0.00     0.274 HD
ENDBRANCH  14  20
BRANCH  13  24
HETATM   24  N3  UNL     1      90.202 114.398  12.763  1.00  0.00    -0.072 N 
HETATM   25  C12 UNL     1      90.358 114.357  11.301  1.00  0.00     0.272 C 
HETATM   26  C13 UNL     1      89.146 113.414  13.053  1.00  0.00     0.272 C 
HETATM   27  C14 UNL     1      91.430 113.954  13.335  1.00  0.00     0.272 C 
ENDBRANCH  13  24
TORSDOF 4
ENDMDL
MODEL 2
REMARK VINA RESULT: -7.182929452      2.325      4.268
REMARK  4 active torsions:
REMARK  status: ('A' for Active; 'I' for Inactive)
REMARK    1  A    between atoms: N2_6  and  C4_8 
REMARK    2  A    between atoms: C4_8  and  C6_10 
REMARK    3  A    between atoms: C11_17  and  N3_18 
REMARK    4  A    between atoms: C15_22  and  N4_23 
ROOT
HETATM    1  C1  UNL     1      89.524 115.613  16.404  1.00  0.00     0.070 C 
HETATM    2  C2  UNL     1      89.365 116.677  15.374  1.00  0.00     0.029 A 
HETATM    3  N1  UNL     1      88.696 117.800  15.652  1.00  0.00    -0.344 N 
ATOM      4  H1  UNL     1      88.289 117.932  16.578  1.00  0.00     0.167 HD
HETATM    5  C3  UNL     1      88.558 118.755  14.718  1.00  0.00     0.108 A 
HETATM    6  N2  UNL     1      87.909 119.802  15.045  1.00  0.00    -0.371 N 
ATOM      7  H2  UNL     1      87.814 120.513  14.320  1.00  0.00     0.161 HD
HETATM    8  C7  UNL     1      89.084 118.623  13.462  1.00  0.00    -0.004 A 
HETATM    9  C8  UNL     1      89.774 117.494  13.135  1.00  0.00    -0.022 A 
HETATM   10  C9  UNL     1      89.910 116.510  14.118  1.00  0.00     0.063 A 
HETATM   11 CL1  UNL     1      90.800 115.072  13.670  1.00  0.00    -0.082 Cl
HETATM   12  C10 UNL     1      90.359 117.318  11.781  1.00  0.00     0.076 C 
HETATM   13  C11 UNL     1      90.737 118.715  11.294  1.00  0.00     0.224 C 
HETATM   14  C15 UNL     1      89.470 119.495  11.159  1.00  0.00     0.219 C 
HETATM   15  C16 UNL     1      88.865 119.749  12.512  1.00  0.00     0.077 C 
ENDROOT
BRANCH   6  16
HETATM   16  C4  UNL     1      87.302 120.099  16.295  1.00  0.00     0.089 C 
HETATM   17  C5  UNL     1      86.527 121.369  16.348  1.00  0.00     0.033 C 
BRANCH  16  18
HETATM   18  C6  UNL     1      88.308 120.094  17.443  1.00  0.00     0.111 C 
HETATM   19  S1  UNL     1      88.643 121.791  18.005  1.00  0.00    -0.096 SA
ENDBRANCH  16  18
ENDBRANCH   6  16
BRANCH  14  20
HETATM   20  N4  UNL     1      89.584 120.709  10.454  1.00  0.00    -0.073 N 
ATOM     21  H43 UNL     1      90.182 121.357  10.967  1.00  0.00     0.274 HD
ATOM     22  H42 UNL     1      90.145 120.575   9.613  1.00  0.00     0.274 HD
ATOM     23  H41 UNL     1      88.700 121.160  10.219  1.00  0.00     0.274 HD
ENDBRANCH  14  20
BRANCH  13  24
HETATM   24  N3  UNL     1      91.570 118.705  10.147  1.00  0.00    -0.072 N 
HETATM   25  C12 UNL     1      90.778 118.227   9.005  1.00  0.00     0.272 C 
HETATM   26  C13 UNL     1      92.645 117.710  10.299  1.00  0.00     0.272 C 
HETATM   27  C14 UNL     1      92.138 119.959   9.777  1.00  0.00     0.272 C 
ENDBRANCH  13  24
TORSDOF 4
ENDMDL
MODEL 3
REMARK VINA RESULT: -7.050490683      2.760      4.697
REMARK  4 active torsions:
REMARK  status: ('A' for Active; 'I' for Inactive)
REMARK    1  A    between atoms: N2_6  and  C4_8 
REMARK    2  A    between atoms: C4_8  and  C6_10 
REMARK    3  A    between atoms: C11_17  and  N3_18 
REMARK    4  A    between atoms: C15_22  and  N4_23 
ROOT
HETATM    1  C1  UNL     1      89.192 115.835  18.101  1.00  0.00     0.070 C 
HETATM    2  C2  UNL     1      88.868 116.916  17.131  1.00  0.00     0.029 A 
HETATM    3  N1  UNL     1      88.299 118.053  17.543  1.00  0.00    -0.344 N 
ATOM      4  H1  UNL     1      88.083 118.184  18.531  1.00  0.00     0.167 HD
HETATM    5  C3  UNL     1      88.011 119.024  16.661  1.00  0.00     0.108 A 
HETATM    6  N2  UNL     1      87.469 120.084  17.116  1.00  0.00    -0.371 N 
ATOM      7  H2  UNL     1      87.257 120.808  16.429  1.00  0.00     0.161 HD
HETATM    8  C7  UNL     1      88.281 118.895  15.326  1.00  0.00    -0.004 A 
HETATM    9  C8  UNL     1      88.861 117.752  14.862  1.00  0.00    -0.022 A 
HETATM   10  C9  UNL     1      89.155 116.752  15.792  1.00  0.00     0.063 A 
HETATM   11 CL1  UNL     1      89.899 115.296  15.168  1.00  0.00    -0.082 Cl
HETATM   12  C10 UNL     1      89.168 117.579  13.418  1.00  0.00     0.076 C 
HETATM   13  C11 UNL     1      89.485 118.972  12.879  1.00  0.00     0.224 C 
HETATM   14  C15 UNL     1      88.239 119.788  12.999  1.00  0.00     0.219 C 
HETATM   15  C16 UNL     1      87.916 120.040  14.445  1.00  0.00     0.077 C 
ENDROOT
BRANCH   6  16
HETATM   16  C4  UNL     1      87.124 120.380  18.462  1.00  0.00     0.089 C 
HETATM   17  C5  UNL     1      85.681 120.241  18.801  1.00  0.00     0.033 C 
BRANCH  16  18
HETATM   18  C6  UNL     1      87.593 121.769  18.888  1.00  0.00     0.111 C 
HETATM   19  S1  UNL     1      89.285 122.080  18.297  1.00  0.00    -0.096 SA
ENDBRANCH  16  18
ENDBRANCH   6  16
BRANCH  14  20
HETATM   20  N4  UNL     1      88.251 121.008  12.295  1.00  0.00    -0.073 N 
ATOM     21  H43 UNL     1      89.102 121.084  11.739  1.00  0.00     0.274 HD
ATOM     22  H42 UNL     1      87.552 120.991  11.552  1.00  0.00     0.274 HD
ATOM     23  H41 UNL     1      88.132 121.843  12.870  1.00  0.00     0.274 HD
ENDBRANCH  14  20
BRANCH  13  24
HETATM   24  N3  UNL     1      90.080 118.955  11.593  1.00  0.00    -0.072 N 
HETATM   25  C12 UNL     1      90.588 117.599  11.336  1.00  0.00     0.272 C 
HETATM   26  C13 UNL     1      91.276 119.813  11.566  1.00  0.00     0.272 C 
HETATM   27  C14 UNL     1      89.226 119.302  10.506  1.00  0.00     0.272 C 
ENDBRANCH  13  24
TORSDOF 4
ENDMDL
MODEL 4
REMARK VINA RESULT: -6.978037172      3.256      4.898
REMARK  4 active torsions:
REMARK  status: ('A' for Active; 'I' for Inactive)
REMARK    1  A    between atoms: N2_6  and  C4_8 
REMARK    2  A    between atoms: C4_8  and  C6_10 
REMARK    3  A    between atoms: C11_17  and  N3_18 
REMARK    4  A    between atoms: C15_22  and  N4_23 
ROOT
HETATM    1  C1  UNL     1      87.892 120.652  14.167  1.00  0.00     0.070 C 
HETATM    2  C2  UNL     1      88.564 119.348  13.914  1.00  0.00     0.029 A 
HETATM    3  N1  UNL     1      89.101 119.078  12.721  1.00  0.00    -0.344 N 
ATOM      4  H1  UNL     1      89.052 119.770  11.973  1.00  0.00     0.167 HD
HETATM    5  C3  UNL     1      89.706 117.899  12.502  1.00  0.00     0.108 A 
HETATM    6  N2  UNL     1      90.199 117.701  11.344  1.00  0.00    -0.371 N 
ATOM      7  H2  UNL     1      90.652 116.799  11.198  1.00  0.00     0.161 HD
HETATM    8  C7  UNL     1      89.797 116.938  13.473  1.00  0.00    -0.004 A 
HETATM    9  C8  UNL     1      89.262 117.172  14.704  1.00  0.00    -0.022 A 
HETATM   10  C9  UNL     1      88.637 118.403  14.917  1.00  0.00     0.063 A 
HETATM   11 CL1  UNL     1      87.961 118.674  16.508  1.00  0.00    -0.082 Cl
HETATM   12  C10 UNL     1      89.343 116.151  15.782  1.00  0.00     0.076 C 
HETATM   13  C11 UNL     1      90.647 115.389  15.552  1.00  0.00     0.224 C 
HETATM   14  C15 UNL     1      90.520 114.681  14.242  1.00  0.00     0.219 C 
HETATM   15  C16 UNL     1      90.491 115.671  13.111  1.00  0.00     0.077 C 
ENDROOT
BRANCH   6  16
HETATM   16  C4  UNL     1      90.193 118.584  10.230  1.00  0.00     0.089 C 
HETATM   17  C5  UNL     1      90.381 117.942   8.900  1.00  0.00     0.033 C 
BRANCH  16  18
HETATM   18  C6  UNL     1      91.215 119.708  10.377  1.00  0.00     0.111 C 
HETATM   19  S1  UNL     1      92.789 119.247   9.591  1.00  0.00    -0.096 SA
ENDBRANCH  16  18
ENDBRANCH   6  16
BRANCH  14  20
HETATM   20  N4  UNL     1      91.503 113.702  13.992  1.00  0.00    -0.073 N 
ATOM     21  H43 UNL     1      92.260 114.100  13.437  1.00  0.00     0.274 HD
ATOM     22  H42 UNL     1      92.005 113.482  14.851  1.00  0.00     0.274 HD
ATOM     23  H41 UNL     1      91.162 112.846  13.555  1.00  0.00     0.274 HD
ENDBRANCH  14  20
BRANCH  13  24
HETATM   24  N3  UNL     1      91.025 114.577  16.649  1.00  0.00    -0.072 N 
HETATM   25  C12 UNL     1      90.477 115.174  17.876  1.00  0.00     0.272 C 
HETATM   26  C13 UNL     1      92.484 114.610  16.838  1.00  0.00     0.272 C 
HETATM   27  C14 UNL     1      90.586 113.221  16.602  1.00  0.00     0.272 C 
ENDBRANCH  13  24
TORSDOF 4
ENDMDL
MODEL 5
REMARK VINA RESULT: -6.945421607      1.058      1.159
REMARK  4 active torsions:
REMARK  status: ('A' for Active; 'I' for Inactive)
REMARK    1  A    between atoms: N2_6  and  C4_8 
REMARK    2  A    between atoms: C4_8  and  C6_10 
REMARK    3  A    between atoms: C11_17  and  N3_18 
REMARK    4  A    between atoms: C15_22  and  N4_23 
ROOT
HETATM    1  C1  UNL     1      87.428 121.675  12.308  1.00  0.00     0.070 C 
HETATM    2  C2  UNL     1      87.901 120.521  13.120  1.00  0.00     0.029 A 
HETATM    3  N1  UNL     1      87.560 120.409  14.407  1.00  0.00    -0.344 N 
ATOM      4  H1  UNL     1      86.971 121.120  14.841  1.00  0.00     0.167 HD
HETATM    5  C3  UNL     1      87.990 119.364  15.133  1.00  0.00     0.108 A 
HETATM    6  N2  UNL     1      87.632 119.314  16.355  1.00  0.00    -0.371 N 
ATOM      7  H2  UNL     1      87.971 118.514  16.888  1.00  0.00     0.161 HD
HETATM    8  C7  UNL     1      88.783 118.386  14.598  1.00  0.00    -0.004 A 
HETATM    9  C8  UNL     1      89.155 118.460  13.288  1.00  0.00    -0.022 A 
HETATM   10  C9  UNL     1      88.698 119.553  12.547  1.00  0.00     0.063 A 
HETATM   11 CL1  UNL     1      89.191 119.621  10.869  1.00  0.00    -0.082 Cl
HETATM   12  C10 UNL     1      90.014 117.415  12.674  1.00  0.00     0.076 C 
HETATM   13  C11 UNL     1      89.674 116.108  13.388  1.00  0.00     0.224 C 
HETATM   14  C15 UNL     1      90.077 116.267  14.818  1.00  0.00     0.219 C 
HETATM   15  C16 UNL     1      89.197 117.276  15.502  1.00  0.00     0.077 C 
ENDROOT
BRANCH   6  16
HETATM   16  C4  UNL     1      86.818 120.238  17.065  1.00  0.00     0.089 C 
HETATM   17  C5  UNL     1      87.355 121.623  17.165  1.00  0.00     0.033 C 
BRANCH  16  18
HETATM   18  C6  UNL     1      86.472 119.746  18.468  1.00  0.00     0.111 C 
HETATM   19  S1  UNL     1      87.321 118.176  18.820  1.00  0.00    -0.096 SA
ENDBRANCH  16  18
ENDBRANCH   6  16
BRANCH  14  20
HETATM   20  N4  UNL     1      90.106 115.075  15.569  1.00  0.00    -0.073 N 
ATOM     21  H43 UNL     1      89.414 114.418  15.210  1.00  0.00     0.274 HD
ATOM     22  H42 UNL     1      90.963 114.559  15.375  1.00  0.00     0.274 HD
ATOM     23  H41 UNL     1      89.987 115.193  16.576  1.00  0.00     0.274 HD
ENDBRANCH  14  20
BRANCH  13  24
HETATM   24  N3  UNL     1      90.188 114.961  12.734  1.00  0.00    -0.072 N 
HETATM   25  C12 UNL     1      90.181 115.211  11.286  1.00  0.00     0.272 C 
HETATM   26  C13 UNL     1      89.283 113.814  12.919  1.00  0.00     0.272 C 
HETATM   27  C14 UNL     1      91.513 114.578  13.094  1.00  0.00     0.272 C 
ENDBRANCH  13  24
TORSDOF 4
ENDMDL
