MODEL 1
REMARK VINA RESULT: -6.312920062      0.000      0.000
REMARK  4 active torsions:
REMARK  status: ('A' for Active; 'I' for Inactive)
REMARK    1  A    between atoms: C2_2  and  N1_3 
REMARK    2  A    between atoms: C4_5  and  C5_6 
REMARK    3  A    between atoms: C15_17  and  O1_18 
REMARK    4  A    between atoms: C17_21  and  N2_22 
ROOT
HETATM    1  N1  UNL     1      90.573 115.993   9.595  1.00  0.00     0.126 N 
HETATM    2  C3  UNL     1      91.480 116.923   9.004  1.00  0.00     0.288 C 
HETATM    3  C4  UNL     1      91.671 118.202   9.844  1.00  0.00     0.012 C 
HETATM    4  C7  UNL     1      93.127 118.082  10.305  1.00  0.00     0.015 C 
HETATM    5  C8  UNL     1      93.006 116.969  11.310  1.00  0.00     0.019 C 
HETATM    6  C9  UNL     1      91.507 116.779  11.576  1.00  0.00     0.055 C 
HETATM    7  C10 UNL     1      91.176 117.182  12.930  1.00  0.00    -0.027 C 
HETATM    8  C11 UNL     1      92.287 116.906  13.960  1.00  0.00     0.016 C 
HETATM    9  C12 UNL     1      89.874 116.752  13.461  1.00  0.00     0.012 C 
HETATM   10  C13 UNL     1      89.649 115.304  13.097  1.00  0.00     0.026 C 
HETATM   11  C14 UNL     1      89.817 114.931  11.680  1.00  0.00     0.149 C 
HETATM   12 CL1  UNL     1      90.050 113.135  11.657  1.00  0.00    -0.120 Cl
HETATM   13  C15 UNL     1      90.928 115.599  10.947  1.00  0.00     0.286 C 
HETATM   14  C16 UNL     1      91.318 118.602  12.373  1.00  0.00     0.042 C 
HETATM   15  C17 UNL     1      90.857 118.033  11.047  1.00  0.00     0.048 C 
ENDROOT
BRANCH  15  16
HETATM   16  N2  UNL     1      89.509 118.176  10.912  1.00  0.00    -0.415 N 
HETATM   17  C18 UNL     1      88.946 119.475  10.839  1.00  0.00     0.140 C 
ATOM     18  H2  UNL     1      88.908 117.353  10.864  1.00  0.00     0.153 HD
ENDBRANCH  15  16
BRANCH   3  19
HETATM   19  C5  UNL     1      91.554 119.422   9.024  1.00  0.00     0.009 C 
HETATM   20  C6  UNL     1      92.048 119.056   7.606  1.00  0.00     0.006 C 
ENDBRANCH   3  19
BRANCH  13  21
HETATM   21  O1  UNL     1      91.969 114.649  10.814  1.00  0.00    -0.361 OA
ATOM     22  H1  UNL     1      91.794 114.182  10.004  1.00  0.00     0.212 HD
ENDBRANCH  13  21
BRANCH   1  23
HETATM   23  C2  UNL     1      90.253 114.920   8.728  1.00  0.00     0.272 C 
HETATM   24  C1  UNL     1      90.659 115.361   7.312  1.00  0.00     0.037 C 
ENDBRANCH   1  23
TORSDOF 4
ENDMDL
MODEL 2
REMARK VINA RESULT: -6.223027283      2.652      4.936
REMARK  4 active torsions:
REMARK  status: ('A' for Active; 'I' for Inactive)
REMARK    1  A    between atoms: C2_2  and  N1_3 
REMARK    2  A    between atoms: C4_5  and  C5_6 
REMARK    3  A    between atoms: C15_17  and  O1_18 
REMARK    4  A    between atoms: C17_21  and  N2_22 
ROOT
HETATM    1  N1  UNL     1      92.490 116.373   8.287  1.00  0.00     0.126 N 
HETATM    2  C3  UNL     1      92.078 115.778   7.058  1.00  0.00     0.288 C 
HETATM    3  C4  UNL     1      92.086 114.236   7.097  1.00  0.00     0.012 C 
HETATM    4  C7  UNL     1      90.596 113.893   7.001  1.00  0.00     0.015 C 
HETATM    5  C8  UNL     1      90.129 114.317   8.367  1.00  0.00     0.019 C 
HETATM    6  C9  UNL     1      91.390 114.544   9.212  1.00  0.00     0.055 C 
HETATM    7  C10 UNL     1      91.491 113.540  10.254  1.00  0.00    -0.027 C 
HETATM    8  C11 UNL     1      90.134 113.077  10.818  1.00  0.00     0.016 C 
HETATM    9  C12 UNL     1      92.434 113.802  11.352  1.00  0.00     0.012 C 
HETATM   10  C13 UNL     1      92.290 115.240  11.789  1.00  0.00     0.026 C 
HETATM   11  C14 UNL     1      92.363 116.274  10.740  1.00  0.00     0.149 C 
HETATM   12 CL1  UNL     1      91.611 117.762  11.448  1.00  0.00    -0.120 Cl
HETATM   13  C15 UNL     1      91.718 115.945   9.439  1.00  0.00     0.286 C 
HETATM   14  C16 UNL     1      91.924 112.621   9.107  1.00  0.00     0.042 C 
HETATM   15  C17 UNL     1      92.496 113.859   8.449  1.00  0.00     0.048 C 
ENDROOT
BRANCH  15  16
HETATM   16  N2  UNL     1      93.815 113.996   8.761  1.00  0.00    -0.415 N 
HETATM   17  C18 UNL     1      94.733 112.982   8.388  1.00  0.00     0.140 C 
ATOM     18  H2  UNL     1      94.140 114.823   9.261  1.00  0.00     0.153 HD
ENDBRANCH  15  16
BRANCH   3  19
HETATM   19  C5  UNL     1      92.761 113.658   5.920  1.00  0.00     0.009 C 
HETATM   20  C6  UNL     1      91.680 112.903   5.113  1.00  0.00     0.006 C 
ENDBRANCH   3  19
BRANCH  13  21
HETATM   21  O1  UNL     1      90.502 116.669   9.383  1.00  0.00    -0.361 OA
ATOM     22  H1  UNL     1      90.144 116.645  10.263  1.00  0.00     0.212 HD
ENDBRANCH  13  21
BRANCH   1  23
HETATM   23  C2  UNL     1      92.669 117.774   8.179  1.00  0.00     0.272 C 
HETATM   24  C1  UNL     1      92.349 118.148   6.723  1.00  0.00     0.037 C 
ENDBRANCH   1  23
TORSDOF 4
ENDMDL
MODEL 3
REMARK VINA RESULT: -6.183124215      2.027      4.177
REMARK  4 active torsions:
REMARK  status: ('A' for Active; 'I' for Inactive)
REMARK    1  A    between atoms: C2_2  and  N1_3 
REMARK    2  A    between atoms: C4_5  and  C5_6 
REMARK    3  A    between atoms: C15_17  and  O1_18 
REMARK    4  A    between atoms: C17_21  and  N2_22 
ROOT
HETATM    1  N1  UNL     1      90.257 116.012  11.896  1.00  0.00     0.126 N 
HETATM    2  C3  UNL     1      91.253 114.996  11.792  1.00  0.00     0.288 C 
HETATM    3  C4  UNL     1      92.039 115.050  10.466  1.00  0.00     0.012 C 
HETATM    4  C7  UNL     1      93.442 115.456  10.928  1.00  0.00     0.015 C 
HETATM    5  C8  UNL     1      93.203 116.895  11.300  1.00  0.00     0.019 C 
HETATM    6  C9  UNL     1      91.828 117.272  10.731  1.00  0.00     0.055 C 
HETATM    7  C10 UNL     1      91.971 118.235   9.655  1.00  0.00    -0.027 C 
HETATM    8  C11 UNL     1      93.139 119.221   9.841  1.00  0.00     0.016 C 
HETATM    9  C12 UNL     1      90.760 118.955   9.232  1.00  0.00     0.012 C 
HETATM   10  C13 UNL     1      89.999 119.398  10.460  1.00  0.00     0.026 C 
HETATM   11  C14 UNL     1      89.703 118.371  11.476  1.00  0.00     0.149 C 
HETATM   12 CL1  UNL     1      89.327 119.268  13.003  1.00  0.00    -0.120 Cl
HETATM   13  C15 UNL     1      90.768 117.360  11.726  1.00  0.00     0.286 C 
HETATM   14  C16 UNL     1      92.433 117.021   8.843  1.00  0.00     0.042 C 
HETATM   15  C17 UNL     1      91.518 116.195   9.722  1.00  0.00     0.048 C 
ENDROOT
BRANCH  15  16
HETATM   16  N2  UNL     1      90.297 116.052   9.134  1.00  0.00    -0.415 N 
HETATM   17  C18 UNL     1      90.201 115.447   7.855  1.00  0.00     0.140 C 
ATOM     18  H2  UNL     1      89.457 116.378   9.610  1.00  0.00     0.153 HD
ENDBRANCH  15  16
BRANCH   3  19
HETATM   19  C5  UNL     1      92.139 113.723   9.830  1.00  0.00     0.009 C 
HETATM   20  C6  UNL     1      91.006 112.856  10.427  1.00  0.00     0.006 C 
ENDBRANCH   3  19
BRANCH  13  21
HETATM   21  O1  UNL     1      91.382 117.700  12.956  1.00  0.00    -0.361 OA
ATOM     22  H1  UNL     1      91.857 118.508  12.795  1.00  0.00     0.212 HD
ENDBRANCH  13  21
BRANCH   1  23
HETATM   23  C2  UNL     1      89.413 115.834  13.019  1.00  0.00     0.272 C 
HETATM   24  C1  UNL     1      89.209 114.318  13.180  1.00  0.00     0.037 C 
ENDBRANCH   1  23
TORSDOF 4
ENDMDL
MODEL 4
REMARK VINA RESULT: -6.134588949      2.056      4.115
REMARK  4 active torsions:
REMARK  status: ('A' for Active; 'I' for Inactive)
REMARK    1  A    between atoms: C2_2  and  N1_3 
REMARK    2  A    between atoms: C4_5  and  C5_6 
REMARK    3  A    between atoms: C15_17  and  O1_18 
REMARK    4  A    between atoms: C17_21  and  N2_22 
ROOT
HETATM    1  N1  UNL     1      91.508 117.180  10.124  1.00  0.00     0.126 N 
HETATM    2  C3  UNL     1      92.399 117.402  11.215  1.00  0.00     0.288 C 
HETATM    3  C4  UNL     1      92.370 116.272  12.264  1.00  0.00     0.012 C 
HETATM    4  C7  UNL     1      93.760 115.644  12.115  1.00  0.00     0.015 C 
HETATM    5  C8  UNL     1      93.607 114.951  10.787  1.00  0.00     0.019 C 
HETATM    6  C9  UNL     1      92.108 114.957  10.459  1.00  0.00     0.055 C 
HETATM    7  C10 UNL     1      91.572 113.610  10.508  1.00  0.00    -0.027 C 
HETATM    8  C11 UNL     1      92.561 112.520  10.052  1.00  0.00     0.016 C 
HETATM    9  C12 UNL     1      90.254 113.387   9.894  1.00  0.00     0.012 C 
HETATM   10  C13 UNL     1      90.204 114.104   8.566  1.00  0.00     0.026 C 
HETATM   11  C14 UNL     1      90.585 115.528   8.554  1.00  0.00     0.149 C 
HETATM   12 CL1  UNL     1      90.972 115.931   6.831  1.00  0.00    -0.120 Cl
HETATM   13  C15 UNL     1      91.719 115.918   9.437  1.00  0.00     0.286 C 
HETATM   14  C16 UNL     1      91.662 113.798  12.025  1.00  0.00     0.042 C 
HETATM   15  C17 UNL     1      91.426 115.272  11.768  1.00  0.00     0.048 C 
ENDROOT
BRANCH  15  16
HETATM   16  N2  UNL     1      90.099 115.564  11.867  1.00  0.00    -0.415 N 
HETATM   17  C18 UNL     1      89.405 115.274  13.068  1.00  0.00     0.140 C 
ATOM     18  H2  UNL     1      89.608 115.990  11.081  1.00  0.00     0.153 HD
ENDBRANCH  15  16
BRANCH   3  19
HETATM   19  C5  UNL     1      92.255 116.796  13.637  1.00  0.00     0.009 C 
HETATM   20  C6  UNL     1      93.681 116.800  14.234  1.00  0.00     0.006 C 
ENDBRANCH   3  19
BRANCH  13  21
HETATM   21  O1  UNL     1      92.846 116.114   8.603  1.00  0.00    -0.361 OA
ATOM     22  H1  UNL     1      93.384 115.337   8.704  1.00  0.00     0.212 HD
ENDBRANCH  13  21
BRANCH   1  23
HETATM   23  C2  UNL     1      91.396 118.308   9.275  1.00  0.00     0.272 C 
HETATM   24  C1  UNL     1      92.355 119.374   9.830  1.00  0.00     0.037 C 
ENDBRANCH   1  23
TORSDOF 4
ENDMDL
MODEL 5
REMARK VINA RESULT: -6.095327912      3.601      5.346
REMARK  4 active torsions:
REMARK  status: ('A' for Active; 'I' for Inactive)
REMARK    1  A    between atoms: C2_2  and  N1_3 
REMARK    2  A    between atoms: C4_5  and  C5_6 
REMARK    3  A    between atoms: C15_17  and  O1_18 
REMARK    4  A    between atoms: C17_21  and  N2_22 
ROOT
HETATM    1  N1  UNL     1      93.837 113.341   8.303  1.00  0.00     0.126 N 
HETATM    2  C3  UNL     1      94.469 114.090   7.266  1.00  0.00     0.288 C 
HETATM    3  C4  UNL     1      93.473 114.672   6.243  1.00  0.00     0.012 C 
HETATM    4  C7  UNL     1      93.581 116.180   6.494  1.00  0.00     0.015 C 
HETATM    5  C8  UNL     1      92.884 116.287   7.823  1.00  0.00     0.019 C 
HETATM    6  C9  UNL     1      92.172 114.948   8.055  1.00  0.00     0.055 C 
HETATM    7  C10 UNL     1      90.732 115.122   8.002  1.00  0.00    -0.027 C 
HETATM    8  C11 UNL     1      90.241 116.478   8.543  1.00  0.00     0.016 C 
HETATM    9  C12 UNL     1      89.902 114.031   8.534  1.00  0.00     0.012 C 
HETATM   10  C13 UNL     1      90.493 113.558   9.841  1.00  0.00     0.026 C 
HETATM   11  C14 UNL     1      91.927 113.213   9.847  1.00  0.00     0.149 C 
HETATM   12 CL1  UNL     1      92.446 113.247  11.581  1.00  0.00    -0.120 Cl
HETATM   13  C15 UNL     1      92.820 114.081   9.030  1.00  0.00     0.286 C 
HETATM   14  C16 UNL     1      90.958 115.212   6.489  1.00  0.00     0.042 C 
HETATM   15  C17 UNL     1      92.139 114.287   6.699  1.00  0.00     0.048 C 
ENDROOT
BRANCH  15  16
HETATM   16  N2  UNL     1      91.765 112.991   6.509  1.00  0.00    -0.415 N 
HETATM   17  C18 UNL     1      91.631 112.486   5.191  1.00  0.00     0.140 C 
ATOM     18  H2  UNL     1      91.583 112.386   7.310  1.00  0.00     0.153 HD
ENDBRANCH  15  16
BRANCH   3  19
HETATM   19  C5  UNL     1      93.895 114.413   4.853  1.00  0.00     0.009 C 
HETATM   20  C6  UNL     1      95.395 114.042   4.905  1.00  0.00     0.006 C 
ENDBRANCH   3  19
BRANCH  13  21
HETATM   21  O1  UNL     1      93.520 114.921   9.929  1.00  0.00    -0.361 OA
ATOM     22  H1  UNL     1      92.854 115.382  10.427  1.00  0.00     0.212 HD
ENDBRANCH  13  21
BRANCH   1  23
HETATM   23  C2  UNL     1      94.766 112.650   9.118  1.00  0.00     0.272 C 
HETATM   24  C1  UNL     1      95.783 111.995   8.170  1.00  0.00     0.037 C 
ENDBRANCH   1  23
TORSDOF 4
ENDMDL
