MODEL 1
REMARK VINA RESULT: -8.986063753      0.000      0.000
REMARK  4 active torsions:
REMARK  status: ('A' for Active; 'I' for Inactive)
REMARK    1  A    between atoms: N1_2  and  C2_4 
REMARK    2  A    between atoms: C4_6  and  C5_7 
REMARK    3  A    between atoms: C5_7  and  C6_8 
REMARK    4  A    between atoms: C11_13  and  N2_14 
REMARK       I    between atoms: N2_14  and  C12_16 
REMARK       I    between atoms: C12_16  and  N3_18 
ROOT
HETATM    1  C2  UNL     1      13.969 120.353 131.996  1.00  0.00     0.084 A 
HETATM    2  C3  UNL     1      14.719 119.214 132.095  1.00  0.00     0.043 A 
HETATM    3  C4  UNL     1      15.180 118.494 131.020  1.00  0.00    -0.029 A 
HETATM    4  C11 UNL     1      14.874 118.935 129.726  1.00  0.00     0.044 A 
HETATM    5  C17 UNL     1      14.126 120.071 129.601  1.00  0.00     0.056 A 
HETATM    6  C18 UNL     1      13.674 120.779 130.722  1.00  0.00     0.065 A 
HETATM    7 CL1  UNL     1      12.721 122.225 130.495  1.00  0.00    -0.082 Cl
ENDROOT
BRANCH   4   8
HETATM    8  N2  UNL     1      15.345 118.160 128.647  1.00  0.00    -0.308 N 
HETATM    9  C12 UNL     1      16.279 118.510 127.661  1.00  0.00     0.323 C 
HETATM   10  O1  UNL     1      16.847 119.610 127.608  1.00  0.00    -0.247 OA
HETATM   11  N3  UNL     1      16.620 117.560 126.639  1.00  0.00    -0.331 N 
HETATM   12  C13 UNL     1      16.018 116.244 126.607  1.00  0.00     0.155 C 
HETATM   13  C16 UNL     1      17.578 117.887 125.607  1.00  0.00     0.155 C 
HETATM   14  C14 UNL     1      16.872 115.392 125.661  1.00  0.00     0.252 C 
HETATM   15  N4  UNL     1      18.272 115.577 126.051  1.00  0.00    -0.072 N 
HETATM   16  C15 UNL     1      18.728 116.902 125.674  1.00  0.00     0.252 C 
ATOM     17  H42 UNL     1      18.418 115.392 127.044  1.00  0.00     0.277 HD
ATOM     18  H41 UNL     1      18.873 114.845 125.671  1.00  0.00     0.277 HD
ATOM     19  H2  UNL     1      14.954 117.221 128.573  1.00  0.00     0.170 HD
ENDBRANCH   4   8
BRANCH   3  20
HETATM   20  C5  UNL     1      15.998 117.287 131.257  1.00  0.00     0.045 C 
BRANCH  20  21
HETATM   21  C6  UNL     1      15.202 116.029 131.241  1.00  0.00    -0.010 C 
HETATM   22  C7  UNL     1      15.875 114.949 130.385  1.00  0.00     0.005 C 
HETATM   23  C8  UNL     1      15.591 113.630 131.069  1.00  0.00     0.000 C 
HETATM   24  C9  UNL     1      14.640 113.977 132.215  1.00  0.00     0.000 C 
HETATM   25  C10 UNL     1      15.195 115.354 132.598  1.00  0.00     0.005 C 
ENDBRANCH  20  21
ENDBRANCH   3  20
BRANCH   1  26
HETATM   26  N1  UNL     1      13.505 121.080 133.124  1.00  0.00    -0.219 N 
HETATM   27  C1  UNL     1      12.550 120.498 134.050  1.00  0.00     0.191 C 
HETATM   28  F1  UNL     1      13.976 122.330 133.316  1.00  0.00    -0.099 F 
ENDBRANCH   1  26
TORSDOF 4
ENDMDL
MODEL 2
REMARK VINA RESULT: -8.757326537      2.370      3.053
REMARK  4 active torsions:
REMARK  status: ('A' for Active; 'I' for Inactive)
REMARK    1  A    between atoms: N1_2  and  C2_4 
REMARK    2  A    between atoms: C4_6  and  C5_7 
REMARK    3  A    between atoms: C5_7  and  C6_8 
REMARK    4  A    between atoms: C11_13  and  N2_14 
REMARK       I    between atoms: N2_14  and  C12_16 
REMARK       I    between atoms: C12_16  and  N3_18 
ROOT
HETATM    1  C2  UNL     1      13.205 120.071 134.797  1.00  0.00     0.084 A 
HETATM    2  C3  UNL     1      13.626 118.804 134.499  1.00  0.00     0.043 A 
HETATM    3  C4  UNL     1      14.119 118.419 133.276  1.00  0.00    -0.029 A 
HETATM    4  C11 UNL     1      14.208 119.369 132.250  1.00  0.00     0.044 A 
HETATM    5  C17 UNL     1      13.794 120.642 132.524  1.00  0.00     0.056 A 
HETATM    6  C18 UNL     1      13.296 120.996 133.785  1.00  0.00     0.065 A 
HETATM    7 CL1  UNL     1      12.783 122.641 134.071  1.00  0.00    -0.082 Cl
ENDROOT
BRANCH   4   8
HETATM    8  N2  UNL     1      14.699 118.935 131.003  1.00  0.00    -0.308 N 
HETATM    9  C12 UNL     1      15.905 119.273 130.372  1.00  0.00     0.323 C 
HETATM   10  O1  UNL     1      16.746 120.043 130.858  1.00  0.00    -0.247 OA
HETATM   11  N3  UNL     1      16.214 118.712 129.086  1.00  0.00    -0.331 N 
HETATM   12  C13 UNL     1      15.303 117.800 128.428  1.00  0.00     0.155 C 
HETATM   13  C16 UNL     1      17.447 119.041 128.406  1.00  0.00     0.155 C 
HETATM   14  C14 UNL     1      16.098 117.116 127.308  1.00  0.00     0.252 C 
HETATM   15  N4  UNL     1      17.356 116.644 127.892  1.00  0.00    -0.072 N 
HETATM   16  C15 UNL     1      18.233 117.766 128.172  1.00  0.00     0.252 C 
ATOM     17  H42 UNL     1      17.199 116.069 128.720  1.00  0.00     0.277 HD
ATOM     18  H41 UNL     1      17.809 115.944 127.305  1.00  0.00     0.277 HD
ATOM     19  H2  UNL     1      14.099 118.288 130.492  1.00  0.00     0.170 HD
ENDBRANCH   4   8
BRANCH   3  20
HETATM   20  C5  UNL     1      14.559 117.022 133.083  1.00  0.00     0.045 C 
BRANCH  20  21
HETATM   21  C6  UNL     1      15.889 116.740 133.691  1.00  0.00    -0.010 C 
HETATM   22  C7  UNL     1      15.901 115.383 134.407  1.00  0.00     0.005 C 
HETATM   23  C8  UNL     1      17.286 114.808 134.198  1.00  0.00     0.000 C 
HETATM   24  C9  UNL     1      18.071 115.916 133.495  1.00  0.00     0.000 C 
HETATM   25  C10 UNL     1      16.951 116.514 132.635  1.00  0.00     0.005 C 
ENDBRANCH  20  21
ENDBRANCH   3  20
BRANCH   1  26
HETATM   26  N1  UNL     1      12.699 120.443 136.070  1.00  0.00    -0.219 N 
HETATM   27  C1  UNL     1      13.485 121.259 136.980  1.00  0.00     0.191 C 
HETATM   28  F1  UNL     1      11.466 120.019 136.417  1.00  0.00    -0.099 F 
ENDBRANCH   1  26
TORSDOF 4
ENDMDL
MODEL 3
REMARK VINA RESULT: -8.440774911      3.588      6.001
REMARK  4 active torsions:
REMARK  status: ('A' for Active; 'I' for Inactive)
REMARK    1  A    between atoms: N1_2  and  C2_4 
REMARK    2  A    between atoms: C4_6  and  C5_7 
REMARK    3  A    between atoms: C5_7  and  C6_8 
REMARK    4  A    between atoms: C11_13  and  N2_14 
REMARK       I    between atoms: N2_14  and  C12_16 
REMARK       I    between atoms: C12_16  and  N3_18 
ROOT
HETATM    1  C2  UNL     1      13.899 120.015 132.618  1.00  0.00     0.084 A 
HETATM    2  C3  UNL     1      14.580 119.296 131.674  1.00  0.00     0.043 A 
HETATM    3  C4  UNL     1      14.958 117.984 131.823  1.00  0.00    -0.029 A 
HETATM    4  C11 UNL     1      14.636 117.316 133.012  1.00  0.00     0.044 A 
HETATM    5  C17 UNL     1      13.955 118.012 133.969  1.00  0.00     0.056 A 
HETATM    6  C18 UNL     1      13.586 119.351 133.780  1.00  0.00     0.065 A 
HETATM    7 CL1  UNL     1      12.716 120.186 135.043  1.00  0.00    -0.082 Cl
ENDROOT
BRANCH   4   8
HETATM    8  N2  UNL     1      15.057 115.977 133.139  1.00  0.00    -0.308 N 
HETATM    9  C12 UNL     1      15.859 115.404 134.136  1.00  0.00     0.323 C 
HETATM   10  O1  UNL     1      16.329 116.036 135.093  1.00  0.00    -0.247 OA
HETATM   11  N3  UNL     1      16.174 114.003 134.075  1.00  0.00    -0.331 N 
HETATM   12  C13 UNL     1      15.676 113.170 133.002  1.00  0.00     0.155 C 
HETATM   13  C16 UNL     1      16.999 113.380 135.085  1.00  0.00     0.155 C 
HETATM   14  C14 UNL     1      15.865 111.715 133.450  1.00  0.00     0.252 C 
HETATM   15  N4  UNL     1      15.329 111.605 134.809  1.00  0.00    -0.072 N 
HETATM   16  C15 UNL     1      16.206 112.273 135.752  1.00  0.00     0.252 C 
ATOM     17  H42 UNL     1      14.371 111.951 134.869  1.00  0.00     0.277 HD
ATOM     18  H41 UNL     1      15.156 110.635 135.072  1.00  0.00     0.277 HD
ATOM     19  H2  UNL     1      14.736 115.341 132.409  1.00  0.00     0.170 HD
ENDBRANCH   4   8
BRANCH   3  20
HETATM   20  C5  UNL     1      15.676 117.311 130.722  1.00  0.00     0.045 C 
BRANCH  20  21
HETATM   21  C6  UNL     1      16.154 118.254 129.674  1.00  0.00    -0.010 C 
HETATM   22  C7  UNL     1      17.686 118.274 129.593  1.00  0.00     0.005 C 
HETATM   23  C8  UNL     1      18.028 118.464 128.131  1.00  0.00     0.000 C 
HETATM   24  C9  UNL     1      16.685 118.696 127.438  1.00  0.00     0.000 C 
HETATM   25  C10 UNL     1      15.801 117.771 128.282  1.00  0.00     0.005 C 
ENDBRANCH  20  21
ENDBRANCH   3  20
BRANCH   1  26
HETATM   26  N1  UNL     1      13.519 121.371 132.438  1.00  0.00    -0.219 N 
HETATM   27  C1  UNL     1      12.604 121.759 131.379  1.00  0.00     0.191 C 
HETATM   28  F1  UNL     1      14.029 122.295 133.279  1.00  0.00    -0.099 F 
ENDBRANCH   1  26
TORSDOF 4
ENDMDL
MODEL 4
REMARK VINA RESULT: -8.170988188      2.236      3.074
REMARK  4 active torsions:
REMARK  status: ('A' for Active; 'I' for Inactive)
REMARK    1  A    between atoms: N1_2  and  C2_4 
REMARK    2  A    between atoms: C4_6  and  C5_7 
REMARK    3  A    between atoms: C5_7  and  C6_8 
REMARK    4  A    between atoms: C11_13  and  N2_14 
REMARK       I    between atoms: N2_14  and  C12_16 
REMARK       I    between atoms: C12_16  and  N3_18 
ROOT
HETATM    1  C2  UNL     1      13.237 120.149 134.583  1.00  0.00     0.084 A 
HETATM    2  C3  UNL     1      13.557 118.820 134.548  1.00  0.00     0.043 A 
HETATM    3  C4  UNL     1      14.105 118.184 133.461  1.00  0.00    -0.029 A 
HETATM    4  C11 UNL     1      14.362 118.924 132.299  1.00  0.00     0.044 A 
HETATM    5  C17 UNL     1      14.050 120.254 132.310  1.00  0.00     0.056 A 
HETATM    6  C18 UNL     1      13.492 120.868 133.439  1.00  0.00     0.065 A 
HETATM    7 CL1  UNL     1      13.117 122.573 133.389  1.00  0.00    -0.082 Cl
ENDROOT
BRANCH   4   8
HETATM    8  N2  UNL     1      14.904 118.235 131.196  1.00  0.00    -0.308 N 
HETATM    9  C12 UNL     1      15.295 118.747 129.950  1.00  0.00     0.323 C 
HETATM   10  O1  UNL     1      15.209 119.943 129.638  1.00  0.00    -0.247 OA
HETATM   11  N3  UNL     1      15.829 117.859 128.955  1.00  0.00    -0.331 N 
HETATM   12  C13 UNL     1      15.974 116.443 129.214  1.00  0.00     0.155 C 
HETATM   13  C16 UNL     1      16.239 118.353 127.659  1.00  0.00     0.155 C 
HETATM   14  C14 UNL     1      16.906 115.890 128.128  1.00  0.00     0.252 C 
HETATM   15  N4  UNL     1      18.072 116.774 128.063  1.00  0.00    -0.072 N 
HETATM   16  C15 UNL     1      17.709 118.043 127.459  1.00  0.00     0.252 C 
ATOM     17  H42 UNL     1      18.506 116.899 128.978  1.00  0.00     0.277 HD
ATOM     18  H41 UNL     1      18.857 116.335 127.583  1.00  0.00     0.277 HD
ATOM     19  H2  UNL     1      15.030 117.230 131.321  1.00  0.00     0.170 HD
ENDBRANCH   4   8
BRANCH   3  20
HETATM   20  C5  UNL     1      14.424 116.744 133.553  1.00  0.00     0.045 C 
BRANCH  20  21
HETATM   21  C6  UNL     1      15.613 116.464 134.404  1.00  0.00    -0.010 C 
HETATM   22  C7  UNL     1      15.210 115.824 135.738  1.00  0.00     0.005 C 
HETATM   23  C8  UNL     1      16.307 114.841 136.084  1.00  0.00     0.000 C 
HETATM   24  C9  UNL     1      17.378 115.053 135.014  1.00  0.00     0.000 C 
HETATM   25  C10 UNL     1      16.479 115.369 133.814  1.00  0.00     0.005 C 
ENDBRANCH  20  21
ENDBRANCH   3  20
BRANCH   1  26
HETATM   26  N1  UNL     1      12.672 120.784 135.721  1.00  0.00    -0.219 N 
HETATM   27  C1  UNL     1      13.510 121.465 136.692  1.00  0.00     0.191 C 
HETATM   28  F1  UNL     1      11.333 120.739 135.878  1.00  0.00    -0.099 F 
ENDBRANCH   1  26
TORSDOF 4
ENDMDL
MODEL 5
REMARK VINA RESULT: -8.157656361      2.569      3.322
REMARK  4 active torsions:
REMARK  status: ('A' for Active; 'I' for Inactive)
REMARK    1  A    between atoms: N1_2  and  C2_4 
REMARK    2  A    between atoms: C4_6  and  C5_7 
REMARK    3  A    between atoms: C5_7  and  C6_8 
REMARK    4  A    between atoms: C11_13  and  N2_14 
REMARK       I    between atoms: N2_14  and  C12_16 
REMARK       I    between atoms: C12_16  and  N3_18 
ROOT
HETATM    1  C2  UNL     1      13.310 120.114 134.233  1.00  0.00     0.084 A 
HETATM    2  C3  UNL     1      13.599 118.781 134.324  1.00  0.00     0.043 A 
HETATM    3  C4  UNL     1      14.214 118.051 133.336  1.00  0.00    -0.029 A 
HETATM    4  C11 UNL     1      14.579 118.694 132.146  1.00  0.00     0.044 A 
HETATM    5  C17 UNL     1      14.302 120.026 132.031  1.00  0.00     0.056 A 
HETATM    6  C18 UNL     1      13.673 120.736 133.062  1.00  0.00     0.065 A 
HETATM    7 CL1  UNL     1      13.346 122.440 132.854  1.00  0.00    -0.082 Cl
ENDROOT
BRANCH   4   8
HETATM    8  N2  UNL     1      15.188 117.911 131.146  1.00  0.00    -0.308 N 
HETATM    9  C12 UNL     1      16.554 117.682 130.925  1.00  0.00     0.323 C 
HETATM   10  O1  UNL     1      17.457 118.166 131.622  1.00  0.00    -0.247 OA
HETATM   11  N3  UNL     1      16.965 116.842 129.834  1.00  0.00    -0.331 N 
HETATM   12  C13 UNL     1      15.994 116.224 128.957  1.00  0.00     0.155 C 
HETATM   13  C16 UNL     1      18.365 116.586 129.576  1.00  0.00     0.155 C 
HETATM   14  C14 UNL     1      16.735 115.124 128.186  1.00  0.00     0.252 C 
HETATM   15  N4  UNL     1      17.484 114.334 129.166  1.00  0.00    -0.072 N 
HETATM   16  C15 UNL     1      18.615 115.094 129.665  1.00  0.00     0.252 C 
ATOM     17  H42 UNL     1      16.886 114.000 129.922  1.00  0.00     0.277 HD
ATOM     18  H41 UNL     1      17.769 113.430 128.788  1.00  0.00     0.277 HD
ATOM     19  H2  UNL     1      14.552 117.449 130.496  1.00  0.00     0.170 HD
ENDBRANCH   4   8
BRANCH   3  20
HETATM   20  C5  UNL     1      14.488 116.617 133.562  1.00  0.00     0.045 C 
BRANCH  20  21
HETATM   21  C6  UNL     1      15.629 116.381 134.488  1.00  0.00    -0.010 C 
HETATM   22  C7  UNL     1      15.146 115.905 135.865  1.00  0.00     0.005 C 
HETATM   23  C8  UNL     1      16.183 114.920 136.359  1.00  0.00     0.000 C 
HETATM   24  C9  UNL     1      17.303 114.972 135.319  1.00  0.00     0.000 C 
HETATM   25  C10 UNL     1      16.466 115.194 134.055  1.00  0.00     0.005 C 
ENDBRANCH  20  21
ENDBRANCH   3  20
BRANCH   1  26
HETATM   26  N1  UNL     1      12.675 120.846 135.271  1.00  0.00    -0.219 N 
HETATM   27  C1  UNL     1      13.408 121.258 136.455  1.00  0.00     0.191 C 
HETATM   28  F1  UNL     1      11.368 121.150 135.130  1.00  0.00    -0.099 F 
ENDBRANCH   1  26
TORSDOF 4
ENDMDL
