MODEL 1
REMARK VINA RESULT: -9.502120820      0.000      0.000
REMARK  5 active torsions:
REMARK  status: ('A' for Active; 'I' for Inactive)
REMARK    1  A    between atoms: C1_2  and  C2_5 
REMARK    2  A    between atoms: C7_10  and  O1_11 
REMARK    3  A    between atoms: O1_11  and  C8_12 
REMARK    4  A    between atoms: N2_18  and  C12_20 
REMARK    5  A    between atoms: C12_20  and  C13_21 
ROOT
HETATM    1  C8  UNL     1      14.791 119.814 130.723  1.00  0.00     0.074 A 
HETATM    2  C9  UNL     1      14.080 120.510 129.781  1.00  0.00     0.054 A 
HETATM    3  C10 UNL     1      12.921 121.193 130.079  1.00  0.00     0.092 A 
HETATM    4  N1  UNL     1      12.451 121.194 131.329  1.00  0.00    -0.352 N 
ATOM      5  H1  UNL     1      11.593 121.702 131.543  1.00  0.00     0.166 HD
HETATM    6  C11 UNL     1      13.103 120.524 132.326  1.00  0.00     0.103 A 
HETATM    7  N2  UNL     1      12.621 120.550 133.500  1.00  0.00    -0.376 N 
ATOM      8  H2  UNL     1      11.762 121.064 133.690  1.00  0.00     0.161 HD
HETATM    9  C16 UNL     1      14.273 119.834 132.021  1.00  0.00     0.085 A 
ENDROOT
BRANCH   1  10
HETATM   10  O1  UNL     1      15.932 119.130 130.475  1.00  0.00    -0.345 OA
BRANCH  10  11
HETATM   11  C7  UNL     1      16.438 118.736 129.259  1.00  0.00     0.133 C 
HETATM   12  C6  UNL     1      17.909 118.378 129.378  1.00  0.00     0.033 C 
HETATM   13  C5  UNL     1      18.510 118.001 128.063  1.00  0.00     0.007 C 
HETATM   14  C4  UNL     1      17.674 117.093 127.233  1.00  0.00    -0.009 C 
HETATM   15  C3  UNL     1      17.743 115.639 127.728  1.00  0.00     0.023 C 
HETATM   16  C19 UNL     1      16.213 117.451 127.206  1.00  0.00    -0.003 C 
HETATM   17  C2  UNL     1      16.320 115.362 128.070  1.00  0.00     0.059 C 
HETATM   18  C18 UNL     1      15.914 116.259 129.204  1.00  0.00     0.026 C 
HETATM   19  C20 UNL     1      15.618 116.062 126.892  1.00  0.00     0.024 C 
HETATM   20  C17 UNL     1      15.679 117.610 128.609  1.00  0.00     0.021 C 
BRANCH  17  21
HETATM   21  C1  UNL     1      15.932 113.952 128.208  1.00  0.00     0.395 C 
HETATM   22  F1  UNL     1      14.905 113.701 127.290  1.00  0.00    -0.170 F 
HETATM   23  F2  UNL     1      16.943 113.073 127.873  1.00  0.00    -0.170 F 
HETATM   24  F3  UNL     1      15.497 113.641 129.459  1.00  0.00    -0.170 F 
ENDBRANCH  17  21
ENDBRANCH  10  11
ENDBRANCH   1  10
BRANCH   7  25
HETATM   25  C12 UNL     1      13.294 119.852 134.559  1.00  0.00     0.129 C 
BRANCH  25  26
HETATM   26  C13 UNL     1      13.161 120.688 135.815  1.00  0.00     0.055 C 
HETATM   27  C14 UNL     1      12.212 121.857 135.689  1.00  0.00     0.240 C 
HETATM   28  N3  UNL     1      11.197 121.086 136.385  1.00  0.00    -0.074 N 
HETATM   29  C15 UNL     1      12.141 120.047 136.744  1.00  0.00     0.240 C 
ATOM     30  H32 UNL     1      10.656 121.537 137.123  1.00  0.00     0.277 HD
ATOM     31  H31 UNL     1      10.345 120.828 135.887  1.00  0.00     0.277 HD
ENDBRANCH  25  26
ENDBRANCH   7  25
TORSDOF 5
ENDMDL
MODEL 2
REMARK VINA RESULT: -9.453181950      1.331      1.857
REMARK  5 active torsions:
REMARK  status: ('A' for Active; 'I' for Inactive)
REMARK    1  A    between atoms: C1_2  and  C2_5 
REMARK    2  A    between atoms: C7_10  and  O1_11 
REMARK    3  A    between atoms: O1_11  and  C8_12 
REMARK    4  A    between atoms: N2_18  and  C12_20 
REMARK    5  A    between atoms: C12_20  and  C13_21 
ROOT
HETATM    1  C8  UNL     1      14.089 119.973 130.675  1.00  0.00     0.074 A 
HETATM    2  C9  UNL     1      13.682 120.769 129.637  1.00  0.00     0.054 A 
HETATM    3  C10 UNL     1      12.816 121.828 129.808  1.00  0.00     0.092 A 
HETATM    4  N1  UNL     1      12.341 122.110 131.023  1.00  0.00    -0.352 N 
ATOM      5  H1  UNL     1      11.701 122.895 131.142  1.00  0.00     0.166 HD
HETATM    6  C11 UNL     1      12.699 121.363 132.110  1.00  0.00     0.103 A 
HETATM    7  N2  UNL     1      12.223 121.665 133.247  1.00  0.00    -0.376 N 
ATOM      8  H2  UNL     1      11.584 122.455 133.342  1.00  0.00     0.161 HD
HETATM    9  C16 UNL     1      13.573 120.294 131.934  1.00  0.00     0.085 A 
ENDROOT
BRANCH   1  10
HETATM   10  O1  UNL     1      14.936 118.924 130.554  1.00  0.00    -0.345 OA
BRANCH  10  11
HETATM   11  C7  UNL     1      16.123 118.868 129.864  1.00  0.00     0.133 C 
HETATM   12  C6  UNL     1      17.080 117.887 130.517  1.00  0.00     0.033 C 
HETATM   13  C5  UNL     1      18.406 117.841 129.829  1.00  0.00     0.007 C 
HETATM   14  C4  UNL     1      18.336 117.807 128.344  1.00  0.00    -0.009 C 
HETATM   15  C3  UNL     1      17.971 116.409 127.820  1.00  0.00     0.023 C 
HETATM   16  C19 UNL     1      17.322 118.748 127.751  1.00  0.00    -0.003 C 
HETATM   17  C2  UNL     1      16.697 116.675 127.094  1.00  0.00     0.059 C 
HETATM   18  C18 UNL     1      15.663 117.124 128.086  1.00  0.00     0.026 C 
HETATM   19  C20 UNL     1      17.044 118.015 126.421  1.00  0.00     0.024 C 
HETATM   20  C17 UNL     1      15.974 118.552 128.399  1.00  0.00     0.021 C 
BRANCH  17  21
HETATM   21  C1  UNL     1      16.253 115.653 126.136  1.00  0.00     0.395 C 
HETATM   22  F1  UNL     1      17.386 114.944 125.717  1.00  0.00    -0.170 F 
HETATM   23  F2  UNL     1      15.417 114.708 126.696  1.00  0.00    -0.170 F 
HETATM   24  F3  UNL     1      15.629 116.180 125.048  1.00  0.00    -0.170 F 
ENDBRANCH  17  21
ENDBRANCH  10  11
ENDBRANCH   1  10
BRANCH   7  25
HETATM   25  C12 UNL     1      12.589 120.891 134.399  1.00  0.00     0.129 C 
BRANCH  25  26
HETATM   26  C13 UNL     1      12.111 121.641 135.625  1.00  0.00     0.055 C 
HETATM   27  C14 UNL     1      11.317 120.804 136.599  1.00  0.00     0.240 C 
HETATM   28  N3  UNL     1      12.501 120.682 137.432  1.00  0.00    -0.074 N 
HETATM   29  C15 UNL     1      13.223 121.675 136.663  1.00  0.00     0.240 C 
ATOM     30  H32 UNL     1      12.409 120.810 138.440  1.00  0.00     0.277 HD
ATOM     31  H31 UNL     1      12.918 119.760 137.564  1.00  0.00     0.277 HD
ENDBRANCH  25  26
ENDBRANCH   7  25
TORSDOF 5
ENDMDL
MODEL 3
REMARK VINA RESULT: -9.305093852      2.061      2.625
REMARK  5 active torsions:
REMARK  status: ('A' for Active; 'I' for Inactive)
REMARK    1  A    between atoms: C1_2  and  C2_5 
REMARK    2  A    between atoms: C7_10  and  O1_11 
REMARK    3  A    between atoms: O1_11  and  C8_12 
REMARK    4  A    between atoms: N2_18  and  C12_20 
REMARK    5  A    between atoms: C12_20  and  C13_21 
ROOT
HETATM    1  C8  UNL     1      15.746 119.349 130.964  1.00  0.00     0.074 A 
HETATM    2  C9  UNL     1      15.273 119.850 129.781  1.00  0.00     0.054 A 
HETATM    3  C10 UNL     1      14.033 120.442 129.667  1.00  0.00     0.092 A 
HETATM    4  N1  UNL     1      13.244 120.545 130.738  1.00  0.00    -0.352 N 
ATOM      5  H1  UNL     1      12.328 120.985 130.647  1.00  0.00     0.166 HD
HETATM    6  C11 UNL     1      13.643 120.070 131.955  1.00  0.00     0.103 A 
HETATM    7  N2  UNL     1      12.861 120.189 132.948  1.00  0.00    -0.376 N 
ATOM      8  H2  UNL     1      11.950 120.631 132.833  1.00  0.00     0.161 HD
HETATM    9  C16 UNL     1      14.895 119.472 132.067  1.00  0.00     0.085 A 
ENDROOT
BRANCH   1  10
HETATM   10  O1  UNL     1      16.954 118.760 131.122  1.00  0.00    -0.345 OA
BRANCH  10  11
HETATM   11  C7  UNL     1      17.399 117.578 130.581  1.00  0.00     0.133 C 
HETATM   12  C6  UNL     1      18.521 116.990 131.417  1.00  0.00     0.033 C 
HETATM   13  C5  UNL     1      19.071 115.732 130.827  1.00  0.00     0.007 C 
HETATM   14  C4  UNL     1      18.046 114.776 130.333  1.00  0.00    -0.009 C 
HETATM   15  C3  UNL     1      17.387 113.996 131.483  1.00  0.00     0.023 C 
HETATM   16  C19 UNL     1      16.918 115.418 129.570  1.00  0.00    -0.003 C 
HETATM   17  C2  UNL     1      15.957 114.391 131.344  1.00  0.00     0.059 C 
HETATM   18  C18 UNL     1      15.838 115.865 131.604  1.00  0.00     0.026 C 
HETATM   19  C20 UNL     1      15.817 114.363 129.812  1.00  0.00     0.024 C 
HETATM   20  C17 UNL     1      16.318 116.551 130.366  1.00  0.00     0.021 C 
BRANCH  17  21
HETATM   21  C1  UNL     1      14.966 113.546 132.024  1.00  0.00     0.395 C 
HETATM   22  F1  UNL     1      13.906 114.372 132.420  1.00  0.00    -0.170 F 
HETATM   23  F2  UNL     1      14.399 112.598 131.196  1.00  0.00    -0.170 F 
HETATM   24  F3  UNL     1      15.468 112.911 133.116  1.00  0.00    -0.170 F 
ENDBRANCH  17  21
ENDBRANCH  10  11
ENDBRANCH   1  10
BRANCH   7  25
HETATM   25  C12 UNL     1      13.266 119.695 134.234  1.00  0.00     0.129 C 
BRANCH  25  26
HETATM   26  C13 UNL     1      13.224 120.858 135.204  1.00  0.00     0.055 C 
HETATM   27  C14 UNL     1      12.127 121.860 134.930  1.00  0.00     0.240 C 
HETATM   28  N3  UNL     1      11.337 121.260 135.990  1.00  0.00    -0.074 N 
HETATM   29  C15 UNL     1      12.449 120.451 136.448  1.00  0.00     0.240 C 
ATOM     30  H32 UNL     1      10.863 121.870 136.657  1.00  0.00     0.277 HD
ATOM     31  H31 UNL     1      10.458 120.801 135.751  1.00  0.00     0.277 HD
ENDBRANCH  25  26
ENDBRANCH   7  25
TORSDOF 5
ENDMDL
MODEL 4
REMARK VINA RESULT: -9.162707477      2.746      4.496
REMARK  5 active torsions:
REMARK  status: ('A' for Active; 'I' for Inactive)
REMARK    1  A    between atoms: C1_2  and  C2_5 
REMARK    2  A    between atoms: C7_10  and  O1_11 
REMARK    3  A    between atoms: O1_11  and  C8_12 
REMARK    4  A    between atoms: N2_18  and  C12_20 
REMARK    5  A    between atoms: C12_20  and  C13_21 
ROOT
HETATM    1  C8  UNL     1      16.296 117.479 127.412  1.00  0.00     0.074 A 
HETATM    2  C9  UNL     1      17.210 118.157 126.649  1.00  0.00     0.054 A 
HETATM    3  C10 UNL     1      17.470 119.500 126.818  1.00  0.00     0.092 A 
HETATM    4  N1  UNL     1      16.818 120.191 127.756  1.00  0.00    -0.352 N 
ATOM      5  H1  UNL     1      17.015 121.185 127.876  1.00  0.00     0.166 HD
HETATM    6  C11 UNL     1      15.890 119.588 128.558  1.00  0.00     0.103 A 
HETATM    7  N2  UNL     1      15.293 120.283 129.436  1.00  0.00    -0.376 N 
ATOM      8  H2  UNL     1      15.506 121.275 129.538  1.00  0.00     0.161 HD
HETATM    9  C16 UNL     1      15.630 118.232 128.385  1.00  0.00     0.085 A 
ENDROOT
BRANCH   1  10
HETATM   10  O1  UNL     1      16.009 116.163 127.281  1.00  0.00    -0.345 OA
BRANCH  10  11
HETATM   11  C7  UNL     1      16.636 115.095 127.877  1.00  0.00     0.133 C 
HETATM   12  C6  UNL     1      17.897 115.542 128.594  1.00  0.00     0.033 C 
HETATM   13  C5  UNL     1      18.639 114.398 129.206  1.00  0.00     0.007 C 
HETATM   14  C4  UNL     1      17.785 113.414 129.922  1.00  0.00    -0.009 C 
HETATM   15  C3  UNL     1      17.356 113.928 131.306  1.00  0.00     0.023 C 
HETATM   16  C19 UNL     1      16.513 113.058 129.201  1.00  0.00    -0.003 C 
HETATM   17  C2  UNL     1      15.871 113.948 131.180  1.00  0.00     0.059 C 
HETATM   18  C18 UNL     1      15.491 114.953 130.132  1.00  0.00     0.026 C 
HETATM   19  C20 UNL     1      15.647 112.636 130.407  1.00  0.00     0.024 C 
HETATM   20  C17 UNL     1      15.758 114.306 128.811  1.00  0.00     0.021 C 
BRANCH  17  21
HETATM   21  C1  UNL     1      15.099 114.014 132.429  1.00  0.00     0.395 C 
HETATM   22  F1  UNL     1      14.375 112.820 132.543  1.00  0.00    -0.170 F 
HETATM   23  F2  UNL     1      15.893 114.068 133.557  1.00  0.00    -0.170 F 
HETATM   24  F3  UNL     1      14.236 115.064 132.465  1.00  0.00    -0.170 F 
ENDBRANCH  17  21
ENDBRANCH  10  11
ENDBRANCH   1  10
BRANCH   7  25
HETATM   25  C12 UNL     1      14.316 119.664 130.287  1.00  0.00     0.129 C 
BRANCH  25  26
HETATM   26  C13 UNL     1      14.839 119.730 131.708  1.00  0.00     0.055 C 
HETATM   27  C14 UNL     1      13.776 119.977 132.752  1.00  0.00     0.240 C 
HETATM   28  N3  UNL     1      13.786 118.560 133.072  1.00  0.00    -0.074 N 
HETATM   29  C15 UNL     1      14.967 118.321 132.266  1.00  0.00     0.240 C 
ATOM     30  H32 UNL     1      13.791 118.276 134.052  1.00  0.00     0.277 HD
ATOM     31  H31 UNL     1      12.946 118.009 132.893  1.00  0.00     0.277 HD
ENDBRANCH  25  26
ENDBRANCH   7  25
TORSDOF 5
ENDMDL
MODEL 5
REMARK VINA RESULT: -9.161941759      5.198      9.108
REMARK  5 active torsions:
REMARK  status: ('A' for Active; 'I' for Inactive)
REMARK    1  A    between atoms: C1_2  and  C2_5 
REMARK    2  A    between atoms: C7_10  and  O1_11 
REMARK    3  A    between atoms: O1_11  and  C8_12 
REMARK    4  A    between atoms: N2_18  and  C12_20 
REMARK    5  A    between atoms: C12_20  and  C13_21 
ROOT
HETATM    1  C8  UNL     1      14.957 117.630 132.946  1.00  0.00     0.074 A 
HETATM    2  C9  UNL     1      15.417 116.495 133.560  1.00  0.00     0.054 A 
HETATM    3  C10 UNL     1      16.567 115.849 133.161  1.00  0.00     0.092 A 
HETATM    4  N1  UNL     1      17.279 116.328 132.138  1.00  0.00    -0.352 N 
ATOM      5  H1  UNL     1      18.130 115.845 131.848  1.00  0.00     0.166 HD
HETATM    6  C11 UNL     1      16.887 117.456 131.474  1.00  0.00     0.103 A 
HETATM    7  N2  UNL     1      17.593 117.876 130.507  1.00  0.00    -0.376 N 
ATOM      8  H2  UNL     1      18.439 117.377 130.234  1.00  0.00     0.161 HD
HETATM    9  C16 UNL     1      15.724 118.106 131.878  1.00  0.00     0.085 A 
ENDROOT
BRANCH   1  10
HETATM   10  O1  UNL     1      13.834 118.297 133.304  1.00  0.00    -0.345 OA
BRANCH  10  11
HETATM   11  C7  UNL     1      13.714 119.610 133.690  1.00  0.00     0.133 C 
HETATM   12  C6  UNL     1      12.455 120.229 133.113  1.00  0.00     0.033 C 
HETATM   13  C5  UNL     1      12.319 121.676 133.463  1.00  0.00     0.007 C 
HETATM   14  C4  UNL     1      12.627 122.004 134.880  1.00  0.00    -0.009 C 
HETATM   15  C3  UNL     1      11.469 121.627 135.820  1.00  0.00     0.023 C 
HETATM   16  C19 UNL     1      13.845 121.309 135.426  1.00  0.00    -0.003 C 
HETATM   17  C2  UNL     1      12.118 120.637 136.726  1.00  0.00     0.059 C 
HETATM   18  C18 UNL     1      12.520 119.437 135.918  1.00  0.00     0.026 C 
HETATM   19  C20 UNL     1      13.487 121.312 136.928  1.00  0.00     0.024 C 
HETATM   20  C17 UNL     1      13.762 119.823 135.180  1.00  0.00     0.021 C 
BRANCH  17  21
HETATM   21  C1  UNL     1      11.433 120.347 137.992  1.00  0.00     0.395 C 
HETATM   22  F1  UNL     1      10.072 120.628 137.812  1.00  0.00    -0.170 F 
HETATM   23  F2  UNL     1      11.485 119.013 138.346  1.00  0.00    -0.170 F 
HETATM   24  F3  UNL     1      11.906 121.082 139.034  1.00  0.00    -0.170 F 
ENDBRANCH  17  21
ENDBRANCH  10  11
ENDBRANCH   1  10
BRANCH   7  25
HETATM   25  C12 UNL     1      17.195 119.060 129.799  1.00  0.00     0.129 C 
BRANCH  25  26
HETATM   26  C13 UNL     1      18.007 119.123 128.521  1.00  0.00     0.055 C 
HETATM   27  C14 UNL     1      18.117 117.809 127.786  1.00  0.00     0.240 C 
HETATM   28  N3  UNL     1      17.085 118.256 126.867  1.00  0.00    -0.074 N 
HETATM   29  C15 UNL     1      17.122 119.610 127.383  1.00  0.00     0.240 C 
ATOM     30  H32 UNL     1      17.218 118.105 125.866  1.00  0.00     0.277 HD
ATOM     31  H31 UNL     1      16.194 117.760 126.846  1.00  0.00     0.277 HD
ENDBRANCH  25  26
ENDBRANCH   7  25
TORSDOF 5
ENDMDL
