MODEL 1
REMARK VINA RESULT: -7.946221310      0.000      0.000
REMARK  8 active torsions:
REMARK  status: ('A' for Active; 'I' for Inactive)
REMARK    1  A    between atoms: C2_2  and  O1_3 
REMARK    2  A    between atoms: C2_2  and  C3_5 
REMARK    3  A    between atoms: C3_5  and  N1_6 
REMARK    4  A    between atoms: N1_6  and  C4_8 
REMARK    5  A    between atoms: C6_11  and  C7_12 
REMARK    6  A    between atoms: C7_12  and  N3_16 
REMARK    7  A    between atoms: C10_19  and  C11_20 
REMARK    8  A    between atoms: C13_25  and  C14_26 
ROOT
HETATM    1  C7  UNL     1      17.668 116.634 129.761  1.00  0.00     0.102 C 
HETATM    2  N2  UNL     1      18.420 115.976 128.895  1.00  0.00    -0.387 N 
ATOM      3  H21 UNL     1      18.548 114.974 129.041  1.00  0.00     0.157 HD
ATOM      4  H22 UNL     1      18.791 116.572 128.154  1.00  0.00     0.157 HD
ENDROOT
BRANCH   1   5
HETATM    5  C6  UNL     1      17.485 118.059 129.555  1.00  0.00     0.190 C 
HETATM    6  O2  UNL     1      17.428 118.318 128.180  1.00  0.00    -0.376 OA
HETATM    7  C5  UNL     1      16.223 119.034 127.962  1.00  0.00     0.193 C 
HETATM    8  C4  UNL     1      16.066 119.824 129.215  1.00  0.00     0.107 C 
HETATM    9  C18 UNL     1      16.278 118.678 130.211  1.00  0.00     0.067 C 
BRANCH   8  10
HETATM   10  N1  UNL     1      15.042 120.695 129.421  1.00  0.00    -0.393 N 
ATOM     11  H1  UNL     1      15.244 121.678 129.240  1.00  0.00     0.159 HD
BRANCH  10  12
HETATM   12  C3  UNL     1      13.758 120.404 129.846  1.00  0.00     0.087 C 
BRANCH  12  13
HETATM   13  C2  UNL     1      12.918 121.517 130.415  1.00  0.00     0.152 C 
HETATM   14  C1  UNL     1      12.662 121.337 131.895  1.00  0.00     0.045 C 
BRANCH  13  15
HETATM   15  O1  UNL     1      11.647 121.539 129.776  1.00  0.00    -0.391 OA
ATOM     16  H1  UNL     1      11.230 122.357 130.020  1.00  0.00     0.210 HD
ENDBRANCH  13  15
ENDBRANCH  12  13
ENDBRANCH  10  12
ENDBRANCH   8  10
ENDBRANCH   1   5
BRANCH   1  17
HETATM   17  N3  UNL     1      17.156 115.812 130.783  1.00  0.00    -0.363 N 
HETATM   18  C8  UNL     1      17.878 115.790 132.050  1.00  0.00     0.125 C 
HETATM   19  C9  UNL     1      16.946 116.088 133.203  1.00  0.00     0.033 C 
HETATM   20  C10 UNL     1      15.564 115.592 133.088  1.00  0.00     0.097 C 
HETATM   21  C12 UNL     1      14.981 115.403 131.747  1.00  0.00     0.039 C 
HETATM   22  C13 UNL     1      15.958 115.053 130.635  1.00  0.00     0.093 C 
BRANCH  20  23
HETATM   23  C11 UNL     1      14.676 116.637 133.809  1.00  0.00     0.391 C 
HETATM   24  F1  UNL     1      14.715 116.413 135.173  1.00  0.00    -0.171 F 
HETATM   25  F2  UNL     1      13.349 116.434 133.413  1.00  0.00    -0.171 F 
HETATM   26  F3  UNL     1      15.051 117.897 133.445  1.00  0.00    -0.171 F 
ENDBRANCH  20  23
BRANCH  22  27
HETATM   27  C14 UNL     1      16.078 113.599 130.402  1.00  0.00    -0.031 C 
HETATM   28  C15 UNL     1      15.822 113.238 128.938  1.00  0.00     0.016 C 
HETATM   29  C16 UNL     1      17.386 112.964 130.751  1.00  0.00     0.016 C 
HETATM   30  C17 UNL     1      15.000 112.866 131.192  1.00  0.00     0.016 C 
ENDBRANCH  22  27
ENDBRANCH   1  17
TORSDOF 8
ENDMDL
MODEL 2
REMARK VINA RESULT: -7.866046160      2.632      3.768
REMARK  8 active torsions:
REMARK  status: ('A' for Active; 'I' for Inactive)
REMARK    1  A    between atoms: C2_2  and  O1_3 
REMARK    2  A    between atoms: C2_2  and  C3_5 
REMARK    3  A    between atoms: C3_5  and  N1_6 
REMARK    4  A    between atoms: N1_6  and  C4_8 
REMARK    5  A    between atoms: C6_11  and  C7_12 
REMARK    6  A    between atoms: C7_12  and  N3_16 
REMARK    7  A    between atoms: C10_19  and  C11_20 
REMARK    8  A    between atoms: C13_25  and  C14_26 
ROOT
HETATM    1  C7  UNL     1      17.409 118.831 129.255  1.00  0.00     0.102 C 
HETATM    2  N2  UNL     1      18.258 119.569 128.560  1.00  0.00    -0.387 N 
ATOM      3  H21 UNL     1      18.850 119.098 127.876  1.00  0.00     0.157 HD
ATOM      4  H22 UNL     1      18.212 120.560 128.799  1.00  0.00     0.157 HD
ENDROOT
BRANCH   1   5
HETATM    5  C6  UNL     1      16.566 119.500 130.228  1.00  0.00     0.190 C 
HETATM    6  O2  UNL     1      15.516 120.141 129.561  1.00  0.00    -0.376 OA
HETATM    7  C5  UNL     1      14.320 119.676 130.166  1.00  0.00     0.193 C 
HETATM    8  C4  UNL     1      14.720 119.457 131.584  1.00  0.00     0.107 C 
HETATM    9  C18 UNL     1      15.986 118.634 131.317  1.00  0.00     0.067 C 
BRANCH   8  10
HETATM   10  N1  UNL     1      13.854 119.038 132.544  1.00  0.00    -0.393 N 
ATOM     11  H1  UNL     1      13.497 118.087 132.445  1.00  0.00     0.159 HD
BRANCH  10  12
HETATM   12  C3  UNL     1      13.399 119.749 133.641  1.00  0.00     0.087 C 
BRANCH  12  13
HETATM   13  C2  UNL     1      12.661 121.040 133.406  1.00  0.00     0.152 C 
HETATM   14  C1  UNL     1      12.007 121.558 134.668  1.00  0.00     0.045 C 
BRANCH  13  15
HETATM   15  O1  UNL     1      11.622 120.838 132.455  1.00  0.00    -0.391 OA
ATOM     16  H1  UNL     1      11.177 120.035 132.700  1.00  0.00     0.210 HD
ENDBRANCH  13  15
ENDBRANCH  12  13
ENDBRANCH  10  12
ENDBRANCH   8  10
ENDBRANCH   1   5
BRANCH   1  17
HETATM   17  N3  UNL     1      17.471 117.463 128.926  1.00  0.00    -0.363 N 
HETATM   18  C8  UNL     1      18.467 116.653 129.618  1.00  0.00     0.125 C 
HETATM   19  C9  UNL     1      17.823 115.439 130.252  1.00  0.00     0.033 C 
HETATM   20  C10 UNL     1      16.692 114.831 129.530  1.00  0.00     0.097 C 
HETATM   21  C12 UNL     1      15.872 115.677 128.644  1.00  0.00     0.039 C 
HETATM   22  C13 UNL     1      16.584 116.852 127.992  1.00  0.00     0.093 C 
BRANCH  20  23
HETATM   23  C11 UNL     1      15.737 114.283 130.620  1.00  0.00     0.391 C 
HETATM   24  F1  UNL     1      14.932 115.307 131.083  1.00  0.00    -0.171 F 
HETATM   25  F2  UNL     1      16.509 113.863 131.709  1.00  0.00    -0.171 F 
HETATM   26  F3  UNL     1      15.046 113.211 130.137  1.00  0.00    -0.171 F 
ENDBRANCH  20  23
BRANCH  22  27
HETATM   27  C14 UNL     1      17.097 116.547 126.640  1.00  0.00    -0.031 C 
HETATM   28  C15 UNL     1      17.307 117.816 125.814  1.00  0.00     0.016 C 
HETATM   29  C16 UNL     1      18.388 115.796 126.561  1.00  0.00     0.016 C 
HETATM   30  C17 UNL     1      16.060 115.734 125.875  1.00  0.00     0.016 C 
ENDBRANCH  22  27
ENDBRANCH   1  17
TORSDOF 8
ENDMDL
MODEL 3
REMARK VINA RESULT: -7.711381172      3.084      4.711
REMARK  8 active torsions:
REMARK  status: ('A' for Active; 'I' for Inactive)
REMARK    1  A    between atoms: C2_2  and  O1_3 
REMARK    2  A    between atoms: C2_2  and  C3_5 
REMARK    3  A    between atoms: C3_5  and  N1_6 
REMARK    4  A    between atoms: N1_6  and  C4_8 
REMARK    5  A    between atoms: C6_11  and  C7_12 
REMARK    6  A    between atoms: C7_12  and  N3_16 
REMARK    7  A    between atoms: C10_19  and  C11_20 
REMARK    8  A    between atoms: C13_25  and  C14_26 
ROOT
HETATM    1  C7  UNL     1      15.139 119.598 130.487  1.00  0.00     0.102 C 
HETATM    2  N2  UNL     1      15.512 120.591 129.697  1.00  0.00    -0.387 N 
ATOM      3  H21 UNL     1      16.353 120.463 129.135  1.00  0.00     0.157 HD
ATOM      4  H22 UNL     1      14.885 121.395 129.744  1.00  0.00     0.157 HD
ENDROOT
BRANCH   1   5
HETATM    5  C6  UNL     1      13.942 119.781 131.287  1.00  0.00     0.190 C 
HETATM    6  O2  UNL     1      13.869 118.759 132.241  1.00  0.00    -0.376 OA
HETATM    7  C5  UNL     1      13.735 119.401 133.499  1.00  0.00     0.193 C 
HETATM    8  C4  UNL     1      12.955 120.627 133.173  1.00  0.00     0.107 C 
HETATM    9  C18 UNL     1      13.807 121.106 131.991  1.00  0.00     0.067 C 
BRANCH   8  10
HETATM   10  N1  UNL     1      12.563 121.530 134.111  1.00  0.00    -0.393 N 
ATOM     11  H1  UNL     1      12.908 122.483 133.989  1.00  0.00     0.159 HD
BRANCH  10  12
HETATM   12  C3  UNL     1      11.752 121.310 135.210  1.00  0.00     0.087 C 
BRANCH  12  13
HETATM   13  C2  UNL     1      12.401 121.036 136.541  1.00  0.00     0.152 C 
HETATM   14  C1  UNL     1      11.436 120.419 137.528  1.00  0.00     0.045 C 
BRANCH  13  15
HETATM   15  O1  UNL     1      12.858 122.255 137.116  1.00  0.00    -0.391 OA
ATOM     16  H1  UNL     1      13.619 122.526 136.618  1.00  0.00     0.210 HD
ENDBRANCH  13  15
ENDBRANCH  12  13
ENDBRANCH  10  12
ENDBRANCH   8  10
ENDBRANCH   1   5
BRANCH   1  17
HETATM   17  N3  UNL     1      16.003 118.488 130.422  1.00  0.00    -0.363 N 
HETATM   18  C8  UNL     1      16.820 118.207 131.597  1.00  0.00     0.125 C 
HETATM   19  C9  UNL     1      16.643 116.771 132.040  1.00  0.00     0.033 C 
HETATM   20  C10 UNL     1      16.430 115.768 130.983  1.00  0.00     0.097 C 
HETATM   21  C12 UNL     1      15.814 116.189 129.711  1.00  0.00     0.039 C 
HETATM   22  C13 UNL     1      16.070 117.627 129.287  1.00  0.00     0.093 C 
BRANCH  20  23
HETATM   23  C11 UNL     1      15.488 114.700 131.594  1.00  0.00     0.391 C 
HETATM   24  F1  UNL     1      15.065 113.838 130.600  1.00  0.00    -0.171 F 
HETATM   25  F2  UNL     1      14.343 115.347 132.071  1.00  0.00    -0.171 F 
HETATM   26  F3  UNL     1      16.105 114.078 132.639  1.00  0.00    -0.171 F 
ENDBRANCH  20  23
BRANCH  22  27
HETATM   27  C14 UNL     1      17.219 117.770 128.371  1.00  0.00    -0.031 C 
HETATM   28  C15 UNL     1      16.807 118.396 127.038  1.00  0.00     0.016 C 
HETATM   29  C16 UNL     1      18.376 118.583 128.858  1.00  0.00     0.016 C 
HETATM   30  C17 UNL     1      17.761 116.390 128.016  1.00  0.00     0.016 C 
ENDBRANCH  22  27
ENDBRANCH   1  17
TORSDOF 8
ENDMDL
MODEL 4
REMARK VINA RESULT: -7.684951650      2.411      3.360
REMARK  8 active torsions:
REMARK  status: ('A' for Active; 'I' for Inactive)
REMARK    1  A    between atoms: C2_2  and  O1_3 
REMARK    2  A    between atoms: C2_2  and  C3_5 
REMARK    3  A    between atoms: C3_5  and  N1_6 
REMARK    4  A    between atoms: N1_6  and  C4_8 
REMARK    5  A    between atoms: C6_11  and  C7_12 
REMARK    6  A    between atoms: C7_12  and  N3_16 
REMARK    7  A    between atoms: C10_19  and  C11_20 
REMARK    8  A    between atoms: C13_25  and  C14_26 
ROOT
HETATM    1  C7  UNL     1      16.221 119.235 129.205  1.00  0.00     0.102 C 
HETATM    2  N2  UNL     1      16.499 119.589 127.961  1.00  0.00    -0.387 N 
ATOM      3  H21 UNL     1      17.044 118.942 127.392  1.00  0.00     0.157 HD
ATOM      4  H22 UNL     1      16.115 120.501 127.711  1.00  0.00     0.157 HD
ENDROOT
BRANCH   1   5
HETATM    5  C6  UNL     1      15.446 120.155 130.015  1.00  0.00     0.190 C 
HETATM    6  O2  UNL     1      14.311 120.552 129.298  1.00  0.00    -0.376 OA
HETATM    7  C5  UNL     1      13.198 120.275 130.133  1.00  0.00     0.193 C 
HETATM    8  C4  UNL     1      13.738 120.497 131.503  1.00  0.00     0.107 C 
HETATM    9  C18 UNL     1      15.008 119.649 131.366  1.00  0.00     0.067 C 
BRANCH   8  10
HETATM   10  N1  UNL     1      12.984 120.376 132.628  1.00  0.00    -0.393 N 
ATOM     11  H1  UNL     1      12.729 119.425 132.898  1.00  0.00     0.159 HD
BRANCH  10  12
HETATM   12  C3  UNL     1      12.522 121.388 133.450  1.00  0.00     0.087 C 
BRANCH  12  13
HETATM   13  C2  UNL     1      13.000 121.434 134.876  1.00  0.00     0.152 C 
HETATM   14  C1  UNL     1      13.095 120.054 135.489  1.00  0.00     0.045 C 
BRANCH  13  15
HETATM   15  O1  UNL     1      12.083 122.176 135.671  1.00  0.00    -0.391 OA
ATOM     16  H1  UNL     1      11.329 122.360 135.123  1.00  0.00     0.210 HD
ENDBRANCH  13  15
ENDBRANCH  12  13
ENDBRANCH  10  12
ENDBRANCH   8  10
ENDBRANCH   1   5
BRANCH   1  17
HETATM   17  N3  UNL     1      16.751 117.976 129.550  1.00  0.00    -0.363 N 
HETATM   18  C8  UNL     1      18.084 117.951 130.142  1.00  0.00     0.125 C 
HETATM   19  C9  UNL     1      18.076 117.185 131.446  1.00  0.00     0.033 C 
HETATM   20  C10 UNL     1      17.164 116.032 131.536  1.00  0.00     0.097 C 
HETATM   21  C12 UNL     1      15.943 116.019 130.709  1.00  0.00     0.039 C 
HETATM   22  C13 UNL     1      16.025 116.761 129.384  1.00  0.00     0.093 C 
BRANCH  20  23
HETATM   23  C11 UNL     1      16.694 115.976 133.012  1.00  0.00     0.391 C 
HETATM   24  F1  UNL     1      16.175 114.723 133.282  1.00  0.00    -0.171 F 
HETATM   25  F2  UNL     1      15.642 116.884 133.172  1.00  0.00    -0.171 F 
HETATM   26  F3  UNL     1      17.715 116.341 133.840  1.00  0.00    -0.171 F 
ENDBRANCH  20  23
BRANCH  22  27
HETATM   27  C14 UNL     1      16.380 115.887 128.247  1.00  0.00    -0.031 C 
HETATM   28  C15 UNL     1      15.595 116.251 126.986  1.00  0.00     0.016 C 
HETATM   29  C16 UNL     1      17.817 115.863 127.836  1.00  0.00     0.016 C 
HETATM   30  C17 UNL     1      15.983 114.451 128.567  1.00  0.00     0.016 C 
ENDBRANCH  22  27
ENDBRANCH   1  17
TORSDOF 8
ENDMDL
MODEL 5
REMARK VINA RESULT: -7.643112835      2.357      3.181
REMARK  8 active torsions:
REMARK  status: ('A' for Active; 'I' for Inactive)
REMARK    1  A    between atoms: C2_2  and  O1_3 
REMARK    2  A    between atoms: C2_2  and  C3_5 
REMARK    3  A    between atoms: C3_5  and  N1_6 
REMARK    4  A    between atoms: N1_6  and  C4_8 
REMARK    5  A    between atoms: C6_11  and  C7_12 
REMARK    6  A    between atoms: C7_12  and  N3_16 
REMARK    7  A    between atoms: C10_19  and  C11_20 
REMARK    8  A    between atoms: C13_25  and  C14_26 
ROOT
HETATM    1  C7  UNL     1      17.195 118.724 129.575  1.00  0.00     0.102 C 
HETATM    2  N2  UNL     1      18.166 119.226 128.830  1.00  0.00    -0.387 N 
ATOM      3  H21 UNL     1      18.790 118.572 128.357  1.00  0.00     0.157 HD
ATOM      4  H22 UNL     1      18.171 120.246 128.815  1.00  0.00     0.157 HD
ENDROOT
BRANCH   1   5
HETATM    5  C6  UNL     1      16.308 119.654 130.249  1.00  0.00     0.190 C 
HETATM    6  O2  UNL     1      15.375 120.146 129.329  1.00  0.00    -0.376 OA
HETATM    7  C5  UNL     1      14.097 119.900 129.891  1.00  0.00     0.193 C 
HETATM    8  C4  UNL     1      14.339 120.034 131.355  1.00  0.00     0.107 C 
HETATM    9  C18 UNL     1      15.566 119.119 131.446  1.00  0.00     0.067 C 
BRANCH   8  10
HETATM   10  N1  UNL     1      13.355 119.910 132.285  1.00  0.00    -0.393 N 
ATOM     11  H1  UNL     1      13.081 118.957 132.526  1.00  0.00     0.159 HD
BRANCH  10  12
HETATM   12  C3  UNL     1      12.680 120.924 132.942  1.00  0.00     0.087 C 
BRANCH  12  13
HETATM   13  C2  UNL     1      13.112 121.289 134.338  1.00  0.00     0.152 C 
HETATM   14  C1  UNL     1      13.166 120.085 135.251  1.00  0.00     0.045 C 
BRANCH  13  15
HETATM   15  O1  UNL     1      12.181 122.200 134.909  1.00  0.00    -0.391 OA
ATOM     16  H1  UNL     1      11.590 122.464 134.213  1.00  0.00     0.210 HD
ENDBRANCH  13  15
ENDBRANCH  12  13
ENDBRANCH  10  12
ENDBRANCH   8  10
ENDBRANCH   1   5
BRANCH   1  17
HETATM   17  N3  UNL     1      17.188 117.316 129.596  1.00  0.00    -0.363 N 
HETATM   18  C8  UNL     1      18.146 116.655 130.476  1.00  0.00     0.125 C 
HETATM   19  C9  UNL     1      17.446 115.670 131.386  1.00  0.00     0.033 C 
HETATM   20  C10 UNL     1      16.283 114.959 130.829  1.00  0.00     0.097 C 
HETATM   21  C12 UNL     1      15.501 115.598 129.754  1.00  0.00     0.039 C 
HETATM   22  C13 UNL     1      16.267 116.537 128.836  1.00  0.00     0.093 C 
BRANCH  20  23
HETATM   23  C11 UNL     1      15.307 114.746 132.013  1.00  0.00     0.391 C 
HETATM   24  F1  UNL     1      14.460 113.691 131.728  1.00  0.00    -0.171 F 
HETATM   25  F2  UNL     1      14.500 115.883 132.126  1.00  0.00    -0.171 F 
HETATM   26  F3  UNL     1      16.009 114.593 133.173  1.00  0.00    -0.171 F 
ENDBRANCH  20  23
BRANCH  22  27
HETATM   27  C14 UNL     1      16.758 115.881 127.607  1.00  0.00    -0.031 C 
HETATM   28  C15 UNL     1      16.724 116.828 126.407  1.00  0.00     0.016 C 
HETATM   29  C16 UNL     1      18.146 115.327 127.645  1.00  0.00     0.016 C 
HETATM   30  C17 UNL     1      15.827 114.731 127.239  1.00  0.00     0.016 C 
ENDBRANCH  22  27
ENDBRANCH   1  17
TORSDOF 8
ENDMDL
