MODEL 1
REMARK VINA RESULT: -7.909487713      0.000      0.000
REMARK  5 active torsions:
REMARK  status: ('A' for Active; 'I' for Inactive)
REMARK    1  A    between atoms: C3_3  and  C4_4 
REMARK    2  A    between atoms: C4_4  and  O1_5 
REMARK    3  A    between atoms: O1_5  and  C5_6 
REMARK    4  A    between atoms: C10_17  and  C11_18 
REMARK    5  A    between atoms: N5_23  and  C14_25 
ROOT
HETATM    1  C1  UNL     1      97.111 241.000 -14.307  1.00  0.00     0.112 C 
HETATM    2  C2  UNL     1      97.149 239.962 -13.276  1.00  0.00    -0.109 C 
HETATM    3  C3  UNL     1      97.202 239.087 -12.413  1.00  0.00    -0.080 C 
ENDROOT
BRANCH   3   4
HETATM    4  C4  UNL     1      97.327 238.058 -11.419  1.00  0.00     0.269 C 
BRANCH   4   5
HETATM    5  O1  UNL     1      98.190 238.309 -10.382  1.00  0.00    -0.337 OA
BRANCH   5   6
HETATM    6  C5  UNL     1      98.093 239.153  -9.320  1.00  0.00     0.107 A 
HETATM    7  C6  UNL     1      97.230 238.886  -8.266  1.00  0.00     0.040 A 
HETATM    8  C7  UNL     1      96.292 237.717  -8.348  1.00  0.00     0.071 C 
HETATM    9  N1  UNL     1      97.159 239.702  -7.206  1.00  0.00    -0.365 N 
HETATM   10  C8  UNL     1      97.905 240.805  -7.114  1.00  0.00     0.120 A 
ATOM     11  H1  UNL     1      96.516 239.474  -6.447  1.00  0.00     0.165 HD
HETATM   12  C9  UNL     1      98.772 241.121  -8.135  1.00  0.00     0.079 A 
HETATM   13  N2  UNL     1      99.619 242.163  -8.293  1.00  0.00    -0.298 N 
HETATM   14  C16 UNL     1      98.888 240.306  -9.268  1.00  0.00     0.059 A 
HETATM   15  N3  UNL     1     100.241 242.062  -9.432  1.00  0.00    -0.297 N 
ATOM     16  H2  UNL     1      99.752 242.916  -7.619  1.00  0.00     0.187 HD
HETATM   17  C10 UNL     1      99.810 240.913 -10.087  1.00  0.00     0.092 A 
ATOM     18  H3  UNL     1     100.934 242.721  -9.788  1.00  0.00     0.187 HD
BRANCH  17  19
HETATM   19  C11 UNL     1     100.301 240.538 -11.400  1.00  0.00     0.094 A 
HETATM   20  C12 UNL     1     100.912 239.305 -11.620  1.00  0.00     0.138 A 
HETATM   21  N4  UNL     1     101.378 239.287 -12.860  1.00  0.00    -0.200 N 
HETATM   22  C13 UNL     1     101.109 240.433 -13.464  1.00  0.00     0.679 A 
ATOM     23  H4  UNL     1     101.872 238.503 -13.288  1.00  0.00     0.183 HD
HETATM   24  N5  UNL     1     101.422 240.742 -14.668  1.00  0.00    -0.214 N 
HETATM   25  N7  UNL     1     100.447 241.192 -12.553  1.00  0.00    -0.188 N 
ATOM     26  H5  UNL     1     101.155 241.663 -15.018  1.00  0.00     0.178 HD
ATOM     27  H7  UNL     1     100.106 242.137 -12.728  1.00  0.00     0.184 HD
BRANCH  24  28
HETATM   28  C14 UNL     1     102.133 239.847 -15.555  1.00  0.00     0.262 C 
HETATM   29  C15 UNL     1     103.549 240.188 -15.485  1.00  0.00     0.079 C 
HETATM   30  N6  UNL     1     104.673 240.460 -15.432  1.00  0.00    -0.196 NA
ENDBRANCH  24  28
ENDBRANCH  17  19
ENDBRANCH   5   6
ENDBRANCH   4   5
ENDBRANCH   3   4
TORSDOF 5
ENDMDL
MODEL 2
REMARK VINA RESULT: -7.885511498      1.132      1.456
REMARK  5 active torsions:
REMARK  status: ('A' for Active; 'I' for Inactive)
REMARK    1  A    between atoms: C3_3  and  C4_4 
REMARK    2  A    between atoms: C4_4  and  O1_5 
REMARK    3  A    between atoms: O1_5  and  C5_6 
REMARK    4  A    between atoms: C10_17  and  C11_18 
REMARK    5  A    between atoms: N5_23  and  C14_25 
ROOT
HETATM    1  C1  UNL     1      93.653 239.416 -12.110  1.00  0.00     0.112 C 
HETATM    2  C2  UNL     1      95.062 239.030 -12.029  1.00  0.00    -0.109 C 
HETATM    3  C3  UNL     1      96.241 238.685 -11.960  1.00  0.00    -0.080 C 
ENDROOT
BRANCH   3   4
HETATM    4  C4  UNL     1      97.597 238.220 -11.876  1.00  0.00     0.269 C 
BRANCH   4   5
HETATM    5  O1  UNL     1      98.116 238.071 -10.614  1.00  0.00    -0.337 OA
BRANCH   5   6
HETATM    6  C5  UNL     1      97.874 238.747  -9.459  1.00  0.00     0.107 A 
HETATM    7  C6  UNL     1      96.952 238.278  -8.533  1.00  0.00     0.040 A 
HETATM    8  C7  UNL     1      96.112 237.078  -8.858  1.00  0.00     0.071 C 
HETATM    9  N1  UNL     1      96.736 238.928  -7.382  1.00  0.00    -0.365 N 
HETATM   10  C8  UNL     1      97.389 240.051  -7.072  1.00  0.00     0.120 A 
ATOM     11  H1  UNL     1      96.054 238.555  -6.722  1.00  0.00     0.165 HD
HETATM   12  C9  UNL     1      98.309 240.563  -7.959  1.00  0.00     0.079 A 
HETATM   13  N2  UNL     1      99.088 241.666  -7.897  1.00  0.00    -0.298 N 
HETATM   14  C16 UNL     1      98.574 239.927  -9.179  1.00  0.00     0.059 A 
HETATM   15  N3  UNL     1      99.803 241.769  -8.979  1.00  0.00    -0.297 N 
ATOM     16  H2  UNL     1      99.110 242.322  -7.116  1.00  0.00     0.187 HD
HETATM   17  C10 UNL     1      99.511 240.701  -9.822  1.00  0.00     0.092 A 
ATOM     18  H3  UNL     1     100.471 242.513  -9.178  1.00  0.00     0.187 HD
BRANCH  17  19
HETATM   19  C11 UNL     1     100.132 240.549 -11.124  1.00  0.00     0.094 A 
HETATM   20  C12 UNL     1      99.842 241.424 -12.171  1.00  0.00     0.138 A 
HETATM   21  N4  UNL     1     100.437 240.973 -13.266  1.00  0.00    -0.200 N 
HETATM   22  C13 UNL     1     101.097 239.858 -12.999  1.00  0.00     0.679 A 
ATOM     23  H4  UNL     1     100.393 241.420 -14.182  1.00  0.00     0.183 HD
HETATM   24  N5  UNL     1     101.780 239.167 -13.836  1.00  0.00    -0.214 N 
HETATM   25  N7  UNL     1     100.900 239.610 -11.678  1.00  0.00    -0.188 N 
ATOM     26  H5  UNL     1     102.245 238.322 -13.503  1.00  0.00     0.178 HD
ATOM     27  H7  UNL     1     101.287 238.812 -11.176  1.00  0.00     0.184 HD
BRANCH  24  28
HETATM   28  C14 UNL     1     101.922 239.529 -15.229  1.00  0.00     0.262 C 
HETATM   29  C15 UNL     1     103.247 240.114 -15.402  1.00  0.00     0.079 C 
HETATM   30  N6  UNL     1     104.297 240.581 -15.538  1.00  0.00    -0.196 NA
ENDBRANCH  24  28
ENDBRANCH  17  19
ENDBRANCH   5   6
ENDBRANCH   4   5
ENDBRANCH   3   4
TORSDOF 5
ENDMDL
MODEL 3
REMARK VINA RESULT: -7.724066258      1.323      1.761
REMARK  5 active torsions:
REMARK  status: ('A' for Active; 'I' for Inactive)
REMARK    1  A    between atoms: C3_3  and  C4_4 
REMARK    2  A    between atoms: C4_4  and  O1_5 
REMARK    3  A    between atoms: O1_5  and  C5_6 
REMARK    4  A    between atoms: C10_17  and  C11_18 
REMARK    5  A    between atoms: N5_23  and  C14_25 
ROOT
HETATM    1  C1  UNL     1      99.659 236.415 -14.356  1.00  0.00     0.112 C 
HETATM    2  C2  UNL     1      98.867 236.953 -13.250  1.00  0.00    -0.109 C 
HETATM    3  C3  UNL     1      98.207 237.426 -12.326  1.00  0.00    -0.080 C 
ENDROOT
BRANCH   3   4
HETATM    4  C4  UNL     1      97.455 238.037 -11.266  1.00  0.00     0.269 C 
BRANCH   4   5
HETATM    5  O1  UNL     1      98.039 238.040 -10.023  1.00  0.00    -0.337 OA
BRANCH   5   6
HETATM    6  C5  UNL     1      97.760 238.760  -8.904  1.00  0.00     0.107 A 
HETATM    7  C6  UNL     1      96.891 238.275  -7.936  1.00  0.00     0.040 A 
HETATM    8  C7  UNL     1      96.144 236.996  -8.178  1.00  0.00     0.071 C 
HETATM    9  N1  UNL     1      96.641 238.971  -6.819  1.00  0.00    -0.365 N 
HETATM   10  C8  UNL     1      97.207 240.157  -6.585  1.00  0.00     0.120 A 
ATOM     11  H1  UNL     1      95.999 238.584  -6.127  1.00  0.00     0.165 HD
HETATM   12  C9  UNL     1      98.072 240.688  -7.516  1.00  0.00     0.079 A 
HETATM   13  N2  UNL     1      98.761 241.850  -7.530  1.00  0.00    -0.298 N 
HETATM   14  C16 UNL     1      98.369 240.006  -8.703  1.00  0.00     0.059 A 
HETATM   15  N3  UNL     1      99.451 241.946  -8.629  1.00  0.00    -0.297 N 
ATOM     16  H2  UNL     1      98.743 242.550  -6.788  1.00  0.00     0.187 HD
HETATM   17  C10 UNL     1      99.233 240.812  -9.405  1.00  0.00     0.092 A 
ATOM     18  H3  UNL     1     100.056 242.728  -8.882  1.00  0.00     0.187 HD
BRANCH  17  19
HETATM   19  C11 UNL     1      99.845 240.635 -10.709  1.00  0.00     0.094 A 
HETATM   20  C12 UNL     1      99.300 241.221 -11.851  1.00  0.00     0.138 A 
HETATM   21  N4  UNL     1      99.976 240.785 -12.904  1.00  0.00    -0.200 N 
HETATM   22  C13 UNL     1     100.929 239.951 -12.521  1.00  0.00     0.679 A 
ATOM     23  H4  UNL     1      99.790 241.054 -13.870  1.00  0.00     0.183 HD
HETATM   24  N5  UNL     1     101.761 239.351 -13.289  1.00  0.00    -0.214 N 
HETATM   25  N7  UNL     1     100.835 239.868 -11.168  1.00  0.00    -0.188 N 
ATOM     26  H5  UNL     1     102.452 238.730 -12.868  1.00  0.00     0.178 HD
ATOM     27  H7  UNL     1     101.441 239.296 -10.581  1.00  0.00     0.184 HD
BRANCH  24  28
HETATM   28  C14 UNL     1     101.769 239.516 -14.727  1.00  0.00     0.262 C 
HETATM   29  C15 UNL     1     103.041 240.124 -15.097  1.00  0.00     0.079 C 
HETATM   30  N6  UNL     1     104.050 240.611 -15.390  1.00  0.00    -0.196 NA
ENDBRANCH  24  28
ENDBRANCH  17  19
ENDBRANCH   5   6
ENDBRANCH   4   5
ENDBRANCH   3   4
TORSDOF 5
ENDMDL
MODEL 4
REMARK VINA RESULT: -7.660063162      1.680      1.995
REMARK  5 active torsions:
REMARK  status: ('A' for Active; 'I' for Inactive)
REMARK    1  A    between atoms: C3_3  and  C4_4 
REMARK    2  A    between atoms: C4_4  and  O1_5 
REMARK    3  A    between atoms: O1_5  and  C5_6 
REMARK    4  A    between atoms: C10_17  and  C11_18 
REMARK    5  A    between atoms: N5_23  and  C14_25 
ROOT
HETATM    1  C1  UNL     1      93.420 239.435 -12.096  1.00  0.00     0.112 C 
HETATM    2  C2  UNL     1      94.813 239.000 -11.995  1.00  0.00    -0.109 C 
HETATM    3  C3  UNL     1      95.991 238.655 -11.906  1.00  0.00    -0.080 C 
ENDROOT
BRANCH   3   4
HETATM    4  C4  UNL     1      97.381 238.315 -11.795  1.00  0.00     0.269 C 
BRANCH   4   5
HETATM    5  O1  UNL     1      97.830 237.973 -10.544  1.00  0.00    -0.337 OA
BRANCH   5   6
HETATM    6  C5  UNL     1      97.578 238.515  -9.322  1.00  0.00     0.107 A 
HETATM    7  C6  UNL     1      96.772 237.863  -8.399  1.00  0.00     0.040 A 
HETATM    8  C7  UNL     1      96.060 236.601  -8.791  1.00  0.00     0.071 C 
HETATM    9  N1  UNL     1      96.550 238.382  -7.185  1.00  0.00    -0.365 N 
HETATM   10  C8  UNL     1      97.084 239.545  -6.806  1.00  0.00     0.120 A 
ATOM     11  H1  UNL     1      95.954 237.875  -6.530  1.00  0.00     0.165 HD
HETATM   12  C9  UNL     1      97.886 240.238  -7.686  1.00  0.00     0.079 A 
HETATM   13  N2  UNL     1      98.533 241.418  -7.561  1.00  0.00    -0.298 N 
HETATM   14  C16 UNL     1      98.152 239.744  -8.969  1.00  0.00     0.059 A 
HETATM   15  N3  UNL     1      99.168 241.697  -8.662  1.00  0.00    -0.297 N 
ATOM     16  H2  UNL     1      98.524 242.004  -6.726  1.00  0.00     0.187 HD
HETATM   17  C10 UNL     1      98.954 240.677  -9.583  1.00  0.00     0.092 A 
ATOM     18  H3  UNL     1      99.732 242.531  -8.824  1.00  0.00     0.187 HD
BRANCH  17  19
HETATM   19  C11 UNL     1      99.511 240.711 -10.922  1.00  0.00     0.094 A 
HETATM   20  C12 UNL     1     100.639 239.963 -11.257  1.00  0.00     0.138 A 
HETATM   21  N4  UNL     1     101.002 240.288 -12.489  1.00  0.00    -0.200 N 
HETATM   22  C13 UNL     1     100.181 241.202 -12.980  1.00  0.00     0.679 A 
ATOM     23  H4  UNL     1     101.799 239.891 -12.988  1.00  0.00     0.183 HD
HETATM   24  N5  UNL     1     100.251 241.731 -14.146  1.00  0.00    -0.214 N 
HETATM   25  N7  UNL     1      99.270 241.452 -12.004  1.00  0.00    -0.188 N 
ATOM     26  H5  UNL     1      99.553 242.428 -14.406  1.00  0.00     0.178 HD
ATOM     27  H7  UNL     1      98.502 242.118 -12.088  1.00  0.00     0.184 HD
BRANCH  24  28
HETATM   28  C14 UNL     1     101.273 241.385 -15.110  1.00  0.00     0.262 C 
HETATM   29  C15 UNL     1     100.661 241.412 -16.433  1.00  0.00     0.079 C 
HETATM   30  N6  UNL     1     100.174 241.430 -17.483  1.00  0.00    -0.196 NA
ENDBRANCH  24  28
ENDBRANCH  17  19
ENDBRANCH   5   6
ENDBRANCH   4   5
ENDBRANCH   3   4
TORSDOF 5
ENDMDL
MODEL 5
REMARK VINA RESULT: -7.594290849      1.981      3.233
REMARK  5 active torsions:
REMARK  status: ('A' for Active; 'I' for Inactive)
REMARK    1  A    between atoms: C3_3  and  C4_4 
REMARK    2  A    between atoms: C4_4  and  O1_5 
REMARK    3  A    between atoms: O1_5  and  C5_6 
REMARK    4  A    between atoms: C10_17  and  C11_18 
REMARK    5  A    between atoms: N5_23  and  C14_25 
ROOT
HETATM    1  C1  UNL     1      96.470 239.780 -14.155  1.00  0.00     0.112 C 
HETATM    2  C2  UNL     1      96.605 238.842 -13.039  1.00  0.00    -0.109 C 
HETATM    3  C3  UNL     1      96.719 238.071 -12.088  1.00  0.00    -0.080 C 
ENDROOT
BRANCH   3   4
HETATM    4  C4  UNL     1      96.857 237.222 -10.938  1.00  0.00     0.269 C 
BRANCH   4   5
HETATM    5  O1  UNL     1      96.322 237.690  -9.764  1.00  0.00    -0.337 OA
BRANCH   5   6
HETATM    6  C5  UNL     1      96.569 237.352  -8.469  1.00  0.00     0.107 A 
HETATM    7  C6  UNL     1      95.814 236.382  -7.823  1.00  0.00     0.040 A 
HETATM    8  C7  UNL     1      94.624 235.782  -8.513  1.00  0.00     0.071 C 
HETATM    9  N1  UNL     1      96.078 236.029  -6.559  1.00  0.00    -0.365 N 
HETATM   10  C8  UNL     1      97.069 236.590  -5.862  1.00  0.00     0.120 A 
ATOM     11  H1  UNL     1      95.505 235.311  -6.115  1.00  0.00     0.165 HD
HETATM   12  C9  UNL     1      97.843 237.562  -6.452  1.00  0.00     0.079 A 
HETATM   13  N2  UNL     1      98.884 238.282  -5.977  1.00  0.00    -0.298 N 
HETATM   14  C16 UNL     1      97.613 237.973  -7.771  1.00  0.00     0.059 A 
HETATM   15  N3  UNL     1      99.308 239.108  -6.888  1.00  0.00    -0.297 N 
ATOM     16  H2  UNL     1      99.279 238.191  -5.041  1.00  0.00     0.187 HD
HETATM   17  C10 UNL     1      98.535 238.958  -8.035  1.00  0.00     0.092 A 
ATOM     18  H3  UNL     1     100.084 239.762  -6.780  1.00  0.00     0.187 HD
BRANCH  17  19
HETATM   19  C11 UNL     1      98.747 239.762  -9.224  1.00  0.00     0.094 A 
HETATM   20  C12 UNL     1      97.858 240.776  -9.580  1.00  0.00     0.138 A 
HETATM   21  N4  UNL     1      98.218 241.247 -10.765  1.00  0.00    -0.200 N 
HETATM   22  C13 UNL     1      99.287 240.604 -11.205  1.00  0.00     0.679 A 
ATOM     23  H4  UNL     1      97.741 241.998 -11.265  1.00  0.00     0.183 HD
HETATM   24  N5  UNL     1      99.890 240.815 -12.317  1.00  0.00    -0.214 N 
HETATM   25  N7  UNL     1      99.600 239.694 -10.246  1.00  0.00    -0.188 N 
ATOM     26  H5  UNL     1     100.708 240.248 -12.541  1.00  0.00     0.178 HD
ATOM     27  H7  UNL     1     100.384 239.044 -10.301  1.00  0.00     0.184 HD
BRANCH  24  28
HETATM   28  C14 UNL     1      99.465 241.819 -13.268  1.00  0.00     0.262 C 
HETATM   29  C15 UNL     1     100.269 241.656 -14.473  1.00  0.00     0.079 C 
HETATM   30  N6  UNL     1     100.911 241.529 -15.428  1.00  0.00    -0.196 NA
ENDBRANCH  24  28
ENDBRANCH  17  19
ENDBRANCH   5   6
ENDBRANCH   4   5
ENDBRANCH   3   4
TORSDOF 5
ENDMDL
