MODEL 1
REMARK VINA RESULT: -7.442408230      0.000      0.000
REMARK  6 active torsions:
REMARK  status: ('A' for Active; 'I' for Inactive)
REMARK    1  A    between atoms: C5_7  and  N2_8 
REMARK    2  A    between atoms: C6_13  and  N4_14 
REMARK    3  A    between atoms: N4_14  and  C7_16 
REMARK    4  A    between atoms: C7_16  and  C8_17 
REMARK    5  A    between atoms: C8_17  and  C9_18 
REMARK    6  A    between atoms: C9_18  and  N5_19 
ROOT
HETATM    1  C1  UNL     1     100.972 239.731 -13.276  1.00  0.00     0.154 C 
HETATM    2  N1  UNL     1     100.321 239.994 -11.980  1.00  0.00    -0.368 N 
HETATM    3  C2  UNL     1     100.474 241.074 -11.205  1.00  0.00     0.109 A 
HETATM    4  C3  UNL     1      99.659 240.876 -10.081  1.00  0.00     0.035 A 
HETATM    5  S1  UNL     1      99.115 241.517  -8.600  1.00  0.00    -0.082 SA
HETATM    6  C4  UNL     1      98.072 240.253  -8.118  1.00  0.00     0.078 A 
HETATM    7  C5  UNL     1      97.245 240.032  -6.999  1.00  0.00     0.134 A 
HETATM    8  N3  UNL     1      96.518 238.903  -6.897  1.00  0.00    -0.176 N 
ATOM      9  H3  UNL     1      95.912 238.715  -6.098  1.00  0.00     0.186 HD
HETATM   10  C6  UNL     1      96.646 238.048  -7.910  1.00  0.00     0.680 A 
HETATM   11  N6  UNL     1      97.410 238.220  -8.975  1.00  0.00    -0.190 N 
ATOM     12  H6  UNL     1      97.431 237.495  -9.693  1.00  0.00     0.184 HD
HETATM   13  C14 UNL     1      98.181 239.353  -9.144  1.00  0.00     0.083 A 
HETATM   14  C15 UNL     1      99.011 239.686 -10.166  1.00  0.00     0.027 A 
HETATM   15  C16 UNL     1      99.460 239.152 -11.391  1.00  0.00     0.105 A 
ENDROOT
BRANCH  10  16
HETATM   16  N4  UNL     1      95.957 236.959  -7.833  1.00  0.00    -0.226 N 
ATOM     17  H4  UNL     1      95.276 236.773  -8.568  1.00  0.00     0.177 HD
BRANCH  16  18
HETATM   18  C7  UNL     1      96.087 235.999  -6.787  1.00  0.00     0.140 C 
BRANCH  18  19
HETATM   19  C8  UNL     1      94.808 236.000  -5.980  1.00  0.00     0.050 C 
BRANCH  19  20
HETATM   20  C9  UNL     1      94.362 234.615  -5.610  1.00  0.00     0.274 C 
BRANCH  20  21
HETATM   21  N5  UNL     1      94.201 234.570  -4.167  1.00  0.00     0.088 N 
HETATM   22  C10 UNL     1      95.503 234.359  -3.514  1.00  0.00     0.272 C 
HETATM   23  C11 UNL     1      95.128 234.552  -2.063  1.00  0.00     0.032 C 
HETATM   24  C12 UNL     1      94.104 235.675  -2.155  1.00  0.00     0.032 C 
HETATM   25  C13 UNL     1      93.849 235.875  -3.641  1.00  0.00     0.272 C 
ENDBRANCH  20  21
ENDBRANCH  19  20
ENDBRANCH  18  19
ENDBRANCH  16  18
ENDBRANCH  10  16
BRANCH   7  26
HETATM   26  N2  UNL     1      97.245 240.958  -6.120  1.00  0.00    -0.384 N 
ATOM     27  H22 UNL     1      98.055 241.541  -5.911  1.00  0.00     0.157 HD
ATOM     28  H21 UNL     1      96.365 241.092  -5.621  1.00  0.00     0.157 HD
ENDBRANCH   7  26
TORSDOF 6
ENDMDL
MODEL 2
REMARK VINA RESULT: -7.363754428      1.937      2.302
REMARK  6 active torsions:
REMARK  status: ('A' for Active; 'I' for Inactive)
REMARK    1  A    between atoms: C5_7  and  N2_8 
REMARK    2  A    between atoms: C6_13  and  N4_14 
REMARK    3  A    between atoms: N4_14  and  C7_16 
REMARK    4  A    between atoms: C7_16  and  C8_17 
REMARK    5  A    between atoms: C8_17  and  C9_18 
REMARK    6  A    between atoms: C9_18  and  N5_19 
ROOT
HETATM    1  C1  UNL     1      96.078 238.353 -14.117  1.00  0.00     0.154 C 
HETATM    2  N1  UNL     1      96.677 238.784 -12.841  1.00  0.00    -0.368 N 
HETATM    3  C2  UNL     1      97.510 239.814 -12.650  1.00  0.00     0.109 A 
HETATM    4  C3  UNL     1      97.812 239.833 -11.281  1.00  0.00     0.035 A 
HETATM    5  S1  UNL     1      98.674 240.611 -10.035  1.00  0.00    -0.082 SA
HETATM    6  C4  UNL     1      98.197 239.634  -8.717  1.00  0.00     0.078 A 
HETATM    7  C5  UNL     1      98.485 239.632  -7.338  1.00  0.00     0.134 A 
HETATM    8  N3  UNL     1      97.942 238.705  -6.526  1.00  0.00    -0.176 N 
ATOM      9  H3  UNL     1      98.133 238.679  -5.524  1.00  0.00     0.186 HD
HETATM   10  C6  UNL     1      97.139 237.824  -7.121  1.00  0.00     0.680 A 
HETATM   11  N6  UNL     1      96.846 237.794  -8.410  1.00  0.00    -0.190 N 
ATOM     12  H6  UNL     1      96.217 237.070  -8.758  1.00  0.00     0.184 HD
HETATM   13  C14 UNL     1      97.367 238.713  -9.298  1.00  0.00     0.083 A 
HETATM   14  C15 UNL     1      97.171 238.824 -10.638  1.00  0.00     0.027 A 
HETATM   15  C16 UNL     1      96.457 238.177 -11.667  1.00  0.00     0.105 A 
ENDROOT
BRANCH  10  16
HETATM   16  N4  UNL     1      96.608 236.926  -6.361  1.00  0.00    -0.226 N 
ATOM     17  H4  UNL     1      95.603 236.978  -6.194  1.00  0.00     0.177 HD
BRANCH  16  18
HETATM   18  C7  UNL     1      97.332 235.868  -5.740  1.00  0.00     0.140 C 
BRANCH  18  19
HETATM   19  C8  UNL     1      96.627 234.565  -6.047  1.00  0.00     0.050 C 
BRANCH  19  20
HETATM   20  C9  UNL     1      96.179 233.850  -4.805  1.00  0.00     0.274 C 
BRANCH  20  21
HETATM   21  N5  UNL     1      95.564 234.829  -3.925  1.00  0.00     0.088 N 
HETATM   22  C10 UNL     1      94.155 235.035  -4.294  1.00  0.00     0.272 C 
HETATM   23  C11 UNL     1      93.686 235.903  -3.149  1.00  0.00     0.032 C 
HETATM   24  C12 UNL     1      94.447 235.304  -1.974  1.00  0.00     0.032 C 
HETATM   25  C13 UNL     1      95.413 234.299  -2.583  1.00  0.00     0.272 C 
ENDBRANCH  20  21
ENDBRANCH  19  20
ENDBRANCH  18  19
ENDBRANCH  16  18
ENDBRANCH  10  16
BRANCH   7  26
HETATM   26  N2  UNL     1      99.277 240.550  -6.937  1.00  0.00    -0.384 N 
ATOM     27  H22 UNL     1      98.979 241.499  -6.717  1.00  0.00     0.157 HD
ATOM     28  H21 UNL     1     100.256 240.279  -6.844  1.00  0.00     0.157 HD
ENDBRANCH   7  26
TORSDOF 6
ENDMDL
MODEL 3
REMARK VINA RESULT: -7.355670844      2.978      9.062
REMARK  6 active torsions:
REMARK  status: ('A' for Active; 'I' for Inactive)
REMARK    1  A    between atoms: C5_7  and  N2_8 
REMARK    2  A    between atoms: C6_13  and  N4_14 
REMARK    3  A    between atoms: N4_14  and  C7_16 
REMARK    4  A    between atoms: C7_16  and  C8_17 
REMARK    5  A    between atoms: C8_17  and  C9_18 
REMARK    6  A    between atoms: C9_18  and  N5_19 
ROOT
HETATM    1  C1  UNL     1      94.582 234.529  -9.127  1.00  0.00     0.154 C 
HETATM    2  N1  UNL     1      95.426 235.668  -8.722  1.00  0.00    -0.368 N 
HETATM    3  C2  UNL     1      95.935 235.902  -7.506  1.00  0.00     0.109 A 
HETATM    4  C3  UNL     1      96.665 237.095  -7.603  1.00  0.00     0.035 A 
HETATM    5  S1  UNL     1      97.631 238.231  -6.779  1.00  0.00    -0.082 SA
HETATM    6  C4  UNL     1      97.939 239.314  -8.064  1.00  0.00     0.078 A 
HETATM    7  C5  UNL     1      98.666 240.514  -8.187  1.00  0.00     0.134 A 
HETATM    8  N3  UNL     1      98.727 241.161  -9.366  1.00  0.00    -0.176 N 
ATOM      9  H3  UNL     1      99.246 242.032  -9.484  1.00  0.00     0.186 HD
HETATM   10  C6  UNL     1      98.065 240.586 -10.368  1.00  0.00     0.680 A 
HETATM   11  N6  UNL     1      97.372 239.462 -10.292  1.00  0.00    -0.190 N 
ATOM     12  H6  UNL     1      96.901 239.112 -11.126  1.00  0.00     0.184 HD
HETATM   13  C14 UNL     1      97.268 238.748  -9.115  1.00  0.00     0.083 A 
HETATM   14  C15 UNL     1      96.605 237.589  -8.866  1.00  0.00     0.027 A 
HETATM   15  C16 UNL     1      95.805 236.651  -9.550  1.00  0.00     0.105 A 
ENDROOT
BRANCH  10  16
HETATM   16  N4  UNL     1      98.110 241.189 -11.508  1.00  0.00    -0.226 N 
ATOM     17  H4  UNL     1      97.919 242.190 -11.525  1.00  0.00     0.177 HD
BRANCH  16  18
HETATM   18  C7  UNL     1      98.408 240.548 -12.746  1.00  0.00     0.140 C 
BRANCH  18  19
HETATM   19  C8  UNL     1      99.255 241.488 -13.575  1.00  0.00     0.050 C 
BRANCH  19  20
HETATM   20  C9  UNL     1     100.721 241.354 -13.276  1.00  0.00     0.274 C 
BRANCH  20  21
HETATM   21  N5  UNL     1     101.436 241.375 -14.540  1.00  0.00     0.088 N 
HETATM   22  C10 UNL     1     102.098 240.082 -14.774  1.00  0.00     0.272 C 
HETATM   23  C11 UNL     1     102.585 240.265 -16.193  1.00  0.00     0.032 C 
HETATM   24  C12 UNL     1     101.438 241.051 -16.814  1.00  0.00     0.032 C 
HETATM   25  C13 UNL     1     100.515 241.409 -15.659  1.00  0.00     0.272 C 
ENDBRANCH  20  21
ENDBRANCH  19  20
ENDBRANCH  18  19
ENDBRANCH  16  18
ENDBRANCH  10  16
BRANCH   7  26
HETATM   26  N2  UNL     1      99.241 240.923  -7.123  1.00  0.00    -0.384 N 
ATOM     27  H22 UNL     1      99.220 240.418  -6.237  1.00  0.00     0.157 HD
ATOM     28  H21 UNL     1      99.740 241.809  -7.203  1.00  0.00     0.157 HD
ENDBRANCH   7  26
TORSDOF 6
ENDMDL
MODEL 4
REMARK VINA RESULT: -7.304050350      3.277      8.991
REMARK  6 active torsions:
REMARK  status: ('A' for Active; 'I' for Inactive)
REMARK    1  A    between atoms: C5_7  and  N2_8 
REMARK    2  A    between atoms: C6_13  and  N4_14 
REMARK    3  A    between atoms: N4_14  and  C7_16 
REMARK    4  A    between atoms: C7_16  and  C8_17 
REMARK    5  A    between atoms: C8_17  and  C9_18 
REMARK    6  A    between atoms: C9_18  and  N5_19 
ROOT
HETATM    1  C1  UNL     1      94.846 234.773 -10.600  1.00  0.00     0.154 C 
HETATM    2  N1  UNL     1      95.514 235.809  -9.791  1.00  0.00    -0.368 N 
HETATM    3  C2  UNL     1      95.512 235.915  -8.457  1.00  0.00     0.109 A 
HETATM    4  C3  UNL     1      96.275 237.049  -8.146  1.00  0.00     0.035 A 
HETATM    5  S1  UNL     1      96.888 238.044  -6.907  1.00  0.00    -0.082 SA
HETATM    6  C4  UNL     1      97.728 239.186  -7.860  1.00  0.00     0.078 A 
HETATM    7  C5  UNL     1      98.499 240.330  -7.573  1.00  0.00     0.134 A 
HETATM    8  N3  UNL     1      99.051 241.051  -8.568  1.00  0.00    -0.176 N 
ATOM      9  H3  UNL     1      99.613 241.884  -8.391  1.00  0.00     0.186 HD
HETATM   10  C6  UNL     1      98.812 240.602  -9.799  1.00  0.00     0.680 A 
HETATM   11  N6  UNL     1      98.094 239.535 -10.107  1.00  0.00    -0.190 N 
ATOM     12  H6  UNL     1      97.975 239.284 -11.088  1.00  0.00     0.184 HD
HETATM   13  C14 UNL     1      97.501 238.751  -9.138  1.00  0.00     0.083 A 
HETATM   14  C15 UNL     1      96.741 237.635  -9.279  1.00  0.00     0.027 A 
HETATM   15  C16 UNL     1      96.234 236.814 -10.307  1.00  0.00     0.105 A 
ENDROOT
BRANCH  10  16
HETATM   16  N4  UNL     1      99.331 241.279 -10.768  1.00  0.00    -0.226 N 
ATOM     17  H4  UNL     1      98.720 241.903 -11.294  1.00  0.00     0.177 HD
BRANCH  16  18
HETATM   18  C7  UNL     1     100.702 241.211 -11.151  1.00  0.00     0.140 C 
BRANCH  18  19
HETATM   19  C8  UNL     1     100.777 241.283 -12.660  1.00  0.00     0.050 C 
BRANCH  19  20
HETATM   20  C9  UNL     1     101.246 239.995 -13.273  1.00  0.00     0.274 C 
BRANCH  20  21
HETATM   21  N5  UNL     1     101.130 240.121 -14.716  1.00  0.00     0.088 N 
HETATM   22  C10 UNL     1     100.660 241.468 -15.076  1.00  0.00     0.272 C 
HETATM   23  C11 UNL     1     100.814 241.430 -16.579  1.00  0.00     0.032 C 
HETATM   24  C12 UNL     1     102.096 240.624 -16.739  1.00  0.00     0.032 C 
HETATM   25  C13 UNL     1     102.436 240.117 -15.345  1.00  0.00     0.272 C 
ENDBRANCH  20  21
ENDBRANCH  19  20
ENDBRANCH  18  19
ENDBRANCH  16  18
ENDBRANCH  10  16
BRANCH   7  26
HETATM   26  N2  UNL     1      98.625 240.616  -6.336  1.00  0.00    -0.384 N 
ATOM     27  H22 UNL     1      98.153 240.111  -5.586  1.00  0.00     0.157 HD
ATOM     28  H21 UNL     1      99.243 241.400  -6.124  1.00  0.00     0.157 HD
ENDBRANCH   7  26
TORSDOF 6
ENDMDL
MODEL 5
REMARK VINA RESULT: -7.081512596      1.825      2.632
REMARK  6 active torsions:
REMARK  status: ('A' for Active; 'I' for Inactive)
REMARK    1  A    between atoms: C5_7  and  N2_8 
REMARK    2  A    between atoms: C6_13  and  N4_14 
REMARK    3  A    between atoms: N4_14  and  C7_16 
REMARK    4  A    between atoms: C7_16  and  C8_17 
REMARK    5  A    between atoms: C8_17  and  C9_18 
REMARK    6  A    between atoms: C9_18  and  N5_19 
ROOT
HETATM    1  C1  UNL     1     101.067 241.306 -11.351  1.00  0.00     0.154 C 
HETATM    2  N1  UNL     1      99.785 240.588 -11.241  1.00  0.00    -0.368 N 
HETATM    3  C2  UNL     1      98.864 240.429 -12.199  1.00  0.00     0.109 A 
HETATM    4  C3  UNL     1      97.823 239.682 -11.631  1.00  0.00     0.035 A 
HETATM    5  S1  UNL     1      96.300 238.962 -11.884  1.00  0.00    -0.082 SA
HETATM    6  C4  UNL     1      96.049 238.296 -10.331  1.00  0.00     0.078 A 
HETATM    7  C5  UNL     1      95.015 237.544  -9.738  1.00  0.00     0.134 A 
HETATM    8  N3  UNL     1      95.104 237.151  -8.453  1.00  0.00    -0.176 N 
ATOM      9  H3  UNL     1      94.371 236.607  -7.997  1.00  0.00     0.186 HD
HETATM   10  C6  UNL     1      96.214 237.522  -7.818  1.00  0.00     0.680 A 
HETATM   11  N6  UNL     1      97.205 238.227  -8.340  1.00  0.00    -0.190 N 
ATOM     12  H6  UNL     1      98.011 238.456  -7.758  1.00  0.00     0.184 HD
HETATM   13  C14 UNL     1      97.178 238.662  -9.650  1.00  0.00     0.083 A 
HETATM   14  C15 UNL     1      98.100 239.385 -10.336  1.00  0.00     0.027 A 
HETATM   15  C16 UNL     1      99.360 239.981 -10.124  1.00  0.00     0.105 A 
ENDROOT
BRANCH  10  16
HETATM   16  N4  UNL     1      96.321 237.157  -6.585  1.00  0.00    -0.226 N 
ATOM     17  H4  UNL     1      95.590 237.450  -5.936  1.00  0.00     0.177 HD
BRANCH  16  18
HETATM   18  C7  UNL     1      97.392 236.370  -6.069  1.00  0.00     0.140 C 
BRANCH  18  19
HETATM   19  C8  UNL     1      96.893 234.955  -5.877  1.00  0.00     0.050 C 
BRANCH  19  20
HETATM   20  C9  UNL     1      95.447 234.907  -5.474  1.00  0.00     0.274 C 
BRANCH  20  21
HETATM   21  N5  UNL     1      95.368 235.242  -4.063  1.00  0.00     0.088 N 
HETATM   22  C10 UNL     1      93.984 235.583  -3.695  1.00  0.00     0.272 C 
HETATM   23  C11 UNL     1      94.107 235.686  -2.192  1.00  0.00     0.032 C 
HETATM   24  C12 UNL     1      95.090 234.565  -1.885  1.00  0.00     0.032 C 
HETATM   25  C13 UNL     1      95.580 234.069  -3.237  1.00  0.00     0.272 C 
ENDBRANCH  20  21
ENDBRANCH  19  20
ENDBRANCH  18  19
ENDBRANCH  16  18
ENDBRANCH  10  16
BRANCH   7  26
HETATM   26  N2  UNL     1      94.021 237.278 -10.494  1.00  0.00    -0.384 N 
ATOM     27  H22 UNL     1      93.568 236.365 -10.533  1.00  0.00     0.157 HD
ATOM     28  H21 UNL     1      93.690 238.047 -11.076  1.00  0.00     0.157 HD
ENDBRANCH   7  26
TORSDOF 6
ENDMDL
