MODEL 1
REMARK VINA RESULT: -6.583054197      0.000      0.000
REMARK  7 active torsions:
REMARK  status: ('A' for Active; 'I' for Inactive)
REMARK    1  A    between atoms: C5_5  and  O1_6 
REMARK    2  A    between atoms: C9_11  and  O2_12 
REMARK    3  A    between atoms: C9_11  and  C10_14 
REMARK    4  A    between atoms: C10_14  and  O3_15 
REMARK    5  A    between atoms: O3_15  and  C11_16 
REMARK    6  A    between atoms: C11_16  and  C13_18 
REMARK    7  A    between atoms: C13_18  and  O4_19 
ROOT
HETATM    1  C1  UNL     1      99.362 241.983 -13.623  1.00  0.00     0.010 C 
HETATM    2  C2  UNL     1      98.150 241.137 -13.157  1.00  0.00    -0.018 C 
HETATM    3  C3  UNL     1      97.296 241.000 -14.360  1.00  0.00     0.007 C 
HETATM    4  C4  UNL     1      95.932 240.436 -14.158  1.00  0.00     0.041 C 
HETATM    5  C5  UNL     1      95.875 238.985 -13.803  1.00  0.00     0.085 C 
HETATM    6  C6  UNL     1      94.929 238.772 -12.660  1.00  0.00     0.048 C 
HETATM    7  C7  UNL     1      95.551 238.285 -11.397  1.00  0.00     0.022 C 
HETATM    8  C8  UNL     1      95.413 236.808 -11.254  1.00  0.00     0.013 C 
HETATM    9  C9  UNL     1      96.940 238.815 -11.152  1.00  0.00     0.093 C 
HETATM   10  C14 UNL     1      97.874 238.737 -12.302  1.00  0.00     0.024 C 
HETATM   11  C15 UNL     1      98.839 237.574 -12.182  1.00  0.00     0.041 C 
HETATM   12  C16 UNL     1      98.643 236.808 -13.500  1.00  0.00     0.169 C 
HETATM   13  O5  UNL     1      97.260 237.001 -13.739  1.00  0.00    -0.382 OA
HETATM   14  C17 UNL     1      97.216 238.400 -13.612  1.00  0.00     0.167 C 
HETATM   15  C18 UNL     1      98.703 239.969 -12.503  1.00  0.00     0.019 C 
ENDROOT
BRANCH   9  16
HETATM   16  O2  UNL     1      96.744 240.211 -10.935  1.00  0.00    -0.386 OA
ATOM     17  H2  UNL     1      97.605 240.588 -11.074  1.00  0.00     0.210 HD
ENDBRANCH   9  16
BRANCH   9  18
HETATM   18  C10 UNL     1      97.465 238.345  -9.834  1.00  0.00     0.207 C 
BRANCH  18  19
HETATM   19  O3  UNL     1      97.222 239.368  -8.880  1.00  0.00    -0.381 OA
BRANCH  19  20
HETATM   20  C11 UNL     1      98.428 239.650  -8.238  1.00  0.00     0.141 C 
HETATM   21  C12 UNL     1      98.587 238.906  -6.950  1.00  0.00     0.042 C 
BRANCH  20  22
HETATM   22  C13 UNL     1      98.515 241.136  -7.932  1.00  0.00     0.195 C 
BRANCH  22  23
HETATM   23  O4  UNL     1      97.660 241.814  -8.804  1.00  0.00    -0.398 OA
ATOM     24  H4  UNL     1      97.760 242.747  -8.654  1.00  0.00     0.209 HD
ENDBRANCH  22  23
ENDBRANCH  20  22
ENDBRANCH  19  20
ENDBRANCH  18  19
ENDBRANCH   9  18
BRANCH   5  25
HETATM   25  O1  UNL     1      95.300 238.327 -14.921  1.00  0.00    -0.387 OA
ATOM     26  H1  UNL     1      94.362 238.464 -14.854  1.00  0.00     0.210 HD
ENDBRANCH   5  25
TORSDOF 7
ENDMDL
MODEL 2
REMARK VINA RESULT: -6.575001395      1.255      1.416
REMARK  7 active torsions:
REMARK  status: ('A' for Active; 'I' for Inactive)
REMARK    1  A    between atoms: C5_5  and  O1_6 
REMARK    2  A    between atoms: C9_11  and  O2_12 
REMARK    3  A    between atoms: C9_11  and  C10_14 
REMARK    4  A    between atoms: C10_14  and  O3_15 
REMARK    5  A    between atoms: O3_15  and  C11_16 
REMARK    6  A    between atoms: C11_16  and  C13_18 
REMARK    7  A    between atoms: C13_18  and  O4_19 
ROOT
HETATM    1  C1  UNL     1      99.994 242.078 -14.269  1.00  0.00     0.010 C 
HETATM    2  C2  UNL     1      98.920 241.328 -13.441  1.00  0.00    -0.018 C 
HETATM    3  C3  UNL     1      97.938 240.844 -14.438  1.00  0.00     0.007 C 
HETATM    4  C4  UNL     1      96.659 240.290 -13.911  1.00  0.00     0.041 C 
HETATM    5  C5  UNL     1      96.764 238.981 -13.198  1.00  0.00     0.085 C 
HETATM    6  C6  UNL     1      95.985 239.031 -11.917  1.00  0.00     0.048 C 
HETATM    7  C7  UNL     1      96.796 238.918 -10.673  1.00  0.00     0.022 C 
HETATM    8  C8  UNL     1      96.796 237.524 -10.144  1.00  0.00     0.013 C 
HETATM    9  C9  UNL     1      98.158 239.556 -10.766  1.00  0.00     0.093 C 
HETATM   10  C14 UNL     1      98.945 239.224 -11.979  1.00  0.00     0.024 C 
HETATM   11  C15 UNL     1     100.008 238.178 -11.706  1.00  0.00     0.041 C 
HETATM   12  C16 UNL     1      99.712 237.087 -12.747  1.00  0.00     0.169 C 
HETATM   13  O5  UNL     1      98.300 237.148 -12.831  1.00  0.00    -0.382 OA
HETATM   14  C17 UNL     1      98.160 238.528 -13.056  1.00  0.00     0.167 C 
HETATM   15  C18 UNL     1      99.642 240.397 -12.597  1.00  0.00     0.019 C 
ENDROOT
BRANCH   9  16
HETATM   16  O2  UNL     1      97.879 240.950 -10.883  1.00  0.00    -0.386 OA
ATOM     17  H2  UNL     1      96.948 240.983 -11.068  1.00  0.00     0.210 HD
ENDBRANCH   9  16
BRANCH   9  18
HETATM   18  C10 UNL     1      98.877 239.470  -9.459  1.00  0.00     0.207 C 
BRANCH  18  19
HETATM   19  O3  UNL     1      98.371 240.493  -8.616  1.00  0.00    -0.381 OA
BRANCH  19  20
HETATM   20  C11 UNL     1      98.524 240.074  -7.294  1.00  0.00     0.141 C 
HETATM   21  C12 UNL     1      98.879 238.625  -7.184  1.00  0.00     0.042 C 
BRANCH  20  22
HETATM   22  C13 UNL     1      97.230 240.296  -6.529  1.00  0.00     0.195 C 
BRANCH  22  23
HETATM   23  O4  UNL     1      97.221 241.609  -6.053  1.00  0.00    -0.398 OA
ATOM     24  H4  UNL     1      96.318 241.897  -5.988  1.00  0.00     0.209 HD
ENDBRANCH  22  23
ENDBRANCH  20  22
ENDBRANCH  19  20
ENDBRANCH  18  19
ENDBRANCH   9  18
BRANCH   5  25
HETATM   25  O1  UNL     1      96.109 238.029 -14.022  1.00  0.00    -0.387 OA
ATOM     26  H1  UNL     1      95.398 237.672 -13.501  1.00  0.00     0.210 HD
ENDBRANCH   5  25
TORSDOF 7
ENDMDL
MODEL 3
REMARK VINA RESULT: -6.474629249      1.962      4.024
REMARK  7 active torsions:
REMARK  status: ('A' for Active; 'I' for Inactive)
REMARK    1  A    between atoms: C5_5  and  O1_6 
REMARK    2  A    between atoms: C9_11  and  O2_12 
REMARK    3  A    between atoms: C9_11  and  C10_14 
REMARK    4  A    between atoms: C10_14  and  O3_15 
REMARK    5  A    between atoms: O3_15  and  C11_16 
REMARK    6  A    between atoms: C11_16  and  C13_18 
REMARK    7  A    between atoms: C13_18  and  O4_19 
ROOT
HETATM    1  C1  UNL     1      96.536 235.617 -12.330  1.00  0.00     0.010 C 
HETATM    2  C2  UNL     1      97.741 236.557 -12.071  1.00  0.00    -0.018 C 
HETATM    3  C3  UNL     1      98.765 236.145 -13.058  1.00  0.00     0.007 C 
HETATM    4  C4  UNL     1     100.132 236.714 -12.890  1.00  0.00     0.041 C 
HETATM    5  C5  UNL     1     100.267 238.175 -13.177  1.00  0.00     0.085 C 
HETATM    6  C6  UNL     1     101.057 238.840 -12.091  1.00  0.00     0.048 C 
HETATM    7  C7  UNL     1     100.309 239.837 -11.276  1.00  0.00     0.022 C 
HETATM    8  C8  UNL     1     100.557 241.228 -11.749  1.00  0.00     0.013 C 
HETATM    9  C9  UNL     1      98.857 239.493 -11.065  1.00  0.00     0.093 C 
HETATM   10  C14 UNL     1      98.107 239.085 -12.277  1.00  0.00     0.024 C 
HETATM   11  C15 UNL     1      97.242 240.205 -12.822  1.00  0.00     0.041 C 
HETATM   12  C16 UNL     1      97.691 240.323 -14.287  1.00  0.00     0.169 C 
HETATM   13  O5  UNL     1      99.071 240.019 -14.189  1.00  0.00    -0.382 OA
HETATM   14  C17 UNL     1      98.971 238.810 -13.478  1.00  0.00     0.167 C 
HETATM   15  C18 UNL     1      97.207 237.904 -12.074  1.00  0.00     0.019 C 
ENDROOT
BRANCH   9  16
HETATM   16  O2  UNL     1      98.894 238.323 -10.248  1.00  0.00    -0.386 OA
ATOM     17  H2  UNL     1      99.376 237.693 -10.772  1.00  0.00     0.210 HD
ENDBRANCH   9  16
BRANCH   9  18
HETATM   18  C10 UNL     1      98.195 240.495 -10.176  1.00  0.00     0.207 C 
BRANCH  18  19
HETATM   19  O3  UNL     1      97.481 239.785  -9.176  1.00  0.00    -0.381 OA
BRANCH  19  20
HETATM   20  C11 UNL     1      98.073 240.068  -7.945  1.00  0.00     0.141 C 
HETATM   21  C12 UNL     1      97.093 240.059  -6.815  1.00  0.00     0.042 C 
BRANCH  20  22
HETATM   22  C13 UNL     1      98.721 241.442  -7.988  1.00  0.00     0.195 C 
BRANCH  22  23
HETATM   23  O4  UNL     1      99.643 241.525  -6.941  1.00  0.00    -0.398 OA
ATOM     24  H4  UNL     1      99.500 242.345  -6.483  1.00  0.00     0.209 HD
ENDBRANCH  22  23
ENDBRANCH  20  22
ENDBRANCH  19  20
ENDBRANCH  18  19
ENDBRANCH   9  18
BRANCH   5  25
HETATM   25  O1  UNL     1     101.051 238.274 -14.356  1.00  0.00    -0.387 OA
ATOM     26  H1  UNL     1     101.644 239.004 -14.218  1.00  0.00     0.210 HD
ENDBRANCH   5  25
TORSDOF 7
ENDMDL
MODEL 4
REMARK VINA RESULT: -6.440720055      2.090      3.931
REMARK  7 active torsions:
REMARK  status: ('A' for Active; 'I' for Inactive)
REMARK    1  A    between atoms: C5_5  and  O1_6 
REMARK    2  A    between atoms: C9_11  and  O2_12 
REMARK    3  A    between atoms: C9_11  and  C10_14 
REMARK    4  A    between atoms: C10_14  and  O3_15 
REMARK    5  A    between atoms: O3_15  and  C11_16 
REMARK    6  A    between atoms: C11_16  and  C13_18 
REMARK    7  A    between atoms: C13_18  and  O4_19 
ROOT
HETATM    1  C1  UNL     1      95.967 236.691 -13.963  1.00  0.00     0.010 C 
HETATM    2  C2  UNL     1      97.339 237.121 -13.384  1.00  0.00    -0.018 C 
HETATM    3  C3  UNL     1      98.310 236.870 -14.474  1.00  0.00     0.007 C 
HETATM    4  C4  UNL     1      99.755 236.965 -14.125  1.00  0.00     0.041 C 
HETATM    5  C5  UNL     1     100.262 238.338 -13.825  1.00  0.00     0.085 C 
HETATM    6  C6  UNL     1     101.100 238.316 -12.582  1.00  0.00     0.048 C 
HETATM    7  C7  UNL     1     100.551 239.081 -11.428  1.00  0.00     0.022 C 
HETATM    8  C8  UNL     1     101.166 240.436 -11.328  1.00  0.00     0.013 C 
HETATM    9  C9  UNL     1      99.047 239.064 -11.338  1.00  0.00     0.093 C 
HETATM   10  C14 UNL     1      98.321 239.354 -12.599  1.00  0.00     0.024 C 
HETATM   11  C15 UNL     1      97.800 240.777 -12.648  1.00  0.00     0.041 C 
HETATM   12  C16 UNL     1      98.381 241.326 -13.960  1.00  0.00     0.169 C 
HETATM   13  O5  UNL     1      99.633 240.667 -14.016  1.00  0.00    -0.382 OA
HETATM   14  C17 UNL     1      99.187 239.347 -13.828  1.00  0.00     0.167 C 
HETATM   15  C18 UNL     1      97.149 238.455 -12.852  1.00  0.00     0.019 C 
ENDROOT
BRANCH   9  16
HETATM   16  O2  UNL     1      98.734 237.704 -11.042  1.00  0.00    -0.386 OA
ATOM     17  H2  UNL     1      97.991 237.762 -10.453  1.00  0.00     0.210 HD
ENDBRANCH   9  16
BRANCH   9  18
HETATM   18  C10 UNL     1      98.578 239.786 -10.117  1.00  0.00     0.207 C 
BRANCH  18  19
HETATM   19  O3  UNL     1      98.385 238.823  -9.091  1.00  0.00    -0.381 OA
BRANCH  19  20
HETATM   20  C11 UNL     1      98.910 239.347  -7.909  1.00  0.00     0.141 C 
HETATM   21  C12 UNL     1      98.624 238.488  -6.718  1.00  0.00     0.042 C 
BRANCH  20  22
HETATM   22  C13 UNL     1      98.316 240.721  -7.645  1.00  0.00     0.195 C 
BRANCH  22  23
HETATM   23  O4  UNL     1      98.748 241.153  -6.389  1.00  0.00    -0.398 OA
ATOM     24  H4  UNL     1      97.988 241.425  -5.889  1.00  0.00     0.209 HD
ENDBRANCH  22  23
ENDBRANCH  20  22
ENDBRANCH  19  20
ENDBRANCH  18  19
ENDBRANCH   9  18
BRANCH   5  25
HETATM   25  O1  UNL     1     101.140 238.676 -14.887  1.00  0.00    -0.387 OA
ATOM     26  H1  UNL     1     100.788 239.466 -15.281  1.00  0.00     0.210 HD
ENDBRANCH   5  25
TORSDOF 7
ENDMDL
MODEL 5
REMARK VINA RESULT: -6.310747544      3.311      5.974
REMARK  7 active torsions:
REMARK  status: ('A' for Active; 'I' for Inactive)
REMARK    1  A    between atoms: C5_5  and  O1_6 
REMARK    2  A    between atoms: C9_11  and  O2_12 
REMARK    3  A    between atoms: C9_11  and  C10_14 
REMARK    4  A    between atoms: C10_14  and  O3_15 
REMARK    5  A    between atoms: O3_15  and  C11_16 
REMARK    6  A    between atoms: C11_16  and  C13_18 
REMARK    7  A    between atoms: C13_18  and  O4_19 
ROOT
HETATM    1  C1  UNL     1      98.865 235.313 -12.806  1.00  0.00     0.010 C 
HETATM    2  C2  UNL     1      98.851 236.731 -13.432  1.00  0.00    -0.018 C 
HETATM    3  C3  UNL     1      97.426 237.135 -13.431  1.00  0.00     0.007 C 
HETATM    4  C4  UNL     1      97.073 238.362 -14.197  1.00  0.00     0.041 C 
HETATM    5  C5  UNL     1      97.565 239.651 -13.622  1.00  0.00     0.085 C 
HETATM    6  C6  UNL     1      98.180 240.493 -14.699  1.00  0.00     0.048 C 
HETATM    7  C7  UNL     1      99.642 240.742 -14.559  1.00  0.00     0.022 C 
HETATM    8  C8  UNL     1      99.914 242.067 -13.933  1.00  0.00     0.013 C 
HETATM    9  C9  UNL     1     100.406 239.591 -13.957  1.00  0.00     0.093 C 
HETATM   10  C14 UNL     1      99.819 238.998 -12.731  1.00  0.00     0.024 C 
HETATM   11  C15 UNL     1     100.521 239.467 -11.472  1.00  0.00     0.041 C 
HETATM   12  C16 UNL     1      99.377 240.028 -10.612  1.00  0.00     0.169 C 
HETATM   13  O5  UNL     1      98.520 240.573 -11.599  1.00  0.00    -0.382 OA
HETATM   14  C17 UNL     1      98.415 239.448 -12.434  1.00  0.00     0.167 C 
HETATM   15  C18 UNL     1      99.841 237.499 -12.704  1.00  0.00     0.019 C 
ENDROOT
BRANCH   9  16
HETATM   16  O2  UNL     1     100.314 238.562 -14.941  1.00  0.00    -0.386 OA
ATOM     17  H2  UNL     1     100.853 237.862 -14.592  1.00  0.00     0.210 HD
ENDBRANCH   9  16
BRANCH   9  18
HETATM   18  C10 UNL     1     101.870 239.886 -13.920  1.00  0.00     0.207 C 
BRANCH  18  19
HETATM   19  O3  UNL     1     102.464 239.278 -15.058  1.00  0.00    -0.381 OA
BRANCH  19  20
HETATM   20  C11 UNL     1     103.184 240.259 -15.741  1.00  0.00     0.141 C 
HETATM   21  C12 UNL     1     102.619 240.557 -17.093  1.00  0.00     0.042 C 
BRANCH  20  22
HETATM   22  C13 UNL     1     104.623 239.808 -15.926  1.00  0.00     0.195 C 
BRANCH  22  23
HETATM   23  O4  UNL     1     105.249 239.813 -14.677  1.00  0.00    -0.398 OA
ATOM     24  H4  UNL     1     105.663 238.967 -14.548  1.00  0.00     0.209 HD
ENDBRANCH  22  23
ENDBRANCH  20  22
ENDBRANCH  19  20
ENDBRANCH  18  19
ENDBRANCH   9  18
BRANCH   5  25
HETATM   25  O1  UNL     1      96.412 240.352 -13.181  1.00  0.00    -0.387 OA
ATOM     26  H1  UNL     1      96.279 240.100 -12.275  1.00  0.00     0.210 HD
ENDBRANCH   5  25
TORSDOF 7
ENDMDL
