MODEL 1
REMARK VINA RESULT: -6.916582620      0.000      0.000
REMARK  8 active torsions:
REMARK  status: ('A' for Active; 'I' for Inactive)
REMARK    1  A    between atoms: O1_2  and  C2_3 
REMARK    2  A    between atoms: C2_3  and  N1_5 
REMARK    3  A    between atoms: C3_7  and  C4_8 
REMARK    4  A    between atoms: C3_7  and  N4_17 
REMARK    5  A    between atoms: C4_8  and  O2_9 
REMARK    6  A    between atoms: O2_9  and  N2_10 
REMARK    7  A    between atoms: N2_10  and  C5_12 
REMARK    8  A    between atoms: N4_17  and  C7_19 
ROOT
HETATM    1  N1  UNL     1      96.950 237.452  -8.360  1.00  0.00    -0.315 N 
ATOM      2  H1  UNL     1      97.815 237.704  -8.838  1.00  0.00     0.170 HD
HETATM    3  C3  UNL     1      97.015 237.402  -7.095  1.00  0.00     0.106 C 
ENDROOT
BRANCH   3   4
HETATM    4  C4  UNL     1      98.340 237.714  -6.448  1.00  0.00     0.277 C 
BRANCH   4   5
HETATM    5  O2  UNL     1      99.115 238.498  -7.269  1.00  0.00    -0.272 OA
BRANCH   5   6
HETATM    6  N2  UNL     1      99.131 239.743  -6.773  1.00  0.00    -0.255 N 
ATOM      7  H2  UNL     1      99.868 239.998  -6.116  1.00  0.00     0.195 HD
BRANCH   6   8
HETATM    8  C5  UNL     1      98.158 240.730  -7.126  1.00  0.00     0.091 C 
HETATM    9  C6  UNL     1      98.195 241.238  -8.513  1.00  0.00     0.090 C 
HETATM   10  N3  UNL     1      97.285 241.168  -6.289  1.00  0.00    -0.388 N 
ATOM     11  H32 UNL     1      97.259 240.817  -5.331  1.00  0.00     0.157 HD
ATOM     12  H31 UNL     1      96.591 241.872  -6.541  1.00  0.00     0.157 HD
ENDBRANCH   6   8
ENDBRANCH   5   6
ENDBRANCH   4   5
ENDBRANCH   3   4
BRANCH   3  13
HETATM   13  N4  UNL     1      95.892 237.066  -6.289  1.00  0.00    -0.373 N 
ATOM     14  H4  UNL     1      95.063 237.656  -6.357  1.00  0.00     0.161 HD
BRANCH  13  15
HETATM   15  C7  UNL     1      95.849 235.955  -5.389  1.00  0.00     0.083 C 
HETATM   16  C8  UNL     1      96.113 234.631  -6.037  1.00  0.00     0.029 C 
HETATM   17  C9  UNL     1      95.069 233.596  -5.790  1.00  0.00    -0.016 C 
HETATM   18  C10 UNL     1      93.909 233.683  -6.760  1.00  0.00     0.010 C 
HETATM   19  C11 UNL     1      94.555 233.527  -4.392  1.00  0.00     0.013 C 
HETATM   20  C12 UNL     1      94.439 234.820  -3.677  1.00  0.00    -0.045 C 
HETATM   21  C13 UNL     1      95.518 234.901  -2.612  1.00  0.00     0.015 C 
HETATM   22  C14 UNL     1      93.095 234.941  -2.985  1.00  0.00     0.015 C 
HETATM   23  C15 UNL     1      94.544 235.978  -4.644  1.00  0.00     0.034 C 
ENDBRANCH  13  15
ENDBRANCH   3  13
BRANCH   1  24
HETATM   24  C2  UNL     1      95.856 237.209  -9.183  1.00  0.00     0.215 C 
HETATM   25  S1  UNL     1      95.543 235.704  -9.711  1.00  0.00    -0.033 SA
BRANCH  24  26
HETATM   26  O1  UNL     1      95.020 238.243  -9.563  1.00  0.00    -0.332 OA
HETATM   27  C1  UNL     1      94.239 238.247 -10.732  1.00  0.00     0.212 C 
ENDBRANCH  24  26
ENDBRANCH   1  24
TORSDOF 8
ENDMDL
MODEL 2
REMARK VINA RESULT: -6.668723685      4.603      8.642
REMARK  8 active torsions:
REMARK  status: ('A' for Active; 'I' for Inactive)
REMARK    1  A    between atoms: O1_2  and  C2_3 
REMARK    2  A    between atoms: C2_3  and  N1_5 
REMARK    3  A    between atoms: C3_7  and  C4_8 
REMARK    4  A    between atoms: C3_7  and  N4_17 
REMARK    5  A    between atoms: C4_8  and  O2_9 
REMARK    6  A    between atoms: O2_9  and  N2_10 
REMARK    7  A    between atoms: N2_10  and  C5_12 
REMARK    8  A    between atoms: N4_17  and  C7_19 
ROOT
HETATM    1  N1  UNL     1      98.006 239.223 -10.619  1.00  0.00    -0.315 N 
ATOM      2  H1  UNL     1      97.193 239.549 -10.098  1.00  0.00     0.170 HD
HETATM    3  C3  UNL     1      99.091 239.834 -10.384  1.00  0.00     0.106 C 
ENDROOT
BRANCH   3   4
HETATM    4  C4  UNL     1      99.061 240.956  -9.380  1.00  0.00     0.277 C 
BRANCH   4   5
HETATM    5  O2  UNL     1      97.772 241.241  -8.999  1.00  0.00    -0.272 OA
BRANCH   5   6
HETATM    6  N2  UNL     1      97.752 241.419  -7.671  1.00  0.00    -0.255 N 
ATOM      7  H2  UNL     1      97.793 242.370  -7.305  1.00  0.00     0.195 HD
BRANCH   6   8
HETATM    8  C5  UNL     1      97.677 240.332  -6.744  1.00  0.00     0.091 C 
HETATM    9  C6  UNL     1      96.827 239.187  -7.126  1.00  0.00     0.090 C 
HETATM   10  N3  UNL     1      98.313 240.335  -5.626  1.00  0.00    -0.388 N 
ATOM     11  H32 UNL     1      98.900 241.126  -5.362  1.00  0.00     0.157 HD
ATOM     12  H31 UNL     1      98.260 239.560  -4.965  1.00  0.00     0.157 HD
ENDBRANCH   6   8
ENDBRANCH   5   6
ENDBRANCH   4   5
ENDBRANCH   3   4
BRANCH   3  13
HETATM   13  N4  UNL     1     100.312 239.493 -11.032  1.00  0.00    -0.373 N 
ATOM     14  H4  UNL     1     100.876 238.747 -10.624  1.00  0.00     0.161 HD
BRANCH  13  15
HETATM   15  C7  UNL     1     100.799 240.126 -12.219  1.00  0.00     0.083 C 
HETATM   16  C8  UNL     1     100.347 241.544 -12.386  1.00  0.00     0.029 C 
HETATM   17  C9  UNL     1      99.692 241.839 -13.692  1.00  0.00    -0.016 C 
HETATM   18  C10 UNL     1      98.212 241.513 -13.699  1.00  0.00     0.010 C 
HETATM   19  C11 UNL     1     100.348 241.236 -14.887  1.00  0.00     0.013 C 
HETATM   20  C12 UNL     1     100.945 239.894 -14.695  1.00  0.00    -0.045 C 
HETATM   21  C13 UNL     1     102.458 240.015 -14.702  1.00  0.00     0.015 C 
HETATM   22  C14 UNL     1     100.550 238.955 -15.818  1.00  0.00     0.015 C 
HETATM   23  C15 UNL     1     100.457 239.271 -13.406  1.00  0.00     0.034 C 
ENDBRANCH  13  15
ENDBRANCH   3  13
BRANCH   1  24
HETATM   24  C2  UNL     1      97.777 238.166 -11.492  1.00  0.00     0.215 C 
HETATM   25  S1  UNL     1      96.501 238.192 -12.499  1.00  0.00    -0.033 SA
BRANCH  24  26
HETATM   26  O1  UNL     1      98.631 237.077 -11.517  1.00  0.00    -0.332 OA
HETATM   27  C1  UNL     1      98.635 236.091 -12.518  1.00  0.00     0.212 C 
ENDBRANCH  24  26
ENDBRANCH   1  24
TORSDOF 8
ENDMDL
MODEL 3
REMARK VINA RESULT: -6.486787093      7.063     10.678
REMARK  8 active torsions:
REMARK  status: ('A' for Active; 'I' for Inactive)
REMARK    1  A    between atoms: O1_2  and  C2_3 
REMARK    2  A    between atoms: C2_3  and  N1_5 
REMARK    3  A    between atoms: C3_7  and  C4_8 
REMARK    4  A    between atoms: C3_7  and  N4_17 
REMARK    5  A    between atoms: C4_8  and  O2_9 
REMARK    6  A    between atoms: O2_9  and  N2_10 
REMARK    7  A    between atoms: N2_10  and  C5_12 
REMARK    8  A    between atoms: N4_17  and  C7_19 
ROOT
HETATM    1  N1  UNL     1      99.886 239.285 -11.674  1.00  0.00    -0.315 N 
ATOM      2  H1  UNL     1      99.875 239.677 -10.732  1.00  0.00     0.170 HD
HETATM    3  C3  UNL     1     100.338 240.046 -12.581  1.00  0.00     0.106 C 
ENDROOT
BRANCH   3   4
HETATM    4  C4  UNL     1     100.798 241.422 -12.177  1.00  0.00     0.277 C 
BRANCH   4   5
HETATM    5  O2  UNL     1     101.543 241.373 -11.023  1.00  0.00    -0.272 OA
BRANCH   5   6
HETATM    6  N2  UNL     1     100.814 241.897 -10.027  1.00  0.00    -0.255 N 
ATOM      7  H2  UNL     1      99.857 241.570  -9.899  1.00  0.00     0.195 HD
BRANCH   6   8
HETATM    8  C5  UNL     1     101.322 242.893  -9.137  1.00  0.00     0.091 C 
HETATM    9  C6  UNL     1     102.772 243.171  -9.202  1.00  0.00     0.090 C 
HETATM   10  N3  UNL     1     100.567 243.529  -8.311  1.00  0.00    -0.388 N 
ATOM     11  H32 UNL     1      99.566 243.337  -8.266  1.00  0.00     0.157 HD
ATOM     12  H31 UNL     1     100.929 244.240  -7.676  1.00  0.00     0.157 HD
ENDBRANCH   6   8
ENDBRANCH   5   6
ENDBRANCH   4   5
ENDBRANCH   3   4
BRANCH   3  13
HETATM   13  N4  UNL     1     100.417 239.641 -13.943  1.00  0.00    -0.373 N 
ATOM     14  H4  UNL     1      99.808 238.882 -14.251  1.00  0.00     0.161 HD
BRANCH  13  15
HETATM   15  C7  UNL     1     101.294 240.227 -14.909  1.00  0.00     0.083 C 
HETATM   16  C8  UNL     1     100.695 241.371 -15.667  1.00  0.00     0.029 C 
HETATM   17  C9  UNL     1     100.764 241.241 -17.150  1.00  0.00    -0.016 C 
HETATM   18  C10 UNL     1      99.615 240.440 -17.727  1.00  0.00     0.010 C 
HETATM   19  C11 UNL     1     102.057 240.732 -17.688  1.00  0.00     0.013 C 
HETATM   20  C12 UNL     1     102.747 239.709 -16.866  1.00  0.00    -0.045 C 
HETATM   21  C13 UNL     1     103.975 240.329 -16.226  1.00  0.00     0.015 C 
HETATM   22  C14 UNL     1     103.206 238.543 -17.720  1.00  0.00     0.015 C 
HETATM   23  C15 UNL     1     101.813 239.148 -15.817  1.00  0.00     0.034 C 
ENDBRANCH  13  15
ENDBRANCH   3  13
BRANCH   1  24
HETATM   24  C2  UNL     1      99.405 237.986 -11.790  1.00  0.00     0.215 C 
HETATM   25  S1  UNL     1      97.817 237.680 -11.630  1.00  0.00    -0.033 SA
BRANCH  24  26
HETATM   26  O1  UNL     1     100.270 236.936 -12.044  1.00  0.00    -0.332 OA
HETATM   27  C1  UNL     1     100.160 236.061 -13.138  1.00  0.00     0.212 C 
ENDBRANCH  24  26
ENDBRANCH   1  24
TORSDOF 8
ENDMDL
MODEL 4
REMARK VINA RESULT: -6.381790264      1.849      2.415
REMARK  8 active torsions:
REMARK  status: ('A' for Active; 'I' for Inactive)
REMARK    1  A    between atoms: O1_2  and  C2_3 
REMARK    2  A    between atoms: C2_3  and  N1_5 
REMARK    3  A    between atoms: C3_7  and  C4_8 
REMARK    4  A    between atoms: C3_7  and  N4_17 
REMARK    5  A    between atoms: C4_8  and  O2_9 
REMARK    6  A    between atoms: O2_9  and  N2_10 
REMARK    7  A    between atoms: N2_10  and  C5_12 
REMARK    8  A    between atoms: N4_17  and  C7_19 
ROOT
HETATM    1  N1  UNL     1      96.599 236.824 -10.008  1.00  0.00    -0.315 N 
ATOM      2  H1  UNL     1      97.383 237.256 -10.497  1.00  0.00     0.170 HD
HETATM    3  C3  UNL     1      96.209 237.420  -8.961  1.00  0.00     0.106 C 
ENDROOT
BRANCH   3   4
HETATM    4  C4  UNL     1      96.933 238.678  -8.558  1.00  0.00     0.277 C 
BRANCH   4   5
HETATM    5  O2  UNL     1      98.287 238.550  -8.752  1.00  0.00    -0.272 OA
BRANCH   5   6
HETATM    6  N2  UNL     1      98.917 239.062  -7.685  1.00  0.00    -0.255 N 
ATOM      7  H2  UNL     1      99.621 238.493  -7.214  1.00  0.00     0.195 HD
BRANCH   6   8
HETATM    8  C5  UNL     1      98.647 240.371  -7.180  1.00  0.00     0.091 C 
HETATM    9  C6  UNL     1      98.886 241.504  -8.097  1.00  0.00     0.090 C 
HETATM   10  N3  UNL     1      98.215 240.573  -5.985  1.00  0.00    -0.388 N 
ATOM     11  H32 UNL     1      98.049 239.791  -5.352  1.00  0.00     0.157 HD
ATOM     12  H31 UNL     1      98.021 241.508  -5.624  1.00  0.00     0.157 HD
ENDBRANCH   6   8
ENDBRANCH   5   6
ENDBRANCH   4   5
ENDBRANCH   3   4
BRANCH   3  13
HETATM   13  N4  UNL     1      95.126 236.939  -8.171  1.00  0.00    -0.373 N 
ATOM     14  H4  UNL     1      94.238 236.760  -8.639  1.00  0.00     0.161 HD
BRANCH  13  15
HETATM   15  C7  UNL     1      95.202 236.691  -6.764  1.00  0.00     0.083 C 
HETATM   16  C8  UNL     1      96.596 236.689  -6.217  1.00  0.00     0.029 C 
HETATM   17  C9  UNL     1      96.962 235.468  -5.445  1.00  0.00    -0.016 C 
HETATM   18  C10 UNL     1      97.456 234.338  -6.325  1.00  0.00     0.010 C 
HETATM   19  C11 UNL     1      95.913 234.961  -4.514  1.00  0.00     0.013 C 
HETATM   20  C12 UNL     1      94.511 235.102  -4.974  1.00  0.00    -0.045 C 
HETATM   21  C13 UNL     1      93.825 236.185  -4.161  1.00  0.00     0.015 C 
HETATM   22  C14 UNL     1      93.740 233.812  -4.772  1.00  0.00     0.015 C 
HETATM   23  C15 UNL     1      94.462 235.421  -6.451  1.00  0.00     0.034 C 
ENDBRANCH  13  15
ENDBRANCH   3  13
BRANCH   1  24
HETATM   24  C2  UNL     1      96.101 235.659 -10.581  1.00  0.00     0.215 C 
HETATM   25  S1  UNL     1      95.726 235.615 -12.162  1.00  0.00    -0.033 SA
BRANCH  24  26
HETATM   26  O1  UNL     1      95.918 234.522  -9.814  1.00  0.00    -0.332 OA
HETATM   27  C1  UNL     1      96.019 233.208 -10.302  1.00  0.00     0.212 C 
ENDBRANCH  24  26
ENDBRANCH   1  24
TORSDOF 8
ENDMDL
MODEL 5
REMARK VINA RESULT: -6.356316157      7.837     10.576
REMARK  8 active torsions:
REMARK  status: ('A' for Active; 'I' for Inactive)
REMARK    1  A    between atoms: O1_2  and  C2_3 
REMARK    2  A    between atoms: C2_3  and  N1_5 
REMARK    3  A    between atoms: C3_7  and  C4_8 
REMARK    4  A    between atoms: C3_7  and  N4_17 
REMARK    5  A    between atoms: C4_8  and  O2_9 
REMARK    6  A    between atoms: O2_9  and  N2_10 
REMARK    7  A    between atoms: N2_10  and  C5_12 
REMARK    8  A    between atoms: N4_17  and  C7_19 
ROOT
HETATM    1  N1  UNL     1      98.764 240.387 -12.213  1.00  0.00    -0.315 N 
ATOM      2  H1  UNL     1      98.667 240.740 -11.261  1.00  0.00     0.170 HD
HETATM    3  C3  UNL     1      99.949 240.142 -12.591  1.00  0.00     0.106 C 
ENDROOT
BRANCH   3   4
HETATM    4  C4  UNL     1     101.064 240.394 -11.611  1.00  0.00     0.277 C 
BRANCH   4   5
HETATM    5  O2  UNL     1     101.114 241.720 -11.252  1.00  0.00    -0.272 OA
BRANCH   5   6
HETATM    6  N2  UNL     1     100.800 241.818  -9.953  1.00  0.00    -0.255 N 
ATOM      7  H2  UNL     1     100.186 241.114  -9.544  1.00  0.00     0.195 HD
BRANCH   6   8
HETATM    8  C5  UNL     1     101.289 242.868  -9.115  1.00  0.00     0.091 C 
HETATM    9  C6  UNL     1     102.738 243.152  -9.176  1.00  0.00     0.090 C 
HETATM   10  N3  UNL     1     100.520 243.545  -8.337  1.00  0.00    -0.388 N 
ATOM     11  H32 UNL     1      99.520 243.350  -8.295  1.00  0.00     0.157 HD
ATOM     12  H31 UNL     1     100.869 244.295  -7.740  1.00  0.00     0.157 HD
ENDBRANCH   6   8
ENDBRANCH   5   6
ENDBRANCH   4   5
ENDBRANCH   3   4
BRANCH   3  13
HETATM   13  N4  UNL     1     100.244 239.645 -13.892  1.00  0.00    -0.373 N 
ATOM     14  H4  UNL     1      99.759 238.803 -14.202  1.00  0.00     0.161 HD
BRANCH  13  15
HETATM   15  C7  UNL     1     101.176 240.249 -14.793  1.00  0.00     0.083 C 
HETATM   16  C8  UNL     1     100.625 241.414 -15.556  1.00  0.00     0.029 C 
HETATM   17  C9  UNL     1     100.775 241.319 -17.035  1.00  0.00    -0.016 C 
HETATM   18  C10 UNL     1      99.657 240.537 -17.695  1.00  0.00     0.010 C 
HETATM   19  C11 UNL     1     102.094 240.815 -17.513  1.00  0.00     0.013 C 
HETATM   20  C12 UNL     1     102.733 239.770 -16.678  1.00  0.00    -0.045 C 
HETATM   21  C13 UNL     1     103.927 240.369 -15.956  1.00  0.00     0.015 C 
HETATM   22  C14 UNL     1     103.236 238.622 -17.533  1.00  0.00     0.015 C 
HETATM   23  C15 UNL     1     101.741 239.189 -15.696  1.00  0.00     0.034 C 
ENDBRANCH  13  15
ENDBRANCH   3  13
BRANCH   1  24
HETATM   24  C2  UNL     1      97.578 240.240 -12.924  1.00  0.00     0.215 C 
HETATM   25  S1  UNL     1      96.481 239.130 -12.471  1.00  0.00    -0.033 SA
BRANCH  24  26
HETATM   26  O1  UNL     1      97.316 241.036 -14.025  1.00  0.00    -0.332 OA
HETATM   27  C1  UNL     1      96.049 241.184 -14.617  1.00  0.00     0.212 C 
ENDBRANCH  24  26
ENDBRANCH   1  24
TORSDOF 8
ENDMDL
