MODEL 1
REMARK VINA RESULT: -7.759080439      0.000      0.000
REMARK  4 active torsions:
REMARK  status: ('A' for Active; 'I' for Inactive)
REMARK    1  A    between atoms: C8_13  and  O1_14 
REMARK    2  A    between atoms: O1_14  and  C9_15 
REMARK    3  A    between atoms: C9_15  and  C10_16 
REMARK    4  A    between atoms: C10_16  and  N3_17 
ROOT
HETATM    1  N1  UNL     1      95.102 239.748 -12.580  1.00  0.00    -0.380 N 
ATOM      2  H11 UNL     1      94.972 240.079 -13.536  1.00  0.00     0.158 HD
ATOM      3  H12 UNL     1      94.341 239.926 -11.924  1.00  0.00     0.158 HD
HETATM    4  C1  UNL     1      96.179 239.129 -12.202  1.00  0.00     0.134 C 
HETATM    5  N2  UNL     1      96.359 238.671 -10.879  1.00  0.00    -0.362 N 
ATOM      6  H2  UNL     1      95.512 238.516 -10.331  1.00  0.00     0.162 HD
HETATM    7  C2  UNL     1      97.596 238.402 -10.228  1.00  0.00     0.128 C 
HETATM    8  C3  UNL     1      97.636 239.161  -8.944  1.00  0.00     0.025 A 
HETATM    9  C4  UNL     1      98.084 240.453  -8.980  1.00  0.00     0.039 A 
HETATM   10  C5  UNL     1      98.117 241.149  -7.803  1.00  0.00     0.030 A 
HETATM   11  C6  UNL     1      97.714 240.573  -6.626  1.00  0.00     0.005 A 
HETATM   12  C7  UNL     1      97.265 239.277  -6.603  1.00  0.00     0.037 A 
HETATM   13  C8  UNL     1      97.216 238.542  -7.752  1.00  0.00     0.079 A 
HETATM   14  N4  UNL     1      98.494 241.006 -10.222  1.00  0.00    -0.389 N 
ATOM     15  H4  UNL     1      98.427 242.015 -10.360  1.00  0.00     0.159 HD
HETATM   16  C15 UNL     1      98.998 240.194 -11.282  1.00  0.00     0.127 C 
HETATM   17  C16 UNL     1      98.808 238.717 -11.023  1.00  0.00     0.040 C 
HETATM   18  C17 UNL     1      98.824 238.024 -12.369  1.00  0.00     0.091 C 
HETATM   19  S1  UNL     1      97.523 238.814 -13.361  1.00  0.00    -0.094 SA
ENDROOT
BRANCH  13  20
HETATM   20  O1  UNL     1      96.789 237.260  -7.835  1.00  0.00    -0.349 OA
BRANCH  20  21
HETATM   21  C9  UNL     1      96.610 236.257  -6.903  1.00  0.00     0.206 C 
BRANCH  21  22
HETATM   22  C10 UNL     1      95.223 236.048  -6.387  1.00  0.00     0.299 C 
BRANCH  22  23
HETATM   23  N3  UNL     1      95.218 236.174  -4.919  1.00  0.00     0.090 N 
HETATM   24  C11 UNL     1      93.847 236.143  -4.425  1.00  0.00     0.272 C 
HETATM   25  C12 UNL     1      93.919 235.543  -3.039  1.00  0.00     0.032 C 
HETATM   26  C13 UNL     1      95.192 234.742  -3.012  1.00  0.00     0.032 C 
HETATM   27  C14 UNL     1      95.743 234.924  -4.408  1.00  0.00     0.272 C 
ENDBRANCH  22  23
ENDBRANCH  21  22
ENDBRANCH  20  21
ENDBRANCH  13  20
TORSDOF 4
ENDMDL
MODEL 2
REMARK VINA RESULT: -7.758565067      1.015      1.040
REMARK  4 active torsions:
REMARK  status: ('A' for Active; 'I' for Inactive)
REMARK    1  A    between atoms: C8_13  and  O1_14 
REMARK    2  A    between atoms: O1_14  and  C9_15 
REMARK    3  A    between atoms: C9_15  and  C10_16 
REMARK    4  A    between atoms: C10_16  and  N3_17 
ROOT
HETATM    1  N1  UNL     1      96.625 240.560 -13.160  1.00  0.00    -0.380 N 
ATOM      2  H11 UNL     1      96.772 240.987 -14.074  1.00  0.00     0.158 HD
ATOM      3  H12 UNL     1      95.735 240.753 -12.699  1.00  0.00     0.158 HD
HETATM    4  C1  UNL     1      97.520 239.807 -12.596  1.00  0.00     0.134 C 
HETATM    5  N2  UNL     1      97.316 239.217 -11.329  1.00  0.00    -0.362 N 
ATOM      6  H2  UNL     1      96.348 239.098 -11.032  1.00  0.00     0.162 HD
HETATM    7  C2  UNL     1      98.320 238.771 -10.423  1.00  0.00     0.128 C 
HETATM    8  C3  UNL     1      98.080 239.405  -9.093  1.00  0.00     0.025 A 
HETATM    9  C4  UNL     1      98.614 240.644  -8.872  1.00  0.00     0.039 A 
HETATM   10  C5  UNL     1      98.391 241.226  -7.654  1.00  0.00     0.030 A 
HETATM   11  C6  UNL     1      97.656 240.590  -6.688  1.00  0.00     0.005 A 
HETATM   12  C7  UNL     1      97.125 239.347  -6.923  1.00  0.00     0.037 A 
HETATM   13  C8  UNL     1      97.321 238.726  -8.121  1.00  0.00     0.079 A 
HETATM   14  N4  UNL     1      99.372 241.263  -9.902  1.00  0.00    -0.389 N 
ATOM     15  H4  UNL     1      99.416 242.282  -9.939  1.00  0.00     0.159 HD
HETATM   16  C15 UNL     1     100.073 240.503 -10.886  1.00  0.00     0.127 C 
HETATM   17  C16 UNL     1      99.716 239.035 -10.849  1.00  0.00     0.040 C 
HETATM   18  C17 UNL     1     100.030 238.467 -12.217  1.00  0.00     0.091 C 
HETATM   19  S1  UNL     1      99.092 239.466 -13.409  1.00  0.00    -0.094 SA
ENDROOT
BRANCH  13  20
HETATM   20  O1  UNL     1      96.840 237.505  -8.451  1.00  0.00    -0.349 OA
BRANCH  20  21
HETATM   21  C9  UNL     1      95.741 236.776  -8.043  1.00  0.00     0.206 C 
BRANCH  21  22
HETATM   22  C10 UNL     1      95.990 235.636  -7.107  1.00  0.00     0.299 C 
BRANCH  22  23
HETATM   23  N3  UNL     1      95.684 236.054  -5.727  1.00  0.00     0.090 N 
HETATM   24  C11 UNL     1      94.246 235.984  -5.498  1.00  0.00     0.272 C 
HETATM   25  C12 UNL     1      94.076 235.685  -4.026  1.00  0.00     0.032 C 
HETATM   26  C13 UNL     1      95.362 235.038  -3.594  1.00  0.00     0.032 C 
HETATM   27  C14 UNL     1      96.170 234.990  -4.871  1.00  0.00     0.272 C 
ENDBRANCH  22  23
ENDBRANCH  21  22
ENDBRANCH  20  21
ENDBRANCH  13  20
TORSDOF 4
ENDMDL
MODEL 3
REMARK VINA RESULT: -7.343412678      1.697      2.176
REMARK  4 active torsions:
REMARK  status: ('A' for Active; 'I' for Inactive)
REMARK    1  A    between atoms: C8_13  and  O1_14 
REMARK    2  A    between atoms: O1_14  and  C9_15 
REMARK    3  A    between atoms: C9_15  and  C10_16 
REMARK    4  A    between atoms: C10_16  and  N3_17 
ROOT
HETATM    1  N1  UNL     1      93.600 239.311 -11.681  1.00  0.00    -0.380 N 
ATOM      2  H11 UNL     1      93.271 239.557 -12.614  1.00  0.00     0.158 HD
ATOM      3  H12 UNL     1      93.354 239.949 -10.923  1.00  0.00     0.158 HD
HETATM    4  C1  UNL     1      94.299 238.241 -11.454  1.00  0.00     0.134 C 
HETATM    5  N2  UNL     1      94.756 237.900 -10.161  1.00  0.00    -0.362 N 
ATOM      6  H2  UNL     1      94.241 238.300  -9.376  1.00  0.00     0.162 HD
HETATM    7  C2  UNL     1      95.857 237.058  -9.838  1.00  0.00     0.128 C 
HETATM    8  C3  UNL     1      96.768 237.796  -8.913  1.00  0.00     0.025 A 
HETATM    9  C4  UNL     1      97.718 238.608  -9.467  1.00  0.00     0.039 A 
HETATM   10  C5  UNL     1      98.550 239.286  -8.619  1.00  0.00     0.030 A 
HETATM   11  C6  UNL     1      98.435 239.158  -7.259  1.00  0.00     0.005 A 
HETATM   12  C7  UNL     1      97.477 238.340  -6.716  1.00  0.00     0.037 A 
HETATM   13  C8  UNL     1      96.625 237.642  -7.521  1.00  0.00     0.079 A 
HETATM   14  N4  UNL     1      97.801 238.708 -10.882  1.00  0.00    -0.389 N 
ATOM     15  H4  UNL     1      98.173 239.562 -11.296  1.00  0.00     0.159 HD
HETATM   16  C15 UNL     1      97.380 237.648 -11.740  1.00  0.00     0.127 C 
HETATM   17  C16 UNL     1      96.634 236.562 -11.000  1.00  0.00     0.040 C 
HETATM   18  C17 UNL     1      95.773 235.842 -12.017  1.00  0.00     0.091 C 
HETATM   19  S1  UNL     1      94.733 237.113 -12.792  1.00  0.00    -0.094 SA
ENDROOT
BRANCH  13  20
HETATM   20  O1  UNL     1      95.648 236.813  -7.085  1.00  0.00    -0.349 OA
BRANCH  20  21
HETATM   21  C9  UNL     1      95.497 236.037  -5.953  1.00  0.00     0.206 C 
BRANCH  21  22
HETATM   22  C10 UNL     1      94.290 235.158  -5.887  1.00  0.00     0.299 C 
BRANCH  22  23
HETATM   23  N3  UNL     1      94.065 234.730  -4.495  1.00  0.00     0.090 N 
HETATM   24  C11 UNL     1      95.322 234.286  -3.906  1.00  0.00     0.272 C 
HETATM   25  C12 UNL     1      95.213 234.578  -2.427  1.00  0.00     0.032 C 
HETATM   26  C13 UNL     1      94.185 235.669  -2.306  1.00  0.00     0.032 C 
HETATM   27  C14 UNL     1      93.800 235.940  -3.743  1.00  0.00     0.272 C 
ENDBRANCH  22  23
ENDBRANCH  21  22
ENDBRANCH  20  21
ENDBRANCH  13  20
TORSDOF 4
ENDMDL
MODEL 4
REMARK VINA RESULT: -7.249010971      3.145      4.355
REMARK  4 active torsions:
REMARK  status: ('A' for Active; 'I' for Inactive)
REMARK    1  A    between atoms: C8_13  and  O1_14 
REMARK    2  A    between atoms: O1_14  and  C9_15 
REMARK    3  A    between atoms: C9_15  and  C10_16 
REMARK    4  A    between atoms: C10_16  and  N3_17 
ROOT
HETATM    1  N1  UNL     1      96.988 240.934 -13.376  1.00  0.00    -0.380 N 
ATOM      2  H11 UNL     1      97.218 241.385 -14.261  1.00  0.00     0.158 HD
ATOM      3  H12 UNL     1      96.091 241.177 -12.955  1.00  0.00     0.158 HD
HETATM    4  C1  UNL     1      97.791 240.091 -12.800  1.00  0.00     0.134 C 
HETATM    5  N2  UNL     1      97.473 239.467 -11.574  1.00  0.00    -0.362 N 
ATOM      6  H2  UNL     1      96.483 239.411 -11.334  1.00  0.00     0.162 HD
HETATM    7  C2  UNL     1      98.388 238.908 -10.637  1.00  0.00     0.128 C 
HETATM    8  C3  UNL     1      98.122 239.503  -9.295  1.00  0.00     0.025 A 
HETATM    9  C4  UNL     1      98.734 240.686  -8.990  1.00  0.00     0.039 A 
HETATM   10  C5  UNL     1      98.487 241.234  -7.760  1.00  0.00     0.030 A 
HETATM   11  C6  UNL     1      97.653 240.617  -6.864  1.00  0.00     0.005 A 
HETATM   12  C7  UNL     1      97.044 239.430  -7.183  1.00  0.00     0.037 A 
HETATM   13  C8  UNL     1      97.261 238.845  -8.396  1.00  0.00     0.079 A 
HETATM   14  N4  UNL     1      99.593 241.287  -9.949  1.00  0.00    -0.389 N 
ATOM     15  H4  UNL     1      99.716 242.300  -9.937  1.00  0.00     0.159 HD
HETATM   16  C15 UNL     1     100.289 240.516 -10.928  1.00  0.00     0.127 C 
HETATM   17  C16 UNL     1      99.822 239.079 -10.976  1.00  0.00     0.040 C 
HETATM   18  C17 UNL     1     100.168 238.546 -12.350  1.00  0.00     0.091 C 
HETATM   19  S1  UNL     1      99.376 239.663 -13.543  1.00  0.00    -0.094 SA
ENDROOT
BRANCH  13  20
HETATM   20  O1  UNL     1      96.708 237.680  -8.806  1.00  0.00    -0.349 OA
BRANCH  20  21
HETATM   21  C9  UNL     1      95.440 237.325  -9.222  1.00  0.00     0.206 C 
BRANCH  21  22
HETATM   22  C10 UNL     1      95.341 236.461 -10.438  1.00  0.00     0.299 C 
BRANCH  22  23
HETATM   23  N3  UNL     1      94.348 237.028 -11.368  1.00  0.00     0.090 N 
HETATM   24  C11 UNL     1      94.077 238.416 -11.015  1.00  0.00     0.272 C 
HETATM   25  C12 UNL     1      93.711 239.109 -12.308  1.00  0.00     0.032 C 
HETATM   26  C13 UNL     1      94.327 238.278 -13.399  1.00  0.00     0.032 C 
HETATM   27  C14 UNL     1      95.030 237.176 -12.639  1.00  0.00     0.272 C 
ENDBRANCH  22  23
ENDBRANCH  21  22
ENDBRANCH  20  21
ENDBRANCH  13  20
TORSDOF 4
ENDMDL
MODEL 5
REMARK VINA RESULT: -7.171382688      2.651      3.028
REMARK  4 active torsions:
REMARK  status: ('A' for Active; 'I' for Inactive)
REMARK    1  A    between atoms: C8_13  and  O1_14 
REMARK    2  A    between atoms: O1_14  and  C9_15 
REMARK    3  A    between atoms: C9_15  and  C10_16 
REMARK    4  A    between atoms: C10_16  and  N3_17 
ROOT
HETATM    1  N1  UNL     1      96.973 240.934 -13.337  1.00  0.00    -0.380 N 
ATOM      2  H11 UNL     1      97.186 241.361 -14.238  1.00  0.00     0.158 HD
ATOM      3  H12 UNL     1      96.090 241.199 -12.899  1.00  0.00     0.158 HD
HETATM    4  C1  UNL     1      97.778 240.092 -12.763  1.00  0.00     0.134 C 
HETATM    5  N2  UNL     1      97.483 239.500 -11.515  1.00  0.00    -0.362 N 
ATOM      6  H2  UNL     1      96.499 239.465 -11.248  1.00  0.00     0.162 HD
HETATM    7  C2  UNL     1      98.414 238.948 -10.590  1.00  0.00     0.128 C 
HETATM    8  C3  UNL     1      98.193 239.578  -9.255  1.00  0.00     0.025 A 
HETATM    9  C4  UNL     1      98.831 240.759  -8.993  1.00  0.00     0.039 A 
HETATM   10  C5  UNL     1      98.625 241.338  -7.771  1.00  0.00     0.030 A 
HETATM   11  C6  UNL     1      97.806 240.754  -6.839  1.00  0.00     0.005 A 
HETATM   12  C7  UNL     1      97.171 239.570  -7.114  1.00  0.00     0.037 A 
HETATM   13  C8  UNL     1      97.346 238.955  -8.319  1.00  0.00     0.079 A 
HETATM   14  N4  UNL     1      99.672 241.324  -9.988  1.00  0.00    -0.389 N 
ATOM     15  H4  UNL     1      99.810 242.335 -10.003  1.00  0.00     0.159 HD
HETATM   16  C15 UNL     1     100.331 240.520 -10.968  1.00  0.00     0.127 C 
HETATM   17  C16 UNL     1      99.841 239.090 -10.970  1.00  0.00     0.040 C 
HETATM   18  C17 UNL     1     100.143 238.520 -12.340  1.00  0.00     0.091 C 
HETATM   19  S1  UNL     1      99.337 239.622 -13.538  1.00  0.00    -0.094 SA
ENDROOT
BRANCH  13  20
HETATM   20  O1  UNL     1      96.766 237.789  -8.687  1.00  0.00    -0.349 OA
BRANCH  20  21
HETATM   21  C9  UNL     1      95.485 237.287  -8.569  1.00  0.00     0.206 C 
BRANCH  21  22
HETATM   22  C10 UNL     1      94.711 237.094  -9.834  1.00  0.00     0.299 C 
BRANCH  22  23
HETATM   23  N3  UNL     1      94.151 235.731  -9.868  1.00  0.00     0.090 N 
HETATM   24  C11 UNL     1      95.156 234.796 -10.357  1.00  0.00     0.272 C 
HETATM   25  C12 UNL     1      94.844 233.471  -9.700  1.00  0.00     0.032 C 
HETATM   26  C13 UNL     1      94.067 233.809  -8.458  1.00  0.00     0.032 C 
HETATM   27  C14 UNL     1      94.017 235.320  -8.484  1.00  0.00     0.272 C 
ENDBRANCH  22  23
ENDBRANCH  21  22
ENDBRANCH  20  21
ENDBRANCH  13  20
TORSDOF 4
ENDMDL
