MODEL 1
REMARK VINA RESULT: -8.312562863      0.000      0.000
REMARK  6 active torsions:
REMARK  status: ('A' for Active; 'I' for Inactive)
REMARK    1  A    between atoms: C3_4  and  C4_5 
REMARK    2  A    between atoms: C4_5  and  N2_6 
REMARK    3  A    between atoms: N2_6  and  C5_8 
REMARK    4  A    between atoms: N3_11  and  C8_12 
REMARK    5  A    between atoms: C8_12  and  C9_13 
REMARK    6  A    between atoms: C17_27  and  N7_28 
ROOT
HETATM    1  N1  UNL     1      99.742 242.642  -7.861  1.00  0.00    -0.191 NA
HETATM    2  C1  UNL     1      99.062 241.691  -8.005  1.00  0.00     0.104 C 
HETATM    3  C2  UNL     1      98.217 240.531  -8.152  1.00  0.00     0.102 A 
HETATM    4  C3  UNL     1      98.270 239.779  -9.287  1.00  0.00     0.034 A 
HETATM    5  C14 UNL     1      97.437 238.660  -9.397  1.00  0.00     0.091 A 
HETATM    6  N4  UNL     1      97.252 237.727 -10.371  1.00  0.00    -0.349 N 
ATOM      7  H4  UNL     1      97.744 237.699 -11.264  1.00  0.00     0.167 HD
HETATM    8  C15 UNL     1      96.320 236.853  -9.972  1.00  0.00     0.182 A 
HETATM    9  N5  UNL     1      95.929 237.246  -8.749  1.00  0.00    -0.337 N 
ATOM     10  H5  UNL     1      95.222 236.768  -8.189  1.00  0.00     0.168 HD
HETATM   11  C16 UNL     1      96.593 238.354  -8.356  1.00  0.00     0.136 A 
HETATM   12  N6  UNL     1      96.554 239.108  -7.241  1.00  0.00    -0.326 N 
ATOM     13  H6  UNL     1      95.917 238.860  -6.483  1.00  0.00     0.169 HD
HETATM   14  C17 UNL     1      97.348 240.186  -7.122  1.00  0.00     0.122 A 
ENDROOT
BRANCH   4  15
HETATM   15  C4  UNL     1      99.152 240.087 -10.401  1.00  0.00     0.098 C 
BRANCH  15  16
HETATM   16  N2  UNL     1      98.917 240.890 -11.331  1.00  0.00    -0.393 N 
ATOM     17  H2  UNL     1      97.940 241.173 -11.405  1.00  0.00     0.159 HD
BRANCH  16  18
HETATM   18  C5  UNL     1      99.773 241.477 -12.304  1.00  0.00     0.084 C 
HETATM   19  C6  UNL     1     101.064 240.718 -12.333  1.00  0.00     0.044 C 
HETATM   20  C7  UNL     1     101.168 239.921 -13.600  1.00  0.00     0.119 C 
HETATM   21  N3  UNL     1     101.033 240.656 -14.814  1.00  0.00    -0.412 N 
HETATM   22  C12 UNL     1     100.260 241.844 -14.707  1.00  0.00     0.119 C 
HETATM   23  C13 UNL     1      99.166 241.582 -13.666  1.00  0.00     0.044 C 
BRANCH  21  24
HETATM   24  C8  UNL     1     102.178 240.837 -15.618  1.00  0.00     0.121 C 
BRANCH  24  25
HETATM   25  C9  UNL     1     103.229 239.769 -15.515  1.00  0.00     0.003 A 
HETATM   26  C10 UNL     1     103.878 239.356 -16.794  1.00  0.00     0.007 A 
HETATM   27  C11 UNL     1     104.633 240.190 -15.820  1.00  0.00     0.007 A 
ENDBRANCH  24  25
ENDBRANCH  21  24
ENDBRANCH  16  18
ENDBRANCH  15  16
ENDBRANCH   4  15
BRANCH  14  28
HETATM   28  N7  UNL     1      97.350 240.943  -6.079  1.00  0.00    -0.384 N 
ATOM     29  H72 UNL     1      97.666 240.623  -5.164  1.00  0.00     0.157 HD
ATOM     30  H71 UNL     1      97.013 241.897  -6.200  1.00  0.00     0.157 HD
ENDBRANCH  14  28
TORSDOF 6
ENDMDL
MODEL 2
REMARK VINA RESULT: -8.136684753      1.194      1.633
REMARK  6 active torsions:
REMARK  status: ('A' for Active; 'I' for Inactive)
REMARK    1  A    between atoms: C3_4  and  C4_5 
REMARK    2  A    between atoms: C4_5  and  N2_6 
REMARK    3  A    between atoms: N2_6  and  C5_8 
REMARK    4  A    between atoms: N3_11  and  C8_12 
REMARK    5  A    between atoms: C8_12  and  C9_13 
REMARK    6  A    between atoms: C17_27  and  N7_28 
ROOT
HETATM    1  N1  UNL     1      99.774 242.704  -7.836  1.00  0.00    -0.191 NA
HETATM    2  C1  UNL     1      99.132 241.724  -7.951  1.00  0.00     0.104 C 
HETATM    3  C2  UNL     1      98.341 240.522  -8.059  1.00  0.00     0.102 A 
HETATM    4  C3  UNL     1      98.169 239.916  -9.268  1.00  0.00     0.034 A 
HETATM    5  C14 UNL     1      97.396 238.752  -9.337  1.00  0.00     0.091 A 
HETATM    6  N4  UNL     1      97.041 237.928 -10.362  1.00  0.00    -0.349 N 
ATOM      7  H4  UNL     1      97.314 238.047 -11.338  1.00  0.00     0.167 HD
HETATM    8  C15 UNL     1      96.276 236.938  -9.886  1.00  0.00     0.182 A 
HETATM    9  N5  UNL     1      96.159 237.150  -8.565  1.00  0.00    -0.337 N 
ATOM     10  H5  UNL     1      95.628 236.553  -7.930  1.00  0.00     0.168 HD
HETATM   11  C16 UNL     1      96.834 238.256  -8.186  1.00  0.00     0.136 A 
HETATM   12  N6  UNL     1      97.013 238.868  -6.999  1.00  0.00    -0.326 N 
ATOM     13  H6  UNL     1      96.585 238.480  -6.158  1.00  0.00     0.169 HD
HETATM   14  C17 UNL     1      97.754 239.987  -6.918  1.00  0.00     0.122 A 
ENDROOT
BRANCH   4  15
HETATM   15  C4  UNL     1      98.751 240.425 -10.499  1.00  0.00     0.098 C 
BRANCH  15  16
HETATM   16  N2  UNL     1      98.143 241.025 -11.412  1.00  0.00    -0.393 N 
ATOM     17  H2  UNL     1      97.649 241.864 -11.108  1.00  0.00     0.159 HD
BRANCH  16  18
HETATM   18  C5  UNL     1      98.018 240.742 -12.802  1.00  0.00     0.084 C 
HETATM   19  C6  UNL     1      98.589 241.887 -13.581  1.00  0.00     0.044 C 
HETATM   20  C7  UNL     1      99.881 241.482 -14.227  1.00  0.00     0.119 C 
HETATM   21  N3  UNL     1      99.826 240.331 -15.066  1.00  0.00    -0.412 N 
HETATM   22  C12 UNL     1      98.799 239.404 -14.738  1.00  0.00     0.119 C 
HETATM   23  C13 UNL     1      98.625 239.440 -13.215  1.00  0.00     0.044 C 
BRANCH  21  24
HETATM   24  C8  UNL     1      99.953 240.511 -16.460  1.00  0.00     0.121 C 
BRANCH  24  25
HETATM   25  C9  UNL     1     101.220 241.171 -16.924  1.00  0.00     0.003 A 
HETATM   26  C10 UNL     1     102.482 240.403 -16.708  1.00  0.00     0.007 A 
HETATM   27  C11 UNL     1     101.918 240.525 -18.080  1.00  0.00     0.007 A 
ENDBRANCH  24  25
ENDBRANCH  21  24
ENDBRANCH  16  18
ENDBRANCH  15  16
ENDBRANCH   4  15
BRANCH  14  28
HETATM   28  N7  UNL     1      97.956 240.613  -5.809  1.00  0.00    -0.384 N 
ATOM     29  H72 UNL     1      97.410 241.426  -5.526  1.00  0.00     0.157 HD
ATOM     30  H71 UNL     1      98.701 240.261  -5.209  1.00  0.00     0.157 HD
ENDBRANCH  14  28
TORSDOF 6
ENDMDL
MODEL 3
REMARK VINA RESULT: -7.924657003      3.916      9.024
REMARK  6 active torsions:
REMARK  status: ('A' for Active; 'I' for Inactive)
REMARK    1  A    between atoms: C3_4  and  C4_5 
REMARK    2  A    between atoms: C4_5  and  N2_6 
REMARK    3  A    between atoms: N2_6  and  C5_8 
REMARK    4  A    between atoms: N3_11  and  C8_12 
REMARK    5  A    between atoms: C8_12  and  C9_13 
REMARK    6  A    between atoms: C17_27  and  N7_28 
ROOT
HETATM    1  N1  UNL     1      98.924 238.797  -6.781  1.00  0.00    -0.191 NA
HETATM    2  C1  UNL     1      98.531 239.043  -7.863  1.00  0.00     0.104 C 
HETATM    3  C2  UNL     1      98.064 239.373  -9.188  1.00  0.00     0.102 A 
HETATM    4  C3  UNL     1      97.243 238.519  -9.862  1.00  0.00     0.034 A 
HETATM    5  C14 UNL     1      96.808 238.871 -11.145  1.00  0.00     0.091 A 
HETATM    6  N4  UNL     1      96.007 238.257 -12.059  1.00  0.00    -0.349 N 
ATOM      7  H4  UNL     1      95.552 237.353 -11.933  1.00  0.00     0.167 HD
HETATM    8  C15 UNL     1      95.910 239.029 -13.148  1.00  0.00     0.182 A 
HETATM    9  N5  UNL     1      96.654 240.121 -12.907  1.00  0.00    -0.337 N 
ATOM     10  H5  UNL     1      96.772 240.894 -13.564  1.00  0.00     0.168 HD
HETATM   11  C16 UNL     1      97.223 240.065 -11.685  1.00  0.00     0.136 A 
HETATM   12  N6  UNL     1      98.036 240.896 -11.004  1.00  0.00    -0.326 N 
ATOM     13  H6  UNL     1      98.330 241.777 -11.427  1.00  0.00     0.169 HD
HETATM   14  C17 UNL     1      98.460 240.572  -9.771  1.00  0.00     0.122 A 
ENDROOT
BRANCH   4  15
HETATM   15  C4  UNL     1      96.796 237.250  -9.312  1.00  0.00     0.098 C 
BRANCH  15  16
HETATM   16  N2  UNL     1      95.828 237.079  -8.538  1.00  0.00    -0.393 N 
ATOM     17  H2  UNL     1      94.915 237.132  -8.989  1.00  0.00     0.159 HD
BRANCH  16  18
HETATM   18  C5  UNL     1      95.777 236.823  -7.140  1.00  0.00     0.084 C 
HETATM   19  C6  UNL     1      94.449 236.216  -6.807  1.00  0.00     0.044 C 
HETATM   20  C7  UNL     1      94.614 234.766  -6.458  1.00  0.00     0.119 C 
HETATM   21  N3  UNL     1      95.532 234.477  -5.407  1.00  0.00    -0.412 N 
HETATM   22  C12 UNL     1      96.568 235.436  -5.242  1.00  0.00     0.119 C 
HETATM   23  C13 UNL     1      96.907 235.984  -6.633  1.00  0.00     0.044 C 
BRANCH  21  24
HETATM   24  C8  UNL     1      95.018 234.032  -4.171  1.00  0.00     0.121 C 
BRANCH  24  25
HETATM   25  C9  UNL     1      95.075 235.019  -3.041  1.00  0.00     0.003 A 
HETATM   26  C10 UNL     1      93.940 235.985  -2.950  1.00  0.00     0.007 A 
HETATM   27  C11 UNL     1      94.036 234.866  -1.974  1.00  0.00     0.007 A 
ENDBRANCH  24  25
ENDBRANCH  21  24
ENDBRANCH  16  18
ENDBRANCH  15  16
ENDBRANCH   4  15
BRANCH  14  28
HETATM   28  N7  UNL     1      99.239 241.329  -9.077  1.00  0.00    -0.384 N 
ATOM     29  H72 UNL     1      99.173 242.347  -9.087  1.00  0.00     0.157 HD
ATOM     30  H71 UNL     1      99.943 240.866  -8.504  1.00  0.00     0.157 HD
ENDBRANCH  14  28
TORSDOF 6
ENDMDL
MODEL 4
REMARK VINA RESULT: -7.879142088      3.384      8.890
REMARK  6 active torsions:
REMARK  status: ('A' for Active; 'I' for Inactive)
REMARK    1  A    between atoms: C3_4  and  C4_5 
REMARK    2  A    between atoms: C4_5  and  N2_6 
REMARK    3  A    between atoms: N2_6  and  C5_8 
REMARK    4  A    between atoms: N3_11  and  C8_12 
REMARK    5  A    between atoms: C8_12  and  C9_13 
REMARK    6  A    between atoms: C17_27  and  N7_28 
ROOT
HETATM    1  N1  UNL     1      97.076 240.746  -6.208  1.00  0.00    -0.191 NA
HETATM    2  C1  UNL     1      97.555 240.533  -7.262  1.00  0.00     0.104 C 
HETATM    3  C2  UNL     1      98.161 240.297  -8.550  1.00  0.00     0.102 A 
HETATM    4  C3  UNL     1      97.735 239.266  -9.334  1.00  0.00     0.034 A 
HETATM    5  C14 UNL     1      98.344 239.066 -10.578  1.00  0.00     0.091 A 
HETATM    6  N4  UNL     1      98.157 238.154 -11.572  1.00  0.00    -0.349 N 
ATOM      7  H4  UNL     1      97.472 237.398 -11.559  1.00  0.00     0.167 HD
HETATM    8  C15 UNL     1      99.016 238.405 -12.567  1.00  0.00     0.182 A 
HETATM    9  N5  UNL     1      99.735 239.474 -12.188  1.00  0.00    -0.337 N 
ATOM     10  H5  UNL     1     100.474 239.900 -12.748  1.00  0.00     0.168 HD
HETATM   11  C16 UNL     1      99.352 239.913 -10.970  1.00  0.00     0.136 A 
HETATM   12  N6  UNL     1      99.761 240.926 -10.182  1.00  0.00    -0.326 N 
ATOM     13  H6  UNL     1     100.513 241.541 -10.495  1.00  0.00     0.169 HD
HETATM   14  C17 UNL     1      99.185 241.131  -8.985  1.00  0.00     0.122 A 
ENDROOT
BRANCH   4  15
HETATM   15  C4  UNL     1      96.673 238.356  -8.938  1.00  0.00     0.098 C 
BRANCH  15  16
HETATM   16  N2  UNL     1      96.811 237.300  -8.281  1.00  0.00    -0.393 N 
ATOM     17  H2  UNL     1      97.186 236.518  -8.816  1.00  0.00     0.159 HD
BRANCH  16  18
HETATM   18  C5  UNL     1      96.535 237.000  -6.917  1.00  0.00     0.084 C 
HETATM   19  C6  UNL     1      95.158 236.418  -6.819  1.00  0.00     0.044 C 
HETATM   20  C7  UNL     1      95.235 234.954  -6.501  1.00  0.00     0.119 C 
HETATM   21  N3  UNL     1      95.971 234.606  -5.331  1.00  0.00    -0.412 N 
HETATM   22  C12 UNL     1      96.989 235.531  -4.971  1.00  0.00     0.119 C 
HETATM   23  C13 UNL     1      97.553 236.114  -6.272  1.00  0.00     0.044 C 
BRANCH  21  24
HETATM   24  C8  UNL     1      95.260 234.134  -4.208  1.00  0.00     0.121 C 
BRANCH  24  25
HETATM   25  C9  UNL     1      95.137 235.092  -3.057  1.00  0.00     0.003 A 
HETATM   26  C10 UNL     1      93.955 236.003  -3.079  1.00  0.00     0.007 A 
HETATM   27  C11 UNL     1      93.990 234.863  -2.124  1.00  0.00     0.007 A 
ENDBRANCH  24  25
ENDBRANCH  21  24
ENDBRANCH  16  18
ENDBRANCH  15  16
ENDBRANCH   4  15
BRANCH  14  28
HETATM   28  N7  UNL     1      99.539 242.083  -8.192  1.00  0.00    -0.384 N 
ATOM     29  H72 UNL     1     100.325 242.702  -8.387  1.00  0.00     0.157 HD
ATOM     30  H71 UNL     1      98.994 242.200  -7.338  1.00  0.00     0.157 HD
ENDBRANCH  14  28
TORSDOF 6
ENDMDL
MODEL 5
REMARK VINA RESULT: -7.860483949      3.660      9.452
REMARK  6 active torsions:
REMARK  status: ('A' for Active; 'I' for Inactive)
REMARK    1  A    between atoms: C3_4  and  C4_5 
REMARK    2  A    between atoms: C4_5  and  N2_6 
REMARK    3  A    between atoms: N2_6  and  C5_8 
REMARK    4  A    between atoms: N3_11  and  C8_12 
REMARK    5  A    between atoms: C8_12  and  C9_13 
REMARK    6  A    between atoms: C17_27  and  N7_28 
ROOT
HETATM    1  N1  UNL     1      96.940 236.804 -12.340  1.00  0.00    -0.191 NA
HETATM    2  C1  UNL     1      97.315 237.505 -11.472  1.00  0.00     0.104 C 
HETATM    3  C2  UNL     1      97.802 238.371 -10.425  1.00  0.00     0.102 A 
HETATM    4  C3  UNL     1      97.090 238.526  -9.272  1.00  0.00     0.034 A 
HETATM    5  C14 UNL     1      97.591 239.372  -8.277  1.00  0.00     0.091 A 
HETATM    6  N4  UNL     1      97.137 239.734  -7.046  1.00  0.00    -0.349 N 
ATOM      7  H4  UNL     1      96.272 239.408  -6.615  1.00  0.00     0.167 HD
HETATM    8  C15 UNL     1      98.006 240.586  -6.489  1.00  0.00     0.182 A 
HETATM    9  N5  UNL     1      98.999 240.752  -7.378  1.00  0.00    -0.337 N 
ATOM     10  H5  UNL     1      99.811 241.352  -7.230  1.00  0.00     0.168 HD
HETATM   11  C16 UNL     1      98.783 240.021  -8.493  1.00  0.00     0.136 A 
HETATM   12  N6  UNL     1      99.473 239.857  -9.638  1.00  0.00    -0.326 N 
ATOM     13  H6  UNL     1     100.356 240.351  -9.774  1.00  0.00     0.169 HD
HETATM   14  C17 UNL     1      99.004 239.046 -10.603  1.00  0.00     0.122 A 
ENDROOT
BRANCH   4  15
HETATM   15  C4  UNL     1      95.826 237.853  -9.026  1.00  0.00     0.098 C 
BRANCH  15  16
HETATM   16  N2  UNL     1      95.658 236.820  -8.341  1.00  0.00    -0.393 N 
ATOM     17  H2  UNL     1      95.488 235.976  -8.888  1.00  0.00     0.159 HD
BRANCH  16  18
HETATM   18  C5  UNL     1      95.664 236.615  -6.933  1.00  0.00     0.084 C 
HETATM   19  C6  UNL     1      94.376 235.961  -6.534  1.00  0.00     0.044 C 
HETATM   20  C7  UNL     1      94.620 234.535  -6.138  1.00  0.00     0.119 C 
HETATM   21  N3  UNL     1      95.584 234.328  -5.108  1.00  0.00    -0.412 N 
HETATM   22  C12 UNL     1      96.579 235.339  -5.013  1.00  0.00     0.119 C 
HETATM   23  C13 UNL     1      96.847 235.848  -6.434  1.00  0.00     0.044 C 
BRANCH  21  24
HETATM   24  C8  UNL     1      95.131 233.907  -3.841  1.00  0.00     0.121 C 
BRANCH  24  25
HETATM   25  C9  UNL     1      95.111 234.957  -2.767  1.00  0.00     0.003 A 
HETATM   26  C10 UNL     1      93.991 235.942  -2.828  1.00  0.00     0.007 A 
HETATM   27  C11 UNL     1      93.983 234.880  -1.786  1.00  0.00     0.007 A 
ENDBRANCH  24  25
ENDBRANCH  21  24
ENDBRANCH  16  18
ENDBRANCH  15  16
ENDBRANCH   4  15
BRANCH  14  28
HETATM   28  N7  UNL     1      99.622 238.855 -11.717  1.00  0.00    -0.384 N 
ATOM     29  H72 UNL     1     100.115 239.598 -12.211  1.00  0.00     0.157 HD
ATOM     30  H71 UNL     1      99.600 237.911 -12.101  1.00  0.00     0.157 HD
ENDBRANCH  14  28
TORSDOF 6
ENDMDL
