MODEL 1
REMARK VINA RESULT: -8.204491563      0.000      0.000
REMARK  12 active torsions:
REMARK  status: ('A' for Active; 'I' for Inactive)
REMARK    1  A    between atoms: C2_2  and  C3_3 
REMARK    2  A    between atoms: C4_4  and  O1_5 
REMARK    3  A    between atoms: O1_5  and  C5_6 
REMARK    4  A    between atoms: C5_6  and  N1_8 
REMARK    5  A    between atoms: N2_11  and  C7_12 
REMARK    6  A    between atoms: C7_12  and  C8_13 
REMARK    7  A    between atoms: C8_13  and  N3_15 
REMARK    8  A    between atoms: N4_18  and  C12_19 
REMARK    9  A    between atoms: C12_19  and  C13_20 
REMARK   10  A    between atoms: C19_26  and  C20_27 
REMARK   11  A    between atoms: N5_39  and  C29_40 
REMARK   12  A    between atoms: C29_40  and  C30_41 
ROOT
HETATM    1  C3  UNL     1      -3.382  -8.341   1.147  1.00  0.00     0.141 C 
HETATM    2  C4  UNL     1      -4.742  -7.726   0.780  1.00  0.00     0.258 C 
HETATM    3  N2  UNL     1      -4.665  -7.360  -0.627  1.00  0.00    -0.313 N 
HETATM    4  C27 UNL     1      -3.609  -6.449  -0.917  1.00  0.00     0.314 C 
HETATM    5  O3  UNL     1      -3.617  -5.739  -1.950  1.00  0.00    -0.262 OA
HETATM    6  C28 UNL     1      -2.533  -6.387   0.045  1.00  0.00     0.316 C 
HETATM    7  O4  UNL     1      -1.541  -5.588  -0.132  1.00  0.00    -0.262 OA
HETATM    8  N5  UNL     1      -2.508  -7.217   1.255  1.00  0.00    -0.314 N 
ENDROOT
BRANCH   3   9
HETATM    9  C7  UNL     1      -5.497  -7.824  -1.685  1.00  0.00     0.154 C 
BRANCH   9  10
HETATM   10  C8  UNL     1      -4.945  -8.914  -2.535  1.00  0.00     0.101 C 
HETATM   11  C9  UNL     1      -4.588  -8.517  -3.949  1.00  0.00     0.034 C 
BRANCH  10  12
HETATM   12  N3  UNL     1      -5.740 -10.125  -2.566  1.00  0.00    -0.340 N 
HETATM   13  C10 UNL     1      -6.742 -10.262  -3.594  1.00  0.00     0.170 C 
HETATM   14  C11 UNL     1      -7.493 -11.544  -3.602  1.00  0.00     0.079 C 
HETATM   15  N4  UNL     1      -7.646 -12.080  -2.313  1.00  0.00    -0.378 N 
HETATM   16  C19 UNL     1      -6.482 -12.338  -1.543  1.00  0.00     0.179 C 
HETATM   17  C26 UNL     1      -5.577 -11.160  -1.634  1.00  0.00     0.243 C 
HETATM   18  O2  UNL     1      -4.617 -11.093  -0.826  1.00  0.00    -0.271 OA
BRANCH  15  19
HETATM   19  C12 UNL     1      -8.804 -12.833  -2.012  1.00  0.00     0.127 C 
BRANCH  19  20
HETATM   20  C13 UNL     1     -10.062 -12.215  -2.547  1.00  0.00     0.003 C 
HETATM   21  C14 UNL     1     -10.853 -11.503  -1.471  1.00  0.00     0.006 C 
HETATM   22  C15 UNL     1     -12.334 -11.569  -1.716  1.00  0.00     0.000 C 
HETATM   23  C16 UNL     1     -12.873 -12.973  -1.595  1.00  0.00     0.000 C 
HETATM   24  C17 UNL     1     -11.747 -13.925  -1.990  1.00  0.00     0.000 C 
HETATM   25  C18 UNL     1     -10.983 -13.276  -3.121  1.00  0.00     0.006 C 
ENDBRANCH  19  20
ENDBRANCH  15  19
BRANCH  16  26
HETATM   26  C20 UNL     1      -5.821 -13.654  -1.758  1.00  0.00     0.018 C 
HETATM   27  C21 UNL     1      -4.609 -13.623  -2.641  1.00  0.00     0.007 C 
HETATM   28  C22 UNL     1      -3.743 -14.813  -2.282  1.00  0.00     0.000 C 
HETATM   29  C23 UNL     1      -4.530 -16.025  -1.898  1.00  0.00     0.000 C 
HETATM   30  C24 UNL     1      -5.259 -15.785  -0.597  1.00  0.00     0.000 C 
HETATM   31  C25 UNL     1      -5.389 -14.281  -0.444  1.00  0.00     0.007 C 
ENDBRANCH  16  26
ENDBRANCH  10  12
ENDBRANCH   9  10
ENDBRANCH   3   9
BRANCH   2  32
HETATM   32  O1  UNL     1      -5.881  -8.308   1.178  1.00  0.00    -0.299 OA
BRANCH  32  33
HETATM   33  C5  UNL     1      -7.099  -7.850   1.562  1.00  0.00     0.211 C 
HETATM   34  S1  UNL     1      -7.337  -6.297   2.018  1.00  0.00    -0.033 SA
BRANCH  33  35
HETATM   35  N1  UNL     1      -8.214  -8.761   1.574  1.00  0.00    -0.366 N 
HETATM   36  C6  UNL     1      -8.296  -9.776   0.569  1.00  0.00     0.149 C 
ATOM     37  H1  UNL     1      -8.936  -8.683   2.290  1.00  0.00     0.161 HD
ENDBRANCH  33  35
ENDBRANCH  32  33
ENDBRANCH   2  32
BRANCH   1  38
HETATM   38  C2  UNL     1      -3.511  -9.341   2.196  1.00  0.00     0.026 C 
HETATM   39  C1  UNL     1      -2.802 -10.643   2.010  1.00  0.00     0.007 C 
ENDBRANCH   1  38
BRANCH   8  40
HETATM   40  C29 UNL     1      -1.746  -6.688   2.337  1.00  0.00     0.072 C 
BRANCH  40  41
HETATM   41  C30 UNL     1      -2.248  -5.630   3.204  1.00  0.00     0.024 C 
HETATM   42  C31 UNL     1      -3.545  -4.981   3.113  1.00  0.00     0.010 C 
HETATM   43  C32 UNL     1      -3.454  -3.654   2.332  1.00  0.00     0.001 C 
HETATM   44  C33 UNL     1      -2.670  -2.639   3.136  1.00  0.00     0.000 C 
HETATM   45  C34 UNL     1      -1.599  -3.343   3.958  1.00  0.00     0.001 C 
HETATM   46  C35 UNL     1      -1.135  -4.514   3.151  1.00  0.00     0.010 C 
ENDBRANCH  40  41
ENDBRANCH   8  40
TORSDOF 12
ENDMDL
MODEL 2
REMARK VINA RESULT: -8.019226308      3.118      8.419
REMARK  12 active torsions:
REMARK  status: ('A' for Active; 'I' for Inactive)
REMARK    1  A    between atoms: C2_2  and  C3_3 
REMARK    2  A    between atoms: C4_4  and  O1_5 
REMARK    3  A    between atoms: O1_5  and  C5_6 
REMARK    4  A    between atoms: C5_6  and  N1_8 
REMARK    5  A    between atoms: N2_11  and  C7_12 
REMARK    6  A    between atoms: C7_12  and  C8_13 
REMARK    7  A    between atoms: C8_13  and  N3_15 
REMARK    8  A    between atoms: N4_18  and  C12_19 
REMARK    9  A    between atoms: C12_19  and  C13_20 
REMARK   10  A    between atoms: C19_26  and  C20_27 
REMARK   11  A    between atoms: N5_39  and  C29_40 
REMARK   12  A    between atoms: C29_40  and  C30_41 
ROOT
HETATM    1  C3  UNL     1      -9.780 -10.692  -2.734  1.00  0.00     0.141 C 
HETATM    2  C4  UNL     1      -9.882  -9.600  -3.810  1.00  0.00     0.258 C 
HETATM    3  N2  UNL     1      -9.375  -8.376  -3.206  1.00  0.00    -0.313 N 
HETATM    4  C27 UNL     1     -10.082  -7.990  -2.031  1.00  0.00     0.314 C 
HETATM    5  O3  UNL     1     -10.056  -6.812  -1.604  1.00  0.00    -0.262 OA
HETATM    6  C28 UNL     1     -10.830  -9.029  -1.362  1.00  0.00     0.316 C 
HETATM    7  O4  UNL     1     -11.504  -8.770  -0.298  1.00  0.00    -0.262 OA
HETATM    8  N5  UNL     1     -10.864 -10.413  -1.848  1.00  0.00    -0.314 N 
ENDROOT
BRANCH   3   9
HETATM    9  C7  UNL     1      -8.279  -7.584  -3.654  1.00  0.00     0.154 C 
BRANCH   9  10
HETATM   10  C8  UNL     1      -7.279  -7.191  -2.624  1.00  0.00     0.101 C 
HETATM   11  C9  UNL     1      -6.574  -5.878  -2.872  1.00  0.00     0.034 C 
BRANCH  10  12
HETATM   12  N3  UNL     1      -6.296  -8.209  -2.310  1.00  0.00    -0.340 N 
HETATM   13  C10 UNL     1      -5.334  -8.568  -3.322  1.00  0.00     0.170 C 
HETATM   14  C11 UNL     1      -4.324  -9.583  -2.925  1.00  0.00     0.079 C 
HETATM   15  N4  UNL     1      -4.830 -10.504  -1.995  1.00  0.00    -0.378 N 
HETATM   16  C19 UNL     1      -5.360 -10.013  -0.773  1.00  0.00     0.179 C 
HETATM   17  C26 UNL     1      -6.251  -8.858  -1.067  1.00  0.00     0.243 C 
HETATM   18  O2  UNL     1      -7.004  -8.447  -0.150  1.00  0.00    -0.271 OA
BRANCH  15  19
HETATM   19  C12 UNL     1      -4.346 -11.833  -2.006  1.00  0.00     0.127 C 
BRANCH  19  20
HETATM   20  C13 UNL     1      -5.441 -12.856  -1.970  1.00  0.00     0.003 C 
HETATM   21  C14 UNL     1      -5.733 -13.336  -0.564  1.00  0.00     0.006 C 
HETATM   22  C15 UNL     1      -6.171 -14.772  -0.531  1.00  0.00     0.000 C 
HETATM   23  C16 UNL     1      -5.069 -15.717  -0.940  1.00  0.00     0.000 C 
HETATM   24  C17 UNL     1      -4.168 -14.965  -1.915  1.00  0.00     0.000 C 
HETATM   25  C18 UNL     1      -5.055 -14.089  -2.768  1.00  0.00     0.006 C 
ENDBRANCH  19  20
ENDBRANCH  15  19
BRANCH  16  26
HETATM   26  C20 UNL     1      -4.387  -9.788   0.330  1.00  0.00     0.018 C 
HETATM   27  C21 UNL     1      -4.153  -8.352   0.693  1.00  0.00     0.007 C 
HETATM   28  C22 UNL     1      -3.673  -8.309   2.129  1.00  0.00     0.000 C 
HETATM   29  C23 UNL     1      -2.808  -9.469   2.502  1.00  0.00     0.000 C 
HETATM   30  C24 UNL     1      -3.615 -10.747   2.497  1.00  0.00     0.000 C 
HETATM   31  C25 UNL     1      -4.816 -10.497   1.604  1.00  0.00     0.007 C 
ENDBRANCH  16  26
ENDBRANCH  10  12
ENDBRANCH   9  10
ENDBRANCH   3   9
BRANCH   2  32
HETATM   32  O1  UNL     1      -9.492  -9.845  -5.068  1.00  0.00    -0.299 OA
BRANCH  32  33
HETATM   33  C5  UNL     1      -9.876  -9.391  -6.287  1.00  0.00     0.211 C 
HETATM   34  S1  UNL     1     -11.074  -8.293  -6.467  1.00  0.00    -0.033 SA
BRANCH  33  35
HETATM   35  N1  UNL     1      -9.209  -9.897  -7.459  1.00  0.00    -0.366 N 
HETATM   36  C6  UNL     1      -7.783  -9.818  -7.541  1.00  0.00     0.149 C 
ATOM     37  H1  UNL     1      -9.748 -10.307  -8.222  1.00  0.00     0.161 HD
ENDBRANCH  33  35
ENDBRANCH  32  33
ENDBRANCH   2  32
BRANCH   1  38
HETATM   38  C2  UNL     1      -9.563 -12.006  -3.323  1.00  0.00     0.026 C 
HETATM   39  C1  UNL     1      -9.053 -13.093  -2.434  1.00  0.00     0.007 C 
ENDBRANCH   1  38
BRANCH   8  40
HETATM   40  C29 UNL     1     -12.016 -11.161  -1.467  1.00  0.00     0.072 C 
BRANCH  40  41
HETATM   41  C30 UNL     1     -13.278 -11.078  -2.193  1.00  0.00     0.024 C 
HETATM   42  C31 UNL     1     -14.343 -10.116  -1.966  1.00  0.00     0.010 C 
HETATM   43  C32 UNL     1     -15.443 -10.702  -1.059  1.00  0.00     0.001 C 
HETATM   44  C33 UNL     1     -16.184 -11.799  -1.794  1.00  0.00     0.000 C 
HETATM   45  C34 UNL     1     -15.236 -12.522  -2.740  1.00  0.00     0.001 C 
HETATM   46  C35 UNL     1     -13.892 -12.527  -2.083  1.00  0.00     0.010 C 
ENDBRANCH  40  41
ENDBRANCH   8  40
TORSDOF 12
ENDMDL
MODEL 3
REMARK VINA RESULT: -7.861536181      2.579      7.143
REMARK  12 active torsions:
REMARK  status: ('A' for Active; 'I' for Inactive)
REMARK    1  A    between atoms: C2_2  and  C3_3 
REMARK    2  A    between atoms: C4_4  and  O1_5 
REMARK    3  A    between atoms: O1_5  and  C5_6 
REMARK    4  A    between atoms: C5_6  and  N1_8 
REMARK    5  A    between atoms: N2_11  and  C7_12 
REMARK    6  A    between atoms: C7_12  and  C8_13 
REMARK    7  A    between atoms: C8_13  and  N3_15 
REMARK    8  A    between atoms: N4_18  and  C12_19 
REMARK    9  A    between atoms: C12_19  and  C13_20 
REMARK   10  A    between atoms: C19_26  and  C20_27 
REMARK   11  A    between atoms: N5_39  and  C29_40 
REMARK   12  A    between atoms: C29_40  and  C30_41 
ROOT
HETATM    1  C3  UNL     1      -5.103 -10.298  -0.704  1.00  0.00     0.141 C 
HETATM    2  C4  UNL     1      -4.615  -8.861  -0.948  1.00  0.00     0.258 C 
HETATM    3  N2  UNL     1      -5.777  -8.096  -1.378  1.00  0.00    -0.313 N 
HETATM    4  C27 UNL     1      -6.397  -8.621  -2.549  1.00  0.00     0.314 C 
HETATM    5  O3  UNL     1      -7.141  -7.917  -3.272  1.00  0.00    -0.262 OA
HETATM    6  C28 UNL     1      -6.121 -10.006  -2.856  1.00  0.00     0.316 C 
HETATM    7  O4  UNL     1      -6.633 -10.561  -3.896  1.00  0.00    -0.262 OA
HETATM    8  N5  UNL     1      -5.258 -10.843  -2.014  1.00  0.00    -0.314 N 
ENDROOT
BRANCH   3   9
HETATM    9  C7  UNL     1      -6.329  -6.943  -0.753  1.00  0.00     0.154 C 
BRANCH   9  10
HETATM   10  C8  UNL     1      -7.339  -7.185   0.314  1.00  0.00     0.101 C 
HETATM   11  C9  UNL     1      -6.784  -7.659   1.637  1.00  0.00     0.034 C 
BRANCH  10  12
HETATM   12  N3  UNL     1      -8.443  -8.039  -0.074  1.00  0.00    -0.340 N 
HETATM   13  C10 UNL     1      -8.357  -9.448   0.220  1.00  0.00     0.170 C 
HETATM   14  C11 UNL     1      -9.539 -10.263  -0.161  1.00  0.00     0.079 C 
HETATM   15  N4  UNL     1     -10.188  -9.762  -1.300  1.00  0.00    -0.378 N 
HETATM   16  C19 UNL     1     -10.655  -8.422  -1.281  1.00  0.00     0.179 C 
HETATM   17  C26 UNL     1      -9.583  -7.550  -0.729  1.00  0.00     0.243 C 
HETATM   18  O2  UNL     1      -9.709  -6.307  -0.863  1.00  0.00    -0.271 OA
BRANCH  15  19
HETATM   19  C12 UNL     1     -10.834 -10.663  -2.178  1.00  0.00     0.127 C 
BRANCH  19  20
HETATM   20  C13 UNL     1     -11.356 -11.886  -1.486  1.00  0.00     0.003 C 
HETATM   21  C14 UNL     1     -11.475 -13.069  -2.423  1.00  0.00     0.006 C 
HETATM   22  C15 UNL     1     -12.621 -13.970  -2.061  1.00  0.00     0.000 C 
HETATM   23  C16 UNL     1     -13.960 -13.303  -2.260  1.00  0.00     0.000 C 
HETATM   24  C17 UNL     1     -13.754 -11.806  -2.048  1.00  0.00     0.000 C 
HETATM   25  C18 UNL     1     -12.748 -11.640  -0.932  1.00  0.00     0.006 C 
ENDBRANCH  19  20
ENDBRANCH  15  19
BRANCH  16  26
HETATM   26  C20 UNL     1     -12.006  -8.198  -0.699  1.00  0.00     0.018 C 
HETATM   27  C21 UNL     1     -12.018  -7.694   0.714  1.00  0.00     0.007 C 
HETATM   28  C22 UNL     1     -13.327  -6.964   0.935  1.00  0.00     0.000 C 
HETATM   29  C23 UNL     1     -14.478  -7.574   0.202  1.00  0.00     0.000 C 
HETATM   30  C24 UNL     1     -14.295  -7.410  -1.289  1.00  0.00     0.000 C 
HETATM   31  C25 UNL     1     -12.810  -7.207  -1.523  1.00  0.00     0.007 C 
ENDBRANCH  16  26
ENDBRANCH  10  12
ENDBRANCH   9  10
ENDBRANCH   3   9
BRANCH   2  32
HETATM   32  O1  UNL     1      -3.803  -8.259  -0.069  1.00  0.00    -0.299 OA
BRANCH  32  33
HETATM   33  C5  UNL     1      -2.683  -7.502  -0.173  1.00  0.00     0.211 C 
HETATM   34  S1  UNL     1      -2.396  -6.554  -1.475  1.00  0.00    -0.033 SA
BRANCH  33  35
HETATM   35  N1  UNL     1      -1.715  -7.539   0.892  1.00  0.00    -0.366 N 
HETATM   36  C6  UNL     1      -2.014  -6.887   2.130  1.00  0.00     0.149 C 
ATOM     37  H1  UNL     1      -0.827  -8.025   0.765  1.00  0.00     0.161 HD
ENDBRANCH  33  35
ENDBRANCH  32  33
ENDBRANCH   2  32
BRANCH   1  38
HETATM   38  C2  UNL     1      -4.327 -10.958   0.337  1.00  0.00     0.026 C 
HETATM   39  C1  UNL     1      -4.927 -11.048   1.702  1.00  0.00     0.007 C 
ENDBRANCH   1  38
BRANCH   8  40
HETATM   40  C29 UNL     1      -4.639 -11.939  -2.683  1.00  0.00     0.072 C 
BRANCH  40  41
HETATM   41  C30 UNL     1      -5.131 -13.306  -2.566  1.00  0.00     0.024 C 
HETATM   42  C31 UNL     1      -6.303 -13.741  -1.825  1.00  0.00     0.010 C 
HETATM   43  C32 UNL     1      -5.920 -14.257  -0.424  1.00  0.00     0.001 C 
HETATM   44  C33 UNL     1      -5.148 -15.553  -0.548  1.00  0.00     0.000 C 
HETATM   45  C34 UNL     1      -4.320 -15.544  -1.825  1.00  0.00     0.001 C 
HETATM   46  C35 UNL     1      -3.889 -14.130  -2.051  1.00  0.00     0.010 C 
ENDBRANCH  40  41
ENDBRANCH   8  40
TORSDOF 12
ENDMDL
MODEL 4
REMARK VINA RESULT: -7.693728619      1.244      1.617
REMARK  12 active torsions:
REMARK  status: ('A' for Active; 'I' for Inactive)
REMARK    1  A    between atoms: C2_2  and  C3_3 
REMARK    2  A    between atoms: C4_4  and  O1_5 
REMARK    3  A    between atoms: O1_5  and  C5_6 
REMARK    4  A    between atoms: C5_6  and  N1_8 
REMARK    5  A    between atoms: N2_11  and  C7_12 
REMARK    6  A    between atoms: C7_12  and  C8_13 
REMARK    7  A    between atoms: C8_13  and  N3_15 
REMARK    8  A    between atoms: N4_18  and  C12_19 
REMARK    9  A    between atoms: C12_19  and  C13_20 
REMARK   10  A    between atoms: C19_26  and  C20_27 
REMARK   11  A    between atoms: N5_39  and  C29_40 
REMARK   12  A    between atoms: C29_40  and  C30_41 
ROOT
HETATM    1  C3  UNL     1      -3.886  -6.392   0.321  1.00  0.00     0.141 C 
HETATM    2  C4  UNL     1      -5.367  -6.695   0.042  1.00  0.00     0.258 C 
HETATM    3  N2  UNL     1      -5.602  -6.364  -1.356  1.00  0.00    -0.313 N 
HETATM    4  C27 UNL     1      -5.299  -5.009  -1.674  1.00  0.00     0.314 C 
HETATM    5  O3  UNL     1      -5.781  -4.447  -2.686  1.00  0.00    -0.262 OA
HETATM    6  C28 UNL     1      -4.409  -4.320  -0.768  1.00  0.00     0.316 C 
HETATM    7  O4  UNL     1      -4.086  -3.092  -0.974  1.00  0.00    -0.262 OA
HETATM    8  N5  UNL     1      -3.832  -4.969   0.415  1.00  0.00    -0.314 N 
ENDROOT
BRANCH   3   9
HETATM    9  C7  UNL     1      -6.064  -7.236  -2.382  1.00  0.00     0.154 C 
BRANCH   9  10
HETATM   10  C8  UNL     1      -5.255  -8.461  -2.628  1.00  0.00     0.101 C 
HETATM   11  C9  UNL     1      -4.387  -8.428  -3.864  1.00  0.00     0.034 C 
BRANCH  10  12
HETATM   12  N3  UNL     1      -6.004  -9.702  -2.603  1.00  0.00    -0.340 N 
HETATM   13  C10 UNL     1      -7.053  -9.889  -3.573  1.00  0.00     0.170 C 
HETATM   14  C11 UNL     1      -7.753 -11.199  -3.527  1.00  0.00     0.079 C 
HETATM   15  N4  UNL     1      -7.816 -11.723  -2.227  1.00  0.00    -0.378 N 
HETATM   16  C19 UNL     1      -6.604 -11.928  -1.518  1.00  0.00     0.179 C 
HETATM   17  C26 UNL     1      -5.751 -10.718  -1.670  1.00  0.00     0.243 C 
HETATM   18  O2  UNL     1      -4.752 -10.604  -0.916  1.00  0.00    -0.271 OA
BRANCH  15  19
HETATM   19  C12 UNL     1      -8.927 -12.516  -1.856  1.00  0.00     0.127 C 
BRANCH  19  20
HETATM   20  C13 UNL     1     -10.218 -12.029  -2.443  1.00  0.00     0.003 C 
HETATM   21  C14 UNL     1     -11.132 -11.424  -1.399  1.00  0.00     0.006 C 
HETATM   22  C15 UNL     1     -12.583 -11.646  -1.714  1.00  0.00     0.000 C 
HETATM   23  C16 UNL     1     -12.972 -13.102  -1.635  1.00  0.00     0.000 C 
HETATM   24  C17 UNL     1     -11.732 -13.919  -1.986  1.00  0.00     0.000 C 
HETATM   25  C18 UNL     1     -10.991 -13.174  -3.073  1.00  0.00     0.006 C 
ENDBRANCH  19  20
ENDBRANCH  15  19
BRANCH  16  26
HETATM   26  C20 UNL     1      -5.905 -13.220  -1.755  1.00  0.00     0.018 C 
HETATM   27  C21 UNL     1      -4.636 -13.124  -2.548  1.00  0.00     0.007 C 
HETATM   28  C22 UNL     1      -3.775 -14.319  -2.192  1.00  0.00     0.000 C 
HETATM   29  C23 UNL     1      -4.564 -15.561  -1.928  1.00  0.00     0.000 C 
HETATM   30  C24 UNL     1      -5.386 -15.402  -0.670  1.00  0.00     0.000 C 
HETATM   31  C25 UNL     1      -5.554 -13.911  -0.448  1.00  0.00     0.007 C 
ENDBRANCH  16  26
ENDBRANCH  10  12
ENDBRANCH   9  10
ENDBRANCH   3   9
BRANCH   2  32
HETATM   32  O1  UNL     1      -5.924  -7.831   0.483  1.00  0.00    -0.299 OA
BRANCH  32  33
HETATM   33  C5  UNL     1      -7.055  -8.132   1.168  1.00  0.00     0.211 C 
HETATM   34  S1  UNL     1      -8.000  -6.974   1.833  1.00  0.00    -0.033 SA
BRANCH  33  35
HETATM   35  N1  UNL     1      -7.432  -9.513   1.319  1.00  0.00    -0.366 N 
HETATM   36  C6  UNL     1      -8.730  -9.934   0.889  1.00  0.00     0.149 C 
ATOM     37  H1  UNL     1      -6.781 -10.183   1.727  1.00  0.00     0.161 HD
ENDBRANCH  33  35
ENDBRANCH  32  33
ENDBRANCH   2  32
BRANCH   1  38
HETATM   38  C2  UNL     1      -3.344  -7.270   1.348  1.00  0.00     0.026 C 
HETATM   39  C1  UNL     1      -2.380  -8.329   0.921  1.00  0.00     0.007 C 
ENDBRANCH   1  38
BRANCH   8  40
HETATM   40  C29 UNL     1      -3.463  -4.084   1.470  1.00  0.00     0.072 C 
BRANCH  40  41
HETATM   41  C30 UNL     1      -2.092  -3.973   1.954  1.00  0.00     0.024 C 
HETATM   42  C31 UNL     1      -1.651  -4.097   3.333  1.00  0.00     0.010 C 
HETATM   43  C32 UNL     1      -1.501  -2.714   4.000  1.00  0.00     0.001 C 
HETATM   44  C33 UNL     1      -0.338  -1.969   3.380  1.00  0.00     0.000 C 
HETATM   45  C34 UNL     1      -0.204  -2.344   1.911  1.00  0.00     0.001 C 
HETATM   46  C35 UNL     1      -1.589  -2.585   1.399  1.00  0.00     0.010 C 
ENDBRANCH  40  41
ENDBRANCH   8  40
TORSDOF 12
ENDMDL
MODEL 5
REMARK VINA RESULT: -7.692132017      3.886      9.324
REMARK  12 active torsions:
REMARK  status: ('A' for Active; 'I' for Inactive)
REMARK    1  A    between atoms: C2_2  and  C3_3 
REMARK    2  A    between atoms: C4_4  and  O1_5 
REMARK    3  A    between atoms: O1_5  and  C5_6 
REMARK    4  A    between atoms: C5_6  and  N1_8 
REMARK    5  A    between atoms: N2_11  and  C7_12 
REMARK    6  A    between atoms: C7_12  and  C8_13 
REMARK    7  A    between atoms: C8_13  and  N3_15 
REMARK    8  A    between atoms: N4_18  and  C12_19 
REMARK    9  A    between atoms: C12_19  and  C13_20 
REMARK   10  A    between atoms: C19_26  and  C20_27 
REMARK   11  A    between atoms: N5_39  and  C29_40 
REMARK   12  A    between atoms: C29_40  and  C30_41 
ROOT
HETATM    1  C3  UNL     1     -12.418 -11.114  -1.308  1.00  0.00     0.141 C 
HETATM    2  C4  UNL     1     -11.626  -9.939  -1.904  1.00  0.00     0.258 C 
HETATM    3  N2  UNL     1     -11.371  -9.014  -0.809  1.00  0.00    -0.313 N 
HETATM    4  C27 UNL     1     -12.558  -8.548  -0.174  1.00  0.00     0.314 C 
HETATM    5  O3  UNL     1     -12.571  -7.493   0.503  1.00  0.00    -0.262 OA
HETATM    6  C28 UNL     1     -13.742  -9.356  -0.355  1.00  0.00     0.316 C 
HETATM    7  O4  UNL     1     -14.860  -9.007   0.177  1.00  0.00    -0.262 OA
HETATM    8  N5  UNL     1     -13.738 -10.596  -1.138  1.00  0.00    -0.314 N 
ENDROOT
BRANCH   3   9
HETATM    9  C7  UNL     1     -10.104  -8.574  -0.331  1.00  0.00     0.154 C 
BRANCH   9  10
HETATM   10  C8  UNL     1      -9.380  -9.501   0.582  1.00  0.00     0.101 C 
HETATM   11  C9  UNL     1      -9.426  -9.136   2.047  1.00  0.00     0.034 C 
BRANCH  10  12
HETATM   12  N3  UNL     1      -8.009  -9.783   0.202  1.00  0.00    -0.340 N 
HETATM   13  C10 UNL     1      -6.951  -9.085   0.888  1.00  0.00     0.170 C 
HETATM   14  C11 UNL     1      -5.567  -9.450   0.488  1.00  0.00     0.079 C 
HETATM   15  N4  UNL     1      -5.484  -9.821  -0.863  1.00  0.00    -0.378 N 
HETATM   16  C19 UNL     1      -6.296 -10.889  -1.326  1.00  0.00     0.179 C 
HETATM   17  C26 UNL     1      -7.678 -10.699  -0.807  1.00  0.00     0.243 C 
HETATM   18  O2  UNL     1      -8.595 -11.397  -1.306  1.00  0.00    -0.271 OA
BRANCH  15  19
HETATM   19  C12 UNL     1      -4.296  -9.551  -1.581  1.00  0.00     0.127 C 
BRANCH  19  20
HETATM   20  C13 UNL     1      -4.412  -8.357  -2.481  1.00  0.00     0.003 C 
HETATM   21  C14 UNL     1      -5.673  -7.562  -2.219  1.00  0.00     0.006 C 
HETATM   22  C15 UNL     1      -6.210  -6.919  -3.466  1.00  0.00     0.000 C 
HETATM   23  C16 UNL     1      -6.706  -7.934  -4.466  1.00  0.00     0.000 C 
HETATM   24  C17 UNL     1      -5.884  -9.204  -4.266  1.00  0.00     0.000 C 
HETATM   25  C18 UNL     1      -4.470  -8.782  -3.937  1.00  0.00     0.006 C 
ENDBRANCH  19  20
ENDBRANCH  15  19
BRANCH  16  26
HETATM   26  C20 UNL     1      -5.748 -12.262  -1.156  1.00  0.00     0.018 C 
HETATM   27  C21 UNL     1      -6.510 -13.143  -0.212  1.00  0.00     0.007 C 
HETATM   28  C22 UNL     1      -6.237 -14.582  -0.597  1.00  0.00     0.000 C 
HETATM   29  C23 UNL     1      -4.846 -14.810  -1.094  1.00  0.00     0.000 C 
HETATM   30  C24 UNL     1      -4.639 -14.105  -2.415  1.00  0.00     0.000 C 
HETATM   31  C25 UNL     1      -5.677 -13.000  -2.482  1.00  0.00     0.007 C 
ENDBRANCH  16  26
ENDBRANCH  10  12
ENDBRANCH   9  10
ENDBRANCH   3   9
BRANCH   2  32
HETATM   32  O1  UNL     1     -10.605 -10.162  -2.741  1.00  0.00    -0.299 OA
BRANCH  32  33
HETATM   33  C5  UNL     1     -10.200  -9.614  -3.914  1.00  0.00     0.211 C 
HETATM   34  S1  UNL     1     -10.565  -8.073  -4.323  1.00  0.00    -0.033 SA
BRANCH  33  35
HETATM   35  N1  UNL     1      -9.430 -10.417  -4.828  1.00  0.00    -0.366 N 
HETATM   36  C6  UNL     1      -9.366 -10.038  -6.207  1.00  0.00     0.149 C 
ATOM     37  H1  UNL     1      -8.936 -11.245  -4.497  1.00  0.00     0.161 HD
ENDBRANCH  33  35
ENDBRANCH  32  33
ENDBRANCH   2  32
BRANCH   1  38
HETATM   38  C2  UNL     1     -12.145 -12.357  -2.014  1.00  0.00     0.026 C 
HETATM   39  C1  UNL     1     -12.880 -13.582  -1.578  1.00  0.00     0.007 C 
ENDBRANCH   1  38
BRANCH   8  40
HETATM   40  C29 UNL     1     -14.999 -10.969  -1.688  1.00  0.00     0.072 C 
BRANCH  40  41
HETATM   41  C30 UNL     1     -15.511 -10.400  -2.929  1.00  0.00     0.024 C 
HETATM   42  C31 UNL     1     -16.349  -9.220  -3.056  1.00  0.00     0.010 C 
HETATM   43  C32 UNL     1     -17.840  -9.601  -3.165  1.00  0.00     0.001 C 
HETATM   44  C33 UNL     1     -18.097 -10.293  -4.487  1.00  0.00     0.000 C 
HETATM   45  C34 UNL     1     -16.870 -11.094  -4.901  1.00  0.00     0.001 C 
HETATM   46  C35 UNL     1     -16.241 -11.602  -3.642  1.00  0.00     0.010 C 
ENDBRANCH  40  41
ENDBRANCH   8  40
TORSDOF 12
ENDMDL
