MODEL 1
REMARK VINA RESULT: -7.651601633      0.000      0.000
REMARK  10 active torsions:
REMARK  status: ('A' for Active; 'I' for Inactive)
REMARK    1  A    between atoms: C2_2  and  C3_3 
REMARK    2  A    between atoms: C4_4  and  N1_5 
REMARK    3  A    between atoms: C4_4  and  C28_35 
REMARK    4  A    between atoms: N2_8  and  C7_9 
REMARK    5  A    between atoms: C7_9  and  C8_10 
REMARK    6  A    between atoms: C8_10  and  C9_11 
REMARK       I    between atoms: N3_14  and  C12_15 
REMARK    7  A    between atoms: C12_15  and  C13_17 
REMARK       I    between atoms: N4_20  and  C16_21 
REMARK    8  A    between atoms: C16_21  and  C17_23 
REMARK    9  A    between atoms: C17_23  and  C18_24 
REMARK   10  A    between atoms: C28_35  and  N5_38 
REMARK       I    between atoms: N5_38  and  C31_40 
REMARK       I    between atoms: C31_40  and  N6_42 
ROOT
HETATM    1  N1  UNL     1      -6.466 -10.589  -2.505  1.00  0.00    -0.282 NA
HETATM    2  C5  UNL     1      -6.236 -10.176  -3.863  1.00  0.00     0.125 C 
HETATM    3  C6  UNL     1      -5.801  -8.713  -3.946  1.00  0.00     0.287 C 
HETATM    4  N2  UNL     1      -4.509  -8.557  -3.363  1.00  0.00     0.090 N 
HETATM    5  C26 UNL     1      -4.173  -9.596  -2.439  1.00  0.00     0.287 C 
HETATM    6  C27 UNL     1      -5.403 -10.058  -1.713  1.00  0.00     0.125 C 
ENDROOT
BRANCH   4   7
HETATM    7  C7  UNL     1      -4.203  -7.248  -2.920  1.00  0.00     0.273 C 
BRANCH   7   8
HETATM    8  C8  UNL     1      -5.474  -6.449  -2.914  1.00  0.00     0.035 C 
BRANCH   8   9
HETATM    9  C9  UNL     1      -5.231  -5.108  -2.255  1.00  0.00    -0.007 C 
HETATM   10  C10 UNL     1      -5.542  -5.098  -0.797  1.00  0.00     0.025 C 
HETATM   11  C11 UNL     1      -5.505  -3.634  -0.313  1.00  0.00     0.129 C 
HETATM   12  N3  UNL     1      -4.121  -3.227  -0.530  1.00  0.00    -0.321 N 
HETATM   13  C12 UNL     1      -3.323  -2.785   0.529  1.00  0.00     0.226 C 
HETATM   14  C24 UNL     1      -3.600  -3.308  -1.887  1.00  0.00     0.274 C 
HETATM   15  O1  UNL     1      -2.116  -2.464   0.295  1.00  0.00    -0.273 OA
HETATM   16  F1  UNL     1      -2.279  -2.982  -1.964  1.00  0.00    -0.227 F 
HETATM   17  C25 UNL     1      -3.776  -4.698  -2.445  1.00  0.00     0.064 C 
BRANCH  13  18
HETATM   18  C13 UNL     1      -3.830  -2.677   1.897  1.00  0.00     0.081 C 
HETATM   19  C14 UNL     1      -4.710  -3.885   2.193  1.00  0.00     0.034 C 
HETATM   20  C15 UNL     1      -4.086  -4.839   3.179  1.00  0.00     0.126 C 
HETATM   21  N4  UNL     1      -2.687  -5.062   2.912  1.00  0.00    -0.352 N 
HETATM   22  C16 UNL     1      -2.121  -6.349   2.786  1.00  0.00     0.220 C 
HETATM   23  C22 UNL     1      -1.870  -3.875   2.763  1.00  0.00     0.126 C 
HETATM   24  O2  UNL     1      -0.890  -6.469   2.567  1.00  0.00    -0.273 OA
HETATM   25  C23 UNL     1      -2.738  -2.642   2.948  1.00  0.00     0.034 C 
BRANCH  22  26
HETATM   26  C17 UNL     1      -2.918  -7.596   2.900  1.00  0.00     0.111 C 
BRANCH  26  27
HETATM   27  C18 UNL     1      -3.365  -8.099   1.544  1.00  0.00    -0.043 C 
HETATM   28  C19 UNL     1      -2.899  -9.551   1.455  1.00  0.00     0.015 C 
HETATM   29  C20 UNL     1      -4.859  -8.030   1.485  1.00  0.00     0.015 C 
HETATM   30  C21 UNL     1      -2.706  -7.321   0.423  1.00  0.00     0.015 C 
ENDBRANCH  26  27
ENDBRANCH  22  26
ENDBRANCH  13  18
ENDBRANCH   8   9
ENDBRANCH   7   8
ENDBRANCH   4   7
BRANCH   1  31
HETATM   31  C4  UNL     1      -6.543 -12.079  -2.476  1.00  0.00     0.012 C 
HETATM   32  C3  UNL     1      -5.309 -12.722  -2.677  1.00  0.00    -0.005 C 
BRANCH  32  33
HETATM   33  C2  UNL     1      -5.162 -14.202  -2.718  1.00  0.00     0.024 C 
HETATM   34  C1  UNL     1      -3.816 -14.460  -1.926  1.00  0.00     0.009 C 
ENDBRANCH  32  33
BRANCH  31  35
HETATM   35  C28 UNL     1      -7.600 -12.401  -1.537  1.00  0.00     0.064 C 
HETATM   36  C29 UNL     1      -6.989 -13.166  -0.303  1.00  0.00     0.044 C 
HETATM   37  C30 UNL     1      -8.573 -13.485  -2.085  1.00  0.00     0.044 C 
BRANCH  35  38
HETATM   38  N5  UNL     1      -8.401 -11.380  -0.924  1.00  0.00    -0.329 N 
HETATM   39  C31 UNL     1      -9.444 -10.628  -1.458  1.00  0.00     0.319 C 
HETATM   40  O3  UNL     1      -9.872 -10.771  -2.635  1.00  0.00    -0.247 OA
HETATM   41  N6  UNL     1     -10.094  -9.633  -0.677  1.00  0.00    -0.334 N 
HETATM   42  C32 UNL     1     -11.177  -8.844  -1.206  1.00  0.00     0.127 C 
HETATM   43  C37 UNL     1      -9.671  -9.391   0.680  1.00  0.00     0.131 C 
HETATM   44  C33 UNL     1     -10.908  -7.372  -0.954  1.00  0.00     0.020 C 
HETATM   45  C34 UNL     1     -10.625  -7.086   0.504  1.00  0.00     0.007 C 
HETATM   46  C35 UNL     1     -10.545  -8.343   1.342  1.00  0.00    -0.000 C 
HETATM   47  C36 UNL     1      -9.906  -7.986   2.667  1.00  0.00     0.011 C 
ATOM     48  H5  UNL     1      -8.171 -11.174   0.049  1.00  0.00     0.165 HD
ENDBRANCH  35  38
ENDBRANCH  31  35
ENDBRANCH   1  31
TORSDOF 10
ENDMDL
MODEL 2
REMARK VINA RESULT: -7.616213439      2.542      6.001
REMARK  10 active torsions:
REMARK  status: ('A' for Active; 'I' for Inactive)
REMARK    1  A    between atoms: C2_2  and  C3_3 
REMARK    2  A    between atoms: C4_4  and  N1_5 
REMARK    3  A    between atoms: C4_4  and  C28_35 
REMARK    4  A    between atoms: N2_8  and  C7_9 
REMARK    5  A    between atoms: C7_9  and  C8_10 
REMARK    6  A    between atoms: C8_10  and  C9_11 
REMARK       I    between atoms: N3_14  and  C12_15 
REMARK    7  A    between atoms: C12_15  and  C13_17 
REMARK       I    between atoms: N4_20  and  C16_21 
REMARK    8  A    between atoms: C16_21  and  C17_23 
REMARK    9  A    between atoms: C17_23  and  C18_24 
REMARK   10  A    between atoms: C28_35  and  N5_38 
REMARK       I    between atoms: N5_38  and  C31_40 
REMARK       I    between atoms: C31_40  and  N6_42 
ROOT
HETATM    1  N1  UNL     1      -9.424  -8.825  -2.801  1.00  0.00    -0.282 NA
HETATM    2  C5  UNL     1     -10.786  -9.249  -2.620  1.00  0.00     0.125 C 
HETATM    3  C6  UNL     1     -11.223  -9.146  -1.158  1.00  0.00     0.287 C 
HETATM    4  N2  UNL     1     -11.280  -7.777  -0.764  1.00  0.00     0.090 N 
HETATM    5  C26 UNL     1     -10.477  -6.917  -1.576  1.00  0.00     0.287 C 
HETATM    6  C27 UNL     1      -9.240  -7.640  -2.026  1.00  0.00     0.125 C 
ENDROOT
BRANCH   4   7
HETATM    7  C7  UNL     1     -11.173  -7.547   0.628  1.00  0.00     0.273 C 
BRANCH   7   8
HETATM    8  C8  UNL     1     -10.655  -8.802   1.270  1.00  0.00     0.035 C 
BRANCH   8   9
HETATM    9  C9  UNL     1      -9.237  -8.582   1.752  1.00  0.00    -0.007 C 
HETATM   10  C10 UNL     1      -8.215  -9.288   0.929  1.00  0.00     0.025 C 
HETATM   11  C11 UNL     1      -6.864  -9.197   1.668  1.00  0.00     0.129 C 
HETATM   12  N3  UNL     1      -6.577  -7.768   1.701  1.00  0.00    -0.321 N 
HETATM   13  C12 UNL     1      -5.414  -7.251   1.124  1.00  0.00     0.226 C 
HETATM   14  C24 UNL     1      -7.549  -6.900   2.349  1.00  0.00     0.274 C 
HETATM   15  O1  UNL     1      -5.218  -5.996   1.155  1.00  0.00    -0.273 OA
HETATM   16  F1  UNL     1      -7.223  -5.580   2.254  1.00  0.00    -0.227 F 
HETATM   17  C25 UNL     1      -8.920  -7.092   1.749  1.00  0.00     0.064 C 
BRANCH  13  18
HETATM   18  C13 UNL     1      -4.412  -8.106   0.485  1.00  0.00     0.081 C 
HETATM   19  C14 UNL     1      -3.328  -7.224  -0.122  1.00  0.00     0.034 C 
HETATM   20  C15 UNL     1      -2.014  -7.319   0.610  1.00  0.00     0.126 C 
HETATM   21  N4  UNL     1      -2.185  -7.304   2.041  1.00  0.00    -0.352 N 
HETATM   22  C16 UNL     1      -1.486  -6.420   2.893  1.00  0.00     0.220 C 
HETATM   23  C22 UNL     1      -3.139  -8.251   2.580  1.00  0.00     0.126 C 
HETATM   24  O2  UNL     1      -1.674  -6.471   4.133  1.00  0.00    -0.273 OA
HETATM   25  C23 UNL     1      -3.734  -9.065   1.443  1.00  0.00     0.034 C 
BRANCH  22  26
HETATM   26  C17 UNL     1      -0.521  -5.410   2.390  1.00  0.00     0.111 C 
BRANCH  26  27
HETATM   27  C18 UNL     1      -1.110  -4.016   2.408  1.00  0.00    -0.043 C 
HETATM   28  C19 UNL     1       0.038  -3.065   2.077  1.00  0.00     0.015 C 
HETATM   29  C20 UNL     1      -2.168  -3.939   1.352  1.00  0.00     0.015 C 
HETATM   30  C21 UNL     1      -1.639  -3.659   3.782  1.00  0.00     0.015 C 
ENDBRANCH  26  27
ENDBRANCH  22  26
ENDBRANCH  13  18
ENDBRANCH   8   9
ENDBRANCH   7   8
ENDBRANCH   4   7
BRANCH   1  31
HETATM   31  C4  UNL     1      -9.187  -8.625  -4.260  1.00  0.00     0.012 C 
HETATM   32  C3  UNL     1      -9.027  -7.280  -4.638  1.00  0.00    -0.005 C 
BRANCH  32  33
HETATM   33  C2  UNL     1      -8.812  -6.852  -6.046  1.00  0.00     0.024 C 
HETATM   34  C1  UNL     1      -8.764  -5.273  -5.947  1.00  0.00     0.009 C 
ENDBRANCH  32  33
BRANCH  31  35
HETATM   35  C28 UNL     1      -8.450  -9.793  -4.704  1.00  0.00     0.064 C 
HETATM   36  C29 UNL     1      -7.273  -9.342  -5.649  1.00  0.00     0.044 C 
HETATM   37  C30 UNL     1      -9.273 -10.679  -5.685  1.00  0.00     0.044 C 
BRANCH  35  38
HETATM   38  N5  UNL     1      -7.803 -10.675  -3.775  1.00  0.00    -0.329 N 
HETATM   39  C31 UNL     1      -6.466 -10.735  -3.390  1.00  0.00     0.319 C 
HETATM   40  O3  UNL     1      -5.583  -9.947  -3.823  1.00  0.00    -0.247 OA
HETATM   41  N6  UNL     1      -6.023 -11.719  -2.463  1.00  0.00    -0.334 N 
HETATM   42  C32 UNL     1      -4.646 -11.800  -2.048  1.00  0.00     0.127 C 
HETATM   43  C37 UNL     1      -6.960 -12.669  -1.916  1.00  0.00     0.131 C 
HETATM   44  C33 UNL     1      -4.150 -13.226  -2.195  1.00  0.00     0.020 C 
HETATM   45  C34 UNL     1      -5.044 -14.217  -1.480  1.00  0.00     0.007 C 
HETATM   46  C35 UNL     1      -6.286 -13.573  -0.903  1.00  0.00    -0.000 C 
HETATM   47  C36 UNL     1      -7.264 -14.672  -0.548  1.00  0.00     0.011 C 
ATOM     48  H5  UNL     1      -8.415 -11.360  -3.330  1.00  0.00     0.165 HD
ENDBRANCH  35  38
ENDBRANCH  31  35
ENDBRANCH   1  31
TORSDOF 10
ENDMDL
MODEL 3
REMARK VINA RESULT: -7.555250057      1.987      3.043
REMARK  10 active torsions:
REMARK  status: ('A' for Active; 'I' for Inactive)
REMARK    1  A    between atoms: C2_2  and  C3_3 
REMARK    2  A    between atoms: C4_4  and  N1_5 
REMARK    3  A    between atoms: C4_4  and  C28_35 
REMARK    4  A    between atoms: N2_8  and  C7_9 
REMARK    5  A    between atoms: C7_9  and  C8_10 
REMARK    6  A    between atoms: C8_10  and  C9_11 
REMARK       I    between atoms: N3_14  and  C12_15 
REMARK    7  A    between atoms: C12_15  and  C13_17 
REMARK       I    between atoms: N4_20  and  C16_21 
REMARK    8  A    between atoms: C16_21  and  C17_23 
REMARK    9  A    between atoms: C17_23  and  C18_24 
REMARK   10  A    between atoms: C28_35  and  N5_38 
REMARK       I    between atoms: N5_38  and  C31_40 
REMARK       I    between atoms: C31_40  and  N6_42 
ROOT
HETATM    1  N1  UNL     1      -6.385 -10.360  -2.175  1.00  0.00    -0.282 NA
HETATM    2  C5  UNL     1      -6.486  -9.783  -3.488  1.00  0.00     0.125 C 
HETATM    3  C6  UNL     1      -6.059  -8.315  -3.498  1.00  0.00     0.287 C 
HETATM    4  N2  UNL     1      -4.661  -8.214  -3.232  1.00  0.00     0.090 N 
HETATM    5  C26 UNL     1      -4.129  -9.352  -2.551  1.00  0.00     0.287 C 
HETATM    6  C27 UNL     1      -5.153  -9.915  -1.608  1.00  0.00     0.125 C 
ENDROOT
BRANCH   4   7
HETATM    7  C7  UNL     1      -4.234  -6.965  -2.723  1.00  0.00     0.273 C 
BRANCH   7   8
HETATM    8  C8  UNL     1      -2.748  -7.031  -2.511  1.00  0.00     0.035 C 
BRANCH   8   9
HETATM    9  C9  UNL     1      -2.378  -6.279  -1.251  1.00  0.00    -0.007 C 
HETATM   10  C10 UNL     1      -3.302  -5.150  -0.942  1.00  0.00     0.025 C 
HETATM   11  C11 UNL     1      -2.673  -4.320   0.197  1.00  0.00     0.129 C 
HETATM   12  N3  UNL     1      -2.624  -5.247   1.322  1.00  0.00    -0.321 N 
HETATM   13  C12 UNL     1      -3.281  -4.962   2.522  1.00  0.00     0.226 C 
HETATM   14  C24 UNL     1      -1.875  -6.482   1.145  1.00  0.00     0.274 C 
HETATM   15  O1  UNL     1      -3.231  -5.811   3.466  1.00  0.00    -0.273 OA
HETATM   16  F1  UNL     1      -1.961  -7.309   2.225  1.00  0.00    -0.227 F 
HETATM   17  C25 UNL     1      -2.366  -7.236  -0.066  1.00  0.00     0.064 C 
BRANCH  13  18
HETATM   18  C13 UNL     1      -4.023  -3.718   2.730  1.00  0.00     0.081 C 
HETATM   19  C14 UNL     1      -4.862  -3.432   1.491  1.00  0.00     0.034 C 
HETATM   20  C15 UNL     1      -6.340  -3.606   1.728  1.00  0.00     0.126 C 
HETATM   21  N4  UNL     1      -6.634  -4.793   2.492  1.00  0.00    -0.352 N 
HETATM   22  C16 UNL     1      -7.571  -5.765   2.080  1.00  0.00     0.220 C 
HETATM   23  C22 UNL     1      -5.896  -4.953   3.728  1.00  0.00     0.126 C 
HETATM   24  O2  UNL     1      -7.787  -6.768   2.803  1.00  0.00    -0.273 OA
HETATM   25  C23 UNL     1      -4.967  -3.766   3.916  1.00  0.00     0.034 C 
BRANCH  22  26
HETATM   26  C17 UNL     1      -8.331  -5.664   0.808  1.00  0.00     0.111 C 
BRANCH  26  27
HETATM   27  C18 UNL     1      -7.534  -6.197  -0.363  1.00  0.00    -0.043 C 
HETATM   28  C19 UNL     1      -8.466  -7.147  -1.113  1.00  0.00     0.015 C 
HETATM   29  C20 UNL     1      -7.154  -5.044  -1.238  1.00  0.00     0.015 C 
HETATM   30  C21 UNL     1      -6.330  -6.989   0.105  1.00  0.00     0.015 C 
ENDBRANCH  26  27
ENDBRANCH  22  26
ENDBRANCH  13  18
ENDBRANCH   8   9
ENDBRANCH   7   8
ENDBRANCH   4   7
BRANCH   1  31
HETATM   31  C4  UNL     1      -6.479 -11.843  -2.307  1.00  0.00     0.012 C 
HETATM   32  C3  UNL     1      -5.258 -12.471  -2.612  1.00  0.00    -0.005 C 
BRANCH  32  33
HETATM   33  C2  UNL     1      -5.129 -13.938  -2.818  1.00  0.00     0.024 C 
HETATM   34  C1  UNL     1      -3.816 -14.309  -2.015  1.00  0.00     0.009 C 
ENDBRANCH  32  33
BRANCH  31  35
HETATM   35  C28 UNL     1      -7.514 -12.257  -1.380  1.00  0.00     0.064 C 
HETATM   36  C29 UNL     1      -6.864 -12.592   0.015  1.00  0.00     0.044 C 
HETATM   37  C30 UNL     1      -8.121 -13.643  -1.746  1.00  0.00     0.044 C 
BRANCH  35  38
HETATM   38  N5  UNL     1      -8.606 -11.393  -1.033  1.00  0.00    -0.329 N 
HETATM   39  C31 UNL     1      -9.710 -11.007  -1.788  1.00  0.00     0.319 C 
HETATM   40  O3  UNL     1      -9.926 -11.417  -2.961  1.00  0.00    -0.247 OA
HETATM   41  N6  UNL     1     -10.673 -10.106  -1.257  1.00  0.00    -0.334 N 
HETATM   42  C32 UNL     1     -11.825  -9.695  -2.018  1.00  0.00     0.127 C 
HETATM   43  C37 UNL     1     -10.509  -9.578   0.075  1.00  0.00     0.131 C 
HETATM   44  C33 UNL     1     -11.940  -8.182  -1.994  1.00  0.00     0.020 C 
HETATM   45  C34 UNL     1     -11.934  -7.632  -0.585  1.00  0.00     0.007 C 
HETATM   46  C35 UNL     1     -11.683  -8.698   0.458  1.00  0.00    -0.000 C 
HETATM   47  C36 UNL     1     -11.333  -8.011   1.760  1.00  0.00     0.011 C 
ATOM     48  H5  UNL     1      -8.566 -11.002  -0.091  1.00  0.00     0.165 HD
ENDBRANCH  35  38
ENDBRANCH  31  35
ENDBRANCH   1  31
TORSDOF 10
ENDMDL
MODEL 4
REMARK VINA RESULT: -7.538140928      3.107      8.696
REMARK  10 active torsions:
REMARK  status: ('A' for Active; 'I' for Inactive)
REMARK    1  A    between atoms: C2_2  and  C3_3 
REMARK    2  A    between atoms: C4_4  and  N1_5 
REMARK    3  A    between atoms: C4_4  and  C28_35 
REMARK    4  A    between atoms: N2_8  and  C7_9 
REMARK    5  A    between atoms: C7_9  and  C8_10 
REMARK    6  A    between atoms: C8_10  and  C9_11 
REMARK       I    between atoms: N3_14  and  C12_15 
REMARK    7  A    between atoms: C12_15  and  C13_17 
REMARK       I    between atoms: N4_20  and  C16_21 
REMARK    8  A    between atoms: C16_21  and  C17_23 
REMARK    9  A    between atoms: C17_23  and  C18_24 
REMARK   10  A    between atoms: C28_35  and  N5_38 
REMARK       I    between atoms: N5_38  and  C31_40 
REMARK       I    between atoms: C31_40  and  N6_42 
ROOT
HETATM    1  N1  UNL     1      -5.259  -6.259  -0.022  1.00  0.00    -0.282 NA
HETATM    2  C5  UNL     1      -4.692  -4.983   0.321  1.00  0.00     0.125 C 
HETATM    3  C6  UNL     1      -5.742  -4.032   0.897  1.00  0.00     0.287 C 
HETATM    4  N2  UNL     1      -6.188  -4.512   2.163  1.00  0.00     0.090 N 
HETATM    5  C26 UNL     1      -5.975  -5.914   2.348  1.00  0.00     0.287 C 
HETATM    6  C27 UNL     1      -6.135  -6.636   1.040  1.00  0.00     0.125 C 
ENDROOT
BRANCH   4   7
HETATM    7  C7  UNL     1      -7.463  -4.048   2.568  1.00  0.00     0.273 C 
BRANCH   7   8
HETATM    8  C8  UNL     1      -7.993  -4.991   3.611  1.00  0.00     0.035 C 
BRANCH   8   9
HETATM    9  C9  UNL     1      -9.295  -5.598   3.136  1.00  0.00    -0.007 C 
HETATM   10  C10 UNL     1      -9.670  -5.189   1.753  1.00  0.00     0.025 C 
HETATM   11  C11 UNL     1     -11.117  -5.658   1.495  1.00  0.00     0.129 C 
HETATM   12  N3  UNL     1     -11.037  -7.111   1.580  1.00  0.00    -0.321 N 
HETATM   13  C12 UNL     1     -11.406  -7.920   0.502  1.00  0.00     0.226 C 
HETATM   14  C24 UNL     1     -10.551  -7.687   2.825  1.00  0.00     0.274 C 
HETATM   15  O1  UNL     1     -11.296  -9.181   0.614  1.00  0.00    -0.273 OA
HETATM   16  F1  UNL     1     -10.440  -9.044   2.770  1.00  0.00    -0.227 F 
HETATM   17  C25 UNL     1      -9.201  -7.118   3.185  1.00  0.00     0.064 C 
BRANCH  13  18
HETATM   18  C13 UNL     1     -11.917  -7.365  -0.752  1.00  0.00     0.081 C 
HETATM   19  C14 UNL     1     -11.611  -8.339  -1.883  1.00  0.00     0.034 C 
HETATM   20  C15 UNL     1     -12.843  -9.019  -2.423  1.00  0.00     0.126 C 
HETATM   21  N4  UNL     1     -13.734  -9.448  -1.374  1.00  0.00    -0.352 N 
HETATM   22  C16 UNL     1     -14.233 -10.765  -1.275  1.00  0.00     0.220 C 
HETATM   23  C22 UNL     1     -14.093  -8.445  -0.393  1.00  0.00     0.126 C 
HETATM   24  O2  UNL     1     -15.017 -11.066  -0.342  1.00  0.00    -0.273 OA
HETATM   25  C23 UNL     1     -13.415  -7.132  -0.746  1.00  0.00     0.034 C 
BRANCH  22  26
HETATM   26  C17 UNL     1     -13.873 -11.838  -2.236  1.00  0.00     0.111 C 
BRANCH  26  27
HETATM   27  C18 UNL     1     -12.757 -12.712  -1.705  1.00  0.00    -0.043 C 
HETATM   28  C19 UNL     1     -12.889 -14.053  -2.423  1.00  0.00     0.015 C 
HETATM   29  C20 UNL     1     -11.450 -12.067  -2.048  1.00  0.00     0.015 C 
HETATM   30  C21 UNL     1     -12.907 -12.955  -0.217  1.00  0.00     0.015 C 
ENDBRANCH  26  27
ENDBRANCH  22  26
ENDBRANCH  13  18
ENDBRANCH   8   9
ENDBRANCH   7   8
ENDBRANCH   4   7
BRANCH   1  31
HETATM   31  C4  UNL     1      -4.141  -7.223  -0.242  1.00  0.00     0.012 C 
HETATM   32  C3  UNL     1      -3.641  -7.802   0.937  1.00  0.00    -0.005 C 
BRANCH  32  33
HETATM   33  C2  UNL     1      -2.507  -8.765   0.952  1.00  0.00     0.024 C 
HETATM   34  C1  UNL     1      -3.139 -10.068   1.592  1.00  0.00     0.009 C 
ENDBRANCH  32  33
BRANCH  31  35
HETATM   35  C28 UNL     1      -4.402  -7.844  -1.527  1.00  0.00     0.064 C 
HETATM   36  C29 UNL     1      -3.139  -7.679  -2.454  1.00  0.00     0.044 C 
HETATM   37  C30 UNL     1      -5.463  -7.065  -2.359  1.00  0.00     0.044 C 
BRANCH  35  38
HETATM   38  N5  UNL     1      -4.712  -9.240  -1.641  1.00  0.00    -0.329 N 
HETATM   39  C31 UNL     1      -5.890  -9.917  -1.335  1.00  0.00     0.319 C 
HETATM   40  O3  UNL     1      -6.928  -9.345  -0.906  1.00  0.00    -0.247 OA
HETATM   41  N6  UNL     1      -5.977 -11.328  -1.496  1.00  0.00    -0.334 N 
HETATM   42  C32 UNL     1      -7.185 -12.050  -1.189  1.00  0.00     0.127 C 
HETATM   43  C37 UNL     1      -4.839 -12.070  -1.977  1.00  0.00     0.131 C 
HETATM   44  C33 UNL     1      -6.862 -13.228  -0.289  1.00  0.00     0.020 C 
HETATM   45  C34 UNL     1      -5.776 -14.108  -0.869  1.00  0.00     0.007 C 
HETATM   46  C35 UNL     1      -5.179 -13.540  -2.138  1.00  0.00    -0.000 C 
HETATM   47  C36 UNL     1      -3.889 -14.279  -2.423  1.00  0.00     0.011 C 
ATOM     48  H5  UNL     1      -3.956  -9.824  -1.999  1.00  0.00     0.165 HD
ENDBRANCH  35  38
ENDBRANCH  31  35
ENDBRANCH   1  31
TORSDOF 10
ENDMDL
MODEL 5
REMARK VINA RESULT: -7.420894754      4.902     10.980
REMARK  10 active torsions:
REMARK  status: ('A' for Active; 'I' for Inactive)
REMARK    1  A    between atoms: C2_2  and  C3_3 
REMARK    2  A    between atoms: C4_4  and  N1_5 
REMARK    3  A    between atoms: C4_4  and  C28_35 
REMARK    4  A    between atoms: N2_8  and  C7_9 
REMARK    5  A    between atoms: C7_9  and  C8_10 
REMARK    6  A    between atoms: C8_10  and  C9_11 
REMARK       I    between atoms: N3_14  and  C12_15 
REMARK    7  A    between atoms: C12_15  and  C13_17 
REMARK       I    between atoms: N4_20  and  C16_21 
REMARK    8  A    between atoms: C16_21  and  C17_23 
REMARK    9  A    between atoms: C17_23  and  C18_24 
REMARK   10  A    between atoms: C28_35  and  N5_38 
REMARK       I    between atoms: N5_38  and  C31_40 
REMARK       I    between atoms: C31_40  and  N6_42 
ROOT
HETATM    1  N1  UNL     1      -5.332 -11.021  -0.320  1.00  0.00    -0.282 NA
HETATM    2  C5  UNL     1      -4.794 -12.171  -0.995  1.00  0.00     0.125 C 
HETATM    3  C6  UNL     1      -5.887 -13.174  -1.367  1.00  0.00     0.287 C 
HETATM    4  N2  UNL     1      -6.742 -12.615  -2.361  1.00  0.00     0.090 N 
HETATM    5  C26 UNL     1      -6.715 -11.186  -2.395  1.00  0.00     0.287 C 
HETATM    6  C27 UNL     1      -6.522 -10.640  -1.010  1.00  0.00     0.125 C 
ENDROOT
BRANCH   4   7
HETATM    7  C7  UNL     1      -8.035 -13.185  -2.433  1.00  0.00     0.273 C 
BRANCH   7   8
HETATM    8  C8  UNL     1      -8.990 -12.119  -2.890  1.00  0.00     0.035 C 
BRANCH   8   9
HETATM    9  C9  UNL     1     -10.286 -12.228  -2.115  1.00  0.00    -0.007 C 
HETATM   10  C10 UNL     1     -11.005 -10.930  -1.978  1.00  0.00     0.025 C 
HETATM   11  C11 UNL     1     -12.151 -11.127  -0.963  1.00  0.00     0.129 C 
HETATM   12  N3  UNL     1     -13.018 -12.112  -1.599  1.00  0.00    -0.321 N 
HETATM   13  C12 UNL     1     -14.356 -11.823  -1.880  1.00  0.00     0.226 C 
HETATM   14  C24 UNL     1     -12.436 -13.403  -1.937  1.00  0.00     0.274 C 
HETATM   15  O1  UNL     1     -15.067 -12.704  -2.458  1.00  0.00    -0.273 OA
HETATM   16  F1  UNL     1     -13.308 -14.217  -2.597  1.00  0.00    -0.227 F 
HETATM   17  C25 UNL     1     -11.211 -13.227  -2.799  1.00  0.00     0.064 C 
BRANCH  13  18
HETATM   18  C13 UNL     1     -14.968 -10.540  -1.532  1.00  0.00     0.081 C 
HETATM   19  C14 UNL     1     -14.559  -9.502  -2.568  1.00  0.00     0.034 C 
HETATM   20  C15 UNL     1     -15.699  -9.079  -3.459  1.00  0.00     0.126 C 
HETATM   21  N4  UNL     1     -16.498 -10.199  -3.892  1.00  0.00    -0.352 N 
HETATM   22  C16 UNL     1     -16.809 -10.447  -5.247  1.00  0.00     0.220 C 
HETATM   23  C22 UNL     1     -16.967 -11.088  -2.850  1.00  0.00     0.126 C 
HETATM   24  O2  UNL     1     -17.522 -11.435  -5.551  1.00  0.00    -0.273 OA
HETATM   25  C23 UNL     1     -16.484 -10.580  -1.502  1.00  0.00     0.034 C 
BRANCH  22  26
HETATM   26  C17 UNL     1     -16.329  -9.585  -6.356  1.00  0.00     0.111 C 
BRANCH  26  27
HETATM   27  C18 UNL     1     -17.425  -8.677  -6.873  1.00  0.00    -0.043 C 
HETATM   28  C19 UNL     1     -16.751  -7.350  -7.216  1.00  0.00     0.015 C 
HETATM   29  C20 UNL     1     -18.009  -9.297  -8.104  1.00  0.00     0.015 C 
HETATM   30  C21 UNL     1     -18.470  -8.414  -5.807  1.00  0.00     0.015 C 
ENDBRANCH  26  27
ENDBRANCH  22  26
ENDBRANCH  13  18
ENDBRANCH   8   9
ENDBRANCH   7   8
ENDBRANCH   4   7
BRANCH   1  31
HETATM   31  C4  UNL     1      -4.286  -9.957  -0.304  1.00  0.00     0.012 C 
HETATM   32  C3  UNL     1      -4.317  -9.104  -1.420  1.00  0.00    -0.005 C 
BRANCH  32  33
HETATM   33  C2  UNL     1      -3.346  -7.995  -1.623  1.00  0.00     0.024 C 
HETATM   34  C1  UNL     1      -3.533  -7.616  -3.148  1.00  0.00     0.009 C 
ENDBRANCH  32  33
BRANCH  31  35
HETATM   35  C28 UNL     1      -4.080  -9.628   1.094  1.00  0.00     0.064 C 
HETATM   36  C29 UNL     1      -2.551  -9.773   1.446  1.00  0.00     0.044 C 
HETATM   37  C30 UNL     1      -4.690 -10.693   2.052  1.00  0.00     0.044 C 
BRANCH  35  38
HETATM   38  N5  UNL     1      -4.416  -8.337   1.623  1.00  0.00    -0.329 N 
HETATM   39  C31 UNL     1      -5.663  -7.733   1.770  1.00  0.00     0.319 C 
HETATM   40  O3  UNL     1      -6.747  -8.294   1.455  1.00  0.00    -0.247 OA
HETATM   41  N6  UNL     1      -5.773  -6.417   2.296  1.00  0.00    -0.334 N 
HETATM   42  C32 UNL     1      -7.051  -5.773   2.460  1.00  0.00     0.127 C 
HETATM   43  C37 UNL     1      -4.587  -5.692   2.680  1.00  0.00     0.131 C 
HETATM   44  C33 UNL     1      -7.010  -4.390   1.836  1.00  0.00     0.020 C 
HETATM   45  C34 UNL     1      -5.857  -3.562   2.361  1.00  0.00     0.007 C 
HETATM   46  C35 UNL     1      -4.944  -4.345   3.278  1.00  0.00    -0.000 C 
HETATM   47  C36 UNL     1      -3.659  -3.563   3.443  1.00  0.00     0.011 C 
ATOM     48  H5  UNL     1      -3.623  -7.778   1.937  1.00  0.00     0.165 HD
ENDBRANCH  35  38
ENDBRANCH  31  35
ENDBRANCH   1  31
TORSDOF 10
ENDMDL
