MODEL 1
REMARK VINA RESULT: -8.642591224      0.000      0.000
REMARK  9 active torsions:
REMARK  status: ('A' for Active; 'I' for Inactive)
REMARK       I    between atoms: C2_2  and  N1_4 
REMARK       I    between atoms: N2_7  and  C5_8 
REMARK    1  A    between atoms: C5_8  and  C6_10 
REMARK    2  A    between atoms: C6_10  and  N3_11 
REMARK    3  A    between atoms: N4_22  and  C17_23 
REMARK    4  A    between atoms: C17_23  and  C18_24 
REMARK    5  A    between atoms: C24_31  and  C25_32 
REMARK    6  A    between atoms: C25_32  and  C26_33 
REMARK       I    between atoms: C26_33  and  N5_35 
REMARK    7  A    between atoms: N5_35  and  C27_37 
REMARK    8  A    between atoms: C27_37  and  C28_38 
REMARK    9  A    between atoms: C28_38  and  C29_39 
ROOT
HETATM    1  N3  UNL     1      -4.683  -8.331   0.807  1.00  0.00    -0.341 N 
HETATM    2  C7  UNL     1      -4.241  -9.146  -0.313  1.00  0.00     0.142 C 
HETATM    3  C8  UNL     1      -5.309 -10.114  -0.782  1.00  0.00     0.019 C 
HETATM    4  C9  UNL     1      -4.668 -10.754  -2.065  1.00  0.00     0.096 C 
HETATM    5  C10 UNL     1      -5.074 -12.097  -2.013  1.00  0.00    -0.182 C 
HETATM    6  C11 UNL     1      -5.251 -13.445  -2.383  1.00  0.00     0.083 C 
HETATM    7  C12 UNL     1      -5.982 -14.060  -1.138  1.00  0.00     0.038 C 
HETATM    8  C13 UNL     1      -6.855 -13.155  -0.398  1.00  0.00    -0.026 C 
HETATM    9  C14 UNL     1      -6.507 -12.078   0.503  1.00  0.00    -0.007 C 
HETATM   10  C15 UNL     1      -5.472 -11.080   0.351  1.00  0.00    -0.013 C 
HETATM   11  C16 UNL     1      -6.620  -9.492  -1.073  1.00  0.00     0.139 C 
HETATM   12  N4  UNL     1      -6.707  -8.100  -1.313  1.00  0.00    -0.374 N 
HETATM   13  C24 UNL     1      -6.873  -7.262  -0.206  1.00  0.00     0.184 C 
HETATM   14  C35 UNL     1      -5.934  -7.699   0.892  1.00  0.00     0.243 C 
HETATM   15  O4  UNL     1      -6.318  -7.468   2.074  1.00  0.00    -0.271 OA
ENDROOT
BRANCH  13  16
HETATM   16  C25 UNL     1      -8.190  -7.017   0.397  1.00  0.00     0.137 C 
BRANCH  16  17
HETATM   17  C26 UNL     1      -9.229  -8.049   0.249  1.00  0.00     0.220 C 
HETATM   18  O3  UNL     1      -9.221  -9.055   0.990  1.00  0.00    -0.274 OA
HETATM   19  N5  UNL     1     -10.269  -7.946  -0.723  1.00  0.00    -0.361 N 
ATOM     20  H5  UNL     1     -10.257  -7.120  -1.321  1.00  0.00     0.162 HD
BRANCH  19  21
HETATM   21  C27 UNL     1     -11.317  -8.873  -0.945  1.00  0.00     0.123 C 
BRANCH  21  22
HETATM   22  C28 UNL     1     -11.035  -9.732  -2.145  1.00  0.00     0.024 C 
BRANCH  22  23
HETATM   23  C29 UNL     1     -10.483 -11.088  -1.729  1.00  0.00    -0.013 C 
HETATM   24  C30 UNL     1      -9.054 -11.218  -2.139  1.00  0.00     0.005 C 
HETATM   25  C31 UNL     1      -8.846 -11.944  -3.445  1.00  0.00     0.000 C 
HETATM   26  C32 UNL     1      -9.495 -13.294  -3.484  1.00  0.00     0.000 C 
HETATM   27  C33 UNL     1     -10.572 -13.481  -2.459  1.00  0.00     0.000 C 
HETATM   28  C34 UNL     1     -11.349 -12.210  -2.213  1.00  0.00     0.005 C 
ENDBRANCH  22  23
ENDBRANCH  21  22
ENDBRANCH  19  21
ENDBRANCH  16  17
ENDBRANCH  13  16
BRANCH  12  29
HETATM   29  C17 UNL     1      -6.352  -7.615  -2.565  1.00  0.00     0.098 C 
BRANCH  29  30
HETATM   30  C18 UNL     1      -6.952  -8.252  -3.770  1.00  0.00    -0.019 A 
HETATM   31  C19 UNL     1      -6.263  -9.029  -4.663  1.00  0.00     0.013 A 
HETATM   32  C20 UNL     1      -6.829  -9.604  -5.773  1.00  0.00     0.003 A 
HETATM   33  C21 UNL     1      -8.170  -9.384  -6.000  1.00  0.00     0.024 A 
HETATM   34  C22 UNL     1      -8.919  -8.604  -5.126  1.00  0.00     0.034 A 
HETATM   35 CL1  UNL     1     -10.607  -8.393  -5.508  1.00  0.00    -0.084 Cl
HETATM   36  C23 UNL     1      -8.304  -8.052  -4.030  1.00  0.00     0.036 A 
ENDBRANCH  29  30
ENDBRANCH  12  29
BRANCH   1  37
HETATM   37  C6  UNL     1      -3.758  -8.163   1.915  1.00  0.00     0.228 C 
BRANCH  37  38
HETATM   38  C5  UNL     1      -2.623  -7.271   1.527  1.00  0.00     0.237 C 
HETATM   39  N2  UNL     1      -2.608  -5.897   1.848  1.00  0.00    -0.348 N 
HETATM   40  C4  UNL     1      -3.747  -5.358   2.580  1.00  0.00     0.145 C 
HETATM   41  C36 UNL     1      -1.497  -5.089   1.456  1.00  0.00     0.145 C 
HETATM   42  C3  UNL     1      -3.342  -4.074   3.277  1.00  0.00     0.145 C 
HETATM   43  N1  UNL     1      -2.683  -3.170   2.348  1.00  0.00    -0.349 N 
HETATM   44  C2  UNL     1      -2.747  -1.786   2.597  1.00  0.00     0.215 C 
HETATM   45  C37 UNL     1      -1.975  -3.675   1.191  1.00  0.00     0.145 C 
HETATM   46  C1  UNL     1      -2.107  -0.789   1.704  1.00  0.00     0.117 C 
HETATM   47  O1  UNL     1      -3.367  -1.329   3.612  1.00  0.00    -0.274 OA
HETATM   48  O2  UNL     1      -1.655  -7.761   0.897  1.00  0.00    -0.272 OA
ENDBRANCH  37  38
ENDBRANCH   1  37
TORSDOF 9
ENDMDL
MODEL 2
REMARK VINA RESULT: -8.217136717      2.182      3.755
REMARK  9 active torsions:
REMARK  status: ('A' for Active; 'I' for Inactive)
REMARK       I    between atoms: C2_2  and  N1_4 
REMARK       I    between atoms: N2_7  and  C5_8 
REMARK    1  A    between atoms: C5_8  and  C6_10 
REMARK    2  A    between atoms: C6_10  and  N3_11 
REMARK    3  A    between atoms: N4_22  and  C17_23 
REMARK    4  A    between atoms: C17_23  and  C18_24 
REMARK    5  A    between atoms: C24_31  and  C25_32 
REMARK    6  A    between atoms: C25_32  and  C26_33 
REMARK       I    between atoms: C26_33  and  N5_35 
REMARK    7  A    between atoms: N5_35  and  C27_37 
REMARK    8  A    between atoms: C27_37  and  C28_38 
REMARK    9  A    between atoms: C28_38  and  C29_39 
ROOT
HETATM    1  N3  UNL     1      -6.609 -10.110   0.164  1.00  0.00    -0.341 N 
HETATM    2  C7  UNL     1      -5.515 -10.576  -0.673  1.00  0.00     0.142 C 
HETATM    3  C8  UNL     1      -5.794 -11.933  -1.289  1.00  0.00     0.019 C 
HETATM    4  C9  UNL     1      -4.570 -12.144  -2.249  1.00  0.00     0.096 C 
HETATM    5  C10 UNL     1      -4.284 -13.514  -2.136  1.00  0.00    -0.182 C 
HETATM    6  C11 UNL     1      -3.677 -14.766  -2.361  1.00  0.00     0.083 C 
HETATM    7  C12 UNL     1      -4.370 -15.691  -1.299  1.00  0.00     0.038 C 
HETATM    8  C13 UNL     1      -5.747 -15.349  -0.955  1.00  0.00    -0.026 C 
HETATM    9  C14 UNL     1      -6.245 -14.261  -0.141  1.00  0.00    -0.007 C 
HETATM   10  C15 UNL     1      -5.817 -12.880  -0.130  1.00  0.00    -0.013 C 
HETATM   11  C16 UNL     1      -7.083 -12.028  -2.011  1.00  0.00     0.139 C 
HETATM   12  N4  UNL     1      -7.741 -10.853  -2.446  1.00  0.00    -0.374 N 
HETATM   13  C24 UNL     1      -8.614 -10.231  -1.548  1.00  0.00     0.184 C 
HETATM   14  C35 UNL     1      -7.968 -10.176  -0.185  1.00  0.00     0.243 C 
HETATM   15  O4  UNL     1      -8.756 -10.192   0.803  1.00  0.00    -0.271 OA
ENDROOT
BRANCH  13  16
HETATM   16  C25 UNL     1     -10.002 -10.679  -1.371  1.00  0.00     0.137 C 
BRANCH  16  17
HETATM   17  C26 UNL     1     -11.065  -9.962  -2.096  1.00  0.00     0.220 C 
HETATM   18  O3  UNL     1     -12.244 -10.371  -2.043  1.00  0.00    -0.274 OA
HETATM   19  N5  UNL     1     -10.800  -8.793  -2.872  1.00  0.00    -0.361 N 
ATOM     20  H5  UNL     1      -9.831  -8.477  -2.906  1.00  0.00     0.162 HD
BRANCH  19  21
HETATM   21  C27 UNL     1     -11.743  -8.027  -3.599  1.00  0.00     0.123 C 
BRANCH  21  22
HETATM   22  C28 UNL     1     -11.311  -7.849  -5.027  1.00  0.00     0.024 C 
BRANCH  22  23
HETATM   23  C29 UNL     1      -9.902  -8.383  -5.242  1.00  0.00    -0.013 C 
HETATM   24  C30 UNL     1      -8.979  -7.279  -5.638  1.00  0.00     0.005 C 
HETATM   25  C31 UNL     1      -8.764  -7.153  -7.125  1.00  0.00     0.000 C 
HETATM   26  C32 UNL     1      -8.313  -8.429  -7.770  1.00  0.00     0.000 C 
HETATM   27  C33 UNL     1      -8.593  -9.654  -6.955  1.00  0.00     0.000 C 
HETATM   28  C34 UNL     1      -9.889  -9.543  -6.189  1.00  0.00     0.005 C 
ENDBRANCH  22  23
ENDBRANCH  21  22
ENDBRANCH  19  21
ENDBRANCH  16  17
ENDBRANCH  13  16
BRANCH  12  29
HETATM   29  C17 UNL     1      -7.296 -10.227  -3.602  1.00  0.00     0.098 C 
BRANCH  29  30
HETATM   30  C18 UNL     1      -6.306  -9.121  -3.475  1.00  0.00    -0.019 A 
HETATM   31  C19 UNL     1      -5.014  -9.179  -3.923  1.00  0.00     0.013 A 
HETATM   32  C20 UNL     1      -4.111  -8.152  -3.792  1.00  0.00     0.003 A 
HETATM   33  C21 UNL     1      -4.535  -6.997  -3.173  1.00  0.00     0.024 A 
HETATM   34  C22 UNL     1      -5.838  -6.883  -2.699  1.00  0.00     0.034 A 
HETATM   35 CL1  UNL     1      -6.267  -5.376  -1.934  1.00  0.00    -0.084 Cl
HETATM   36  C23 UNL     1      -6.700  -7.939  -2.855  1.00  0.00     0.036 A 
ENDBRANCH  29  30
ENDBRANCH  12  29
BRANCH   1  37
HETATM   37  C6  UNL     1      -6.263  -9.535   1.453  1.00  0.00     0.228 C 
BRANCH  37  38
HETATM   38  C5  UNL     1      -6.087  -8.055   1.343  1.00  0.00     0.237 C 
HETATM   39  N2  UNL     1      -4.871  -7.420   1.673  1.00  0.00    -0.348 N 
HETATM   40  C4  UNL     1      -3.771  -8.256   2.132  1.00  0.00     0.145 C 
HETATM   41  C36 UNL     1      -4.755  -6.001   1.546  1.00  0.00     0.145 C 
HETATM   42  C3  UNL     1      -2.458  -7.526   1.930  1.00  0.00     0.145 C 
HETATM   43  N1  UNL     1      -2.525  -6.183   2.484  1.00  0.00    -0.349 N 
HETATM   44  C2  UNL     1      -1.332  -5.573   2.917  1.00  0.00     0.215 C 
HETATM   45  C37 UNL     1      -3.787  -5.483   2.592  1.00  0.00     0.145 C 
HETATM   46  C1  UNL     1      -1.304  -4.208   3.495  1.00  0.00     0.117 C 
HETATM   47  O1  UNL     1      -0.215  -6.178   2.827  1.00  0.00    -0.274 OA
HETATM   48  O2  UNL     1      -7.051  -7.358   0.943  1.00  0.00    -0.272 OA
ENDBRANCH  37  38
ENDBRANCH   1  37
TORSDOF 9
ENDMDL
MODEL 3
REMARK VINA RESULT: -8.098768803      2.687      8.798
REMARK  9 active torsions:
REMARK  status: ('A' for Active; 'I' for Inactive)
REMARK       I    between atoms: C2_2  and  N1_4 
REMARK       I    between atoms: N2_7  and  C5_8 
REMARK    1  A    between atoms: C5_8  and  C6_10 
REMARK    2  A    between atoms: C6_10  and  N3_11 
REMARK    3  A    between atoms: N4_22  and  C17_23 
REMARK    4  A    between atoms: C17_23  and  C18_24 
REMARK    5  A    between atoms: C24_31  and  C25_32 
REMARK    6  A    between atoms: C25_32  and  C26_33 
REMARK       I    between atoms: C26_33  and  N5_35 
REMARK    7  A    between atoms: N5_35  and  C27_37 
REMARK    8  A    between atoms: C27_37  and  C28_38 
REMARK    9  A    between atoms: C28_38  and  C29_39 
ROOT
HETATM    1  N3  UNL     1      -7.114  -7.869  -1.567  1.00  0.00    -0.341 N 
HETATM    2  C7  UNL     1      -5.850  -8.339  -2.109  1.00  0.00     0.142 C 
HETATM    3  C8  UNL     1      -4.680  -7.474  -1.683  1.00  0.00     0.019 C 
HETATM    4  C9  UNL     1      -3.439  -8.254  -2.248  1.00  0.00     0.096 C 
HETATM    5  C10 UNL     1      -2.570  -7.239  -2.681  1.00  0.00    -0.182 C 
HETATM    6  C11 UNL     1      -1.423  -6.607  -3.201  1.00  0.00     0.083 C 
HETATM    7  C12 UNL     1      -1.844  -5.096  -3.251  1.00  0.00     0.038 C 
HETATM    8  C13 UNL     1      -2.788  -4.661  -2.226  1.00  0.00    -0.026 C 
HETATM    9  C14 UNL     1      -4.208  -4.919  -2.119  1.00  0.00    -0.007 C 
HETATM   10  C15 UNL     1      -4.916  -6.157  -2.355  1.00  0.00    -0.013 C 
HETATM   11  C16 UNL     1      -4.575  -7.254  -0.223  1.00  0.00     0.139 C 
HETATM   12  N4  UNL     1      -5.230  -8.130   0.675  1.00  0.00    -0.374 N 
HETATM   13  C24 UNL     1      -6.556  -7.837   1.012  1.00  0.00     0.184 C 
HETATM   14  C35 UNL     1      -7.314  -7.461  -0.238  1.00  0.00     0.243 C 
HETATM   15  O4  UNL     1      -8.279  -6.660  -0.081  1.00  0.00    -0.271 OA
ENDROOT
BRANCH  13  16
HETATM   16  C25 UNL     1      -6.899  -6.863   2.057  1.00  0.00     0.137 C 
BRANCH  16  17
HETATM   17  C26 UNL     1      -5.827  -6.007   2.593  1.00  0.00     0.220 C 
HETATM   18  O3  UNL     1      -5.232  -6.333   3.642  1.00  0.00    -0.274 OA
HETATM   19  N5  UNL     1      -5.430  -4.796   1.950  1.00  0.00    -0.361 N 
ATOM     20  H5  UNL     1      -5.931  -4.545   1.098  1.00  0.00     0.162 HD
BRANCH  19  21
HETATM   21  C27 UNL     1      -4.413  -3.905   2.374  1.00  0.00     0.123 C 
BRANCH  21  22
HETATM   22  C28 UNL     1      -3.386  -3.705   1.296  1.00  0.00     0.024 C 
BRANCH  22  23
HETATM   23  C29 UNL     1      -2.014  -4.179   1.753  1.00  0.00    -0.013 C 
HETATM   24  C30 UNL     1      -1.715  -5.531   1.194  1.00  0.00     0.005 C 
HETATM   25  C31 UNL     1      -2.017  -6.672   2.133  1.00  0.00     0.000 C 
HETATM   26  C32 UNL     1      -1.352  -6.533   3.470  1.00  0.00     0.000 C 
HETATM   27  C33 UNL     1      -0.914  -5.136   3.788  1.00  0.00     0.000 C 
HETATM   28  C34 UNL     1      -1.869  -4.102   3.242  1.00  0.00     0.005 C 
ENDBRANCH  22  23
ENDBRANCH  21  22
ENDBRANCH  19  21
ENDBRANCH  16  17
ENDBRANCH  13  16
BRANCH  12  29
HETATM   29  C17 UNL     1      -4.648  -9.359   0.956  1.00  0.00     0.098 C 
BRANCH  29  30
HETATM   30  C18 UNL     1      -5.272 -10.587   0.389  1.00  0.00    -0.019 A 
HETATM   31  C19 UNL     1      -6.538 -11.020   0.680  1.00  0.00     0.013 A 
HETATM   32  C20 UNL     1      -7.097 -12.158   0.155  1.00  0.00     0.003 A 
HETATM   33  C21 UNL     1      -6.336 -12.907  -0.717  1.00  0.00     0.024 A 
HETATM   34  C22 UNL     1      -5.044 -12.513  -1.048  1.00  0.00     0.034 A 
HETATM   35 CL1  UNL     1      -4.172 -13.534  -2.161  1.00  0.00    -0.084 Cl
HETATM   36  C23 UNL     1      -4.533 -11.367  -0.494  1.00  0.00     0.036 A 
ENDBRANCH  29  30
ENDBRANCH  12  29
BRANCH   1  37
HETATM   37  C6  UNL     1      -8.249  -7.820  -2.473  1.00  0.00     0.228 C 
BRANCH  37  38
HETATM   38  C5  UNL     1      -8.456  -9.142  -3.136  1.00  0.00     0.237 C 
HETATM   39  N2  UNL     1      -9.551  -9.975  -2.820  1.00  0.00    -0.348 N 
HETATM   40  C4  UNL     1     -10.492  -9.506  -1.812  1.00  0.00     0.145 C 
HETATM   41  C36 UNL     1      -9.704 -11.229  -3.487  1.00  0.00     0.145 C 
HETATM   42  C3  UNL     1     -11.817 -10.222  -1.981  1.00  0.00     0.145 C 
HETATM   43  N1  UNL     1     -11.618 -11.660  -2.060  1.00  0.00    -0.349 N 
HETATM   44  C2  UNL     1     -12.664 -12.508  -1.648  1.00  0.00     0.215 C 
HETATM   45  C37 UNL     1     -10.375 -12.216  -2.550  1.00  0.00     0.145 C 
HETATM   46  C1  UNL     1     -12.551 -13.986  -1.693  1.00  0.00     0.117 C 
HETATM   47  O1  UNL     1     -13.764 -12.032  -1.216  1.00  0.00    -0.274 OA
HETATM   48  O2  UNL     1      -7.631  -9.522  -4.001  1.00  0.00    -0.272 OA
ENDBRANCH  37  38
ENDBRANCH   1  37
TORSDOF 9
ENDMDL
MODEL 4
REMARK VINA RESULT: -8.091758034      2.411      6.457
REMARK  9 active torsions:
REMARK  status: ('A' for Active; 'I' for Inactive)
REMARK       I    between atoms: C2_2  and  N1_4 
REMARK       I    between atoms: N2_7  and  C5_8 
REMARK    1  A    between atoms: C5_8  and  C6_10 
REMARK    2  A    between atoms: C6_10  and  N3_11 
REMARK    3  A    between atoms: N4_22  and  C17_23 
REMARK    4  A    between atoms: C17_23  and  C18_24 
REMARK    5  A    between atoms: C24_31  and  C25_32 
REMARK    6  A    between atoms: C25_32  and  C26_33 
REMARK       I    between atoms: C26_33  and  N5_35 
REMARK    7  A    between atoms: N5_35  and  C27_37 
REMARK    8  A    between atoms: C27_37  and  C28_38 
REMARK    9  A    between atoms: C28_38  and  C29_39 
ROOT
HETATM    1  N3  UNL     1      -6.078  -7.375   1.121  1.00  0.00    -0.341 N 
HETATM    2  C7  UNL     1      -5.046  -6.427   0.735  1.00  0.00     0.142 C 
HETATM    3  C8  UNL     1      -3.664  -6.862   1.182  1.00  0.00     0.019 C 
HETATM    4  C9  UNL     1      -2.726  -5.786   0.529  1.00  0.00     0.096 C 
HETATM    5  C10 UNL     1      -1.733  -5.568   1.498  1.00  0.00    -0.182 C 
HETATM    6  C11 UNL     1      -0.570  -5.069   2.118  1.00  0.00     0.083 C 
HETATM    7  C12 UNL     1      -0.654  -5.673   3.564  1.00  0.00     0.038 C 
HETATM    8  C13 UNL     1      -1.310  -6.971   3.679  1.00  0.00    -0.026 C 
HETATM    9  C14 UNL     1      -2.718  -7.296   3.602  1.00  0.00    -0.007 C 
HETATM   10  C15 UNL     1      -3.707  -6.791   2.677  1.00  0.00    -0.013 C 
HETATM   11  C16 UNL     1      -3.290  -8.237   0.779  1.00  0.00     0.139 C 
HETATM   12  N4  UNL     1      -3.974  -8.876  -0.282  1.00  0.00    -0.374 N 
HETATM   13  C24 UNL     1      -5.136  -9.588   0.034  1.00  0.00     0.184 C 
HETATM   14  C35 UNL     1      -5.977  -8.769   0.983  1.00  0.00     0.243 C 
HETATM   15  O4  UNL     1      -6.707  -9.423   1.781  1.00  0.00    -0.271 OA
ENDROOT
BRANCH  13  16
HETATM   16  C25 UNL     1      -5.093 -10.965   0.543  1.00  0.00     0.137 C 
BRANCH  16  17
HETATM   17  C26 UNL     1      -5.589 -12.047  -0.325  1.00  0.00     0.220 C 
HETATM   18  O3  UNL     1      -4.782 -12.812  -0.893  1.00  0.00    -0.274 OA
HETATM   19  N5  UNL     1      -6.982 -12.263  -0.547  1.00  0.00    -0.361 N 
ATOM     20  H5  UNL     1      -7.625 -11.625  -0.078  1.00  0.00     0.162 HD
BRANCH  19  21
HETATM   21  C27 UNL     1      -7.565 -13.272  -1.353  1.00  0.00     0.123 C 
BRANCH  21  22
HETATM   22  C28 UNL     1      -7.612 -12.853  -2.795  1.00  0.00     0.024 C 
BRANCH  22  23
HETATM   23  C29 UNL     1      -9.049 -12.723  -3.280  1.00  0.00    -0.013 C 
HETATM   24  C30 UNL     1      -9.488 -11.297  -3.237  1.00  0.00     0.005 C 
HETATM   25  C31 UNL     1     -10.260 -10.923  -1.996  1.00  0.00     0.000 C 
HETATM   26  C32 UNL     1     -11.440 -11.811  -1.741  1.00  0.00     0.000 C 
HETATM   27  C33 UNL     1     -11.377 -13.127  -2.455  1.00  0.00     0.000 C 
HETATM   28  C34 UNL     1      -9.966 -13.655  -2.550  1.00  0.00     0.005 C 
ENDBRANCH  22  23
ENDBRANCH  21  22
ENDBRANCH  19  21
ENDBRANCH  16  17
ENDBRANCH  13  16
BRANCH  12  29
HETATM   29  C17 UNL     1      -3.638  -8.547  -1.588  1.00  0.00     0.098 C 
BRANCH  29  30
HETATM   30  C18 UNL     1      -4.714  -8.543  -2.619  1.00  0.00    -0.019 A 
HETATM   31  C19 UNL     1      -4.990  -9.588  -3.459  1.00  0.00     0.013 A 
HETATM   32  C20 UNL     1      -5.981  -9.566  -4.409  1.00  0.00     0.003 A 
HETATM   33  C21 UNL     1      -6.741  -8.422  -4.520  1.00  0.00     0.024 A 
HETATM   34  C22 UNL     1      -6.504  -7.329  -3.692  1.00  0.00     0.034 A 
HETATM   35 CL1  UNL     1      -7.526  -5.935  -3.919  1.00  0.00    -0.084 Cl
HETATM   36  C23 UNL     1      -5.501  -7.404  -2.759  1.00  0.00     0.036 A 
ENDBRANCH  29  30
ENDBRANCH  12  29
BRANCH   1  37
HETATM   37  C6  UNL     1      -7.301  -6.833   1.689  1.00  0.00     0.228 C 
BRANCH  37  38
HETATM   38  C5  UNL     1      -8.176  -6.264   0.620  1.00  0.00     0.237 C 
HETATM   39  N2  UNL     1      -9.436  -6.818   0.311  1.00  0.00    -0.348 N 
HETATM   40  C4  UNL     1      -9.872  -7.981   1.072  1.00  0.00     0.145 C 
HETATM   41  C36 UNL     1     -10.235  -6.232  -0.719  1.00  0.00     0.145 C 
HETATM   42  C3  UNL     1     -11.381  -8.103   0.994  1.00  0.00     0.145 C 
HETATM   43  N1  UNL     1     -11.833  -8.027  -0.386  1.00  0.00    -0.349 N 
HETATM   44  C2  UNL     1     -13.038  -8.665  -0.736  1.00  0.00     0.215 C 
HETATM   45  C37 UNL     1     -11.065  -7.313  -1.384  1.00  0.00     0.145 C 
HETATM   46  C1  UNL     1     -13.576  -8.641  -2.118  1.00  0.00     0.117 C 
HETATM   47  O1  UNL     1     -13.723  -9.296   0.133  1.00  0.00    -0.274 OA
HETATM   48  O2  UNL     1      -7.776  -5.261  -0.020  1.00  0.00    -0.272 OA
ENDBRANCH  37  38
ENDBRANCH   1  37
TORSDOF 9
ENDMDL
MODEL 5
REMARK VINA RESULT: -8.082134137      2.775      8.179
REMARK  9 active torsions:
REMARK  status: ('A' for Active; 'I' for Inactive)
REMARK       I    between atoms: C2_2  and  N1_4 
REMARK       I    between atoms: N2_7  and  C5_8 
REMARK    1  A    between atoms: C5_8  and  C6_10 
REMARK    2  A    between atoms: C6_10  and  N3_11 
REMARK    3  A    between atoms: N4_22  and  C17_23 
REMARK    4  A    between atoms: C17_23  and  C18_24 
REMARK    5  A    between atoms: C24_31  and  C25_32 
REMARK    6  A    between atoms: C25_32  and  C26_33 
REMARK       I    between atoms: C26_33  and  N5_35 
REMARK    7  A    between atoms: N5_35  and  C27_37 
REMARK    8  A    between atoms: C27_37  and  C28_38 
REMARK    9  A    between atoms: C28_38  and  C29_39 
ROOT
HETATM    1  N3  UNL     1      -7.677 -11.045  -2.526  1.00  0.00    -0.341 N 
HETATM    2  C7  UNL     1      -7.673 -12.159  -1.592  1.00  0.00     0.142 C 
HETATM    3  C8  UNL     1      -6.274 -12.662  -1.297  1.00  0.00     0.019 C 
HETATM    4  C9  UNL     1      -6.513 -13.733  -0.173  1.00  0.00     0.096 C 
HETATM    5  C10 UNL     1      -5.594 -14.751  -0.473  1.00  0.00    -0.182 C 
HETATM    6  C11 UNL     1      -4.855 -15.946  -0.365  1.00  0.00     0.083 C 
HETATM    7  C12 UNL     1      -4.014 -15.962  -1.690  1.00  0.00     0.038 C 
HETATM    8  C13 UNL     1      -3.640 -14.658  -2.226  1.00  0.00    -0.026 C 
HETATM    9  C14 UNL     1      -4.457 -13.678  -2.910  1.00  0.00    -0.007 C 
HETATM   10  C15 UNL     1      -5.799 -13.248  -2.590  1.00  0.00    -0.013 C 
HETATM   11  C16 UNL     1      -5.320 -11.615  -0.866  1.00  0.00     0.139 C 
HETATM   12  N4  UNL     1      -5.800 -10.383  -0.362  1.00  0.00    -0.374 N 
HETATM   13  C24 UNL     1      -6.064  -9.366  -1.284  1.00  0.00     0.184 C 
HETATM   14  C35 UNL     1      -6.805  -9.945  -2.464  1.00  0.00     0.243 C 
HETATM   15  O4  UNL     1      -6.625  -9.364  -3.572  1.00  0.00    -0.271 OA
ENDROOT
BRANCH  13  16
HETATM   16  C25 UNL     1      -5.005  -8.489  -1.803  1.00  0.00     0.137 C 
BRANCH  16  17
HETATM   17  C26 UNL     1      -4.105  -7.834  -0.839  1.00  0.00     0.220 C 
HETATM   18  O3  UNL     1      -4.071  -6.588  -0.761  1.00  0.00    -0.274 OA
HETATM   19  N5  UNL     1      -3.252  -8.579   0.031  1.00  0.00    -0.361 N 
ATOM     20  H5  UNL     1      -3.291  -9.595  -0.050  1.00  0.00     0.162 HD
BRANCH  19  21
HETATM   21  C27 UNL     1      -2.358  -8.054   0.995  1.00  0.00     0.123 C 
BRANCH  21  22
HETATM   22  C28 UNL     1      -2.764  -8.453   2.385  1.00  0.00     0.024 C 
BRANCH  22  23
HETATM   23  C29 UNL     1      -2.627  -7.286   3.352  1.00  0.00    -0.013 C 
HETATM   24  C30 UNL     1      -3.829  -6.405   3.282  1.00  0.00     0.005 C 
HETATM   25  C31 UNL     1      -3.666  -5.203   2.384  1.00  0.00     0.000 C 
HETATM   26  C32 UNL     1      -2.464  -4.372   2.716  1.00  0.00     0.000 C 
HETATM   27  C33 UNL     1      -1.432  -5.094   3.528  1.00  0.00     0.000 C 
HETATM   28  C34 UNL     1      -1.335  -6.554   3.156  1.00  0.00     0.005 C 
ENDBRANCH  22  23
ENDBRANCH  21  22
ENDBRANCH  19  21
ENDBRANCH  16  17
ENDBRANCH  13  16
BRANCH  12  29
HETATM   29  C17 UNL     1      -6.245 -10.327   0.953  1.00  0.00     0.098 C 
BRANCH  29  30
HETATM   30  C18 UNL     1      -7.286  -9.322   1.308  1.00  0.00    -0.019 A 
HETATM   31  C19 UNL     1      -8.634  -9.553   1.271  1.00  0.00     0.013 A 
HETATM   32  C20 UNL     1      -9.582  -8.615   1.595  1.00  0.00     0.003 A 
HETATM   33  C21 UNL     1      -9.146  -7.365   1.981  1.00  0.00     0.024 A 
HETATM   34  C22 UNL     1      -7.786  -7.075   2.037  1.00  0.00     0.034 A 
HETATM   35 CL1  UNL     1      -7.346  -5.464   2.539  1.00  0.00    -0.084 Cl
HETATM   36  C23 UNL     1      -6.881  -8.051   1.702  1.00  0.00     0.036 A 
ENDBRANCH  29  30
ENDBRANCH  12  29
BRANCH   1  37
HETATM   37  C6  UNL     1      -8.657 -11.078  -3.599  1.00  0.00     0.228 C 
BRANCH  37  38
HETATM   38  C5  UNL     1     -10.033 -11.283  -3.054  1.00  0.00     0.237 C 
HETATM   39  N2  UNL     1     -10.745 -10.248  -2.412  1.00  0.00    -0.348 N 
HETATM   40  C4  UNL     1     -10.095  -8.950  -2.290  1.00  0.00     0.145 C 
HETATM   41  C36 UNL     1     -12.060 -10.497  -1.912  1.00  0.00     0.145 C 
HETATM   42  C3  UNL     1     -11.142  -7.874  -2.081  1.00  0.00     0.145 C 
HETATM   43  N1  UNL     1     -12.054  -8.244  -1.011  1.00  0.00    -0.349 N 
HETATM   44  C2  UNL     1     -12.694  -7.219  -0.289  1.00  0.00     0.215 C 
HETATM   45  C37 UNL     1     -12.302  -9.633  -0.689  1.00  0.00     0.145 C 
HETATM   46  C1  UNL     1     -13.639  -7.501   0.819  1.00  0.00     0.117 C 
HETATM   47  O1  UNL     1     -12.484  -5.993  -0.562  1.00  0.00    -0.274 OA
HETATM   48  O2  UNL     1     -10.570 -12.411  -3.173  1.00  0.00    -0.272 OA
ENDBRANCH  37  38
ENDBRANCH   1  37
TORSDOF 9
ENDMDL
