MODEL 1
REMARK VINA RESULT: -7.751838080      0.000      0.000
REMARK  8 active torsions:
REMARK  status: ('A' for Active; 'I' for Inactive)
REMARK    1  A    between atoms: C2_2  and  C3_3 
REMARK    2  A    between atoms: C3_3  and  C13_23 
REMARK       I    between atoms: N1_4  and  C4_6 
REMARK    3  A    between atoms: C4_6  and  C5_8 
REMARK    4  A    between atoms: C6_10  and  O3_11 
REMARK    5  A    between atoms: C7_13  and  O4_15 
REMARK    6  A    between atoms: C10_18  and  O5_19 
REMARK    7  A    between atoms: O5_19  and  C11_20 
REMARK    8  A    between atoms: N2_25  and  N3_27 
REMARK       I    between atoms: N3_27  and  C15_29 
ROOT
HETATM    1  C3  UNL     1       2.773   5.927  87.598  1.00  0.00     0.035 C 
HETATM    2  N1  UNL     1       2.068   6.969  87.699  1.00  0.00    -0.327 N 
ATOM      3  H1  UNL     1       1.886   7.292  88.648  1.00  0.00     0.168 HD
HETATM    4  C4  UNL     1       1.507   7.733  86.678  1.00  0.00     0.253 C 
HETATM    5  O1  UNL     1       2.295   8.357  85.913  1.00  0.00    -0.270 OA
ENDROOT
BRANCH   4   6
HETATM    6  C5  UNL     1       0.039   7.827  86.476  1.00  0.00     0.246 C 
HETATM    7  O2  UNL     1      -0.373   8.790  85.617  1.00  0.00    -0.341 OA
HETATM    8  C6  UNL     1      -0.441   8.522  84.290  1.00  0.00     0.291 C 
HETATM    9  C7  UNL     1      -0.957   7.181  83.889  1.00  0.00     0.106 C 
HETATM   10  C8  UNL     1      -2.479   7.220  83.896  1.00  0.00     0.051 C 
HETATM   11  C9  UNL     1      -0.465   6.069  84.790  1.00  0.00     0.078 C 
HETATM   12  C10 UNL     1      -0.591   6.501  86.220  1.00  0.00     0.173 C 
BRANCH   8  13
HETATM   13  O3  UNL     1       0.723   8.780  83.563  1.00  0.00    -0.368 OA
ATOM     14  H3  UNL     1       0.601   9.253  82.747  1.00  0.00     0.212 HD
ENDBRANCH   8  13
BRANCH   9  15
HETATM   15  O4  UNL     1      -0.519   6.914  82.592  1.00  0.00    -0.385 OA
ATOM     16  H4  UNL     1      -0.786   6.032  82.363  1.00  0.00     0.210 HD
ENDBRANCH   9  15
BRANCH  12  17
HETATM   17  O5  UNL     1      -0.039   5.481  87.027  1.00  0.00    -0.313 OA
BRANCH  17  18
HETATM   18  C11 UNL     1      -0.816   4.400  87.422  1.00  0.00     0.255 C 
HETATM   19  C12 UNL     1      -0.263   3.023  87.580  1.00  0.00     0.126 C 
HETATM   20  O6  UNL     1      -2.041   4.639  87.646  1.00  0.00    -0.266 OA
ENDBRANCH  17  18
ENDBRANCH  12  17
ENDBRANCH   4   6
BRANCH   1  21
HETATM   21  C2  UNL     1       3.093   5.375  86.266  1.00  0.00     0.055 C 
HETATM   22  C1  UNL     1       4.558   5.644  85.930  1.00  0.00     0.011 C 
ENDBRANCH   1  21
BRANCH   1  23
HETATM   23  C13 UNL     1       3.276   5.256  88.781  1.00  0.00     0.044 C 
HETATM   24  C14 UNL     1       2.762   3.933  89.234  1.00  0.00     0.072 C 
HETATM   25  N2  UNL     1       4.213   5.791  89.512  1.00  0.00    -0.301 N 
ATOM     26  H2  UNL     1       4.587   6.697  89.229  1.00  0.00     0.186 HD
BRANCH  25  27
HETATM   27  N3  UNL     1       4.726   5.202  90.641  1.00  0.00    -0.274 N 
HETATM   28  C15 UNL     1       5.889   4.403  90.568  1.00  0.00     0.200 C 
HETATM   29  N4  UNL     1       6.070   3.405  91.378  1.00  0.00    -0.372 N 
HETATM   30  N5  UNL     1       6.906   4.669  89.600  1.00  0.00    -0.062 NA
ATOM     31  H42 UNL     1       5.344   3.215  92.069  1.00  0.00     0.158 HD
ATOM     32  H41 UNL     1       6.910   2.828  91.325  1.00  0.00     0.158 HD
ATOM     33  H3  UNL     1       4.264   5.343  91.540  1.00  0.00     0.189 HD
ENDBRANCH  25  27
ENDBRANCH   1  23
TORSDOF 8
ENDMDL
MODEL 2
REMARK VINA RESULT: -7.748832836      7.020     10.987
REMARK  8 active torsions:
REMARK  status: ('A' for Active; 'I' for Inactive)
REMARK    1  A    between atoms: C2_2  and  C3_3 
REMARK    2  A    between atoms: C3_3  and  C13_23 
REMARK       I    between atoms: N1_4  and  C4_6 
REMARK    3  A    between atoms: C4_6  and  C5_8 
REMARK    4  A    between atoms: C6_10  and  O3_11 
REMARK    5  A    between atoms: C7_13  and  O4_15 
REMARK    6  A    between atoms: C10_18  and  O5_19 
REMARK    7  A    between atoms: O5_19  and  C11_20 
REMARK    8  A    between atoms: N2_25  and  N3_27 
REMARK       I    between atoms: N3_27  and  C15_29 
ROOT
HETATM    1  C3  UNL     1       5.926   2.785  92.170  1.00  0.00     0.035 C 
HETATM    2  N1  UNL     1       6.970   2.083  92.075  1.00  0.00    -0.327 N 
ATOM      3  H1  UNL     1       7.298   1.901  91.126  1.00  0.00     0.168 HD
HETATM    4  C4  UNL     1       7.732   1.525  93.099  1.00  0.00     0.253 C 
HETATM    5  O1  UNL     1       8.351   2.315  93.866  1.00  0.00    -0.270 OA
ENDROOT
BRANCH   4   6
HETATM    6  C5  UNL     1       7.829   0.057  93.302  1.00  0.00     0.246 C 
HETATM    7  O2  UNL     1       8.792  -0.353  94.161  1.00  0.00    -0.341 OA
HETATM    8  C6  UNL     1       8.525  -0.420  95.489  1.00  0.00     0.291 C 
HETATM    9  C7  UNL     1       7.185  -0.938  95.891  1.00  0.00     0.106 C 
HETATM   10  C8  UNL     1       7.227  -2.460  95.884  1.00  0.00     0.051 C 
HETATM   11  C9  UNL     1       6.072  -0.449  94.989  1.00  0.00     0.078 C 
HETATM   12  C10 UNL     1       6.504  -0.575  93.559  1.00  0.00     0.173 C 
BRANCH   8  13
HETATM   13  O3  UNL     1       8.781   0.745  96.215  1.00  0.00    -0.368 OA
ATOM     14  H3  UNL     1       8.562   1.559  95.775  1.00  0.00     0.212 HD
ENDBRANCH   8  13
BRANCH   9  15
HETATM   15  O4  UNL     1       6.918  -0.500  97.187  1.00  0.00    -0.385 OA
ATOM     16  H4  UNL     1       6.873   0.449  97.178  1.00  0.00     0.210 HD
ENDBRANCH   9  15
BRANCH  12  17
HETATM   17  O5  UNL     1       5.483  -0.027  92.751  1.00  0.00    -0.313 OA
BRANCH  17  18
HETATM   18  C11 UNL     1       4.396  -0.802  92.369  1.00  0.00     0.255 C 
HETATM   19  C12 UNL     1       3.016  -0.250  92.239  1.00  0.00     0.126 C 
HETATM   20  O6  UNL     1       4.634  -2.025  92.130  1.00  0.00    -0.266 OA
ENDBRANCH  17  18
ENDBRANCH  12  17
ENDBRANCH   4   6
BRANCH   1  21
HETATM   21  C2  UNL     1       5.368   3.105  93.500  1.00  0.00     0.055 C 
HETATM   22  C1  UNL     1       5.642   4.567  93.841  1.00  0.00     0.011 C 
ENDBRANCH   1  21
BRANCH   1  23
HETATM   23  C13 UNL     1       5.259   3.285  90.985  1.00  0.00     0.044 C 
HETATM   24  C14 UNL     1       3.934   2.775  90.532  1.00  0.00     0.072 C 
HETATM   25  N2  UNL     1       5.799   4.217  90.250  1.00  0.00    -0.301 N 
ATOM     26  H2  UNL     1       6.706   4.589  90.532  1.00  0.00     0.186 HD
BRANCH  25  27
HETATM   27  N3  UNL     1       5.214   4.728  89.118  1.00  0.00    -0.274 N 
HETATM   28  C15 UNL     1       4.418   5.893  89.185  1.00  0.00     0.200 C 
HETATM   29  N4  UNL     1       3.421   6.074  88.373  1.00  0.00    -0.372 N 
HETATM   30  N5  UNL     1       4.684   6.913  90.150  1.00  0.00    -0.062 NA
ATOM     31  H42 UNL     1       3.231   5.346  87.684  1.00  0.00     0.158 HD
ATOM     32  H41 UNL     1       2.846   6.915  88.421  1.00  0.00     0.158 HD
ATOM     33  H3  UNL     1       5.355   4.261  88.221  1.00  0.00     0.189 HD
ENDBRANCH  25  27
ENDBRANCH   1  23
TORSDOF 8
ENDMDL
MODEL 3
REMARK VINA RESULT: -7.648802792      4.617      8.632
REMARK  8 active torsions:
REMARK  status: ('A' for Active; 'I' for Inactive)
REMARK    1  A    between atoms: C2_2  and  C3_3 
REMARK    2  A    between atoms: C3_3  and  C13_23 
REMARK       I    between atoms: N1_4  and  C4_6 
REMARK    3  A    between atoms: C4_6  and  C5_8 
REMARK    4  A    between atoms: C6_10  and  O3_11 
REMARK    5  A    between atoms: C7_13  and  O4_15 
REMARK    6  A    between atoms: C10_18  and  O5_19 
REMARK    7  A    between atoms: O5_19  and  C11_20 
REMARK    8  A    between atoms: N2_25  and  N3_27 
REMARK       I    between atoms: N3_27  and  C15_29 
ROOT
HETATM    1  C3  UNL     1       4.885   5.631  89.062  1.00  0.00     0.035 C 
HETATM    2  N1  UNL     1       5.981   5.007  89.073  1.00  0.00    -0.327 N 
ATOM      3  H1  UNL     1       6.177   4.439  88.249  1.00  0.00     0.168 HD
HETATM    4  C4  UNL     1       6.958   4.994  90.067  1.00  0.00     0.253 C 
HETATM    5  O1  UNL     1       7.584   6.069  90.286  1.00  0.00    -0.270 OA
ENDROOT
BRANCH   4   6
HETATM    6  C5  UNL     1       7.269   3.774  90.853  1.00  0.00     0.246 C 
HETATM    7  O2  UNL     1       8.521   3.712  91.366  1.00  0.00    -0.341 OA
HETATM    8  C6  UNL     1       8.783   4.275  92.572  1.00  0.00     0.291 C 
HETATM    9  C7  UNL     1       7.753   4.116  93.638  1.00  0.00     0.106 C 
HETATM   10  C8  UNL     1       7.940   2.758  94.301  1.00  0.00     0.051 C 
HETATM   11  C9  UNL     1       6.340   4.243  93.113  1.00  0.00     0.078 C 
HETATM   12  C10 UNL     1       6.210   3.447  91.849  1.00  0.00     0.173 C 
BRANCH   8  13
HETATM   13  O3  UNL     1       9.177   5.615  92.538  1.00  0.00    -0.368 OA
ATOM     14  H3  UNL     1      10.087   5.769  92.313  1.00  0.00     0.212 HD
ENDBRANCH   8  13
BRANCH   9  15
HETATM   15  O4  UNL     1       7.953   5.115  94.591  1.00  0.00    -0.385 OA
ATOM     16  H4  UNL     1       7.209   5.116  95.182  1.00  0.00     0.210 HD
ENDBRANCH   9  15
BRANCH  12  17
HETATM   17  O5  UNL     1       4.911   3.660  91.337  1.00  0.00    -0.313 OA
BRANCH  17  18
HETATM   18  C11 UNL     1       4.084   2.583  91.045  1.00  0.00     0.255 C 
HETATM   19  C12 UNL     1       4.138   1.295  91.796  1.00  0.00     0.126 C 
HETATM   20  O6  UNL     1       3.264   2.747  90.090  1.00  0.00    -0.266 OA
ENDBRANCH  17  18
ENDBRANCH  12  17
ENDBRANCH   4   6
BRANCH   1  21
HETATM   21  C2  UNL     1       4.506   6.481  90.209  1.00  0.00     0.055 C 
HETATM   22  C1  UNL     1       4.500   7.949  89.789  1.00  0.00     0.011 C 
ENDBRANCH   1  21
BRANCH   1  23
HETATM   23  C13 UNL     1       3.983   5.524  87.933  1.00  0.00     0.044 C 
HETATM   24  C14 UNL     1       4.443   5.661  86.522  1.00  0.00     0.072 C 
HETATM   25  N2  UNL     1       2.710   5.302  88.105  1.00  0.00    -0.301 N 
ATOM     26  H2  UNL     1       2.363   5.204  89.059  1.00  0.00     0.186 HD
BRANCH  25  27
HETATM   27  N3  UNL     1       1.811   5.193  87.073  1.00  0.00    -0.274 N 
HETATM   28  C15 UNL     1       0.821   6.182  86.877  1.00  0.00     0.200 C 
HETATM   29  N4  UNL     1      -0.337   5.883  86.372  1.00  0.00    -0.372 N 
HETATM   30  N5  UNL     1       1.063   7.546  87.227  1.00  0.00    -0.062 NA
ATOM     31  H42 UNL     1      -0.510   4.909  86.122  1.00  0.00     0.158 HD
ATOM     32  H41 UNL     1      -1.051   6.597  86.230  1.00  0.00     0.158 HD
ATOM     33  H3  UNL     1       1.857   4.391  86.444  1.00  0.00     0.189 HD
ENDBRANCH  25  27
ENDBRANCH   1  23
TORSDOF 8
ENDMDL
MODEL 4
REMARK VINA RESULT: -7.638484360      3.297      4.776
REMARK  8 active torsions:
REMARK  status: ('A' for Active; 'I' for Inactive)
REMARK    1  A    between atoms: C2_2  and  C3_3 
REMARK    2  A    between atoms: C3_3  and  C13_23 
REMARK       I    between atoms: N1_4  and  C4_6 
REMARK    3  A    between atoms: C4_6  and  C5_8 
REMARK    4  A    between atoms: C6_10  and  O3_11 
REMARK    5  A    between atoms: C7_13  and  O4_15 
REMARK    6  A    between atoms: C10_18  and  O5_19 
REMARK    7  A    between atoms: O5_19  and  C11_20 
REMARK    8  A    between atoms: N2_25  and  N3_27 
REMARK       I    between atoms: N3_27  and  C15_29 
ROOT
HETATM    1  C3  UNL     1       5.634   4.899  90.720  1.00  0.00     0.035 C 
HETATM    2  N1  UNL     1       5.014   5.997  90.707  1.00  0.00    -0.327 N 
ATOM      3  H1  UNL     1       4.447   6.198  91.531  1.00  0.00     0.168 HD
HETATM    4  C4  UNL     1       5.004   6.972  89.711  1.00  0.00     0.253 C 
HETATM    5  O1  UNL     1       6.080   7.594  89.489  1.00  0.00    -0.270 OA
ENDROOT
BRANCH   4   6
HETATM    6  C5  UNL     1       3.783   7.286  88.925  1.00  0.00     0.246 C 
HETATM    7  O2  UNL     1       3.724   8.538  88.412  1.00  0.00    -0.341 OA
HETATM    8  C6  UNL     1       4.287   8.798  87.207  1.00  0.00     0.291 C 
HETATM    9  C7  UNL     1       4.125   7.768  86.140  1.00  0.00     0.106 C 
HETATM   10  C8  UNL     1       2.767   7.958  85.478  1.00  0.00     0.051 C 
HETATM   11  C9  UNL     1       4.249   6.355  86.666  1.00  0.00     0.078 C 
HETATM   12  C10 UNL     1       3.453   6.227  87.930  1.00  0.00     0.173 C 
BRANCH   8  13
HETATM   13  O3  UNL     1       5.627   9.189  87.239  1.00  0.00    -0.368 OA
ATOM     14  H3  UNL     1       6.256   8.518  87.000  1.00  0.00     0.212 HD
ENDBRANCH   8  13
BRANCH   9  15
HETATM   15  O4  UNL     1       5.123   7.966  85.186  1.00  0.00    -0.385 OA
ATOM     16  H4  UNL     1       4.830   8.639  84.584  1.00  0.00     0.210 HD
ENDBRANCH   9  15
BRANCH  12  17
HETATM   17  O5  UNL     1       3.664   4.927  88.442  1.00  0.00    -0.313 OA
BRANCH  17  18
HETATM   18  C11 UNL     1       2.586   4.100  88.728  1.00  0.00     0.255 C 
HETATM   19  C12 UNL     1       1.300   4.157  87.973  1.00  0.00     0.126 C 
HETATM   20  O6  UNL     1       2.747   3.276  89.679  1.00  0.00    -0.266 OA
ENDBRANCH  17  18
ENDBRANCH  12  17
ENDBRANCH   4   6
BRANCH   1  21
HETATM   21  C2  UNL     1       6.482   4.514  89.573  1.00  0.00     0.055 C 
HETATM   22  C1  UNL     1       7.949   4.495  89.994  1.00  0.00     0.011 C 
ENDBRANCH   1  21
BRANCH   1  23
HETATM   23  C13 UNL     1       5.526   4.000  91.852  1.00  0.00     0.044 C 
HETATM   24  C14 UNL     1       5.675   4.461  93.261  1.00  0.00     0.072 C 
HETATM   25  N2  UNL     1       5.290   2.729  91.684  1.00  0.00    -0.301 N 
ATOM     26  H2  UNL     1       5.183   2.381  90.731  1.00  0.00     0.186 HD
BRANCH  25  27
HETATM   27  N3  UNL     1       5.178   1.833  92.717  1.00  0.00    -0.274 N 
HETATM   28  C15 UNL     1       6.156   0.831  92.907  1.00  0.00     0.200 C 
HETATM   29  N4  UNL     1       5.847  -0.322  93.416  1.00  0.00    -0.372 N 
HETATM   30  N5  UNL     1       7.520   1.054  92.544  1.00  0.00    -0.062 NA
ATOM     31  H42 UNL     1       4.873  -0.482  93.675  1.00  0.00     0.158 HD
ATOM     32  H41 UNL     1       6.553  -1.046  93.552  1.00  0.00     0.158 HD
ATOM     33  H3  UNL     1       4.383   1.891  93.354  1.00  0.00     0.189 HD
ENDBRANCH  25  27
ENDBRANCH   1  23
TORSDOF 8
ENDMDL
MODEL 5
REMARK VINA RESULT: -7.552634611      3.571      5.660
REMARK  8 active torsions:
REMARK  status: ('A' for Active; 'I' for Inactive)
REMARK    1  A    between atoms: C2_2  and  C3_3 
REMARK    2  A    between atoms: C3_3  and  C13_23 
REMARK       I    between atoms: N1_4  and  C4_6 
REMARK    3  A    between atoms: C4_6  and  C5_8 
REMARK    4  A    between atoms: C6_10  and  O3_11 
REMARK    5  A    between atoms: C7_13  and  O4_15 
REMARK    6  A    between atoms: C10_18  and  O5_19 
REMARK    7  A    between atoms: O5_19  and  C11_20 
REMARK    8  A    between atoms: N2_25  and  N3_27 
REMARK       I    between atoms: N3_27  and  C15_29 
ROOT
HETATM    1  C3  UNL     1       6.056   4.355  91.760  1.00  0.00     0.035 C 
HETATM    2  N1  UNL     1       5.982   5.536  91.322  1.00  0.00    -0.327 N 
ATOM      3  H1  UNL     1       6.206   6.273  91.990  1.00  0.00     0.168 HD
HETATM    4  C4  UNL     1       5.634   5.961  90.041  1.00  0.00     0.253 C 
HETATM    5  O1  UNL     1       6.420   5.674  89.095  1.00  0.00    -0.270 OA
ENDROOT
BRANCH   4   6
HETATM    6  C5  UNL     1       4.390   6.726  89.774  1.00  0.00     0.246 C 
HETATM    7  O2  UNL     1       4.541   8.068  89.659  1.00  0.00    -0.341 OA
HETATM    8  C6  UNL     1       4.858   8.609  88.457  1.00  0.00     0.291 C 
HETATM    9  C7  UNL     1       4.191   8.034  87.253  1.00  0.00     0.106 C 
HETATM   10  C8  UNL     1       2.814   8.668  87.107  1.00  0.00     0.051 C 
HETATM   11  C9  UNL     1       4.061   6.528  87.316  1.00  0.00     0.078 C 
HETATM   12  C10 UNL     1       3.575   6.131  88.678  1.00  0.00     0.173 C 
BRANCH   8  13
HETATM   13  O3  UNL     1       6.224   8.725  88.189  1.00  0.00    -0.368 OA
ATOM     14  H3  UNL     1       6.456   9.337  87.501  1.00  0.00     0.212 HD
ENDBRANCH   8  13
BRANCH   9  15
HETATM   15  O4  UNL     1       4.957   8.357  86.133  1.00  0.00    -0.385 OA
ATOM     16  H4  UNL     1       4.835   9.280  85.944  1.00  0.00     0.210 HD
ENDBRANCH   9  15
BRANCH  12  17
HETATM   17  O5  UNL     1       3.553   4.720  88.733  1.00  0.00    -0.313 OA
BRANCH  17  18
HETATM   18  C11 UNL     1       2.348   4.032  88.676  1.00  0.00     0.255 C 
HETATM   19  C12 UNL     1       1.248   4.404  87.739  1.00  0.00     0.126 C 
HETATM   20  O6  UNL     1       2.221   3.054  89.473  1.00  0.00    -0.266 OA
ENDBRANCH  17  18
ENDBRANCH  12  17
ENDBRANCH   4   6
BRANCH   1  21
HETATM   21  C2  UNL     1       5.750   3.215  90.872  1.00  0.00     0.055 C 
HETATM   22  C1  UNL     1       4.753   2.279  91.551  1.00  0.00     0.011 C 
ENDBRANCH   1  21
BRANCH   1  23
HETATM   23  C13 UNL     1       6.437   4.098  93.134  1.00  0.00     0.044 C 
HETATM   24  C14 UNL     1       5.586   4.492  94.292  1.00  0.00     0.072 C 
HETATM   25  N2  UNL     1       7.560   3.502  93.422  1.00  0.00    -0.301 N 
ATOM     26  H2  UNL     1       8.166   3.218  92.653  1.00  0.00     0.186 HD
BRANCH  25  27
HETATM   27  N3  UNL     1       7.972   3.233  94.704  1.00  0.00    -0.274 N 
HETATM   28  C15 UNL     1       9.080   3.913  95.258  1.00  0.00     0.200 C 
HETATM   29  N4  UNL     1       9.848   3.343  96.136  1.00  0.00    -0.372 N 
HETATM   30  N5  UNL     1       9.392   5.252  94.870  1.00  0.00    -0.062 NA
ATOM     31  H42 UNL     1       9.625   2.387  96.413  1.00  0.00     0.158 HD
ATOM     32  H41 UNL     1      10.648   3.834  96.536  1.00  0.00     0.158 HD
ATOM     33  H3  UNL     1       7.475   2.538  95.261  1.00  0.00     0.189 HD
ENDBRANCH  25  27
ENDBRANCH   1  23
TORSDOF 8
ENDMDL
