MODEL 1
REMARK VINA RESULT: -8.455515328      0.000      0.000
REMARK  7 active torsions:
REMARK  status: ('A' for Active; 'I' for Inactive)
REMARK    1  A    between atoms: C2_2  and  C3_3 
REMARK    2  A    between atoms: C4_4  and  O1_5 
REMARK    3  A    between atoms: C5_7  and  N1_8 
REMARK       I    between atoms: N1_8  and  C6_10 
REMARK       I    between atoms: C6_10  and  N4_15 
REMARK    4  A    between atoms: C9_19  and  C10_20 
REMARK    5  A    between atoms: C10_20  and  O2_21 
REMARK    6  A    between atoms: O2_21  and  N6_22 
REMARK    7  A    between atoms: C16_32  and  N9_33 
ROOT
HETATM    1  N1  UNL     1       6.493   3.980  90.725  1.00  0.00    -0.217 N 
ATOM      2  H1  UNL     1       6.597   3.295  89.976  1.00  0.00     0.178 HD
HETATM    3  C6  UNL     1       7.061   5.273  90.553  1.00  0.00     0.696 C 
HETATM    4  N2  UNL     1       8.303   5.508  90.411  1.00  0.00    -0.125 N 
ATOM      5  H2  UNL     1       8.592   6.479  90.296  1.00  0.00     0.197 HD
HETATM    6  C7  UNL     1       9.291   4.536  90.403  1.00  0.00     0.196 C 
HETATM    7  N3  UNL     1      10.104   3.715  90.387  1.00  0.00    -0.171 NA
HETATM    8  N4  UNL     1       6.145   6.369  90.543  1.00  0.00    -0.125 N 
ATOM      9  H4  UNL     1       5.890   6.789  91.437  1.00  0.00     0.197 HD
HETATM   10  C8  UNL     1       5.584   6.896  89.396  1.00  0.00     0.196 C 
HETATM   11  N5  UNL     1       5.130   7.344  88.431  1.00  0.00    -0.171 NA
ENDROOT
BRANCH   1  12
HETATM   12  C5  UNL     1       5.772   3.597  91.924  1.00  0.00     0.135 C 
HETATM   13  C4  UNL     1       6.595   3.913  93.151  1.00  0.00     0.146 C 
HETATM   14  C3  UNL     1       6.600   2.445  93.520  1.00  0.00     0.024 C 
HETATM   15  C9  UNL     1       5.909   2.149  92.206  1.00  0.00     0.044 C 
BRANCH  13  16
HETATM   16  O1  UNL     1       5.975   4.756  94.045  1.00  0.00    -0.393 OA
ATOM     17  H1  UNL     1       6.345   4.780  94.920  1.00  0.00     0.210 HD
ENDBRANCH  13  16
BRANCH  14  18
HETATM   18  C2  UNL     1       7.975   1.821  93.608  1.00  0.00     0.003 C 
HETATM   19  C1  UNL     1       8.147   1.229  94.973  1.00  0.00     0.005 C 
ENDBRANCH  14  18
BRANCH  15  20
HETATM   20  C10 UNL     1       4.687   1.340  92.409  1.00  0.00     0.208 C 
BRANCH  20  21
HETATM   21  O2  UNL     1       4.810  -0.028  92.116  1.00  0.00    -0.280 OA
BRANCH  21  22
HETATM   22  N6  UNL     1       5.172  -0.827  93.172  1.00  0.00    -0.266 N 
HETATM   23  C11 UNL     1       4.803  -2.005  93.406  1.00  0.00     0.103 C 
HETATM   24  C12 UNL     1       3.881  -2.639  92.473  1.00  0.00     0.139 C 
HETATM   25  C16 UNL     1       5.331  -2.671  94.623  1.00  0.00     0.238 C 
HETATM   26  N7  UNL     1       3.394  -1.861  91.390  1.00  0.00    -0.081 NA
HETATM   27  N8  UNL     1       3.411  -3.864  92.475  1.00  0.00    -0.377 N 
HETATM   28  C13 UNL     1       3.768  -4.846  93.486  1.00  0.00     0.121 C 
ATOM     29  H8  UNL     1       2.766  -4.140  91.734  1.00  0.00     0.160 HD
HETATM   30  C14 UNL     1       3.505  -4.419  94.882  1.00  0.00     0.022 C 
HETATM   31  C15 UNL     1       4.201  -3.237  95.404  1.00  0.00     0.041 C 
ATOM     32  H6  UNL     1       5.817  -0.415  93.846  1.00  0.00     0.194 HD
BRANCH  25  33
HETATM   33  N9  UNL     1       6.027  -1.699  95.452  1.00  0.00    -0.070 N 
ATOM     34  H93 UNL     1       7.039  -1.740  95.326  1.00  0.00     0.275 HD
ATOM     35  H92 UNL     1       5.878  -0.743  95.130  1.00  0.00     0.275 HD
ATOM     36  H91 UNL     1       5.758  -1.822  96.428  1.00  0.00     0.275 HD
ENDBRANCH  25  33
ENDBRANCH  21  22
ENDBRANCH  20  21
ENDBRANCH  15  20
ENDBRANCH   1  12
TORSDOF 7
ENDMDL
MODEL 2
REMARK VINA RESULT: -8.445308354      6.659      9.840
REMARK  7 active torsions:
REMARK  status: ('A' for Active; 'I' for Inactive)
REMARK    1  A    between atoms: C2_2  and  C3_3 
REMARK    2  A    between atoms: C4_4  and  O1_5 
REMARK    3  A    between atoms: C5_7  and  N1_8 
REMARK       I    between atoms: N1_8  and  C6_10 
REMARK       I    between atoms: C6_10  and  N4_15 
REMARK    4  A    between atoms: C9_19  and  C10_20 
REMARK    5  A    between atoms: C10_20  and  O2_21 
REMARK    6  A    between atoms: O2_21  and  N6_22 
REMARK    7  A    between atoms: C16_32  and  N9_33 
ROOT
HETATM    1  N1  UNL     1       3.969   6.496  89.054  1.00  0.00    -0.217 N 
ATOM      2  H1  UNL     1       3.284   6.605  89.803  1.00  0.00     0.178 HD
HETATM    3  C6  UNL     1       5.263   7.061  89.225  1.00  0.00     0.696 C 
HETATM    4  N2  UNL     1       5.502   8.304  89.364  1.00  0.00    -0.125 N 
ATOM      5  H2  UNL     1       6.474   8.590  89.479  1.00  0.00     0.197 HD
HETATM    6  C7  UNL     1       4.533   9.294  89.369  1.00  0.00     0.196 C 
HETATM    7  N3  UNL     1       3.714  10.110  89.381  1.00  0.00    -0.171 NA
HETATM    8  N4  UNL     1       6.357   6.143  89.238  1.00  0.00    -0.125 N 
ATOM      9  H4  UNL     1       6.777   5.884  88.345  1.00  0.00     0.197 HD
HETATM   10  C8  UNL     1       6.882   5.584  90.387  1.00  0.00     0.196 C 
HETATM   11  N5  UNL     1       7.328   5.131  91.354  1.00  0.00    -0.171 NA
ENDROOT
BRANCH   1  12
HETATM   12  C5  UNL     1       3.585   5.774  87.857  1.00  0.00     0.135 C 
HETATM   13  C4  UNL     1       3.893   6.597  86.628  1.00  0.00     0.146 C 
HETATM   14  C3  UNL     1       2.424   6.596  86.265  1.00  0.00     0.024 C 
HETATM   15  C9  UNL     1       2.135   5.905  87.580  1.00  0.00     0.044 C 
BRANCH  13  16
HETATM   16  O1  UNL     1       4.735   5.980  85.732  1.00  0.00    -0.393 OA
ATOM     17  H1  UNL     1       5.665   6.087  85.894  1.00  0.00     0.210 HD
ENDBRANCH  13  16
BRANCH  14  18
HETATM   18  C2  UNL     1       1.795   7.969  86.178  1.00  0.00     0.003 C 
HETATM   19  C1  UNL     1       1.190   8.135  84.818  1.00  0.00     0.005 C 
ENDBRANCH  14  18
BRANCH  15  20
HETATM   20  C10 UNL     1       1.331   4.679  87.380  1.00  0.00     0.208 C 
BRANCH  20  21
HETATM   21  O2  UNL     1      -0.039   4.800  87.667  1.00  0.00    -0.280 OA
BRANCH  21  22
HETATM   22  N6  UNL     1      -0.834   5.153  86.605  1.00  0.00    -0.266 N 
HETATM   23  C11 UNL     1      -2.014   4.787  86.373  1.00  0.00     0.103 C 
HETATM   24  C12 UNL     1      -2.653   3.878  87.315  1.00  0.00     0.139 C 
HETATM   25  C16 UNL     1      -2.675   5.304  85.148  1.00  0.00     0.238 C 
HETATM   26  N7  UNL     1      -1.880   3.401  88.405  1.00  0.00    -0.081 NA
HETATM   27  N8  UNL     1      -3.881   3.413  87.316  1.00  0.00    -0.377 N 
HETATM   28  C13 UNL     1      -4.858   3.763  86.299  1.00  0.00     0.121 C 
ATOM     29  H8  UNL     1      -4.161   2.778  88.064  1.00  0.00     0.160 HD
HETATM   30  C14 UNL     1      -4.430   3.482  84.907  1.00  0.00     0.022 C 
HETATM   31  C15 UNL     1      -3.244   4.167  84.379  1.00  0.00     0.041 C 
ATOM     32  H6  UNL     1      -0.419   5.789  85.924  1.00  0.00     0.194 HD
BRANCH  25  33
HETATM   33  N9  UNL     1      -1.698   5.986  84.313  1.00  0.00    -0.070 N 
ATOM     34  H93 UNL     1      -0.869   6.262  84.839  1.00  0.00     0.275 HD
ATOM     35  H92 UNL     1      -1.250   5.353  83.651  1.00  0.00     0.275 HD
ATOM     36  H91 UNL     1      -2.137   6.780  83.847  1.00  0.00     0.275 HD
ENDBRANCH  25  33
ENDBRANCH  21  22
ENDBRANCH  20  21
ENDBRANCH  15  20
ENDBRANCH   1  12
TORSDOF 7
ENDMDL
MODEL 3
REMARK VINA RESULT: -8.349196288      4.761      8.808
REMARK  7 active torsions:
REMARK  status: ('A' for Active; 'I' for Inactive)
REMARK    1  A    between atoms: C2_2  and  C3_3 
REMARK    2  A    between atoms: C4_4  and  O1_5 
REMARK    3  A    between atoms: C5_7  and  N1_8 
REMARK       I    between atoms: N1_8  and  C6_10 
REMARK       I    between atoms: C6_10  and  N4_15 
REMARK    4  A    between atoms: C9_19  and  C10_20 
REMARK    5  A    between atoms: C10_20  and  O2_21 
REMARK    6  A    between atoms: O2_21  and  N6_22 
REMARK    7  A    between atoms: C16_32  and  N9_33 
ROOT
HETATM    1  N1  UNL     1       7.872   4.691  91.172  1.00  0.00    -0.217 N 
ATOM      2  H1  UNL     1       8.069   3.720  90.930  1.00  0.00     0.178 HD
HETATM    3  C6  UNL     1       8.710   5.344  92.117  1.00  0.00     0.696 C 
HETATM    4  N2  UNL     1       8.846   4.993  93.333  1.00  0.00    -0.125 N 
ATOM      5  H2  UNL     1       9.478   5.541  93.917  1.00  0.00     0.197 HD
HETATM    6  C7  UNL     1       8.196   3.918  93.918  1.00  0.00     0.196 C 
HETATM    7  N3  UNL     1       7.655   3.013  94.391  1.00  0.00    -0.171 NA
HETATM    8  N4  UNL     1       9.441   6.475  91.640  1.00  0.00    -0.125 N 
ATOM      9  H4  UNL     1       8.987   7.387  91.671  1.00  0.00     0.197 HD
HETATM   10  C8  UNL     1      10.727   6.407  91.138  1.00  0.00     0.196 C 
HETATM   11  N5  UNL     1      11.810   6.347  90.735  1.00  0.00    -0.171 NA
ENDROOT
BRANCH   1  12
HETATM   12  C5  UNL     1       6.747   5.352  90.538  1.00  0.00     0.135 C 
HETATM   13  C4  UNL     1       5.516   5.238  91.407  1.00  0.00     0.146 C 
HETATM   14  C3  UNL     1       4.810   4.487  90.299  1.00  0.00     0.024 C 
HETATM   15  C9  UNL     1       6.107   4.487  89.519  1.00  0.00     0.044 C 
BRANCH  13  16
HETATM   16  O1  UNL     1       4.963   6.446  91.763  1.00  0.00    -0.393 OA
ATOM     17  H1  UNL     1       4.211   6.404  92.343  1.00  0.00     0.210 HD
ENDBRANCH  13  16
BRANCH  14  18
HETATM   18  C2  UNL     1       4.356   3.093  90.671  1.00  0.00     0.003 C 
HETATM   19  C1  UNL     1       3.032   2.830  90.021  1.00  0.00     0.005 C 
ENDBRANCH  14  18
BRANCH  15  20
HETATM   20  C10 UNL     1       5.914   5.016  88.150  1.00  0.00     0.208 C 
BRANCH  20  21
HETATM   21  O2  UNL     1       4.617   5.468  87.854  1.00  0.00    -0.280 OA
BRANCH  21  22
HETATM   22  N6  UNL     1       4.549   6.644  87.151  1.00  0.00    -0.266 N 
HETATM   23  C11 UNL     1       3.518   7.267  86.791  1.00  0.00     0.103 C 
HETATM   24  C12 UNL     1       2.218   6.709  87.140  1.00  0.00     0.139 C 
HETATM   25  C16 UNL     1       3.697   8.529  86.030  1.00  0.00     0.238 C 
HETATM   26  N7  UNL     1       2.190   5.455  87.803  1.00  0.00    -0.081 NA
HETATM   27  N8  UNL     1       1.020   7.204  86.930  1.00  0.00    -0.377 N 
HETATM   28  C13 UNL     1       0.797   8.479  86.267  1.00  0.00     0.121 C 
ATOM     29  H8  UNL     1       0.210   6.670  87.245  1.00  0.00     0.160 HD
HETATM   30  C14 UNL     1       1.412   8.592  84.921  1.00  0.00     0.022 C 
HETATM   31  C15 UNL     1       2.870   8.482  84.797  1.00  0.00     0.041 C 
ATOM     32  H6  UNL     1       5.442   7.063  86.889  1.00  0.00     0.194 HD
BRANCH  25  33
HETATM   33  N9  UNL     1       5.093   8.679  85.648  1.00  0.00    -0.070 N 
ATOM     34  H93 UNL     1       5.709   8.745  86.458  1.00  0.00     0.275 HD
ATOM     35  H92 UNL     1       5.473   7.823  85.243  1.00  0.00     0.275 HD
ATOM     36  H91 UNL     1       5.195   9.478  85.022  1.00  0.00     0.275 HD
ENDBRANCH  25  33
ENDBRANCH  21  22
ENDBRANCH  20  21
ENDBRANCH  15  20
ENDBRANCH   1  12
TORSDOF 7
ENDMDL
MODEL 4
REMARK VINA RESULT: -8.345775666      3.829      6.103
REMARK  7 active torsions:
REMARK  status: ('A' for Active; 'I' for Inactive)
REMARK    1  A    between atoms: C2_2  and  C3_3 
REMARK    2  A    between atoms: C4_4  and  O1_5 
REMARK    3  A    between atoms: C5_7  and  N1_8 
REMARK       I    between atoms: N1_8  and  C6_10 
REMARK       I    between atoms: C6_10  and  N4_15 
REMARK    4  A    between atoms: C9_19  and  C10_20 
REMARK    5  A    between atoms: C10_20  and  O2_21 
REMARK    6  A    between atoms: O2_21  and  N6_22 
REMARK    7  A    between atoms: C16_32  and  N9_33 
ROOT
HETATM    1  N1  UNL     1       4.679   7.873  88.622  1.00  0.00    -0.217 N 
ATOM      2  H1  UNL     1       3.708   8.069  88.867  1.00  0.00     0.178 HD
HETATM    3  C6  UNL     1       5.328   8.713  87.673  1.00  0.00     0.696 C 
HETATM    4  N2  UNL     1       4.971   8.848  86.459  1.00  0.00    -0.125 N 
ATOM      5  H2  UNL     1       5.515   9.481  85.873  1.00  0.00     0.197 HD
HETATM    6  C7  UNL     1       3.896   8.195  85.878  1.00  0.00     0.196 C 
HETATM    7  N3  UNL     1       2.990   7.653  85.409  1.00  0.00    -0.171 NA
HETATM    8  N4  UNL     1       6.458   9.446  88.147  1.00  0.00    -0.125 N 
ATOM      9  H4  UNL     1       7.372   8.993  88.112  1.00  0.00     0.197 HD
HETATM   10  C8  UNL     1       6.390  10.731  88.648  1.00  0.00     0.196 C 
HETATM   11  N5  UNL     1       6.330  11.814  89.051  1.00  0.00    -0.171 NA
ENDROOT
BRANCH   1  12
HETATM   12  C5  UNL     1       5.345   6.750  89.253  1.00  0.00     0.135 C 
HETATM   13  C4  UNL     1       5.227   5.518  88.386  1.00  0.00     0.146 C 
HETATM   14  C3  UNL     1       4.483   4.812  89.499  1.00  0.00     0.024 C 
HETATM   15  C9  UNL     1       4.486   6.110  90.277  1.00  0.00     0.044 C 
BRANCH  13  16
HETATM   16  O1  UNL     1       6.434   4.965  88.023  1.00  0.00    -0.393 OA
ATOM     17  H1  UNL     1       6.606   4.918  87.090  1.00  0.00     0.210 HD
ENDBRANCH  13  16
BRANCH  14  18
HETATM   18  C2  UNL     1       3.088   4.356  89.134  1.00  0.00     0.003 C 
HETATM   19  C1  UNL     1       2.835   3.026  89.775  1.00  0.00     0.005 C 
ENDBRANCH  14  18
BRANCH  15  20
HETATM   20  C10 UNL     1       5.023   5.919  91.643  1.00  0.00     0.208 C 
BRANCH  20  21
HETATM   21  O2  UNL     1       5.466   4.620  91.943  1.00  0.00    -0.280 OA
BRANCH  21  22
HETATM   22  N6  UNL     1       6.648   4.546  92.636  1.00  0.00    -0.266 N 
HETATM   23  C11 UNL     1       7.259   3.512  93.006  1.00  0.00     0.103 C 
HETATM   24  C12 UNL     1       6.680   2.215  92.683  1.00  0.00     0.139 C 
HETATM   25  C16 UNL     1       8.532   3.684  93.752  1.00  0.00     0.238 C 
HETATM   26  N7  UNL     1       5.419   2.194  92.032  1.00  0.00    -0.081 NA
HETATM   27  N8  UNL     1       7.159   1.013  92.907  1.00  0.00    -0.377 N 
HETATM   28  C13 UNL     1       8.437   0.782  93.561  1.00  0.00     0.121 C 
ATOM     29  H8  UNL     1       6.610   0.206  92.610  1.00  0.00     0.160 HD
HETATM   30  C14 UNL     1       8.572   1.416  94.896  1.00  0.00     0.022 C 
HETATM   31  C15 UNL     1       8.484   2.877  94.998  1.00  0.00     0.041 C 
ATOM     32  H6  UNL     1       7.083   5.436  92.879  1.00  0.00     0.194 HD
BRANCH  25  33
HETATM   33  N9  UNL     1       8.705   5.083  94.111  1.00  0.00    -0.070 N 
ATOM     34  H93 UNL     1       9.669   5.394  93.993  1.00  0.00     0.275 HD
ATOM     35  H92 UNL     1       8.265   5.710  93.437  1.00  0.00     0.275 HD
ATOM     36  H91 UNL     1       8.365   5.240  95.060  1.00  0.00     0.275 HD
ENDBRANCH  25  33
ENDBRANCH  21  22
ENDBRANCH  20  21
ENDBRANCH  15  20
ENDBRANCH   1  12
TORSDOF 7
ENDMDL
MODEL 5
REMARK VINA RESULT: -8.331817379      5.898      8.311
REMARK  7 active torsions:
REMARK  status: ('A' for Active; 'I' for Inactive)
REMARK    1  A    between atoms: C2_2  and  C3_3 
REMARK    2  A    between atoms: C4_4  and  O1_5 
REMARK    3  A    between atoms: C5_7  and  N1_8 
REMARK       I    between atoms: N1_8  and  C6_10 
REMARK       I    between atoms: C6_10  and  N4_15 
REMARK    4  A    between atoms: C9_19  and  C10_20 
REMARK    5  A    between atoms: C10_20  and  O2_21 
REMARK    6  A    between atoms: O2_21  and  N6_22 
REMARK    7  A    between atoms: C16_32  and  N9_33 
ROOT
HETATM    1  N1  UNL     1       3.851   6.708  88.964  1.00  0.00    -0.217 N 
ATOM      2  H1  UNL     1       3.182   6.809  89.728  1.00  0.00     0.178 HD
HETATM    3  C6  UNL     1       5.168   7.218  89.136  1.00  0.00     0.696 C 
HETATM    4  N2  UNL     1       5.453   8.445  89.321  1.00  0.00    -0.125 N 
ATOM      5  H2  UNL     1       6.437   8.691  89.431  1.00  0.00     0.197 HD
HETATM    6  C7  UNL     1       4.521   9.468  89.382  1.00  0.00     0.196 C 
HETATM    7  N3  UNL     1       3.733  10.311  89.443  1.00  0.00    -0.171 NA
HETATM    8  N4  UNL     1       6.228   6.262  89.092  1.00  0.00    -0.125 N 
ATOM      9  H4  UNL     1       6.623   6.026  88.182  1.00  0.00     0.197 HD
HETATM   10  C8  UNL     1       6.749   5.637  90.209  1.00  0.00     0.196 C 
HETATM   11  N5  UNL     1       7.194   5.129  91.148  1.00  0.00    -0.171 NA
ENDROOT
BRANCH   1  12
HETATM   12  C5  UNL     1       3.422   6.049  87.745  1.00  0.00     0.135 C 
HETATM   13  C4  UNL     1       3.222   7.065  86.645  1.00  0.00     0.146 C 
HETATM   14  C3  UNL     1       1.764   6.669  86.551  1.00  0.00     0.024 C 
HETATM   15  C9  UNL     1       1.966   5.774  87.755  1.00  0.00     0.044 C 
BRANCH  13  16
HETATM   16  O1  UNL     1       3.981   6.837  85.520  1.00  0.00    -0.393 OA
ATOM     17  H1  UNL     1       4.919   6.779  85.657  1.00  0.00     0.210 HD
ENDBRANCH  13  16
BRANCH  14  18
HETATM   18  C2  UNL     1       0.787   7.792  86.819  1.00  0.00     0.003 C 
HETATM   19  C1  UNL     1      -0.128   7.923  85.640  1.00  0.00     0.005 C 
ENDBRANCH  14  18
BRANCH  15  20
HETATM   20  C10 UNL     1       1.496   4.396  87.488  1.00  0.00     0.208 C 
BRANCH  20  21
HETATM   21  O2  UNL     1       0.168   4.127  87.859  1.00  0.00    -0.280 OA
BRANCH  21  22
HETATM   22  N6  UNL     1      -0.086   2.835  88.243  1.00  0.00    -0.266 N 
HETATM   23  C11 UNL     1      -1.204   2.271  88.354  1.00  0.00     0.103 C 
HETATM   24  C12 UNL     1      -2.400   3.044  88.049  1.00  0.00     0.139 C 
HETATM   25  C16 UNL     1      -1.228   0.853  88.793  1.00  0.00     0.238 C 
HETATM   26  N7  UNL     1      -2.238   4.413  87.714  1.00  0.00    -0.081 NA
HETATM   27  N8  UNL     1      -3.655   2.659  88.033  1.00  0.00    -0.377 N 
HETATM   28  C13 UNL     1      -4.068   1.299  88.341  1.00  0.00     0.121 C 
ATOM     29  H8  UNL     1      -4.373   3.344  87.793  1.00  0.00     0.160 HD
HETATM   30  C14 UNL     1      -3.615   0.801  89.663  1.00  0.00     0.022 C 
HETATM   31  C15 UNL     1      -2.174   0.706  89.928  1.00  0.00     0.041 C 
ATOM     32  H6  UNL     1       0.729   2.264  88.466  1.00  0.00     0.194 HD
BRANCH  25  33
HETATM   33  N9  UNL     1       0.098   0.454  89.239  1.00  0.00    -0.070 N 
ATOM     34  H93 UNL     1       0.835   0.841  88.649  1.00  0.00     0.275 HD
ATOM     35  H92 UNL     1       0.360   0.905  90.116  1.00  0.00     0.275 HD
ATOM     36  H91 UNL     1       0.150  -0.563  89.300  1.00  0.00     0.275 HD
ENDBRANCH  25  33
ENDBRANCH  21  22
ENDBRANCH  20  21
ENDBRANCH  15  20
ENDBRANCH   1  12
TORSDOF 7
ENDMDL
