MODEL 1
REMARK VINA RESULT: -7.633078174      0.000      0.000
REMARK  10 active torsions:
REMARK  status: ('A' for Active; 'I' for Inactive)
REMARK    1  A    between atoms: O1_1  and  C1_3 
REMARK    2  A    between atoms: C1_3  and  C2_4 
REMARK    3  A    between atoms: C3_6  and  O3_7 
REMARK    4  A    between atoms: O3_7  and  C4_8 
REMARK    5  A    between atoms: C6_11  and  O5_12 
REMARK    6  A    between atoms: O5_12  and  C7_13 
REMARK    7  A    between atoms: C13_19  and  O6_20 
REMARK    8  A    between atoms: C15_23  and  O7_24 
REMARK    9  A    between atoms: C16_26  and  O8_27 
REMARK   10  A    between atoms: C17_29  and  O9_30 
ROOT
HETATM    1  O3  UNL     1       5.587   3.657  91.895  1.00  0.00    -0.351 OA
ENDROOT
BRANCH   1   2
HETATM    2  C3  UNL     1       6.181   2.405  91.950  1.00  0.00     0.292 C 
HETATM    3  O2  UNL     1       7.543   2.441  92.042  1.00  0.00    -0.348 OA
HETATM    4  C2  UNL     1       7.976   2.651  93.314  1.00  0.00     0.179 C 
HETATM    5  C17 UNL     1       7.683   1.459  94.212  1.00  0.00     0.180 C 
HETATM    6  C16 UNL     1       6.577   0.623  93.595  1.00  0.00     0.183 C 
HETATM    7  C15 UNL     1       5.563   1.463  92.894  1.00  0.00     0.204 C 
BRANCH   4   8
HETATM    8  C1  UNL     1       7.459   3.889  93.993  1.00  0.00     0.198 C 
BRANCH   8   9
HETATM    9  O1  UNL     1       7.978   5.040  93.394  1.00  0.00    -0.398 OA
ATOM     10  H1  UNL     1       8.171   5.703  94.046  1.00  0.00     0.209 HD
ENDBRANCH   8   9
ENDBRANCH   4   8
BRANCH   5  11
HETATM   11  O9  UNL     1       8.821   0.677  94.265  1.00  0.00    -0.390 OA
ATOM     12  H9  UNL     1       8.605  -0.178  93.910  1.00  0.00     0.210 HD
ENDBRANCH   5  11
BRANCH   6  13
HETATM   13  O8  UNL     1       7.061  -0.331  92.721  1.00  0.00    -0.390 OA
ATOM     14  H8  UNL     1       7.885  -0.670  93.052  1.00  0.00     0.210 HD
ENDBRANCH   6  13
BRANCH   7  15
HETATM   15  O7  UNL     1       4.679   0.550  92.260  1.00  0.00    -0.388 OA
ATOM     16  H7  UNL     1       5.121  -0.230  91.946  1.00  0.00     0.210 HD
ENDBRANCH   7  15
ENDBRANCH   1   2
BRANCH   1  17
HETATM   17  C4  UNL     1       5.583   4.265  90.674  1.00  0.00     0.151 C 
HETATM   18  C5  UNL     1       4.402   3.794  89.873  1.00  0.00     0.203 C 
HETATM   19  O4  UNL     1       4.085   4.611  88.809  1.00  0.00    -0.356 OA
HETATM   20  C6  UNL     1       3.753   5.853  89.288  1.00  0.00     0.288 C 
HETATM   21  C13 UNL     1       5.067   6.527  89.707  1.00  0.00     0.175 C 
HETATM   22  C14 UNL     1       5.559   5.769  90.914  1.00  0.00     0.071 C 
BRANCH  20  23
HETATM   23  O5  UNL     1       3.080   6.659  88.411  1.00  0.00    -0.353 OA
BRANCH  23  24
HETATM   24  C7  UNL     1       2.763   6.028  87.210  1.00  0.00     0.124 C 
HETATM   25  C8  UNL     1       1.284   5.861  87.017  1.00  0.00     0.032 C 
HETATM   26  C9  UNL     1       0.549   7.140  86.791  1.00  0.00     0.002 C 
HETATM   27  C10 UNL     1       1.458   8.333  86.640  1.00  0.00     0.000 C 
HETATM   28  C11 UNL     1       2.526   7.982  85.650  1.00  0.00     0.002 C 
HETATM   29  C12 UNL     1       3.390   6.842  86.097  1.00  0.00     0.032 C 
ENDBRANCH  23  24
ENDBRANCH  20  23
BRANCH  21  30
HETATM   30  O6  UNL     1       6.017   6.424  88.713  1.00  0.00    -0.391 OA
ATOM     31  H6  UNL     1       6.367   7.278  88.484  1.00  0.00     0.210 HD
ENDBRANCH  21  30
ENDBRANCH   1  17
TORSDOF 10
ENDMDL
MODEL 2
REMARK VINA RESULT: -7.625141419      1.755      8.389
REMARK  10 active torsions:
REMARK  status: ('A' for Active; 'I' for Inactive)
REMARK    1  A    between atoms: O1_1  and  C1_3 
REMARK    2  A    between atoms: C1_3  and  C2_4 
REMARK    3  A    between atoms: C3_6  and  O3_7 
REMARK    4  A    between atoms: O3_7  and  C4_8 
REMARK    5  A    between atoms: C6_11  and  O5_12 
REMARK    6  A    between atoms: O5_12  and  C7_13 
REMARK    7  A    between atoms: C13_19  and  O6_20 
REMARK    8  A    between atoms: C15_23  and  O7_24 
REMARK    9  A    between atoms: C16_26  and  O8_27 
REMARK   10  A    between atoms: C17_29  and  O9_30 
ROOT
HETATM    1  O3  UNL     1       3.643   5.599  87.874  1.00  0.00    -0.351 OA
ENDROOT
BRANCH   1   2
HETATM    2  C3  UNL     1       2.389   6.190  87.821  1.00  0.00     0.292 C 
HETATM    3  O2  UNL     1       2.421   7.552  87.735  1.00  0.00    -0.348 OA
HETATM    4  C2  UNL     1       2.630   7.991  86.465  1.00  0.00     0.179 C 
HETATM    5  C17 UNL     1       1.440   7.698  85.566  1.00  0.00     0.180 C 
HETATM    6  C16 UNL     1       0.607   6.587  86.178  1.00  0.00     0.183 C 
HETATM    7  C15 UNL     1       1.450   5.573  86.874  1.00  0.00     0.204 C 
BRANCH   4   8
HETATM    8  C1  UNL     1       3.870   7.481  85.784  1.00  0.00     0.198 C 
BRANCH   8   9
HETATM    9  O1  UNL     1       5.018   8.004  86.384  1.00  0.00    -0.398 OA
ATOM     10  H1  UNL     1       5.612   7.308  86.642  1.00  0.00     0.209 HD
ENDBRANCH   8   9
ENDBRANCH   4   8
BRANCH   5  11
HETATM   11  O9  UNL     1       0.653   8.834  85.518  1.00  0.00    -0.390 OA
ATOM     12  H9  UNL     1      -0.219   8.575  85.243  1.00  0.00     0.210 HD
ENDBRANCH   5  11
BRANCH   6  13
HETATM   13  O8  UNL     1      -0.349   7.064  87.053  1.00  0.00    -0.390 OA
ATOM     14  H8  UNL     1      -1.031   7.507  86.562  1.00  0.00     0.210 HD
ENDBRANCH   6  13
BRANCH   7  15
HETATM   15  O7  UNL     1       0.540   4.683  87.504  1.00  0.00    -0.388 OA
ATOM     16  H7  UNL     1      -0.363   4.972  87.436  1.00  0.00     0.210 HD
ENDBRANCH   7  15
ENDBRANCH   1   2
BRANCH   1  17
HETATM   17  C4  UNL     1       4.255   5.600  89.094  1.00  0.00     0.151 C 
HETATM   18  C5  UNL     1       3.796   4.415  89.895  1.00  0.00     0.203 C 
HETATM   19  O4  UNL     1       4.617   4.105  90.956  1.00  0.00    -0.356 OA
HETATM   20  C6  UNL     1       5.861   3.783  90.475  1.00  0.00     0.288 C 
HETATM   21  C13 UNL     1       6.524   5.102  90.054  1.00  0.00     0.175 C 
HETATM   22  C14 UNL     1       5.758   5.588  88.850  1.00  0.00     0.071 C 
BRANCH  20  23
HETATM   23  O5  UNL     1       6.675   3.116  91.349  1.00  0.00    -0.353 OA
BRANCH  23  24
HETATM   24  C7  UNL     1       6.049   2.789  92.549  1.00  0.00     0.124 C 
HETATM   25  C8  UNL     1       5.886   1.308  92.733  1.00  0.00     0.032 C 
HETATM   26  C9  UNL     1       7.169   0.576  92.950  1.00  0.00     0.002 C 
HETATM   27  C10 UNL     1       8.359   1.487  93.104  1.00  0.00     0.000 C 
HETATM   28  C11 UNL     1       8.008   2.548  94.102  1.00  0.00     0.002 C 
HETATM   29  C12 UNL     1       6.863   3.411  93.664  1.00  0.00     0.032 C 
ENDBRANCH  23  24
ENDBRANCH  20  23
BRANCH  21  30
HETATM   30  O6  UNL     1       6.416   6.051  91.049  1.00  0.00    -0.391 OA
ATOM     31  H6  UNL     1       7.162   6.639  91.042  1.00  0.00     0.210 HD
ENDBRANCH  21  30
ENDBRANCH   1  17
TORSDOF 10
ENDMDL
MODEL 3
REMARK VINA RESULT: -7.287692900      1.786      3.522
REMARK  10 active torsions:
REMARK  status: ('A' for Active; 'I' for Inactive)
REMARK    1  A    between atoms: O1_1  and  C1_3 
REMARK    2  A    between atoms: C1_3  and  C2_4 
REMARK    3  A    between atoms: C3_6  and  O3_7 
REMARK    4  A    between atoms: O3_7  and  C4_8 
REMARK    5  A    between atoms: C6_11  and  O5_12 
REMARK    6  A    between atoms: O5_12  and  C7_13 
REMARK    7  A    between atoms: C13_19  and  O6_20 
REMARK    8  A    between atoms: C15_23  and  O7_24 
REMARK    9  A    between atoms: C16_26  and  O8_27 
REMARK   10  A    between atoms: C17_29  and  O9_30 
ROOT
HETATM    1  O3  UNL     1       4.569   5.613  90.469  1.00  0.00    -0.351 OA
ENDROOT
BRANCH   1   2
HETATM    2  C3  UNL     1       5.651   5.555  91.333  1.00  0.00     0.292 C 
HETATM    3  O2  UNL     1       5.450   4.755  92.422  1.00  0.00    -0.348 OA
HETATM    4  C2  UNL     1       5.658   3.439  92.148  1.00  0.00     0.179 C 
HETATM    5  C17 UNL     1       7.124   3.146  91.874  1.00  0.00     0.180 C 
HETATM    6  C16 UNL     1       7.831   4.432  91.486  1.00  0.00     0.183 C 
HETATM    7  C15 UNL     1       6.953   5.336  90.688  1.00  0.00     0.204 C 
BRANCH   4   8
HETATM    8  C1  UNL     1       4.845   2.860  91.024  1.00  0.00     0.198 C 
BRANCH   8   9
HETATM    9  O1  UNL     1       4.249   1.656  91.408  1.00  0.00    -0.398 OA
ATOM     10  H1  UNL     1       4.649   0.922  90.958  1.00  0.00     0.209 HD
ENDBRANCH   8   9
ENDBRANCH   4   8
BRANCH   5  11
HETATM   11  O9  UNL     1       7.694   2.692  93.049  1.00  0.00    -0.390 OA
ATOM     12  H9  UNL     1       7.343   3.210  93.764  1.00  0.00     0.210 HD
ENDBRANCH   5  11
BRANCH   6  13
HETATM   13  O8  UNL     1       8.317   5.119  92.582  1.00  0.00    -0.390 OA
ATOM     14  H8  UNL     1       9.244   5.286  92.461  1.00  0.00     0.210 HD
ENDBRANCH   6  13
BRANCH   7  15
HETATM   15  O7  UNL     1       7.691   6.536  90.517  1.00  0.00    -0.388 OA
ATOM     16  H7  UNL     1       8.627   6.411  90.627  1.00  0.00     0.210 HD
ENDBRANCH   7  15
ENDBRANCH   1   2
BRANCH   1  17
HETATM   17  C4  UNL     1       4.820   6.118  89.226  1.00  0.00     0.151 C 
HETATM   18  C5  UNL     1       4.164   5.256  88.184  1.00  0.00     0.203 C 
HETATM   19  O4  UNL     1       4.023   5.869  86.958  1.00  0.00    -0.356 OA
HETATM   20  C6  UNL     1       3.220   6.971  87.105  1.00  0.00     0.288 C 
HETATM   21  C13 UNL     1       4.069   8.045  87.798  1.00  0.00     0.175 C 
HETATM   22  C14 UNL     1       4.303   7.549  89.203  1.00  0.00     0.071 C 
BRANCH  20  23
HETATM   23  O5  UNL     1       2.696   7.474  85.945  1.00  0.00    -0.353 OA
BRANCH  23  24
HETATM   24  C7  UNL     1       1.745   8.470  86.153  1.00  0.00     0.124 C 
HETATM   25  C8  UNL     1       1.061   8.892  84.885  1.00  0.00     0.032 C 
HETATM   26  C9  UNL     1       0.165   7.851  84.299  1.00  0.00     0.002 C 
HETATM   27  C10 UNL     1      -0.004   6.642  85.182  1.00  0.00     0.000 C 
HETATM   28  C11 UNL     1      -0.331   7.117  86.565  1.00  0.00     0.002 C 
HETATM   29  C12 UNL     1       0.761   7.943  87.176  1.00  0.00     0.032 C 
ENDBRANCH  23  24
ENDBRANCH  20  23
BRANCH  21  30
HETATM   30  O6  UNL     1       5.293   8.186  87.179  1.00  0.00    -0.391 OA
ATOM     31  H6  UNL     1       5.760   8.944  87.513  1.00  0.00     0.210 HD
ENDBRANCH  21  30
ENDBRANCH   1  17
TORSDOF 10
ENDMDL
MODEL 4
REMARK VINA RESULT: -7.284438985      1.915      8.252
REMARK  10 active torsions:
REMARK  status: ('A' for Active; 'I' for Inactive)
REMARK    1  A    between atoms: O1_1  and  C1_3 
REMARK    2  A    between atoms: C1_3  and  C2_4 
REMARK    3  A    between atoms: C3_6  and  O3_7 
REMARK    4  A    between atoms: O3_7  and  C4_8 
REMARK    5  A    between atoms: C6_11  and  O5_12 
REMARK    6  A    between atoms: O5_12  and  C7_13 
REMARK    7  A    between atoms: C13_19  and  O6_20 
REMARK    8  A    between atoms: C15_23  and  O7_24 
REMARK    9  A    between atoms: C16_26  and  O8_27 
REMARK   10  A    between atoms: C17_29  and  O9_30 
ROOT
HETATM    1  O3  UNL     1       5.620   4.582  89.321  1.00  0.00    -0.351 OA
ENDROOT
BRANCH   1   2
HETATM    2  C3  UNL     1       5.563   5.669  88.461  1.00  0.00     0.292 C 
HETATM    3  O2  UNL     1       4.770   5.469  87.367  1.00  0.00    -0.348 OA
HETATM    4  C2  UNL     1       3.452   5.670  87.634  1.00  0.00     0.179 C 
HETATM    5  C17 UNL     1       3.152   7.134  87.914  1.00  0.00     0.180 C 
HETATM    6  C16 UNL     1       4.432   7.844  88.312  1.00  0.00     0.183 C 
HETATM    7  C15 UNL     1       5.335   6.966  89.111  1.00  0.00     0.204 C 
BRANCH   4   8
HETATM    8  C1  UNL     1       2.870   4.850  88.752  1.00  0.00     0.198 C 
BRANCH   8   9
HETATM    9  O1  UNL     1       1.640   4.301  88.380  1.00  0.00    -0.398 OA
ATOM     10  H1  UNL     1       0.950   4.589  88.965  1.00  0.00     0.209 HD
ENDBRANCH   8   9
ENDBRANCH   4   8
BRANCH   5  11
HETATM   11  O9  UNL     1       2.701   7.707  86.739  1.00  0.00    -0.390 OA
ATOM     12  H9  UNL     1       3.353   7.548  86.067  1.00  0.00     0.210 HD
ENDBRANCH   5  11
BRANCH   6  13
HETATM   13  O8  UNL     1       5.123   8.338  87.222  1.00  0.00    -0.390 OA
ATOM     14  H8  UNL     1       5.277   9.267  87.343  1.00  0.00     0.210 HD
ENDBRANCH   6  13
BRANCH   7  15
HETATM   15  O7  UNL     1       6.532   7.709  89.292  1.00  0.00    -0.388 OA
ATOM     16  H7  UNL     1       7.152   7.584  88.583  1.00  0.00     0.210 HD
ENDBRANCH   7  15
ENDBRANCH   1   2
BRANCH   1  17
HETATM   17  C4  UNL     1       6.120   4.829  90.567  1.00  0.00     0.151 C 
HETATM   18  C5  UNL     1       5.253   4.172  91.603  1.00  0.00     0.203 C 
HETATM   19  O4  UNL     1       5.860   4.026  92.831  1.00  0.00    -0.356 OA
HETATM   20  C6  UNL     1       6.962   3.222  92.687  1.00  0.00     0.288 C 
HETATM   21  C13 UNL     1       8.040   4.071  92.000  1.00  0.00     0.175 C 
HETATM   22  C14 UNL     1       7.551   4.310  90.594  1.00  0.00     0.071 C 
BRANCH  20  23
HETATM   23  O5  UNL     1       7.459   2.694  93.848  1.00  0.00    -0.353 OA
BRANCH  23  24
HETATM   24  C7  UNL     1       8.459   1.747  93.641  1.00  0.00     0.124 C 
HETATM   25  C8  UNL     1       8.885   1.069  94.911  1.00  0.00     0.032 C 
HETATM   26  C9  UNL     1       7.850   0.169  95.500  1.00  0.00     0.002 C 
HETATM   27  C10 UNL     1       6.640  -0.009  94.618  1.00  0.00     0.000 C 
HETATM   28  C11 UNL     1       7.116  -0.337  93.236  1.00  0.00     0.002 C 
HETATM   29  C12 UNL     1       7.936   0.757  92.621  1.00  0.00     0.032 C 
ENDBRANCH  23  24
ENDBRANCH  20  23
BRANCH  21  30
HETATM   30  O6  UNL     1       8.180   5.294  92.624  1.00  0.00    -0.391 OA
ATOM     31  H6  UNL     1       8.915   5.288  93.226  1.00  0.00     0.210 HD
ENDBRANCH  21  30
ENDBRANCH   1  17
TORSDOF 10
ENDMDL
MODEL 5
REMARK VINA RESULT: -7.156356327      1.872      8.308
REMARK  10 active torsions:
REMARK  status: ('A' for Active; 'I' for Inactive)
REMARK    1  A    between atoms: O1_1  and  C1_3 
REMARK    2  A    between atoms: C1_3  and  C2_4 
REMARK    3  A    between atoms: C3_6  and  O3_7 
REMARK    4  A    between atoms: O3_7  and  C4_8 
REMARK    5  A    between atoms: C6_11  and  O5_12 
REMARK    6  A    between atoms: O5_12  and  C7_13 
REMARK    7  A    between atoms: C13_19  and  O6_20 
REMARK    8  A    between atoms: C15_23  and  O7_24 
REMARK    9  A    between atoms: C16_26  and  O8_27 
REMARK   10  A    between atoms: C17_29  and  O9_30 
ROOT
HETATM    1  O3  UNL     1       4.630   5.006  88.376  1.00  0.00    -0.351 OA
ENDROOT
BRANCH   1   2
HETATM    2  C3  UNL     1       4.364   5.932  87.378  1.00  0.00     0.292 C 
HETATM    3  O2  UNL     1       3.529   5.471  86.402  1.00  0.00    -0.348 OA
HETATM    4  C2  UNL     1       2.218   5.547  86.757  1.00  0.00     0.179 C 
HETATM    5  C17 UNL     1       1.743   6.987  86.851  1.00  0.00     0.180 C 
HETATM    6  C16 UNL     1       2.941   7.903  87.024  1.00  0.00     0.183 C 
HETATM    7  C15 UNL     1       4.010   7.276  87.855  1.00  0.00     0.204 C 
BRANCH   4   8
HETATM    8  C1  UNL     1       1.835   4.842  88.029  1.00  0.00     0.198 C 
BRANCH   8   9
HETATM    9  O1  UNL     1       0.618   4.172  87.881  1.00  0.00    -0.398 OA
ATOM     10  H1  UNL     1       0.607   3.662  87.079  1.00  0.00     0.209 HD
ENDBRANCH   8   9
ENDBRANCH   4   8
BRANCH   5  11
HETATM   11  O9  UNL     1       1.135   7.314  85.653  1.00  0.00    -0.390 OA
ATOM     12  H9  UNL     1       0.217   7.077  85.717  1.00  0.00     0.210 HD
ENDBRANCH   5  11
BRANCH   6  13
HETATM   13  O8  UNL     1       3.478   8.305  85.817  1.00  0.00    -0.390 OA
ATOM     14  H8  UNL     1       3.071   7.813  85.113  1.00  0.00     0.210 HD
ENDBRANCH   6  13
BRANCH   7  15
HETATM   15  O7  UNL     1       5.105   8.179  87.817  1.00  0.00    -0.388 OA
ATOM     16  H7  UNL     1       4.862   9.038  87.493  1.00  0.00     0.210 HD
ENDBRANCH   7  15
ENDBRANCH   1   2
BRANCH   1  17
HETATM   17  C4  UNL     1       5.500   5.405  89.349  1.00  0.00     0.151 C 
HETATM   18  C5  UNL     1       4.943   5.063  90.702  1.00  0.00     0.203 C 
HETATM   19  O4  UNL     1       5.882   5.063  91.710  1.00  0.00    -0.356 OA
HETATM   20  C6  UNL     1       6.828   4.109  91.433  1.00  0.00     0.288 C 
HETATM   21  C13 UNL     1       7.705   4.674  90.307  1.00  0.00     0.175 C 
HETATM   22  C14 UNL     1       6.831   4.718  89.079  1.00  0.00     0.071 C 
BRANCH  20  23
HETATM   23  O5  UNL     1       7.615   3.738  92.489  1.00  0.00    -0.353 OA
BRANCH  23  24
HETATM   24  C7  UNL     1       6.892   3.240  93.570  1.00  0.00     0.124 C 
HETATM   25  C8  UNL     1       6.009   2.085  93.194  1.00  0.00     0.032 C 
HETATM   26  C9  UNL     1       6.752   0.841  92.836  1.00  0.00     0.002 C 
HETATM   27  C10 UNL     1       8.236   0.939  93.080  1.00  0.00     0.000 C 
HETATM   28  C11 UNL     1       8.446   1.480  94.461  1.00  0.00     0.002 C 
HETATM   29  C12 UNL     1       7.891   2.861  94.642  1.00  0.00     0.032 C 
ENDBRANCH  23  24
ENDBRANCH  20  23
BRANCH  21  30
HETATM   30  O6  UNL     1       8.114   5.960  90.594  1.00  0.00    -0.391 OA
ATOM     31  H6  UNL     1       8.390   6.415  89.807  1.00  0.00     0.210 HD
ENDBRANCH  21  30
ENDBRANCH   1  17
TORSDOF 10
ENDMDL
