MODEL 1
REMARK VINA RESULT: -6.477097065      0.000      0.000
REMARK  6 active torsions:
REMARK  status: ('A' for Active; 'I' for Inactive)
REMARK    1  A    between atoms: N1_2  and  C3_4 
REMARK    2  A    between atoms: N2_7  and  C6_8 
REMARK    3  A    between atoms: C6_8  and  C7_9 
REMARK    4  A    between atoms: C7_9  and  O1_10 
REMARK    5  A    between atoms: C7_9  and  C8_12 
REMARK    6  A    between atoms: C8_12  and  N3_13 
ROOT
HETATM    1  C7  UNL     1       2.911  15.853  57.165  1.00  0.00     0.164 C 
ENDROOT
BRANCH   1   2
HETATM    2  C6  UNL     1       2.658  17.324  57.396  1.00  0.00     0.305 C 
BRANCH   2   3
HETATM    3  N2  UNL     1       1.594  17.788  56.514  1.00  0.00     0.093 N 
HETATM    4  C5  UNL     1       1.464  19.222  56.634  1.00  0.00     0.275 C 
HETATM    5  C4  UNL     1      -0.000  19.535  56.858  1.00  0.00     0.068 C 
HETATM    6  C3  UNL     1      -0.649  18.251  56.407  1.00  0.00     0.252 C 
HETATM    7  C14 UNL     1       0.316  17.224  56.911  1.00  0.00     0.308 C 
BRANCH   6   8
HETATM    8  N1  UNL     1      -1.990  18.082  56.835  1.00  0.00     0.086 N 
HETATM    9  C1  UNL     1      -2.028  17.990  58.279  1.00  0.00     0.310 C 
HETATM   10  C2  UNL     1      -2.737  17.059  56.180  1.00  0.00     0.310 C 
ENDBRANCH   6   8
ENDBRANCH   2   3
ENDBRANCH   1   2
BRANCH   1  11
HETATM   11  O1  UNL     1       2.912  15.204  58.396  1.00  0.00    -0.392 OA
ATOM     12  H1  UNL     1       3.583  15.594  58.943  1.00  0.00     0.210 HD
ENDBRANCH   1  11
BRANCH   1  13
HETATM   13  C8  UNL     1       4.185  15.606  56.411  1.00  0.00     0.150 C 
BRANCH  13  14
HETATM   14  N3  UNL     1       4.106  14.548  55.465  1.00  0.00    -0.410 N 
HETATM   15  C9  UNL     1       2.874  14.445  54.757  1.00  0.00     0.117 C 
HETATM   16  C10 UNL     1       2.830  13.123  54.008  1.00  0.00     0.019 C 
HETATM   17  C11 UNL     1       4.233  12.915  53.440  1.00  0.00     0.003 C 
HETATM   18  C12 UNL     1       5.121  12.565  54.594  1.00  0.00     0.019 C 
HETATM   19  C13 UNL     1       4.701  13.310  55.847  1.00  0.00     0.117 C 
ENDBRANCH  13  14
ENDBRANCH   1  13
TORSDOF 6
ENDMDL
MODEL 2
REMARK VINA RESULT: -6.443141227      4.287      6.974
REMARK  6 active torsions:
REMARK  status: ('A' for Active; 'I' for Inactive)
REMARK    1  A    between atoms: N1_2  and  C3_4 
REMARK    2  A    between atoms: N2_7  and  C6_8 
REMARK    3  A    between atoms: C6_8  and  C7_9 
REMARK    4  A    between atoms: C7_9  and  O1_10 
REMARK    5  A    between atoms: C7_9  and  C8_12 
REMARK    6  A    between atoms: C8_12  and  N3_13 
ROOT
HETATM    1  C7  UNL     1       4.309  14.125  58.325  1.00  0.00     0.164 C 
ENDROOT
BRANCH   1   2
HETATM    2  C6  UNL     1       5.410  14.631  59.226  1.00  0.00     0.305 C 
BRANCH   2   3
HETATM    3  N2  UNL     1       6.691  14.558  58.534  1.00  0.00     0.093 N 
HETATM    4  C5  UNL     1       7.700  14.068  59.443  1.00  0.00     0.275 C 
HETATM    5  C4  UNL     1       8.887  15.005  59.364  1.00  0.00     0.068 C 
HETATM    6  C3  UNL     1       8.610  15.723  58.067  1.00  0.00     0.252 C 
HETATM    7  C14 UNL     1       7.123  15.880  58.112  1.00  0.00     0.308 C 
BRANCH   6   8
HETATM    8  N1  UNL     1       9.340  16.925  57.888  1.00  0.00     0.086 N 
HETATM    9  C1  UNL     1       9.470  17.205  56.474  1.00  0.00     0.310 C 
HETATM   10  C2  UNL     1      10.570  17.028  58.603  1.00  0.00     0.310 C 
ENDBRANCH   6   8
ENDBRANCH   2   3
ENDBRANCH   1   2
BRANCH   1  11
HETATM   11  O1  UNL     1       3.259  13.673  59.118  1.00  0.00    -0.392 OA
ATOM     12  H1  UNL     1       2.442  13.844  58.665  1.00  0.00     0.210 HD
ENDBRANCH   1  11
BRANCH   1  13
HETATM   13  C8  UNL     1       4.789  13.057  57.385  1.00  0.00     0.150 C 
BRANCH  13  14
HETATM   14  N3  UNL     1       4.327  13.207  56.049  1.00  0.00    -0.410 N 
HETATM   15  C9  UNL     1       5.125  12.580  55.048  1.00  0.00     0.117 C 
HETATM   16  C10 UNL     1       4.681  13.057  53.675  1.00  0.00     0.019 C 
HETATM   17  C11 UNL     1       3.155  13.120  53.725  1.00  0.00     0.003 C 
HETATM   18  C12 UNL     1       2.797  14.301  54.573  1.00  0.00     0.019 C 
HETATM   19  C13 UNL     1       3.796  14.483  55.701  1.00  0.00     0.117 C 
ENDBRANCH  13  14
ENDBRANCH   1  13
TORSDOF 6
ENDMDL
MODEL 3
REMARK VINA RESULT: -6.437743480      4.818      8.231
REMARK  6 active torsions:
REMARK  status: ('A' for Active; 'I' for Inactive)
REMARK    1  A    between atoms: N1_2  and  C3_4 
REMARK    2  A    between atoms: N2_7  and  C6_8 
REMARK    3  A    between atoms: C6_8  and  C7_9 
REMARK    4  A    between atoms: C7_9  and  O1_10 
REMARK    5  A    between atoms: C7_9  and  C8_12 
REMARK    6  A    between atoms: C8_12  and  N3_13 
ROOT
HETATM    1  C7  UNL     1       5.315  15.393  56.768  1.00  0.00     0.164 C 
ENDROOT
BRANCH   1   2
HETATM    2  C6  UNL     1       6.192  16.050  57.808  1.00  0.00     0.305 C 
BRANCH   2   3
HETATM    3  N2  UNL     1       7.543  15.507  57.731  1.00  0.00     0.093 N 
HETATM    4  C5  UNL     1       7.763  14.611  58.842  1.00  0.00     0.275 C 
HETATM    5  C4  UNL     1       9.071  15.000  59.497  1.00  0.00     0.068 C 
HETATM    6  C3  UNL     1       9.708  15.832  58.412  1.00  0.00     0.252 C 
HETATM    7  C14 UNL     1       8.530  16.566  57.854  1.00  0.00     0.308 C 
BRANCH   6   8
HETATM    8  N1  UNL     1      10.781  16.650  58.846  1.00  0.00     0.086 N 
HETATM    9  C1  UNL     1      11.906  16.488  57.949  1.00  0.00     0.310 C 
HETATM   10  C2  UNL     1      11.134  16.550  60.224  1.00  0.00     0.310 C 
ENDBRANCH   6   8
ENDBRANCH   2   3
ENDBRANCH   1   2
BRANCH   1  11
HETATM   11  O1  UNL     1       5.263  16.216  55.648  1.00  0.00    -0.392 OA
ATOM     12  H1  UNL     1       6.062  16.098  55.148  1.00  0.00     0.210 HD
ENDBRANCH   1  11
BRANCH   1  13
HETATM   13  C8  UNL     1       3.943  15.088  57.293  1.00  0.00     0.150 C 
BRANCH  13  14
HETATM   14  N3  UNL     1       3.910  14.736  58.670  1.00  0.00    -0.410 N 
HETATM   15  C9  UNL     1       3.951  13.339  58.949  1.00  0.00     0.117 C 
HETATM   16  C10 UNL     1       3.624  13.107  60.416  1.00  0.00     0.019 C 
HETATM   17  C11 UNL     1       4.337  14.218  61.186  1.00  0.00     0.003 C 
HETATM   18  C12 UNL     1       3.586  15.484  60.918  1.00  0.00     0.019 C 
HETATM   19  C13 UNL     1       3.044  15.505  59.501  1.00  0.00     0.117 C 
ENDBRANCH  13  14
ENDBRANCH   1  13
TORSDOF 6
ENDMDL
MODEL 4
REMARK VINA RESULT: -6.425025313      2.591      3.673
REMARK  6 active torsions:
REMARK  status: ('A' for Active; 'I' for Inactive)
REMARK    1  A    between atoms: N1_2  and  C3_4 
REMARK    2  A    between atoms: N2_7  and  C6_8 
REMARK    3  A    between atoms: C6_8  and  C7_9 
REMARK    4  A    between atoms: C7_9  and  O1_10 
REMARK    5  A    between atoms: C7_9  and  C8_12 
REMARK    6  A    between atoms: C8_12  and  N3_13 
ROOT
HETATM    1  C7  UNL     1       4.418  15.928  56.145  1.00  0.00     0.164 C 
ENDROOT
BRANCH   1   2
HETATM    2  C6  UNL     1       2.930  15.669  56.191  1.00  0.00     0.305 C 
BRANCH   2   3
HETATM    3  N2  UNL     1       2.247  16.812  56.786  1.00  0.00     0.093 N 
HETATM    4  C5  UNL     1       2.546  16.867  58.198  1.00  0.00     0.275 C 
HETATM    5  C4  UNL     1       1.236  17.013  58.942  1.00  0.00     0.068 C 
HETATM    6  C3  UNL     1       0.318  17.471  57.836  1.00  0.00     0.252 C 
HETATM    7  C14 UNL     1       0.806  16.662  56.675  1.00  0.00     0.308 C 
BRANCH   6   8
HETATM    8  N1  UNL     1      -1.064  17.345  58.123  1.00  0.00     0.086 N 
HETATM    9  C1  UNL     1      -1.766  18.516  57.640  1.00  0.00     0.310 C 
HETATM   10  C2  UNL     1      -1.401  16.993  59.463  1.00  0.00     0.310 C 
ENDBRANCH   6   8
ENDBRANCH   2   3
ENDBRANCH   1   2
BRANCH   1  11
HETATM   11  O1  UNL     1       4.719  16.571  54.949  1.00  0.00    -0.392 OA
ATOM     12  H1  UNL     1       5.631  16.838  54.970  1.00  0.00     0.210 HD
ENDBRANCH   1  11
BRANCH   1  13
HETATM   13  C8  UNL     1       5.219  14.671  56.313  1.00  0.00     0.150 C 
BRANCH  13  14
HETATM   14  N3  UNL     1       6.057  14.662  57.461  1.00  0.00    -0.410 N 
HETATM   15  C9  UNL     1       5.425  14.283  58.681  1.00  0.00     0.117 C 
HETATM   16  C10 UNL     1       6.350  14.593  59.847  1.00  0.00     0.019 C 
HETATM   17  C11 UNL     1       7.754  14.208  59.384  1.00  0.00     0.003 C 
HETATM   18  C12 UNL     1       8.182  15.243  58.391  1.00  0.00     0.019 C 
HETATM   19  C13 UNL     1       7.004  15.722  57.563  1.00  0.00     0.117 C 
ENDBRANCH  13  14
ENDBRANCH   1  13
TORSDOF 6
ENDMDL
MODEL 5
REMARK VINA RESULT: -6.403217776      2.831      3.687
REMARK  6 active torsions:
REMARK  status: ('A' for Active; 'I' for Inactive)
REMARK    1  A    between atoms: N1_2  and  C3_4 
REMARK    2  A    between atoms: N2_7  and  C6_8 
REMARK    3  A    between atoms: C6_8  and  C7_9 
REMARK    4  A    between atoms: C7_9  and  O1_10 
REMARK    5  A    between atoms: C7_9  and  C8_12 
REMARK    6  A    between atoms: C8_12  and  N3_13 
ROOT
HETATM    1  C7  UNL     1       3.802  15.685  58.474  1.00  0.00     0.164 C 
ENDROOT
BRANCH   1   2
HETATM    2  C6  UNL     1       3.028  16.887  57.987  1.00  0.00     0.305 C 
BRANCH   2   3
HETATM    3  N2  UNL     1       1.936  16.455  57.123  1.00  0.00     0.093 N 
HETATM    4  C5  UNL     1       2.199  16.883  55.768  1.00  0.00     0.275 C 
HETATM    5  C4  UNL     1       0.956  17.575  55.252  1.00  0.00     0.068 C 
HETATM    6  C3  UNL     1      -0.081  17.089  56.235  1.00  0.00     0.252 C 
HETATM    7  C14 UNL     1       0.688  17.086  57.518  1.00  0.00     0.308 C 
BRANCH   6   8
HETATM    8  N1  UNL     1      -1.280  17.844  56.250  1.00  0.00     0.086 N 
HETATM    9  C1  UNL     1      -1.214  18.834  57.304  1.00  0.00     0.310 C 
HETATM   10  C2  UNL     1      -2.496  17.097  56.249  1.00  0.00     0.310 C 
ENDBRANCH   6   8
ENDBRANCH   2   3
ENDBRANCH   1   2
BRANCH   1  11
HETATM   11  O1  UNL     1       2.898  14.719  58.905  1.00  0.00    -0.392 OA
ATOM     12  H1  UNL     1       2.559  14.261  58.145  1.00  0.00     0.210 HD
ENDBRANCH   1  11
BRANCH   1  13
HETATM   13  C8  UNL     1       4.784  16.040  59.552  1.00  0.00     0.150 C 
BRANCH  13  14
HETATM   14  N3  UNL     1       6.095  15.532  59.336  1.00  0.00    -0.410 N 
HETATM   15  C9  UNL     1       6.765  16.031  58.182  1.00  0.00     0.117 C 
HETATM   16  C10 UNL     1       8.014  15.201  57.925  1.00  0.00     0.019 C 
HETATM   17  C11 UNL     1       8.628  14.931  59.297  1.00  0.00     0.003 C 
HETATM   18  C12 UNL     1       7.749  13.929  59.977  1.00  0.00     0.019 C 
HETATM   19  C13 UNL     1       6.292  14.148  59.613  1.00  0.00     0.117 C 
ENDBRANCH  13  14
ENDBRANCH   1  13
TORSDOF 6
ENDMDL
