MODEL 1
REMARK VINA RESULT: -6.207658917      0.000      0.000
REMARK  6 active torsions:
REMARK  status: ('A' for Active; 'I' for Inactive)
REMARK    1  A    between atoms: S1_2  and  C2_3 
REMARK    2  A    between atoms: S1_2  and  N1_12 
REMARK    3  A    between atoms: C2_3  and  C3_4 
REMARK    4  A    between atoms: C3_4  and  O1_5 
REMARK    5  A    between atoms: C3_4  and  C4_7 
REMARK    6  A    between atoms: C4_7  and  C5_8 
ROOT
HETATM    1  C2  UNL     1       2.234  16.905  59.384  1.00  0.00     0.116 C 
ENDROOT
BRANCH   1   2
HETATM    2  S1  UNL     1       2.561  17.409  57.670  1.00  0.00    -0.132 SA
HETATM    3  C1  UNL     1       3.383  16.023  56.925  1.00  0.00     0.101 C 
BRANCH   2   4
HETATM    4  N1  UNL     1       1.069  17.759  56.947  1.00  0.00    -0.361 N 
HETATM    5  C9  UNL     1       1.110  18.723  55.897  1.00  0.00     0.156 C 
HETATM    6  C10 UNL     1       0.494  20.050  56.291  1.00  0.00     0.188 C 
HETATM    7  O2  UNL     1      -0.729  19.923  56.902  1.00  0.00    -0.388 OA
HETATM    8  C11 UNL     1      -1.142  18.631  57.113  1.00  0.00     0.188 C 
HETATM    9  C12 UNL     1      -0.032  17.874  57.842  1.00  0.00     0.156 C 
ENDBRANCH   2   4
ENDBRANCH   1   2
BRANCH   1  10
HETATM   10  C3  UNL     1       3.594  16.692  59.984  1.00  0.00     0.129 C 
BRANCH  10  11
HETATM   11  O1  UNL     1       3.926  17.881  60.672  1.00  0.00    -0.395 OA
ATOM     12  H1  UNL     1       3.907  17.675  61.599  1.00  0.00     0.210 HD
ENDBRANCH  10  11
BRANCH  10  13
HETATM   13  C4  UNL     1       3.614  15.546  60.921  1.00  0.00     0.040 C 
BRANCH  13  14
HETATM   14  C5  UNL     1       4.410  14.349  60.597  1.00  0.00    -0.049 C 
HETATM   15  C6  UNL     1       3.741  13.416  59.603  1.00  0.00     0.014 C 
HETATM   16  C7  UNL     1       5.655  14.918  59.818  1.00  0.00     0.014 C 
HETATM   17  C8  UNL     1       4.981  13.596  61.733  1.00  0.00     0.014 C 
ENDBRANCH  13  14
ENDBRANCH  10  13
ENDBRANCH   1  10
TORSDOF 6
ENDMDL
MODEL 2
REMARK VINA RESULT: -6.194371742      0.102      1.055
REMARK  6 active torsions:
REMARK  status: ('A' for Active; 'I' for Inactive)
REMARK    1  A    between atoms: S1_2  and  C2_3 
REMARK    2  A    between atoms: S1_2  and  N1_12 
REMARK    3  A    between atoms: C2_3  and  C3_4 
REMARK    4  A    between atoms: C3_4  and  O1_5 
REMARK    5  A    between atoms: C3_4  and  C4_7 
REMARK    6  A    between atoms: C4_7  and  C5_8 
ROOT
HETATM    1  C2  UNL     1       2.264  17.018  59.353  1.00  0.00     0.116 C 
ENDROOT
BRANCH   1   2
HETATM    2  S1  UNL     1       2.567  17.450  57.615  1.00  0.00    -0.132 SA
HETATM    3  C1  UNL     1       3.351  16.023  56.909  1.00  0.00     0.101 C 
BRANCH   2   4
HETATM    4  N1  UNL     1       1.067  17.798  56.907  1.00  0.00    -0.361 N 
HETATM    5  C9  UNL     1       1.094  18.773  55.867  1.00  0.00     0.156 C 
HETATM    6  C10 UNL     1       0.472  20.091  56.279  1.00  0.00     0.188 C 
HETATM    7  O2  UNL     1      -0.745  19.950  56.898  1.00  0.00    -0.388 OA
HETATM    8  C11 UNL     1      -1.148  18.654  57.099  1.00  0.00     0.188 C 
HETATM    9  C12 UNL     1      -0.028  17.896  57.812  1.00  0.00     0.156 C 
ENDBRANCH   2   4
ENDBRANCH   1   2
BRANCH   1  10
HETATM   10  C3  UNL     1       3.629  16.750  59.921  1.00  0.00     0.129 C 
BRANCH  10  11
HETATM   11  O1  UNL     1       3.989  17.893  60.670  1.00  0.00    -0.395 OA
ATOM     12  H1  UNL     1       4.914  18.043  60.513  1.00  0.00     0.210 HD
ENDBRANCH  10  11
BRANCH  10  13
HETATM   13  C4  UNL     1       3.642  15.553  60.792  1.00  0.00     0.040 C 
BRANCH  13  14
HETATM   14  C5  UNL     1       4.597  14.463  60.523  1.00  0.00    -0.049 C 
HETATM   15  C6  UNL     1       4.938  13.629  61.745  1.00  0.00     0.014 C 
HETATM   16  C7  UNL     1       3.800  13.478  59.589  1.00  0.00     0.014 C 
HETATM   17  C8  UNL     1       5.815  14.812  59.761  1.00  0.00     0.014 C 
ENDBRANCH  13  14
ENDBRANCH  10  13
ENDBRANCH   1  10
TORSDOF 6
ENDMDL
MODEL 3
REMARK VINA RESULT: -6.014270985      2.232      5.714
REMARK  6 active torsions:
REMARK  status: ('A' for Active; 'I' for Inactive)
REMARK    1  A    between atoms: S1_2  and  C2_3 
REMARK    2  A    between atoms: S1_2  and  N1_12 
REMARK    3  A    between atoms: C2_3  and  C3_4 
REMARK    4  A    between atoms: C3_4  and  O1_5 
REMARK    5  A    between atoms: C3_4  and  C4_7 
REMARK    6  A    between atoms: C4_7  and  C5_8 
ROOT
HETATM    1  C2  UNL     1       2.230  17.871  55.481  1.00  0.00     0.116 C 
ENDROOT
BRANCH   1   2
HETATM    2  S1  UNL     1       2.551  16.454  56.570  1.00  0.00    -0.132 SA
HETATM    3  C1  UNL     1       3.684  15.423  55.672  1.00  0.00     0.101 C 
BRANCH   2   4
HETATM    4  N1  UNL     1       3.207  17.055  58.012  1.00  0.00    -0.361 N 
HETATM    5  C9  UNL     1       3.382  16.095  59.051  1.00  0.00     0.156 C 
HETATM    6  C10 UNL     1       2.397  16.269  60.188  1.00  0.00     0.188 C 
HETATM    7  O2  UNL     1       2.291  17.568  60.623  1.00  0.00    -0.388 OA
HETATM    8  C11 UNL     1       3.031  18.480  59.914  1.00  0.00     0.188 C 
HETATM    9  C12 UNL     1       2.710  18.324  58.428  1.00  0.00     0.156 C 
ENDBRANCH   2   4
ENDBRANCH   1   2
BRANCH   1  10
HETATM   10  C3  UNL     1       0.754  17.816  55.210  1.00  0.00     0.129 C 
BRANCH  10  11
HETATM   11  O1  UNL     1       0.601  17.339  53.888  1.00  0.00    -0.395 OA
ATOM     12  H1  UNL     1      -0.214  16.852  53.866  1.00  0.00     0.210 HD
ENDBRANCH  10  11
BRANCH  10  13
HETATM   13  C4  UNL     1       0.050  16.918  56.153  1.00  0.00     0.040 C 
BRANCH  13  14
HETATM   14  C5  UNL     1      -1.054  17.442  56.976  1.00  0.00    -0.049 C 
HETATM   15  C6  UNL     1      -0.978  17.037  58.438  1.00  0.00     0.014 C 
HETATM   16  C7  UNL     1      -0.814  18.998  56.991  1.00  0.00     0.014 C 
HETATM   17  C8  UNL     1      -2.424  17.271  56.448  1.00  0.00     0.014 C 
ENDBRANCH  13  14
ENDBRANCH  10  13
ENDBRANCH   1  10
TORSDOF 6
ENDMDL
MODEL 4
REMARK VINA RESULT: -5.906471182      4.579      5.421
REMARK  6 active torsions:
REMARK  status: ('A' for Active; 'I' for Inactive)
REMARK    1  A    between atoms: S1_2  and  C2_3 
REMARK    2  A    between atoms: S1_2  and  N1_12 
REMARK    3  A    between atoms: C2_3  and  C3_4 
REMARK    4  A    between atoms: C3_4  and  O1_5 
REMARK    5  A    between atoms: C3_4  and  C4_7 
REMARK    6  A    between atoms: C4_7  and  C5_8 
ROOT
HETATM    1  C2  UNL     1       4.665  12.665  57.658  1.00  0.00     0.116 C 
ENDROOT
BRANCH   1   2
HETATM    2  S1  UNL     1       4.368  14.292  56.908  1.00  0.00    -0.132 SA
HETATM    3  C1  UNL     1       5.755  15.288  57.393  1.00  0.00     0.101 C 
BRANCH   2   4
HETATM    4  N1  UNL     1       4.268  14.070  55.232  1.00  0.00    -0.361 N 
HETATM    5  C9  UNL     1       2.975  14.273  54.665  1.00  0.00     0.156 C 
HETATM    6  C10 UNL     1       2.318  12.983  54.219  1.00  0.00     0.188 C 
HETATM    7  O2  UNL     1       3.146  12.177  53.478  1.00  0.00    -0.388 OA
HETATM    8  C11 UNL     1       4.430  12.640  53.333  1.00  0.00     0.188 C 
HETATM    9  C12 UNL     1       4.996  12.960  54.716  1.00  0.00     0.156 C 
ENDBRANCH   2   4
ENDBRANCH   1   2
BRANCH   1  10
HETATM   10  C3  UNL     1       3.986  12.734  58.997  1.00  0.00     0.129 C 
BRANCH  10  11
HETATM   11  O1  UNL     1       2.838  11.913  58.914  1.00  0.00    -0.395 OA
ATOM     12  H1  UNL     1       2.095  12.493  58.801  1.00  0.00     0.210 HD
ENDBRANCH  10  11
BRANCH  10  13
HETATM   13  C4  UNL     1       4.866  12.260  60.090  1.00  0.00     0.040 C 
BRANCH  13  14
HETATM   14  C5  UNL     1       5.387  13.221  61.078  1.00  0.00    -0.049 C 
HETATM   15  C6  UNL     1       6.719  13.839  60.691  1.00  0.00     0.014 C 
HETATM   16  C7  UNL     1       4.370  14.421  61.017  1.00  0.00     0.014 C 
HETATM   17  C8  UNL     1       5.390  12.793  62.492  1.00  0.00     0.014 C 
ENDBRANCH  13  14
ENDBRANCH  10  13
ENDBRANCH   1  10
TORSDOF 6
ENDMDL
MODEL 5
REMARK VINA RESULT: -5.817964174      3.716      6.401
REMARK  6 active torsions:
REMARK  status: ('A' for Active; 'I' for Inactive)
REMARK    1  A    between atoms: S1_2  and  C2_3 
REMARK    2  A    between atoms: S1_2  and  N1_12 
REMARK    3  A    between atoms: C2_3  and  C3_4 
REMARK    4  A    between atoms: C3_4  and  O1_5 
REMARK    5  A    between atoms: C3_4  and  C4_7 
REMARK    6  A    between atoms: C4_7  and  C5_8 
ROOT
HETATM    1  C2  UNL     1       3.103  16.350  57.201  1.00  0.00     0.116 C 
ENDROOT
BRANCH   1   2
HETATM    2  S1  UNL     1       4.241  15.700  55.944  1.00  0.00    -0.132 SA
HETATM    3  C1  UNL     1       5.834  15.672  56.728  1.00  0.00     0.101 C 
BRANCH   2   4
HETATM    4  N1  UNL     1       3.693  14.157  55.508  1.00  0.00    -0.361 N 
HETATM    5  C9  UNL     1       4.665  13.118  55.589  1.00  0.00     0.156 C 
HETATM    6  C10 UNL     1       5.120  12.628  54.230  1.00  0.00     0.188 C 
HETATM    7  O2  UNL     1       4.083  12.373  53.367  1.00  0.00    -0.388 OA
HETATM    8  C11 UNL     1       2.835  12.671  53.855  1.00  0.00     0.188 C 
HETATM    9  C12 UNL     1       2.839  14.111  54.369  1.00  0.00     0.156 C 
ENDBRANCH   2   4
ENDBRANCH   1   2
BRANCH   1  10
HETATM   10  C3  UNL     1       2.238  17.330  56.460  1.00  0.00     0.129 C 
BRANCH  10  11
HETATM   11  O1  UNL     1       2.882  17.592  55.230  1.00  0.00    -0.395 OA
ATOM     12  H1  UNL     1       2.281  18.114  54.712  1.00  0.00     0.210 HD
ENDBRANCH  10  11
BRANCH  10  13
HETATM   13  C4  UNL     1       0.880  16.795  56.213  1.00  0.00     0.040 C 
BRANCH  13  14
HETATM   14  C5  UNL     1      -0.283  17.417  56.871  1.00  0.00    -0.049 C 
HETATM   15  C6  UNL     1      -0.334  17.192  58.372  1.00  0.00     0.014 C 
HETATM   16  C7  UNL     1      -0.026  18.963  56.718  1.00  0.00     0.014 C 
HETATM   17  C8  UNL     1      -1.605  17.186  56.253  1.00  0.00     0.014 C 
ENDBRANCH  13  14
ENDBRANCH  10  13
ENDBRANCH   1  10
TORSDOF 6
ENDMDL
