MODEL 1
REMARK VINA RESULT: -6.436177929      0.000      0.000
REMARK  6 active torsions:
REMARK  status: ('A' for Active; 'I' for Inactive)
REMARK    1  A    between atoms: N1_2  and  C2_3 
REMARK    2  A    between atoms: N1_2  and  C6_7 
REMARK    3  A    between atoms: C2_3  and  C3_4 
REMARK    4  A    between atoms: C6_7  and  C7_8 
REMARK    5  A    between atoms: C7_8  and  O1_9 
REMARK    6  A    between atoms: C7_8  and  C8_11 
ROOT
HETATM    1  C7  UNL     1       2.948  16.362  55.978  1.00  0.00     0.140 C 
ENDROOT
BRANCH   1   2
HETATM    2  C6  UNL     1       3.802  15.549  56.916  1.00  0.00     0.148 C 
BRANCH   2   3
HETATM    3  N1  UNL     1       4.749  14.721  56.264  1.00  0.00    -0.414 N 
HETATM    4  C1  UNL     1       6.113  14.923  56.580  1.00  0.00     0.143 C 
BRANCH   3   5
HETATM    5  C2  UNL     1       4.364  13.408  55.911  1.00  0.00     0.121 C 
BRANCH   5   6
HETATM    6  C3  UNL     1       4.931  13.054  54.554  1.00  0.00     0.003 A 
HETATM    7  C4  UNL     1       3.939  12.320  53.647  1.00  0.00     0.007 A 
HETATM    8  C5  UNL     1       4.363  13.689  53.335  1.00  0.00     0.007 A 
ENDBRANCH   5   6
ENDBRANCH   3   5
ENDBRANCH   2   3
ENDBRANCH   1   2
BRANCH   1   9
HETATM    9  O1  UNL     1       3.785  17.029  55.089  1.00  0.00    -0.394 OA
ATOM     10  H1  UNL     1       3.568  16.752  54.207  1.00  0.00     0.210 HD
ENDBRANCH   1   9
BRANCH   1  11
HETATM   11  C8  UNL     1       2.125  17.375  56.738  1.00  0.00     0.023 C 
HETATM   12  C9  UNL     1       1.862  18.573  55.847  1.00  0.00     0.038 C 
HETATM   13  C10 UNL     1       0.837  19.508  56.369  1.00  0.00     0.273 C 
HETATM   14  N2  UNL     1      -0.305  18.846  56.972  1.00  0.00     0.088 N 
HETATM   15  C11 UNL     1      -0.943  18.056  55.963  1.00  0.00     0.273 C 
HETATM   16  C14 UNL     1       0.100  17.899  57.980  1.00  0.00     0.277 C 
HETATM   17  C12 UNL     1      -0.171  16.773  55.952  1.00  0.00     0.037 C 
HETATM   18  C13 UNL     1       0.783  16.830  57.148  1.00  0.00     0.022 C 
ENDBRANCH   1  11
TORSDOF 6
ENDMDL
MODEL 2
REMARK VINA RESULT: -6.365534965      4.674      7.439
REMARK  6 active torsions:
REMARK  status: ('A' for Active; 'I' for Inactive)
REMARK    1  A    between atoms: N1_2  and  C2_3 
REMARK    2  A    between atoms: N1_2  and  C6_7 
REMARK    3  A    between atoms: C2_3  and  C3_4 
REMARK    4  A    between atoms: C6_7  and  C7_8 
REMARK    5  A    between atoms: C7_8  and  O1_9 
REMARK    6  A    between atoms: C7_8  and  C8_11 
ROOT
HETATM    1  C7  UNL     1       4.207  13.252  59.355  1.00  0.00     0.140 C 
ENDROOT
BRANCH   1   2
HETATM    2  C6  UNL     1       3.763  14.664  59.634  1.00  0.00     0.148 C 
BRANCH   2   3
HETATM    3  N1  UNL     1       4.475  15.648  58.904  1.00  0.00    -0.414 N 
HETATM    4  C1  UNL     1       4.707  16.887  59.546  1.00  0.00     0.143 C 
BRANCH   3   5
HETATM    5  C2  UNL     1       5.445  15.222  57.969  1.00  0.00     0.121 C 
BRANCH   5   6
HETATM    6  C3  UNL     1       6.729  15.995  58.174  1.00  0.00     0.003 A 
HETATM    7  C4  UNL     1       7.986  15.123  58.114  1.00  0.00     0.007 A 
HETATM    8  C5  UNL     1       7.705  16.100  57.057  1.00  0.00     0.007 A 
ENDBRANCH   5   6
ENDBRANCH   3   5
ENDBRANCH   2   3
ENDBRANCH   1   2
BRANCH   1   9
HETATM    9  O1  UNL     1       3.153  12.568  58.758  1.00  0.00    -0.394 OA
ATOM     10  H1  UNL     1       3.311  12.531  57.822  1.00  0.00     0.210 HD
ENDBRANCH   1   9
BRANCH   1  11
HETATM   11  C8  UNL     1       4.593  12.545  60.634  1.00  0.00     0.023 C 
HETATM   12  C9  UNL     1       5.494  11.372  60.302  1.00  0.00     0.038 C 
HETATM   13  C10 UNL     1       6.167  10.769  61.477  1.00  0.00     0.273 C 
HETATM   14  N2  UNL     1       6.647  11.743  62.439  1.00  0.00     0.088 N 
HETATM   15  C11 UNL     1       7.618  12.569  61.788  1.00  0.00     0.273 C 
HETATM   16  C14 UNL     1       5.603  12.650  62.844  1.00  0.00     0.277 C 
HETATM   17  C12 UNL     1       6.806  13.617  61.092  1.00  0.00     0.037 C 
HETATM   18  C13 UNL     1       5.363  13.438  61.570  1.00  0.00     0.022 C 
ENDBRANCH   1  11
TORSDOF 6
ENDMDL
MODEL 3
REMARK VINA RESULT: -6.347497168      1.857      2.992
REMARK  6 active torsions:
REMARK  status: ('A' for Active; 'I' for Inactive)
REMARK    1  A    between atoms: N1_2  and  C2_3 
REMARK    2  A    between atoms: N1_2  and  C6_7 
REMARK    3  A    between atoms: C2_3  and  C3_4 
REMARK    4  A    between atoms: C6_7  and  C7_8 
REMARK    5  A    between atoms: C7_8  and  O1_9 
REMARK    6  A    between atoms: C7_8  and  C8_11 
ROOT
HETATM    1  C7  UNL     1       2.684  15.930  55.679  1.00  0.00     0.140 C 
ENDROOT
BRANCH   1   2
HETATM    2  C6  UNL     1       4.188  15.922  55.595  1.00  0.00     0.148 C 
BRANCH   2   3
HETATM    3  N1  UNL     1       4.829  15.450  56.768  1.00  0.00    -0.414 N 
HETATM    4  C1  UNL     1       4.038  14.722  57.688  1.00  0.00     0.143 C 
BRANCH   3   5
HETATM    5  C2  UNL     1       6.199  15.114  56.697  1.00  0.00     0.121 C 
BRANCH   5   6
HETATM    6  C3  UNL     1       6.966  15.858  57.767  1.00  0.00     0.003 A 
HETATM    7  C4  UNL     1       8.068  15.023  58.425  1.00  0.00     0.007 A 
HETATM    8  C5  UNL     1       8.408  16.158  57.559  1.00  0.00     0.007 A 
ENDBRANCH   5   6
ENDBRANCH   3   5
ENDBRANCH   2   3
ENDBRANCH   1   2
BRANCH   1   9
HETATM    9  O1  UNL     1       2.177  15.306  54.544  1.00  0.00    -0.394 OA
ATOM     10  H1  UNL     1       2.334  15.870  53.796  1.00  0.00     0.210 HD
ENDBRANCH   1   9
BRANCH   1  11
HETATM   11  C8  UNL     1       2.154  17.343  55.744  1.00  0.00     0.023 C 
HETATM   12  C9  UNL     1       0.802  17.402  55.060  1.00  0.00     0.038 C 
HETATM   13  C10 UNL     1       0.052  18.657  55.298  1.00  0.00     0.273 C 
HETATM   14  N2  UNL     1       0.145  19.144  56.662  1.00  0.00     0.088 N 
HETATM   15  C11 UNL     1      -0.424  18.154  57.526  1.00  0.00     0.273 C 
HETATM   16  C14 UNL     1       1.515  19.265  57.092  1.00  0.00     0.277 C 
HETATM   17  C12 UNL     1       0.692  17.186  57.767  1.00  0.00     0.037 C 
HETATM   18  C13 UNL     1       1.950  17.813  57.160  1.00  0.00     0.022 C 
ENDBRANCH   1  11
TORSDOF 6
ENDMDL
MODEL 4
REMARK VINA RESULT: -6.343032432      1.443      2.117
REMARK  6 active torsions:
REMARK  status: ('A' for Active; 'I' for Inactive)
REMARK    1  A    between atoms: N1_2  and  C2_3 
REMARK    2  A    between atoms: N1_2  and  C6_7 
REMARK    3  A    between atoms: C2_3  and  C3_4 
REMARK    4  A    between atoms: C6_7  and  C7_8 
REMARK    5  A    between atoms: C7_8  and  O1_9 
REMARK    6  A    between atoms: C7_8  and  C8_11 
ROOT
HETATM    1  C7  UNL     1       2.800  16.363  57.620  1.00  0.00     0.140 C 
ENDROOT
BRANCH   1   2
HETATM    2  C6  UNL     1       3.638  15.191  57.180  1.00  0.00     0.148 C 
BRANCH   2   3
HETATM    3  N1  UNL     1       4.707  15.538  56.316  1.00  0.00    -0.414 N 
HETATM    4  C1  UNL     1       6.006  15.573  56.876  1.00  0.00     0.143 C 
BRANCH   3   5
HETATM    5  C2  UNL     1       4.610  15.187  54.951  1.00  0.00     0.121 C 
BRANCH   5   6
HETATM    6  C3  UNL     1       4.061  13.784  54.819  1.00  0.00     0.003 A 
HETATM    7  C4  UNL     1       4.205  13.199  53.411  1.00  0.00     0.007 A 
HETATM    8  C5  UNL     1       4.989  12.660  54.528  1.00  0.00     0.007 A 
ENDBRANCH   5   6
ENDBRANCH   3   5
ENDBRANCH   2   3
ENDBRANCH   1   2
BRANCH   1   9
HETATM    9  O1  UNL     1       2.266  16.076  58.872  1.00  0.00    -0.394 OA
ATOM     10  H1  UNL     1       2.785  16.526  59.529  1.00  0.00     0.210 HD
ENDBRANCH   1   9
BRANCH   1  11
HETATM   11  C8  UNL     1       1.671  16.614  56.647  1.00  0.00     0.023 C 
HETATM   12  C9  UNL     1       0.413  16.957  57.421  1.00  0.00     0.038 C 
HETATM   13  C10 UNL     1      -0.687  17.497  56.588  1.00  0.00     0.273 C 
HETATM   14  N2  UNL     1      -0.244  18.426  55.566  1.00  0.00     0.088 N 
HETATM   15  C11 UNL     1       0.366  19.545  56.217  1.00  0.00     0.273 C 
HETATM   16  C14 UNL     1       0.800  17.860  54.749  1.00  0.00     0.277 C 
HETATM   17  C12 UNL     1       1.776  19.106  56.466  1.00  0.00     0.037 C 
HETATM   18  C13 UNL     1       1.953  17.775  55.731  1.00  0.00     0.022 C 
ENDBRANCH   1  11
TORSDOF 6
ENDMDL
MODEL 5
REMARK VINA RESULT: -6.278061819      2.053      3.376
REMARK  6 active torsions:
REMARK  status: ('A' for Active; 'I' for Inactive)
REMARK    1  A    between atoms: N1_2  and  C2_3 
REMARK    2  A    between atoms: N1_2  and  C6_7 
REMARK    3  A    between atoms: C2_3  and  C3_4 
REMARK    4  A    between atoms: C6_7  and  C7_8 
REMARK    5  A    between atoms: C7_8  and  O1_9 
REMARK    6  A    between atoms: C7_8  and  C8_11 
ROOT
HETATM    1  C7  UNL     1       2.866  16.384  57.518  1.00  0.00     0.140 C 
ENDROOT
BRANCH   1   2
HETATM    2  C6  UNL     1       3.977  15.731  56.738  1.00  0.00     0.148 C 
BRANCH   2   3
HETATM    3  N1  UNL     1       4.919  15.043  57.542  1.00  0.00    -0.414 N 
HETATM    4  C1  UNL     1       5.178  13.690  57.222  1.00  0.00     0.143 C 
BRANCH   3   5
HETATM    5  C2  UNL     1       5.983  15.779  58.111  1.00  0.00     0.121 C 
BRANCH   5   6
HETATM    6  C3  UNL     1       7.306  15.231  57.622  1.00  0.00     0.003 A 
HETATM    7  C4  UNL     1       8.288  16.313  57.166  1.00  0.00     0.007 A 
HETATM    8  C5  UNL     1       8.548  15.532  58.380  1.00  0.00     0.007 A 
ENDBRANCH   5   6
ENDBRANCH   3   5
ENDBRANCH   2   3
ENDBRANCH   1   2
BRANCH   1   9
HETATM    9  O1  UNL     1       2.493  15.530  58.551  1.00  0.00    -0.394 OA
ATOM     10  H1  UNL     1       1.544  15.506  58.591  1.00  0.00     0.210 HD
ENDBRANCH   1   9
BRANCH   1  11
HETATM   11  C8  UNL     1       1.668  16.644  56.635  1.00  0.00     0.023 C 
HETATM   12  C9  UNL     1       0.471  16.977  57.504  1.00  0.00     0.038 C 
HETATM   13  C10 UNL     1      -0.689  17.525  56.761  1.00  0.00     0.273 C 
HETATM   14  N2  UNL     1      -0.324  18.466  55.719  1.00  0.00     0.088 N 
HETATM   15  C11 UNL     1       0.332  19.578  56.336  1.00  0.00     0.273 C 
HETATM   16  C14 UNL     1       0.657  17.911  54.820  1.00  0.00     0.277 C 
HETATM   17  C12 UNL     1       1.757  19.139  56.475  1.00  0.00     0.037 C 
HETATM   18  C13 UNL     1       1.880  17.816  55.713  1.00  0.00     0.022 C 
ENDBRANCH   1  11
TORSDOF 6
ENDMDL
