MODEL 1
REMARK VINA RESULT: -7.369753930      0.000      0.000
REMARK  5 active torsions:
REMARK  status: ('A' for Active; 'I' for Inactive)
REMARK    1  A    between atoms: C2_2  and  C4_4 
REMARK    2  A    between atoms: C5_5  and  C6_6 
REMARK    3  A    between atoms: C7_7  and  C8_8 
REMARK       I    between atoms: C8_8  and  N1_10 
REMARK    4  A    between atoms: N1_10  and  N2_12 
REMARK    5  A    between atoms: N2_12  and  S1_14 
ROOT
HETATM    1  C8  UNL     1       5.714  15.285  56.783  1.00  0.00     0.262 C 
HETATM    2  O1  UNL     1       5.865  14.659  55.710  1.00  0.00    -0.267 OA
HETATM    3  N1  UNL     1       4.434  15.511  57.334  1.00  0.00    -0.253 N 
HETATM    4  C9  UNL     1       4.307  16.258  58.585  1.00  0.00     0.182 C 
ENDROOT
BRANCH   1   5
HETATM    5  C7  UNL     1       6.908  15.792  57.478  1.00  0.00     0.076 C 
HETATM    6  C6  UNL     1       7.718  14.948  58.067  1.00  0.00     0.005 C 
BRANCH   6   7
HETATM    7  C5  UNL     1       8.899  15.475  58.752  1.00  0.00    -0.003 C 
HETATM    8  C4  UNL     1       9.676  16.296  58.124  1.00  0.00    -0.023 C 
BRANCH   8   9
HETATM    9  C2  UNL     1      10.891  16.881  58.730  1.00  0.00    -0.000 C 
HETATM   10  C1  UNL     1      12.093  16.411  57.974  1.00  0.00     0.013 C 
HETATM   11  C3  UNL     1      11.024  16.502  60.187  1.00  0.00     0.013 C 
ENDBRANCH   8   9
ENDBRANCH   6   7
ENDBRANCH   1   5
BRANCH   3  12
HETATM   12  N2  UNL     1       3.294  15.052  56.742  1.00  0.00    -0.223 N 
ATOM     13  H2  UNL     1       2.973  14.093  56.874  1.00  0.00     0.200 HD
BRANCH  12  14
HETATM   14  S1  UNL     1       2.434  16.158  55.772  1.00  0.00     0.240 S 
HETATM   15  C10 UNL     1       1.127  16.882  56.725  1.00  0.00     0.187 C 
HETATM   16  O2  UNL     1       1.902  15.458  54.550  1.00  0.00    -0.205 OA
HETATM   17  O3  UNL     1       3.318  17.270  55.268  1.00  0.00    -0.205 OA
ENDBRANCH  12  14
ENDBRANCH   3  12
TORSDOF 5
ENDMDL
MODEL 2
REMARK VINA RESULT: -7.127127825      0.945      1.038
REMARK  5 active torsions:
REMARK  status: ('A' for Active; 'I' for Inactive)
REMARK    1  A    between atoms: C2_2  and  C4_4 
REMARK    2  A    between atoms: C5_5  and  C6_6 
REMARK    3  A    between atoms: C7_7  and  C8_8 
REMARK       I    between atoms: C8_8  and  N1_10 
REMARK    4  A    between atoms: N1_10  and  N2_12 
REMARK    5  A    between atoms: N2_12  and  S1_14 
ROOT
HETATM    1  C8  UNL     1       5.604  14.861  57.347  1.00  0.00     0.262 C 
HETATM    2  O1  UNL     1       5.568  14.188  56.292  1.00  0.00    -0.267 OA
HETATM    3  N1  UNL     1       4.449  15.485  57.866  1.00  0.00    -0.253 N 
HETATM    4  C9  UNL     1       4.543  16.271  59.096  1.00  0.00     0.182 C 
ENDROOT
BRANCH   1   5
HETATM    5  C7  UNL     1       6.888  14.996  58.054  1.00  0.00     0.076 C 
HETATM    6  C6  UNL     1       7.819  15.769  57.555  1.00  0.00     0.005 C 
BRANCH   6   7
HETATM    7  C5  UNL     1       9.088  15.888  58.276  1.00  0.00    -0.003 C 
HETATM    8  C4  UNL     1       9.910  16.831  57.949  1.00  0.00    -0.023 C 
BRANCH   8   9
HETATM    9  C2  UNL     1      11.214  17.032  58.618  1.00  0.00    -0.000 C 
HETATM   10  C1  UNL     1      12.267  16.269  57.880  1.00  0.00     0.013 C 
HETATM   11  C3  UNL     1      11.174  16.582  60.061  1.00  0.00     0.013 C 
ENDBRANCH   8   9
ENDBRANCH   6   7
ENDBRANCH   1   5
BRANCH   3  12
HETATM   12  N2  UNL     1       3.230  15.382  57.262  1.00  0.00    -0.223 N 
ATOM     13  H2  UNL     1       2.594  14.612  57.470  1.00  0.00     0.200 HD
BRANCH  12  14
HETATM   14  S1  UNL     1       2.822  16.601  56.143  1.00  0.00     0.240 S 
HETATM   15  C10 UNL     1       1.279  16.197  55.371  1.00  0.00     0.187 C 
HETATM   16  O2  UNL     1       3.924  16.751  55.128  1.00  0.00    -0.205 OA
HETATM   17  O3  UNL     1       2.676  17.947  56.806  1.00  0.00    -0.205 OA
ENDBRANCH  12  14
ENDBRANCH   3  12
TORSDOF 5
ENDMDL
MODEL 3
REMARK VINA RESULT: -7.043606075      2.130      2.434
REMARK  5 active torsions:
REMARK  status: ('A' for Active; 'I' for Inactive)
REMARK    1  A    between atoms: C2_2  and  C4_4 
REMARK    2  A    between atoms: C5_5  and  C6_6 
REMARK    3  A    between atoms: C7_7  and  C8_8 
REMARK       I    between atoms: C8_8  and  N1_10 
REMARK    4  A    between atoms: N1_10  and  N2_12 
REMARK    5  A    between atoms: N2_12  and  S1_14 
ROOT
HETATM    1  C8  UNL     1       5.554  14.936  56.794  1.00  0.00     0.262 C 
HETATM    2  O1  UNL     1       5.278  15.986  56.172  1.00  0.00    -0.267 OA
HETATM    3  N1  UNL     1       4.707  13.807  56.753  1.00  0.00    -0.253 N 
HETATM    4  C9  UNL     1       5.067  12.606  57.505  1.00  0.00     0.182 C 
ENDROOT
BRANCH   1   5
HETATM    5  C7  UNL     1       6.796  14.889  57.582  1.00  0.00     0.076 C 
HETATM    6  C6  UNL     1       7.627  15.900  57.536  1.00  0.00     0.005 C 
BRANCH   6   7
HETATM    7  C5  UNL     1       8.856  15.831  58.329  1.00  0.00    -0.003 C 
HETATM    8  C4  UNL     1       9.780  16.714  58.133  1.00  0.00    -0.023 C 
BRANCH   8   9
HETATM    9  C2  UNL     1      11.054  16.727  58.883  1.00  0.00    -0.000 C 
HETATM   10  C1  UNL     1      12.164  16.301  57.976  1.00  0.00     0.013 C 
HETATM   11  C3  UNL     1      11.001  15.815  60.088  1.00  0.00     0.013 C 
ENDBRANCH   8   9
ENDBRANCH   6   7
ENDBRANCH   1   5
BRANCH   3  12
HETATM   12  N2  UNL     1       3.553  13.788  56.027  1.00  0.00    -0.223 N 
ATOM     13  H2  UNL     1       2.657  14.044  56.441  1.00  0.00     0.200 HD
BRANCH  12  14
HETATM   14  S1  UNL     1       3.680  13.314  54.394  1.00  0.00     0.240 S 
HETATM   15  C10 UNL     1       2.140  12.617  53.864  1.00  0.00     0.187 C 
HETATM   16  O2  UNL     1       4.814  12.336  54.235  1.00  0.00    -0.205 OA
HETATM   17  O3  UNL     1       4.002  14.480  53.494  1.00  0.00    -0.205 OA
ENDBRANCH  12  14
ENDBRANCH   3  12
TORSDOF 5
ENDMDL
MODEL 4
REMARK VINA RESULT: -6.992695029      1.165      1.726
REMARK  5 active torsions:
REMARK  status: ('A' for Active; 'I' for Inactive)
REMARK    1  A    between atoms: C2_2  and  C4_4 
REMARK    2  A    between atoms: C5_5  and  C6_6 
REMARK    3  A    between atoms: C7_7  and  C8_8 
REMARK       I    between atoms: C8_8  and  N1_10 
REMARK    4  A    between atoms: N1_10  and  N2_12 
REMARK    5  A    between atoms: N2_12  and  S1_14 
ROOT
HETATM    1  C8  UNL     1       5.224  15.311  57.085  1.00  0.00     0.262 C 
HETATM    2  O1  UNL     1       4.651  15.618  58.155  1.00  0.00    -0.267 OA
HETATM    3  N1  UNL     1       4.496  14.890  55.951  1.00  0.00    -0.253 N 
HETATM    4  C9  UNL     1       5.211  14.531  54.727  1.00  0.00     0.182 C 
ENDROOT
BRANCH   1   5
HETATM    5  C7  UNL     1       6.692  15.395  57.022  1.00  0.00     0.076 C 
HETATM    6  C6  UNL     1       7.355  15.855  58.052  1.00  0.00     0.005 C 
BRANCH   6   7
HETATM    7  C5  UNL     1       8.815  15.930  57.967  1.00  0.00    -0.003 C 
HETATM    8  C4  UNL     1       9.518  15.723  59.032  1.00  0.00    -0.023 C 
BRANCH   8   9
HETATM    9  C2  UNL     1      10.996  15.776  59.045  1.00  0.00    -0.000 C 
HETATM   10  C1  UNL     1      11.453  16.430  60.310  1.00  0.00     0.013 C 
HETATM   11  C3  UNL     1      11.537  16.535  57.854  1.00  0.00     0.013 C 
ENDBRANCH   8   9
ENDBRANCH   6   7
ENDBRANCH   1   5
BRANCH   3  12
HETATM   12  N2  UNL     1       3.135  14.808  55.947  1.00  0.00    -0.223 N 
ATOM     13  H2  UNL     1       2.652  13.930  56.135  1.00  0.00     0.200 HD
BRANCH  12  14
HETATM   14  S1  UNL     1       2.280  16.245  55.613  1.00  0.00     0.240 S 
HETATM   15  C10 UNL     1       1.451  16.790  57.082  1.00  0.00     0.187 C 
HETATM   16  O2  UNL     1       1.309  16.009  54.486  1.00  0.00    -0.205 OA
HETATM   17  O3  UNL     1       3.196  17.350  55.154  1.00  0.00    -0.205 OA
ENDBRANCH  12  14
ENDBRANCH   3  12
TORSDOF 5
ENDMDL
MODEL 5
REMARK VINA RESULT: -6.935815571      1.270      1.681
REMARK  5 active torsions:
REMARK  status: ('A' for Active; 'I' for Inactive)
REMARK    1  A    between atoms: C2_2  and  C4_4 
REMARK    2  A    between atoms: C5_5  and  C6_6 
REMARK    3  A    between atoms: C7_7  and  C8_8 
REMARK       I    between atoms: C8_8  and  N1_10 
REMARK    4  A    between atoms: N1_10  and  N2_12 
REMARK    5  A    between atoms: N2_12  and  S1_14 
ROOT
HETATM    1  C8  UNL     1       5.433  14.181  57.662  1.00  0.00     0.262 C 
HETATM    2  O1  UNL     1       5.449  13.121  56.997  1.00  0.00    -0.267 OA
HETATM    3  N1  UNL     1       4.329  15.060  57.626  1.00  0.00    -0.253 N 
HETATM    4  C9  UNL     1       4.361  16.292  58.413  1.00  0.00     0.182 C 
ENDROOT
BRANCH   1   5
HETATM    5  C7  UNL     1       6.599  14.506  58.499  1.00  0.00     0.076 C 
HETATM    6  C6  UNL     1       7.663  15.031  57.944  1.00  0.00     0.005 C 
BRANCH   6   7
HETATM    7  C5  UNL     1       8.811  15.347  58.796  1.00  0.00    -0.003 C 
HETATM    8  C4  UNL     1       9.684  16.206  58.382  1.00  0.00    -0.023 C 
BRANCH   8   9
HETATM    9  C2  UNL     1      10.875  16.589  59.170  1.00  0.00    -0.000 C 
HETATM   10  C1  UNL     1      12.092  16.479  58.307  1.00  0.00     0.013 C 
HETATM   11  C3  UNL     1      11.037  15.717  60.394  1.00  0.00     0.013 C 
ENDBRANCH   8   9
ENDBRANCH   6   7
ENDBRANCH   1   5
BRANCH   3  12
HETATM   12  N2  UNL     1       3.216  14.802  56.882  1.00  0.00    -0.223 N 
ATOM     13  H2  UNL     1       2.407  14.323  57.277  1.00  0.00     0.200 HD
BRANCH  12  14
HETATM   14  S1  UNL     1       3.241  15.322  55.258  1.00  0.00     0.240 S 
HETATM   15  C10 UNL     1       3.823  14.001  54.229  1.00  0.00     0.187 C 
HETATM   16  O2  UNL     1       4.109  16.546  55.128  1.00  0.00    -0.205 OA
HETATM   17  O3  UNL     1       1.871  15.724  54.774  1.00  0.00    -0.205 OA
ENDBRANCH  12  14
ENDBRANCH   3  12
TORSDOF 5
ENDMDL
