MODEL 1
REMARK VINA RESULT: -6.469634147      0.000      0.000
REMARK  6 active torsions:
REMARK  status: ('A' for Active; 'I' for Inactive)
REMARK    1  A    between atoms: C2_2  and  C3_3 
REMARK    2  A    between atoms: C3_3  and  N1_4 
REMARK    3  A    between atoms: N1_4  and  C4_5 
REMARK    4  A    between atoms: N1_4  and  C5_7 
REMARK    5  A    between atoms: N2_9  and  C7_10 
REMARK    6  A    between atoms: C13_16  and  O2_17 
ROOT
HETATM    1  C5  UNL     1       5.585  14.245  56.811  1.00  0.00     0.153 C 
HETATM    2  C6  UNL     1       4.605  14.121  57.947  1.00  0.00     0.087 C 
HETATM    3  N2  UNL     1       5.141  14.113  59.233  1.00  0.00    -0.383 N 
HETATM    4  C10 UNL     1       6.349  14.800  59.486  1.00  0.00     0.082 C 
HETATM    5  C11 UNL     1       7.473  13.812  59.619  1.00  0.00     0.032 C 
HETATM    6  C12 UNL     1       6.654  15.858  58.439  1.00  0.00     0.059 C 
HETATM    7  C13 UNL     1       6.713  15.158  57.110  1.00  0.00     0.148 C 
ENDROOT
BRANCH   1   8
HETATM    8  N1  UNL     1       4.896  14.539  55.574  1.00  0.00    -0.344 N 
BRANCH   8   9
HETATM    9  C3  UNL     1       5.264  13.808  54.382  1.00  0.00     0.152 C 
BRANCH   9  10
HETATM   10  C2  UNL     1       4.109  13.559  53.480  1.00  0.00    -0.017 C 
HETATM   11  C1  UNL     1       3.458  12.423  53.415  1.00  0.00     0.008 C 
ENDBRANCH   9  10
ENDBRANCH   8   9
BRANCH   8  12
HETATM   12  C4  UNL     1       3.878  15.516  55.471  1.00  0.00     0.351 C 
HETATM   13  O1  UNL     1       4.061  16.727  55.191  1.00  0.00    -0.283 OA
ENDBRANCH   8  12
ENDBRANCH   1   8
BRANCH   7  14
HETATM   14  O2  UNL     1       6.957  16.116  56.134  1.00  0.00    -0.393 OA
ATOM     15  H2  UNL     1       7.594  15.861  55.478  1.00  0.00     0.210 HD
ENDBRANCH   7  14
BRANCH   3  16
HETATM   16  C7  UNL     1       4.366  13.655  60.306  1.00  0.00     0.075 C 
HETATM   17  C8  UNL     1       3.401  12.548  60.031  1.00  0.00     0.032 C 
HETATM   18  C9  UNL     1       3.525  14.845  60.800  1.00  0.00     0.032 C 
ENDBRANCH   3  16
TORSDOF 6
ENDMDL
MODEL 2
REMARK VINA RESULT: -6.248045173      2.454      3.780
REMARK  6 active torsions:
REMARK  status: ('A' for Active; 'I' for Inactive)
REMARK    1  A    between atoms: C2_2  and  C3_3 
REMARK    2  A    between atoms: C3_3  and  N1_4 
REMARK    3  A    between atoms: N1_4  and  C4_5 
REMARK    4  A    between atoms: N1_4  and  C5_7 
REMARK    5  A    between atoms: N2_9  and  C7_10 
REMARK    6  A    between atoms: C13_16  and  O2_17 
ROOT
HETATM    1  C5  UNL     1       3.042  15.546  56.755  1.00  0.00     0.153 C 
HETATM    2  C6  UNL     1       3.308  15.443  58.233  1.00  0.00     0.087 C 
HETATM    3  N2  UNL     1       4.356  14.612  58.622  1.00  0.00    -0.383 N 
HETATM    4  C10 UNL     1       5.450  14.420  57.748  1.00  0.00     0.082 C 
HETATM    5  C11 UNL     1       5.354  13.062  57.111  1.00  0.00     0.032 C 
HETATM    6  C12 UNL     1       5.571  15.520  56.707  1.00  0.00     0.059 C 
HETATM    7  C13 UNL     1       4.278  15.543  55.939  1.00  0.00     0.148 C 
ENDROOT
BRANCH   1   8
HETATM    8  N1  UNL     1       2.148  16.647  56.472  1.00  0.00    -0.344 N 
BRANCH   8   9
HETATM    9  C3  UNL     1       2.305  17.878  57.213  1.00  0.00     0.152 C 
BRANCH   9  10
HETATM   10  C2  UNL     1       1.796  19.063  56.474  1.00  0.00    -0.017 C 
HETATM   11  C1  UNL     1       0.801  19.813  56.881  1.00  0.00     0.008 C 
ENDBRANCH   9  10
ENDBRANCH   8   9
BRANCH   8  12
HETATM   12  C4  UNL     1       1.119  16.576  55.503  1.00  0.00     0.351 C 
HETATM   13  O1  UNL     1       1.294  16.377  54.275  1.00  0.00    -0.283 OA
ENDBRANCH   8  12
ENDBRANCH   1   8
BRANCH   7  14
HETATM   14  O2  UNL     1       4.357  16.568  55.003  1.00  0.00    -0.393 OA
ATOM     15  H2  UNL     1       5.086  16.497  54.398  1.00  0.00     0.210 HD
ENDBRANCH   7  14
BRANCH   3  16
HETATM   16  C7  UNL     1       4.448  14.185  59.952  1.00  0.00     0.075 C 
HETATM   17  C8  UNL     1       3.606  14.897  60.960  1.00  0.00     0.032 C 
HETATM   18  C9  UNL     1       5.908  14.385  60.394  1.00  0.00     0.032 C 
ENDBRANCH   3  16
TORSDOF 6
ENDMDL
MODEL 3
REMARK VINA RESULT: -6.177021842      1.988      2.723
REMARK  6 active torsions:
REMARK  status: ('A' for Active; 'I' for Inactive)
REMARK    1  A    between atoms: C2_2  and  C3_3 
REMARK    2  A    between atoms: C3_3  and  N1_4 
REMARK    3  A    between atoms: N1_4  and  C4_5 
REMARK    4  A    between atoms: N1_4  and  C5_7 
REMARK    5  A    between atoms: N2_9  and  C7_10 
REMARK    6  A    between atoms: C13_16  and  O2_17 
ROOT
HETATM    1  C5  UNL     1       4.207  14.635  56.443  1.00  0.00     0.153 C 
HETATM    2  C6  UNL     1       3.885  15.447  57.669  1.00  0.00     0.087 C 
HETATM    3  N2  UNL     1       4.861  15.489  58.662  1.00  0.00    -0.383 N 
HETATM    4  C10 UNL     1       6.222  15.361  58.303  1.00  0.00     0.082 C 
HETATM    5  C11 UNL     1       6.711  13.987  58.667  1.00  0.00     0.032 C 
HETATM    6  C12 UNL     1       6.477  15.677  56.839  1.00  0.00     0.059 C 
HETATM    7  C13 UNL     1       5.626  14.737  56.031  1.00  0.00     0.148 C 
ENDROOT
BRANCH   1   8
HETATM    8  N1  UNL     1       3.261  14.913  55.384  1.00  0.00    -0.344 N 
BRANCH   8   9
HETATM    9  C3  UNL     1       2.554  16.174  55.396  1.00  0.00     0.152 C 
BRANCH   9  10
HETATM   10  C2  UNL     1       1.094  16.017  55.170  1.00  0.00    -0.017 C 
HETATM   11  C1  UNL     1       0.172  16.692  55.813  1.00  0.00     0.008 C 
ENDBRANCH   9  10
ENDBRANCH   8   9
BRANCH   8  12
HETATM   12  C4  UNL     1       2.991  14.004  54.334  1.00  0.00     0.351 C 
HETATM   13  O1  UNL     1       3.386  14.130  53.148  1.00  0.00    -0.283 OA
ENDBRANCH   8  12
ENDBRANCH   1   8
BRANCH   7  14
HETATM   14  O2  UNL     1       5.820  15.035  54.688  1.00  0.00    -0.393 OA
ATOM     15  H2  UNL     1       5.751  15.958  54.473  1.00  0.00     0.210 HD
ENDBRANCH   7  14
BRANCH   3  16
HETATM   16  C7  UNL     1       4.521  15.910  59.953  1.00  0.00     0.075 C 
HETATM   17  C8  UNL     1       3.324  15.279  60.587  1.00  0.00     0.032 C 
HETATM   18  C9  UNL     1       4.222  17.417  59.877  1.00  0.00     0.032 C 
ENDBRANCH   3  16
TORSDOF 6
ENDMDL
MODEL 4
REMARK VINA RESULT: -6.102819759      1.904      3.224
REMARK  6 active torsions:
REMARK  status: ('A' for Active; 'I' for Inactive)
REMARK    1  A    between atoms: C2_2  and  C3_3 
REMARK    2  A    between atoms: C3_3  and  N1_4 
REMARK    3  A    between atoms: N1_4  and  C4_5 
REMARK    4  A    between atoms: N1_4  and  C5_7 
REMARK    5  A    between atoms: N2_9  and  C7_10 
REMARK    6  A    between atoms: C13_16  and  O2_17 
ROOT
HETATM    1  C5  UNL     1       4.542  15.071  56.772  1.00  0.00     0.153 C 
HETATM    2  C6  UNL     1       5.952  15.593  56.688  1.00  0.00     0.087 C 
HETATM    3  N2  UNL     1       6.728  15.479  57.839  1.00  0.00    -0.383 N 
HETATM    4  C10 UNL     1       6.477  14.423  58.743  1.00  0.00     0.082 C 
HETATM    5  C11 UNL     1       5.765  14.955  59.955  1.00  0.00     0.032 C 
HETATM    6  C12 UNL     1       5.716  13.272  58.107  1.00  0.00     0.059 C 
HETATM    7  C13 UNL     1       4.425  13.836  57.581  1.00  0.00     0.148 C 
ENDROOT
BRANCH   1   8
HETATM    8  N1  UNL     1       3.954  14.975  55.455  1.00  0.00    -0.344 N 
BRANCH   8   9
HETATM    9  C3  UNL     1       4.766  14.481  54.365  1.00  0.00     0.152 C 
BRANCH   9  10
HETATM   10  C2  UNL     1       4.006  13.608  53.432  1.00  0.00    -0.017 C 
HETATM   11  C1  UNL     1       4.057  12.298  53.444  1.00  0.00     0.008 C 
ENDBRANCH   9  10
ENDBRANCH   8   9
BRANCH   8  12
HETATM   12  C4  UNL     1       2.617  15.346  55.178  1.00  0.00     0.351 C 
HETATM   13  O1  UNL     1       2.222  16.517  54.950  1.00  0.00    -0.283 OA
ENDBRANCH   8  12
ENDBRANCH   1   8
BRANCH   7  14
HETATM   14  O2  UNL     1       3.730  12.803  56.964  1.00  0.00    -0.393 OA
ATOM     15  H2  UNL     1       3.128  12.335  57.531  1.00  0.00     0.210 HD
ENDBRANCH   7  14
BRANCH   3  16
HETATM   16  C7  UNL     1       7.899  16.236  57.966  1.00  0.00     0.075 C 
HETATM   17  C8  UNL     1       8.539  16.723  56.706  1.00  0.00     0.032 C 
HETATM   18  C9  UNL     1       8.943  15.347  58.663  1.00  0.00     0.032 C 
ENDBRANCH   3  16
TORSDOF 6
ENDMDL
MODEL 5
REMARK VINA RESULT: -6.064396119      2.704      4.456
REMARK  6 active torsions:
REMARK  status: ('A' for Active; 'I' for Inactive)
REMARK    1  A    between atoms: C2_2  and  C3_3 
REMARK    2  A    between atoms: C3_3  and  N1_4 
REMARK    3  A    between atoms: N1_4  and  C4_5 
REMARK    4  A    between atoms: N1_4  and  C5_7 
REMARK    5  A    between atoms: N2_9  and  C7_10 
REMARK    6  A    between atoms: C13_16  and  O2_17 
ROOT
HETATM    1  C5  UNL     1       3.301  15.854  55.755  1.00  0.00     0.153 C 
HETATM    2  C6  UNL     1       3.587  16.096  57.213  1.00  0.00     0.087 C 
HETATM    3  N2  UNL     1       2.955  17.190  57.798  1.00  0.00    -0.383 N 
HETATM    4  C10 UNL     1       1.703  17.617  57.300  1.00  0.00     0.082 C 
HETATM    5  C11 UNL     1       1.884  18.870  56.489  1.00  0.00     0.032 C 
HETATM    6  C12 UNL     1       0.986  16.536  56.509  1.00  0.00     0.059 C 
HETATM    7  C13 UNL     1       1.896  16.139  55.381  1.00  0.00     0.148 C 
ENDROOT
BRANCH   1   8
HETATM    8  N1  UNL     1       3.768  14.546  55.354  1.00  0.00    -0.344 N 
BRANCH   8   9
HETATM    9  C3  UNL     1       3.684  13.456  56.301  1.00  0.00     0.152 C 
BRANCH   9  10
HETATM   10  C2  UNL     1       5.007  12.845  56.592  1.00  0.00    -0.017 C 
HETATM   11  C1  UNL     1       5.418  12.517  57.793  1.00  0.00     0.008 C 
ENDBRANCH   9  10
ENDBRANCH   8   9
BRANCH   8  12
HETATM   12  C4  UNL     1       4.308  14.278  54.073  1.00  0.00     0.351 C 
HETATM   13  O1  UNL     1       3.637  14.119  53.023  1.00  0.00    -0.283 OA
ENDBRANCH   8  12
ENDBRANCH   1   8
BRANCH   7  14
HETATM   14  O2  UNL     1       1.270  15.125  54.666  1.00  0.00    -0.393 OA
ATOM     15  H2  UNL     1       0.604  14.652  55.151  1.00  0.00     0.210 HD
ENDBRANCH   7  14
BRANCH   3  16
HETATM   16  C7  UNL     1       3.423  17.693  59.019  1.00  0.00     0.075 C 
HETATM   17  C8  UNL     1       4.665  17.081  59.581  1.00  0.00     0.032 C 
HETATM   18  C9  UNL     1       2.317  17.457  60.062  1.00  0.00     0.032 C 
ENDBRANCH   3  16
TORSDOF 6
ENDMDL
