MODEL 1
REMARK VINA RESULT: -5.651352599      0.000      0.000
REMARK  3 active torsions:
REMARK  status: ('A' for Active; 'I' for Inactive)
REMARK    1  A    between atoms: C2_2  and  C3_3 
REMARK    2  A    between atoms: C3_3  and  C4_4 
REMARK       I    between atoms: N1_6  and  C5_8 
REMARK       I    between atoms: C5_8  and  N3_12 
REMARK       I    between atoms: N3_12  and  C6_14 
REMARK    3  A    between atoms: C6_14  and  C7_16 
ROOT
HETATM    1  C1  UNL     1      22.275 -25.380   2.134  1.00  0.00     0.064 C 
HETATM    2  C2  UNL     1      22.864 -24.031   1.950  1.00  0.00     0.001 C 
HETATM    3  N1  UNL     1      22.485 -23.224   1.026  1.00  0.00    -0.200 N 
ATOM      4  H1  UNL     1      22.939 -22.313   0.963  1.00  0.00     0.183 HD
HETATM    5  C5  UNL     1      21.466 -23.533   0.085  1.00  0.00     0.678 C 
HETATM    6  N2  UNL     1      21.686 -24.384  -0.856  1.00  0.00    -0.234 N 
ATOM      7  H21 UNL     1      20.954 -24.606  -1.531  1.00  0.00     0.174 HD
ATOM      8  H22 UNL     1      22.595 -24.841  -0.929  1.00  0.00     0.174 HD
HETATM    9  N3  UNL     1      20.202 -22.898   0.188  1.00  0.00    -0.158 N 
ATOM     10  H3  UNL     1      19.478 -23.127  -0.493  1.00  0.00     0.187 HD
HETATM   11  C6  UNL     1      19.915 -21.962   1.196  1.00  0.00     0.260 C 
HETATM   12  O1  UNL     1      20.815 -21.687   2.031  1.00  0.00    -0.270 OA
ENDROOT
BRANCH   2  13
HETATM   13  C3  UNL     1      23.943 -23.555   2.854  1.00  0.00     0.063 C 
BRANCH  13  14
HETATM   14  C4  UNL     1      24.876 -22.586   2.118  1.00  0.00     0.091 C 
HETATM   15 BR1  UNL     1      26.373 -22.237   3.311  1.00  0.00    -0.096 Br
ENDBRANCH  13  14
ENDBRANCH   2  13
BRANCH  11  16
HETATM   16  C7  UNL     1      18.619 -21.274   1.347  1.00  0.00     0.222 C 
HETATM   17 BR2  UNL     1      18.810 -19.443   1.901  1.00  0.00    -0.069 Br
HETATM   18 BR3  UNL     1      17.581 -21.322  -0.264  1.00  0.00    -0.069 Br
ENDBRANCH  11  16
TORSDOF 3
ENDMDL
MODEL 2
REMARK VINA RESULT: -5.608820938      0.859      1.357
REMARK  3 active torsions:
REMARK  status: ('A' for Active; 'I' for Inactive)
REMARK    1  A    between atoms: C2_2  and  C3_3 
REMARK    2  A    between atoms: C3_3  and  C4_4 
REMARK       I    between atoms: N1_6  and  C5_8 
REMARK       I    between atoms: C5_8  and  N3_12 
REMARK       I    between atoms: N3_12  and  C6_14 
REMARK    3  A    between atoms: C6_14  and  C7_16 
ROOT
HETATM    1  C1  UNL     1      22.507 -25.370   2.402  1.00  0.00     0.064 C 
HETATM    2  C2  UNL     1      23.085 -24.057   2.023  1.00  0.00     0.001 C 
HETATM    3  N1  UNL     1      22.837 -23.484   0.900  1.00  0.00    -0.200 N 
ATOM      4  H1  UNL     1      23.274 -22.581   0.713  1.00  0.00     0.183 HD
HETATM    5  C5  UNL     1      21.988 -24.040  -0.094  1.00  0.00     0.678 C 
HETATM    6  N2  UNL     1      22.376 -25.054  -0.786  1.00  0.00    -0.234 N 
ATOM      7  H21 UNL     1      21.766 -25.454  -1.499  1.00  0.00     0.174 HD
ATOM      8  H22 UNL     1      23.296 -25.464  -0.622  1.00  0.00     0.174 HD
HETATM    9  N3  UNL     1      20.710 -23.470  -0.321  1.00  0.00    -0.158 N 
ATOM     10  H3  UNL     1      20.108 -23.878  -1.036  1.00  0.00     0.187 HD
HETATM   11  C6  UNL     1      20.244 -22.363   0.409  1.00  0.00     0.260 C 
HETATM   12  O1  UNL     1      20.993 -21.869   1.290  1.00  0.00    -0.270 OA
ENDROOT
BRANCH   2  13
HETATM   13  C3  UNL     1      23.995 -23.341   2.954  1.00  0.00     0.063 C 
BRANCH  13  14
HETATM   14  C4  UNL     1      25.007 -22.493   2.176  1.00  0.00     0.091 C 
HETATM   15 BR1  UNL     1      26.533 -22.225   3.352  1.00  0.00    -0.096 Br
ENDBRANCH  13  14
ENDBRANCH   2  13
BRANCH  11  16
HETATM   16  C7  UNL     1      18.924 -21.734   0.211  1.00  0.00     0.222 C 
HETATM   17 BR2  UNL     1      17.471 -22.873   0.746  1.00  0.00    -0.069 Br
HETATM   18 BR3  UNL     1      18.769 -20.065   1.141  1.00  0.00    -0.069 Br
ENDBRANCH  11  16
TORSDOF 3
ENDMDL
MODEL 3
REMARK VINA RESULT: -5.579016236      4.193      5.835
REMARK  3 active torsions:
REMARK  status: ('A' for Active; 'I' for Inactive)
REMARK    1  A    between atoms: C2_2  and  C3_3 
REMARK    2  A    between atoms: C3_3  and  C4_4 
REMARK       I    between atoms: N1_6  and  C5_8 
REMARK       I    between atoms: C5_8  and  N3_12 
REMARK       I    between atoms: N3_12  and  C6_14 
REMARK    3  A    between atoms: C6_14  and  C7_16 
ROOT
HETATM    1  C1  UNL     1      28.985 -22.604   3.156  1.00  0.00     0.064 C 
HETATM    2  C2  UNL     1      28.009 -22.259   4.219  1.00  0.00     0.001 C 
HETATM    3  N1  UNL     1      26.891 -21.675   3.977  1.00  0.00    -0.200 N 
ATOM      4  H1  UNL     1      26.273 -21.470   4.762  1.00  0.00     0.183 HD
HETATM    5  C5  UNL     1      26.469 -21.300   2.673  1.00  0.00     0.678 C 
HETATM    6  N2  UNL     1      27.027 -20.309   2.070  1.00  0.00    -0.234 N 
ATOM      7  H21 UNL     1      26.724 -20.039   1.134  1.00  0.00     0.174 HD
ATOM      8  H22 UNL     1      27.778 -19.789   2.525  1.00  0.00     0.174 HD
HETATM    9  N3  UNL     1      25.426 -22.022   2.040  1.00  0.00    -0.158 N 
ATOM     10  H3  UNL     1      25.131 -21.744   1.104  1.00  0.00     0.187 HD
HETATM   11  C6  UNL     1      24.786 -23.109   2.659  1.00  0.00     0.260 C 
HETATM   12  O1  UNL     1      25.158 -23.444   3.813  1.00  0.00    -0.270 OA
ENDROOT
BRANCH   2  13
HETATM   13  C3  UNL     1      28.301 -22.586   5.639  1.00  0.00     0.063 C 
BRANCH  13  14
HETATM   14  C4  UNL     1      28.450 -24.100   5.825  1.00  0.00     0.091 C 
HETATM   15 BR1  UNL     1      26.767 -24.742   6.556  1.00  0.00    -0.096 Br
ENDBRANCH  13  14
ENDBRANCH   2  13
BRANCH  11  16
HETATM   16  C7  UNL     1      23.698 -23.892   2.044  1.00  0.00     0.222 C 
HETATM   17 BR2  UNL     1      22.821 -25.057   3.297  1.00  0.00    -0.069 Br
HETATM   18 BR3  UNL     1      22.378 -22.776   1.217  1.00  0.00    -0.069 Br
ENDBRANCH  11  16
TORSDOF 3
ENDMDL
MODEL 4
REMARK VINA RESULT: -5.563820482      4.758      6.707
REMARK  3 active torsions:
REMARK  status: ('A' for Active; 'I' for Inactive)
REMARK    1  A    between atoms: C2_2  and  C3_3 
REMARK    2  A    between atoms: C3_3  and  C4_4 
REMARK       I    between atoms: N1_6  and  C5_8 
REMARK       I    between atoms: C5_8  and  N3_12 
REMARK       I    between atoms: N3_12  and  C6_14 
REMARK    3  A    between atoms: C6_14  and  C7_16 
ROOT
HETATM    1  C1  UNL     1      22.366 -22.569   4.190  1.00  0.00     0.064 C 
HETATM    2  C2  UNL     1      23.158 -23.823   4.145  1.00  0.00     0.001 C 
HETATM    3  N1  UNL     1      24.172 -23.981   3.372  1.00  0.00    -0.200 N 
ATOM      4  H1  UNL     1      24.665 -24.873   3.398  1.00  0.00     0.183 HD
HETATM    5  C5  UNL     1      24.643 -22.978   2.483  1.00  0.00     0.678 C 
HETATM    6  N2  UNL     1      23.977 -22.687   1.420  1.00  0.00    -0.234 N 
ATOM      7  H21 UNL     1      24.315 -21.967   0.782  1.00  0.00     0.174 HD
ATOM      8  H22 UNL     1      23.105 -23.175   1.212  1.00  0.00     0.174 HD
HETATM    9  N3  UNL     1      25.854 -22.299   2.772  1.00  0.00    -0.158 N 
ATOM     10  H3  UNL     1      26.183 -21.581   2.127  1.00  0.00     0.187 HD
HETATM   11  C6  UNL     1      26.616 -22.583   3.919  1.00  0.00     0.260 C 
HETATM   12  O1  UNL     1      26.200 -23.471   4.708  1.00  0.00    -0.270 OA
ENDROOT
BRANCH   2  13
HETATM   13  C3  UNL     1      22.794 -24.971   5.016  1.00  0.00     0.063 C 
BRANCH  13  14
HETATM   14  C4  UNL     1      23.333 -24.763   6.436  1.00  0.00     0.091 C 
HETATM   15 BR1  UNL     1      21.841 -25.057   7.648  1.00  0.00    -0.096 Br
ENDBRANCH  13  14
ENDBRANCH   2  13
BRANCH  11  16
HETATM   16  C7  UNL     1      27.880 -21.907   4.264  1.00  0.00     0.222 C 
HETATM   17 BR2  UNL     1      28.318 -22.060   6.129  1.00  0.00    -0.069 Br
HETATM   18 BR3  UNL     1      29.357 -22.558   3.231  1.00  0.00    -0.069 Br
ENDBRANCH  11  16
TORSDOF 3
ENDMDL
MODEL 5
REMARK VINA RESULT: -5.436025041      5.700      6.925
REMARK  3 active torsions:
REMARK  status: ('A' for Active; 'I' for Inactive)
REMARK    1  A    between atoms: C2_2  and  C3_3 
REMARK    2  A    between atoms: C3_3  and  C4_4 
REMARK       I    between atoms: N1_6  and  C5_8 
REMARK       I    between atoms: C5_8  and  N3_12 
REMARK       I    between atoms: N3_12  and  C6_14 
REMARK    3  A    between atoms: C6_14  and  C7_16 
ROOT
HETATM    1  C1  UNL     1      28.301 -22.021   6.174  1.00  0.00     0.064 C 
HETATM    2  C2  UNL     1      28.155 -22.765   4.899  1.00  0.00     0.001 C 
HETATM    3  N1  UNL     1      27.647 -23.942   4.832  1.00  0.00    -0.200 N 
ATOM      4  H1  UNL     1      27.582 -24.389   3.917  1.00  0.00     0.183 HD
HETATM    5  C5  UNL     1      27.172 -24.657   5.964  1.00  0.00     0.678 C 
HETATM    6  N2  UNL     1      28.002 -25.148   6.818  1.00  0.00    -0.234 N 
ATOM      7  H21 UNL     1      27.661 -25.660   7.631  1.00  0.00     0.174 HD
ATOM      8  H22 UNL     1      29.006 -25.024   6.685  1.00  0.00     0.174 HD
HETATM    9  N3  UNL     1      25.777 -24.828   6.149  1.00  0.00    -0.158 N 
ATOM     10  H3  UNL     1      25.447 -25.342   6.966  1.00  0.00     0.187 HD
HETATM   11  C6  UNL     1      24.833 -24.311   5.244  1.00  0.00     0.260 C 
HETATM   12  O1  UNL     1      25.251 -23.678   4.241  1.00  0.00    -0.270 OA
ENDROOT
BRANCH   2  13
HETATM   13  C3  UNL     1      28.604 -22.155   3.620  1.00  0.00     0.063 C 
BRANCH  13  14
HETATM   14  C4  UNL     1      27.688 -20.990   3.226  1.00  0.00     0.091 C 
HETATM   15 BR1  UNL     1      26.518 -21.650   1.820  1.00  0.00    -0.096 Br
ENDBRANCH  13  14
ENDBRANCH   2  13
BRANCH  11  16
HETATM   16  C7  UNL     1      23.373 -24.462   5.391  1.00  0.00     0.222 C 
HETATM   17 BR2  UNL     1      22.854 -24.965   7.172  1.00  0.00    -0.069 Br
HETATM   18 BR3  UNL     1      22.427 -22.868   4.903  1.00  0.00    -0.069 Br
ENDBRANCH  11  16
TORSDOF 3
ENDMDL
