MODEL 1
REMARK VINA RESULT: -7.450369726      0.000      0.000
REMARK  3 active torsions:
REMARK  status: ('A' for Active; 'I' for Inactive)
REMARK    1  A    between atoms: C4_5  and  C5_6 
REMARK    2  A    between atoms: C6_10  and  C7_11 
REMARK       I    between atoms: N3_13  and  C8_15 
REMARK       I    between atoms: C8_15  and  N5_20 
REMARK    3  A    between atoms: N4_16  and  C9_18 
ROOT
HETATM    1  C1  UNL     1      20.280 -21.176   3.783  1.00  0.00     0.222 C 
HETATM    2  N1  UNL     1      19.471 -21.532   3.024  1.00  0.00    -0.458 NA
HETATM    3  C2  UNL     1      18.503 -21.981   2.108  1.00  0.00     0.238 C 
HETATM    4  C3  UNL     1      19.166 -22.702   0.978  1.00  0.00     0.083 C 
HETATM    5  C4  UNL     1      20.181 -23.533   1.089  1.00  0.00     0.040 C 
HETATM    6  O1  UNL     1      18.559 -22.369  -0.210  1.00  0.00    -0.338 OA
HETATM    7  C6  UNL     1      17.864 -21.155  -0.057  1.00  0.00     0.215 C 
HETATM    8  C12 UNL     1      17.935 -20.787   1.412  1.00  0.00     0.161 C 
HETATM    9 CL2  UNL     1      19.041 -19.384   1.600  1.00  0.00    -0.118 Cl
ENDROOT
BRANCH   5  10
HETATM   10  C5  UNL     1      20.755 -24.188  -0.100  1.00  0.00     0.179 C 
HETATM   11 CL1  UNL     1      22.526 -24.266  -0.015  1.00  0.00    -0.109 Cl
HETATM   12 BR1  UNL     1      20.072 -25.992  -0.274  1.00  0.00    -0.070 Br
ENDBRANCH   5  10
BRANCH   7  13
HETATM   13  C7  UNL     1      16.436 -21.261  -0.391  1.00  0.00     0.140 C 
HETATM   14  N2  UNL     1      15.945 -20.723  -1.599  1.00  0.00    -0.084 NA
HETATM   15  N3  UNL     1      15.662 -21.847   0.437  1.00  0.00    -0.180 N 
HETATM   16  C8  UNL     1      14.281 -22.010   0.230  1.00  0.00     0.674 C 
ATOM     17  H3  UNL     1      16.068 -22.217   1.296  1.00  0.00     0.185 HD
HETATM   18  N4  UNL     1      13.893 -23.082  -0.390  1.00  0.00    -0.227 N 
HETATM   19  N5  UNL     1      13.398 -21.021   0.697  1.00  0.00    -0.231 N 
ATOM     20  H4  UNL     1      12.894 -23.215  -0.547  1.00  0.00     0.177 HD
HETATM   21  C11 UNL     1      12.198 -21.451   1.385  1.00  0.00     0.165 C 
ATOM     22  H5  UNL     1      13.596 -20.031   0.557  1.00  0.00     0.177 HD
BRANCH  18  23
HETATM   23  C9  UNL     1      14.795 -24.088  -0.864  1.00  0.00     0.133 C 
HETATM   24  C10 UNL     1      14.982 -25.104   0.243  1.00  0.00     0.027 C 
ENDBRANCH  18  23
ENDBRANCH   7  13
TORSDOF 3
ENDMDL
MODEL 2
REMARK VINA RESULT: -7.397233626      3.110      4.316
REMARK  3 active torsions:
REMARK  status: ('A' for Active; 'I' for Inactive)
REMARK    1  A    between atoms: C4_5  and  C5_6 
REMARK    2  A    between atoms: C6_10  and  C7_11 
REMARK       I    between atoms: N3_13  and  C8_15 
REMARK       I    between atoms: C8_15  and  N5_20 
REMARK    3  A    between atoms: N4_16  and  C9_18 
ROOT
HETATM    1  C1  UNL     1      22.078 -25.325  -0.936  1.00  0.00     0.222 C 
HETATM    2  N1  UNL     1      21.699 -24.348  -0.425  1.00  0.00    -0.458 NA
HETATM    3  C2  UNL     1      21.264 -23.163   0.193  1.00  0.00     0.238 C 
HETATM    4  C3  UNL     1      22.002 -22.957   1.477  1.00  0.00     0.083 C 
HETATM    5  C4  UNL     1      23.284 -23.185   1.670  1.00  0.00     0.040 C 
HETATM    6  O1  UNL     1      21.141 -22.489   2.442  1.00  0.00    -0.338 OA
HETATM    7  C6  UNL     1      19.817 -22.796   2.078  1.00  0.00     0.215 C 
HETATM    8  C12 UNL     1      19.868 -23.380   0.679  1.00  0.00     0.161 C 
HETATM    9 CL2  UNL     1      19.522 -25.141   0.780  1.00  0.00    -0.118 Cl
ENDROOT
BRANCH   5  10
HETATM   10  C5  UNL     1      23.905 -22.944   2.985  1.00  0.00     0.179 C 
HETATM   11 CL1  UNL     1      24.033 -24.440   3.934  1.00  0.00    -0.109 Cl
HETATM   12 BR1  UNL     1      25.683 -22.206   2.768  1.00  0.00    -0.070 Br
ENDBRANCH   5  10
BRANCH   7  13
HETATM   13  C7  UNL     1      18.948 -21.612   2.002  1.00  0.00     0.140 C 
HETATM   14  N2  UNL     1      19.511 -20.321   1.923  1.00  0.00    -0.084 NA
HETATM   15  N3  UNL     1      17.685 -21.785   2.011  1.00  0.00    -0.180 N 
HETATM   16  C8  UNL     1      16.755 -20.734   1.944  1.00  0.00     0.674 C 
ATOM     17  H3  UNL     1      17.330 -22.739   2.070  1.00  0.00     0.185 HD
HETATM   18  N4  UNL     1      16.366 -20.355   0.765  1.00  0.00    -0.227 N 
HETATM   19  N5  UNL     1      16.294 -20.150   3.137  1.00  0.00    -0.231 N 
ATOM     20  H4  UNL     1      15.691 -19.593   0.699  1.00  0.00     0.177 HD
HETATM   21  C11 UNL     1      14.875 -19.890   3.264  1.00  0.00     0.165 C 
ATOM     22  H5  UNL     1      16.940 -19.917   3.891  1.00  0.00     0.177 HD
BRANCH  18  23
HETATM   23  C9  UNL     1      16.836 -20.953  -0.449  1.00  0.00     0.133 C 
HETATM   24  C10 UNL     1      15.627 -21.342  -1.274  1.00  0.00     0.027 C 
ENDBRANCH  18  23
ENDBRANCH   7  13
TORSDOF 3
ENDMDL
MODEL 3
REMARK VINA RESULT: -7.200448523      5.406      6.809
REMARK  3 active torsions:
REMARK  status: ('A' for Active; 'I' for Inactive)
REMARK    1  A    between atoms: C4_5  and  C5_6 
REMARK    2  A    between atoms: C6_10  and  C7_11 
REMARK       I    between atoms: N3_13  and  C8_15 
REMARK       I    between atoms: C8_15  and  N5_20 
REMARK    3  A    between atoms: N4_16  and  C9_18 
ROOT
HETATM    1  C1  UNL     1      24.529 -26.548   5.819  1.00  0.00     0.222 C 
HETATM    2  N1  UNL     1      23.943 -25.752   5.199  1.00  0.00    -0.458 NA
HETATM    3  C2  UNL     1      23.254 -24.792   4.438  1.00  0.00     0.238 C 
HETATM    4  C3  UNL     1      24.120 -23.591   4.228  1.00  0.00     0.083 C 
HETATM    5  C4  UNL     1      25.411 -23.613   3.965  1.00  0.00     0.040 C 
HETATM    6  O1  UNL     1      23.371 -22.445   4.349  1.00  0.00    -0.338 OA
HETATM    7  C6  UNL     1      22.196 -22.727   5.072  1.00  0.00     0.215 C 
HETATM    8  C12 UNL     1      22.160 -24.228   5.285  1.00  0.00     0.161 C 
HETATM    9 CL2  UNL     1      22.489 -24.570   7.018  1.00  0.00    -0.118 Cl
ENDROOT
BRANCH   5  10
HETATM   10  C5  UNL     1      26.165 -22.360   3.777  1.00  0.00     0.179 C 
HETATM   11 CL1  UNL     1      27.870 -22.546   4.233  1.00  0.00    -0.109 Cl
HETATM   12 BR1  UNL     1      26.087 -21.797   1.925  1.00  0.00    -0.070 Br
ENDBRANCH   5  10
BRANCH   7  13
HETATM   13  C7  UNL     1      20.969 -22.382   4.339  1.00  0.00     0.140 C 
HETATM   14  N2  UNL     1      20.346 -23.333   3.506  1.00  0.00    -0.084 NA
HETATM   15  N3  UNL     1      20.492 -21.207   4.478  1.00  0.00    -0.180 N 
HETATM   16  C8  UNL     1      19.327 -20.759   3.831  1.00  0.00     0.674 C 
ATOM     17  H3  UNL     1      20.982 -20.557   5.092  1.00  0.00     0.185 HD
HETATM   18  N4  UNL     1      18.197 -20.937   4.444  1.00  0.00    -0.227 N 
HETATM   19  N5  UNL     1      19.437 -20.148   2.570  1.00  0.00    -0.231 N 
ATOM     20  H4  UNL     1      17.343 -20.618   3.988  1.00  0.00     0.177 HD
HETATM   21  C11 UNL     1      18.673 -18.940   2.330  1.00  0.00     0.165 C 
ATOM     22  H5  UNL     1      20.037 -20.542   1.845  1.00  0.00     0.177 HD
BRANCH  18  23
HETATM   23  C9  UNL     1      18.088 -21.560   5.730  1.00  0.00     0.133 C 
HETATM   24  C10 UNL     1      17.480 -22.933   5.531  1.00  0.00     0.027 C 
ENDBRANCH  18  23
ENDBRANCH   7  13
TORSDOF 3
ENDMDL
MODEL 4
REMARK VINA RESULT: -7.191319404      2.441      3.064
REMARK  3 active torsions:
REMARK  status: ('A' for Active; 'I' for Inactive)
REMARK    1  A    between atoms: C4_5  and  C5_6 
REMARK    2  A    between atoms: C6_10  and  C7_11 
REMARK       I    between atoms: N3_13  and  C8_15 
REMARK       I    between atoms: C8_15  and  N5_20 
REMARK    3  A    between atoms: N4_16  and  C9_18 
ROOT
HETATM    1  C1  UNL     1      20.830 -23.074   6.103  1.00  0.00     0.222 C 
HETATM    2  N1  UNL     1      20.211 -22.726   5.178  1.00  0.00    -0.458 NA
HETATM    3  C2  UNL     1      19.472 -22.323   4.052  1.00  0.00     0.238 C 
HETATM    4  C3  UNL     1      20.366 -22.256   2.854  1.00  0.00     0.083 C 
HETATM    5  C4  UNL     1      21.314 -23.119   2.555  1.00  0.00     0.040 C 
HETATM    6  O1  UNL     1      20.055 -21.150   2.099  1.00  0.00    -0.338 OA
HETATM    7  C6  UNL     1      19.363 -20.218   2.896  1.00  0.00     0.215 C 
HETATM    8  C12 UNL     1      19.100 -20.888   4.231  1.00  0.00     0.161 C 
HETATM    9 CL2  UNL     1      20.157 -20.131   5.471  1.00  0.00    -0.118 Cl
ENDROOT
BRANCH   5  10
HETATM   10  C5  UNL     1      22.135 -22.950   1.343  1.00  0.00     0.179 C 
HETATM   11 CL1  UNL     1      23.869 -22.929   1.723  1.00  0.00    -0.109 Cl
HETATM   12 BR1  UNL     1      21.802 -24.392   0.093  1.00  0.00    -0.070 Br
ENDBRANCH   5  10
BRANCH   7  13
HETATM   13  C7  UNL     1      18.049 -19.852   2.348  1.00  0.00     0.140 C 
HETATM   14  N2  UNL     1      17.900 -18.679   1.579  1.00  0.00    -0.084 NA
HETATM   15  N3  UNL     1      17.058 -20.619   2.587  1.00  0.00    -0.180 N 
HETATM   16  C8  UNL     1      15.755 -20.375   2.119  1.00  0.00     0.674 C 
ATOM     17  H3  UNL     1      17.220 -21.454   3.149  1.00  0.00     0.185 HD
HETATM   18  N4  UNL     1      15.436 -20.866   0.961  1.00  0.00    -0.227 N 
HETATM   19  N5  UNL     1      14.871 -19.625   2.914  1.00  0.00    -0.231 N 
ATOM     20  H4  UNL     1      14.494 -20.698   0.607  1.00  0.00     0.177 HD
HETATM   21  C11 UNL     1      13.512 -20.106   3.060  1.00  0.00     0.165 C 
ATOM     22  H5  UNL     1      15.177 -18.768   3.375  1.00  0.00     0.177 HD
BRANCH  18  23
HETATM   23  C9  UNL     1      16.338 -21.631   0.153  1.00  0.00     0.133 C 
HETATM   24  C10 UNL     1      16.552 -20.879  -1.144  1.00  0.00     0.027 C 
ENDBRANCH  18  23
ENDBRANCH   7  13
TORSDOF 3
ENDMDL
MODEL 5
REMARK VINA RESULT: -7.176266775      1.966      2.204
REMARK  3 active torsions:
REMARK  status: ('A' for Active; 'I' for Inactive)
REMARK    1  A    between atoms: C4_5  and  C5_6 
REMARK    2  A    between atoms: C6_10  and  C7_11 
REMARK       I    between atoms: N3_13  and  C8_15 
REMARK       I    between atoms: C8_15  and  N5_20 
REMARK    3  A    between atoms: N4_16  and  C9_18 
ROOT
HETATM    1  C1  UNL     1      20.559 -20.795   5.620  1.00  0.00     0.222 C 
HETATM    2  N1  UNL     1      20.122 -21.254   4.641  1.00  0.00    -0.458 NA
HETATM    3  C2  UNL     1      19.608 -21.824   3.463  1.00  0.00     0.238 C 
HETATM    4  C3  UNL     1      20.729 -22.215   2.555  1.00  0.00     0.083 C 
HETATM    5  C4  UNL     1      21.863 -22.768   2.930  1.00  0.00     0.040 C 
HETATM    6  O1  UNL     1      20.406 -21.911   1.254  1.00  0.00    -0.338 OA
HETATM    7  C6  UNL     1      19.387 -20.940   1.238  1.00  0.00     0.215 C 
HETATM    8  C12 UNL     1      18.946 -20.741   2.675  1.00  0.00     0.161 C 
HETATM    9 CL2  UNL     1      19.524 -19.135   3.236  1.00  0.00    -0.118 Cl
ENDROOT
BRANCH   5  10
HETATM   10  C5  UNL     1      22.901 -23.112   1.941  1.00  0.00     0.179 C 
HETATM   11 CL1  UNL     1      24.482 -23.362   2.709  1.00  0.00    -0.109 Cl
HETATM   12 BR1  UNL     1      22.420 -24.731   0.992  1.00  0.00    -0.070 Br
ENDBRANCH   5  10
BRANCH   7  13
HETATM   13  C7  UNL     1      18.194 -21.366   0.492  1.00  0.00     0.140 C 
HETATM   14  N2  UNL     1      18.209 -21.396  -0.918  1.00  0.00    -0.084 NA
HETATM   15  N3  UNL     1      17.155 -21.702   1.151  1.00  0.00    -0.180 N 
HETATM   16  C8  UNL     1      15.956 -22.125   0.552  1.00  0.00     0.674 C 
ATOM     17  H3  UNL     1      17.196 -21.661   2.169  1.00  0.00     0.185 HD
HETATM   18  N4  UNL     1      15.821 -23.395   0.320  1.00  0.00    -0.227 N 
HETATM   19  N5  UNL     1      14.974 -21.170   0.236  1.00  0.00    -0.231 N 
ATOM     20  H4  UNL     1      14.956 -23.719  -0.114  1.00  0.00     0.177 HD
HETATM   21  C11 UNL     1      13.597 -21.477   0.563  1.00  0.00     0.165 C 
ATOM     22  H5  UNL     1      15.224 -20.288  -0.209  1.00  0.00     0.177 HD
BRANCH  18  23
HETATM   23  C9  UNL     1      16.823 -24.366   0.644  1.00  0.00     0.133 C 
HETATM   24  C10 UNL     1      16.120 -25.604   1.161  1.00  0.00     0.027 C 
ENDBRANCH  18  23
ENDBRANCH   7  13
TORSDOF 3
ENDMDL
