MODEL 1
REMARK VINA RESULT: -5.679917278      0.000      0.000
REMARK  4 active torsions:
REMARK  status: ('A' for Active; 'I' for Inactive)
REMARK    1  A    between atoms: O1_2  and  C2_3 
REMARK    2  A    between atoms: C4_10  and  C5_11 
REMARK       I    between atoms: C5_11  and  N3_13 
REMARK    3  A    between atoms: N3_13  and  C6_15 
REMARK    4  A    between atoms: C6_15  and  C7_16 
ROOT
HETATM    1  C2  UNL     1      21.699 -22.801   2.061  1.00  0.00     0.137 A 
HETATM    2  C3  UNL     1      22.967 -23.347   1.950  1.00  0.00     0.130 A 
HETATM    3 BR1  UNL     1      24.113 -23.634   3.452  1.00  0.00    -0.027 Br
HETATM    4  N1  UNL     1      23.197 -23.611   0.650  1.00  0.00    -0.291 N 
ATOM      5  H1  UNL     1      24.049 -24.017   0.265  1.00  0.00     0.187 HD
HETATM    6  N2  UNL     1      22.123 -23.251  -0.043  1.00  0.00    -0.292 N 
ATOM      7  H2  UNL     1      22.024 -23.341  -1.054  1.00  0.00     0.187 HD
HETATM    8  C4  UNL     1      21.184 -22.750   0.781  1.00  0.00     0.152 A 
ENDROOT
BRANCH   8   9
HETATM    9  C5  UNL     1      19.862 -22.241   0.432  1.00  0.00     0.272 C 
HETATM   10  O2  UNL     1      19.096 -22.874  -0.331  1.00  0.00    -0.266 OA
HETATM   11  N3  UNL     1      19.405 -21.001   0.952  1.00  0.00    -0.354 N 
ATOM     12  H3  UNL     1      20.011 -20.466   1.575  1.00  0.00     0.162 HD
BRANCH  11  13
HETATM   13  C6  UNL     1      18.100 -20.483   0.616  1.00  0.00     0.150 C 
BRANCH  13  14
HETATM   14  C7  UNL     1      17.781 -19.292   1.470  1.00  0.00     0.147 C 
HETATM   15 BR2  UNL     1      19.157 -19.036   2.800  1.00  0.00    -0.077 Br
HETATM   16 BR3  UNL     1      16.093 -19.684   2.370  1.00  0.00    -0.077 Br
ENDBRANCH  13  14
ENDBRANCH  11  13
ENDBRANCH   8   9
BRANCH   1  17
HETATM   17  O1  UNL     1      21.053 -22.382   3.215  1.00  0.00    -0.351 OA
HETATM   18  C1  UNL     1      20.299 -23.321   3.953  1.00  0.00     0.210 C 
ENDBRANCH   1  17
TORSDOF 4
ENDMDL
MODEL 2
REMARK VINA RESULT: -5.636793812      3.375      6.393
REMARK  4 active torsions:
REMARK  status: ('A' for Active; 'I' for Inactive)
REMARK    1  A    between atoms: O1_2  and  C2_3 
REMARK    2  A    between atoms: C4_10  and  C5_11 
REMARK       I    between atoms: C5_11  and  N3_13 
REMARK    3  A    between atoms: N3_13  and  C6_15 
REMARK    4  A    between atoms: C6_15  and  C7_16 
ROOT
HETATM    1  C2  UNL     1      18.514 -21.085   3.546  1.00  0.00     0.137 A 
HETATM    2  C3  UNL     1      17.630 -20.286   2.841  1.00  0.00     0.130 A 
HETATM    3 BR1  UNL     1      18.138 -19.280   1.298  1.00  0.00    -0.027 Br
HETATM    4  N1  UNL     1      16.425 -20.369   3.436  1.00  0.00    -0.291 N 
ATOM      5  H1  UNL     1      15.577 -19.887   3.138  1.00  0.00     0.187 HD
HETATM    6  N2  UNL     1      16.531 -21.186   4.478  1.00  0.00    -0.292 N 
ATOM      7  H2  UNL     1      15.768 -21.430   5.108  1.00  0.00     0.187 HD
HETATM    8  C4  UNL     1      17.792 -21.645   4.581  1.00  0.00     0.152 A 
ENDROOT
BRANCH   8   9
HETATM    9  C5  UNL     1      18.335 -22.560   5.579  1.00  0.00     0.272 C 
HETATM   10  O2  UNL     1      17.676 -23.541   5.996  1.00  0.00    -0.266 OA
HETATM   11  N3  UNL     1      19.636 -22.360   6.110  1.00  0.00    -0.354 N 
ATOM     12  H3  UNL     1      20.193 -21.568   5.788  1.00  0.00     0.162 HD
BRANCH  11  13
HETATM   13  C6  UNL     1      20.188 -23.256   7.099  1.00  0.00     0.150 C 
BRANCH  13  14
HETATM   14  C7  UNL     1      21.084 -24.264   6.441  1.00  0.00     0.147 C 
HETATM   15 BR2  UNL     1      22.099 -25.225   7.773  1.00  0.00    -0.077 Br
HETATM   16 BR3  UNL     1      22.315 -23.261   5.304  1.00  0.00    -0.077 Br
ENDBRANCH  13  14
ENDBRANCH  11  13
ENDBRANCH   8   9
BRANCH   1  17
HETATM   17  O1  UNL     1      19.860 -21.296   3.285  1.00  0.00    -0.351 OA
HETATM   18  C1  UNL     1      20.223 -22.260   2.319  1.00  0.00     0.210 C 
ENDBRANCH   1  17
TORSDOF 4
ENDMDL
MODEL 3
REMARK VINA RESULT: -5.481794682      2.609      3.002
REMARK  4 active torsions:
REMARK  status: ('A' for Active; 'I' for Inactive)
REMARK    1  A    between atoms: O1_2  and  C2_3 
REMARK    2  A    between atoms: C4_10  and  C5_11 
REMARK       I    between atoms: C5_11  and  N3_13 
REMARK    3  A    between atoms: N3_13  and  C6_15 
REMARK    4  A    between atoms: C6_15  and  C7_16 
ROOT
HETATM    1  C2  UNL     1      21.315 -23.053   2.070  1.00  0.00     0.137 A 
HETATM    2  C3  UNL     1      22.667 -23.339   1.988  1.00  0.00     0.130 A 
HETATM    3 BR1  UNL     1      23.763 -23.640   3.525  1.00  0.00    -0.027 Br
HETATM    4  N1  UNL     1      23.014 -23.358   0.688  1.00  0.00    -0.291 N 
ATOM      5  H1  UNL     1      23.948 -23.541   0.321  1.00  0.00     0.187 HD
HETATM    6  N2  UNL     1      21.931 -23.095  -0.034  1.00  0.00    -0.292 N 
ATOM      7  H2  UNL     1      21.906 -23.047  -1.053  1.00  0.00     0.187 HD
HETATM    8  C4  UNL     1      20.871 -22.902   0.772  1.00  0.00     0.152 A 
ENDROOT
BRANCH   8   9
HETATM    9  C5  UNL     1      19.497 -22.591   0.389  1.00  0.00     0.272 C 
HETATM   10  O2  UNL     1      19.240 -21.761  -0.514  1.00  0.00    -0.266 OA
HETATM   11  N3  UNL     1      18.406 -23.226   1.037  1.00  0.00    -0.354 N 
ATOM     12  H3  UNL     1      18.589 -23.905   1.776  1.00  0.00     0.162 HD
BRANCH  11  13
HETATM   13  C6  UNL     1      17.041 -22.930   0.671  1.00  0.00     0.150 C 
BRANCH  13  14
HETATM   14  C7  UNL     1      16.412 -24.120   0.009  1.00  0.00     0.147 C 
HETATM   15 BR2  UNL     1      14.595 -23.718  -0.502  1.00  0.00    -0.077 Br
HETATM   16 BR3  UNL     1      16.397 -25.555   1.335  1.00  0.00    -0.077 Br
ENDBRANCH  13  14
ENDBRANCH  11  13
ENDBRANCH   8   9
BRANCH   1  17
HETATM   17  O1  UNL     1      20.539 -22.936   3.214  1.00  0.00    -0.351 OA
HETATM   18  C1  UNL     1      20.456 -21.679   3.854  1.00  0.00     0.210 C 
ENDBRANCH   1  17
TORSDOF 4
ENDMDL
MODEL 4
REMARK VINA RESULT: -5.474824151      4.283      5.895
REMARK  4 active torsions:
REMARK  status: ('A' for Active; 'I' for Inactive)
REMARK    1  A    between atoms: O1_2  and  C2_3 
REMARK    2  A    between atoms: C4_10  and  C5_11 
REMARK       I    between atoms: C5_11  and  N3_13 
REMARK    3  A    between atoms: N3_13  and  C6_15 
REMARK    4  A    between atoms: C6_15  and  C7_16 
ROOT
HETATM    1  C2  UNL     1      26.796 -22.723   3.940  1.00  0.00     0.137 A 
HETATM    2  C3  UNL     1      27.903 -21.892   3.947  1.00  0.00     0.130 A 
HETATM    3 BR1  UNL     1      29.479 -22.265   4.962  1.00  0.00    -0.027 Br
HETATM    4  N1  UNL     1      27.645 -20.843   3.144  1.00  0.00    -0.291 N 
ATOM      5  H1  UNL     1      28.278 -20.066   2.954  1.00  0.00     0.187 HD
HETATM    6  N2  UNL     1      26.425 -20.994   2.642  1.00  0.00    -0.292 N 
ATOM      7  H2  UNL     1      25.974 -20.344   1.999  1.00  0.00     0.187 HD
HETATM    8  C4  UNL     1      25.871 -22.130   3.103  1.00  0.00     0.152 A 
ENDROOT
BRANCH   8   9
HETATM    9  C5  UNL     1      24.549 -22.670   2.803  1.00  0.00     0.272 C 
HETATM   10  O2  UNL     1      24.204 -22.946   1.631  1.00  0.00    -0.266 OA
HETATM   11  N3  UNL     1      23.609 -22.899   3.843  1.00  0.00    -0.354 N 
ATOM     12  H3  UNL     1      23.866 -22.683   4.806  1.00  0.00     0.162 HD
BRANCH  11  13
HETATM   13  C6  UNL     1      22.297 -23.433   3.563  1.00  0.00     0.150 C 
BRANCH  13  14
HETATM   14  C7  UNL     1      21.426 -23.329   4.779  1.00  0.00     0.147 C 
HETATM   15 BR2  UNL     1      21.164 -21.477   5.257  1.00  0.00    -0.077 Br
HETATM   16 BR3  UNL     1      22.377 -24.230   6.228  1.00  0.00    -0.077 Br
ENDBRANCH  13  14
ENDBRANCH  11  13
ENDBRANCH   8   9
BRANCH   1  17
HETATM   17  O1  UNL     1      26.625 -23.916   4.626  1.00  0.00    -0.351 OA
HETATM   18  C1  UNL     1      26.790 -23.924   6.029  1.00  0.00     0.210 C 
ENDBRANCH   1  17
TORSDOF 4
ENDMDL
MODEL 5
REMARK VINA RESULT: -5.470152652      3.751      4.964
REMARK  4 active torsions:
REMARK  status: ('A' for Active; 'I' for Inactive)
REMARK    1  A    between atoms: O1_2  and  C2_3 
REMARK    2  A    between atoms: C4_10  and  C5_11 
REMARK       I    between atoms: C5_11  and  N3_13 
REMARK    3  A    between atoms: N3_13  and  C6_15 
REMARK    4  A    between atoms: C6_15  and  C7_16 
ROOT
HETATM    1  C2  UNL     1      25.907 -22.523   3.458  1.00  0.00     0.137 A 
HETATM    2  C3  UNL     1      27.149 -22.060   3.058  1.00  0.00     0.130 A 
HETATM    3 BR1  UNL     1      28.629 -21.885   4.254  1.00  0.00    -0.027 Br
HETATM    4  N1  UNL     1      27.089 -21.780   1.743  1.00  0.00    -0.291 N 
ATOM      5  H1  UNL     1      27.854 -21.420   1.173  1.00  0.00     0.187 HD
HETATM    6  N2  UNL     1      25.861 -22.053   1.316  1.00  0.00    -0.292 N 
ATOM      7  H2  UNL     1      25.538 -21.935   0.356  1.00  0.00     0.187 HD
HETATM    8  C4  UNL     1      25.107 -22.509   2.332  1.00  0.00     0.152 A 
ENDROOT
BRANCH   8   9
HETATM    9  C5  UNL     1      23.707 -22.921   2.297  1.00  0.00     0.272 C 
HETATM   10  O2  UNL     1      23.218 -23.495   1.296  1.00  0.00    -0.266 OA
HETATM   11  N3  UNL     1      22.855 -22.679   3.406  1.00  0.00    -0.354 N 
ATOM     12  H3  UNL     1      23.229 -22.212   4.233  1.00  0.00     0.162 HD
BRANCH  11  13
HETATM   13  C6  UNL     1      21.468 -23.080   3.387  1.00  0.00     0.150 C 
BRANCH  13  14
HETATM   14  C7  UNL     1      20.850 -22.871   4.738  1.00  0.00     0.147 C 
HETATM   15 BR2  UNL     1      20.995 -21.018   5.259  1.00  0.00    -0.077 Br
HETATM   16 BR3  UNL     1      21.868 -23.966   5.995  1.00  0.00    -0.077 Br
ENDBRANCH  13  14
ENDBRANCH  11  13
ENDBRANCH   8   9
BRANCH   1  17
HETATM   17  O1  UNL     1      25.519 -22.927   4.727  1.00  0.00    -0.351 OA
HETATM   18  C1  UNL     1      25.729 -24.270   5.108  1.00  0.00     0.210 C 
ENDBRANCH   1  17
TORSDOF 4
ENDMDL
