MODEL 1
REMARK VINA RESULT: -6.739129523      0.000      0.000
REMARK  6 active torsions:
REMARK  status: ('A' for Active; 'I' for Inactive)
REMARK    1  A    between atoms: C4_4  and  C5_5 
REMARK    2  A    between atoms: C5_5  and  O1_6 
REMARK    3  A    between atoms: C5_5  and  C6_8 
REMARK    4  A    between atoms: C6_8  and  N1_9 
REMARK    5  A    between atoms: N2_12  and  C9_13 
REMARK    6  A    between atoms: C9_13  and  C10_14 
ROOT
HETATM    1  N1  UNL     1      63.523   7.489   8.887  1.00  0.00    -0.385 N 
HETATM    2  C7  UNL     1      63.317   8.876   8.557  1.00  0.00     0.142 C 
HETATM    3  C8  UNL     1      63.183   9.753   9.786  1.00  0.00     0.147 C 
HETATM    4  N2  UNL     1      62.121   9.208  10.538  1.00  0.00    -0.367 N 
HETATM    5  C13 UNL     1      62.440   7.962  11.070  1.00  0.00     0.107 C 
HETATM    6  C14 UNL     1      62.810   6.989   9.973  1.00  0.00     0.102 C 
ENDROOT
BRANCH   1   7
HETATM    7  C6  UNL     1      64.845   7.076   8.613  1.00  0.00     0.154 C 
BRANCH   7   8
HETATM    8  C5  UNL     1      64.978   6.003   7.570  1.00  0.00     0.140 C 
BRANCH   8   9
HETATM    9  C4  UNL     1      65.438   4.723   8.313  1.00  0.00     0.020 A 
HETATM   10  C2  UNL     1      64.278   3.875   8.787  1.00  0.00    -0.012 A 
HETATM   11  C1  UNL     1      64.442   3.303  10.167  1.00  0.00     0.010 C 
HETATM   12  C3  UNL     1      65.158   3.399   7.668  1.00  0.00     0.012 A 
ENDBRANCH   8   9
BRANCH   8  13
HETATM   13  O1  UNL     1      65.966   6.355   6.649  1.00  0.00    -0.394 OA
ATOM     14  H1  UNL     1      65.555   6.828   5.936  1.00  0.00     0.210 HD
ENDBRANCH   8  13
ENDBRANCH   7   8
ENDBRANCH   1   7
BRANCH   4  15
HETATM   15  C9  UNL     1      61.063   9.987  10.970  1.00  0.00     0.068 C 
BRANCH  15  16
HETATM   16  C10 UNL     1      59.676   9.465  10.682  1.00  0.00     0.024 A 
HETATM   17  C11 UNL     1      58.546  10.051  11.510  1.00  0.00     0.010 A 
HETATM   18  C12 UNL     1      58.954   8.607  11.658  1.00  0.00     0.010 A 
ENDBRANCH  15  16
ENDBRANCH   4  15
TORSDOF 6
ENDMDL
MODEL 2
REMARK VINA RESULT: -6.628497909      0.856      1.064
REMARK  6 active torsions:
REMARK  status: ('A' for Active; 'I' for Inactive)
REMARK    1  A    between atoms: C4_4  and  C5_5 
REMARK    2  A    between atoms: C5_5  and  O1_6 
REMARK    3  A    between atoms: C5_5  and  C6_8 
REMARK    4  A    between atoms: C6_8  and  N1_9 
REMARK    5  A    between atoms: N2_12  and  C9_13 
REMARK    6  A    between atoms: C9_13  and  C10_14 
ROOT
HETATM    1  N1  UNL     1      62.925   7.656   9.136  1.00  0.00    -0.385 N 
HETATM    2  C7  UNL     1      62.536   8.971   8.695  1.00  0.00     0.142 C 
HETATM    3  C8  UNL     1      62.073   9.855   9.835  1.00  0.00     0.147 C 
HETATM    4  N2  UNL     1      61.022   9.158  10.466  1.00  0.00    -0.367 N 
HETATM    5  C13 UNL     1      61.467   8.009  11.113  1.00  0.00     0.107 C 
HETATM    6  C14 UNL     1      62.156   7.077  10.142  1.00  0.00     0.102 C 
ENDROOT
BRANCH   1   7
HETATM    7  C6  UNL     1      64.323   7.476   9.074  1.00  0.00     0.154 C 
BRANCH   7   8
HETATM    8  C5  UNL     1      64.810   6.623   7.937  1.00  0.00     0.140 C 
BRANCH   8   9
HETATM    9  C4  UNL     1      65.450   5.364   8.575  1.00  0.00     0.020 A 
HETATM   10  C2  UNL     1      64.453   4.245   8.782  1.00  0.00    -0.012 A 
HETATM   11  C1  UNL     1      64.587   3.520  10.092  1.00  0.00     0.010 C 
HETATM   12  C3  UNL     1      65.528   4.119   7.742  1.00  0.00     0.012 A 
ENDBRANCH   8   9
BRANCH   8  13
HETATM   13  O1  UNL     1      65.798   7.302   7.222  1.00  0.00    -0.394 OA
ATOM     14  H1  UNL     1      66.191   6.696   6.607  1.00  0.00     0.210 HD
ENDBRANCH   8  13
ENDBRANCH   7   8
ENDBRANCH   1   7
BRANCH   4  15
HETATM   15  C9  UNL     1      59.794   9.751  10.697  1.00  0.00     0.068 C 
BRANCH  15  16
HETATM   16  C10 UNL     1      59.126   9.436  12.013  1.00  0.00     0.024 A 
HETATM   17  C11 UNL     1      57.801   8.697  11.943  1.00  0.00     0.010 A 
HETATM   18  C12 UNL     1      57.875  10.122  12.431  1.00  0.00     0.010 A 
ENDBRANCH  15  16
ENDBRANCH   4  15
TORSDOF 6
ENDMDL
MODEL 3
REMARK VINA RESULT: -6.627588320      4.705      6.350
REMARK  6 active torsions:
REMARK  status: ('A' for Active; 'I' for Inactive)
REMARK    1  A    between atoms: C4_4  and  C5_5 
REMARK    2  A    between atoms: C5_5  and  O1_6 
REMARK    3  A    between atoms: C5_5  and  C6_8 
REMARK    4  A    between atoms: C6_8  and  N1_9 
REMARK    5  A    between atoms: N2_12  and  C9_13 
REMARK    6  A    between atoms: C9_13  and  C10_14 
ROOT
HETATM    1  N1  UNL     1      62.672  13.119  10.500  1.00  0.00    -0.385 N 
HETATM    2  C7  UNL     1      62.909  14.213  11.406  1.00  0.00     0.142 C 
HETATM    3  C8  UNL     1      64.091  13.965  12.322  1.00  0.00     0.147 C 
HETATM    4  N2  UNL     1      63.818  12.753  12.990  1.00  0.00    -0.367 N 
HETATM    5  C13 UNL     1      63.847  11.660  12.128  1.00  0.00     0.107 C 
HETATM    6  C14 UNL     1      62.849  11.834  11.005  1.00  0.00     0.102 C 
ENDROOT
BRANCH   1   7
HETATM    7  C6  UNL     1      63.026  13.451   9.175  1.00  0.00     0.154 C 
BRANCH   7   8
HETATM    8  C5  UNL     1      62.125  12.892   8.111  1.00  0.00     0.140 C 
BRANCH   8   9
HETATM    9  C4  UNL     1      62.892  11.714   7.459  1.00  0.00     0.020 A 
HETATM   10  C2  UNL     1      62.246  10.374   7.733  1.00  0.00    -0.012 A 
HETATM   11  C1  UNL     1      63.210   9.267   8.055  1.00  0.00     0.010 C 
HETATM   12  C3  UNL     1      62.214  10.962   6.352  1.00  0.00     0.012 A 
ENDBRANCH   8   9
BRANCH   8  13
HETATM   13  O1  UNL     1      61.889  13.858   7.132  1.00  0.00    -0.394 OA
ATOM     14  H1  UNL     1      61.100  14.333   7.365  1.00  0.00     0.210 HD
ENDBRANCH   8  13
ENDBRANCH   7   8
ENDBRANCH   1   7
BRANCH   4  15
HETATM   15  C9  UNL     1      63.877  12.655  14.368  1.00  0.00     0.068 C 
BRANCH  15  16
HETATM   16  C10 UNL     1      62.778  11.868  15.039  1.00  0.00     0.024 A 
HETATM   17  C11 UNL     1      63.050  11.393  16.456  1.00  0.00     0.010 A 
HETATM   18  C12 UNL     1      62.924  10.414  15.315  1.00  0.00     0.010 A 
ENDBRANCH  15  16
ENDBRANCH   4  15
TORSDOF 6
ENDMDL
MODEL 4
REMARK VINA RESULT: -6.590585822      1.238      1.666
REMARK  6 active torsions:
REMARK  status: ('A' for Active; 'I' for Inactive)
REMARK    1  A    between atoms: C4_4  and  C5_5 
REMARK    2  A    between atoms: C5_5  and  O1_6 
REMARK    3  A    between atoms: C5_5  and  C6_8 
REMARK    4  A    between atoms: C6_8  and  N1_9 
REMARK    5  A    between atoms: N2_12  and  C9_13 
REMARK    6  A    between atoms: C9_13  and  C10_14 
ROOT
HETATM    1  N1  UNL     1      62.597   7.633   9.462  1.00  0.00    -0.385 N 
HETATM    2  C7  UNL     1      61.835   8.834   9.683  1.00  0.00     0.142 C 
HETATM    3  C8  UNL     1      61.555   9.085  11.151  1.00  0.00     0.147 C 
HETATM    4  N2  UNL     1      60.901   7.928  11.626  1.00  0.00    -0.367 N 
HETATM    5  C13 UNL     1      61.742   6.819  11.646  1.00  0.00     0.107 C 
HETATM    6  C14 UNL     1      62.293   6.538  10.266  1.00  0.00     0.102 C 
ENDROOT
BRANCH   1   7
HETATM    7  C6  UNL     1      63.922   7.919   9.068  1.00  0.00     0.154 C 
BRANCH   7   8
HETATM    8  C5  UNL     1      64.464   7.054   7.966  1.00  0.00     0.140 C 
BRANCH   8   9
HETATM    9  C4  UNL     1      65.301   5.943   8.650  1.00  0.00     0.020 A 
HETATM   10  C2  UNL     1      65.087   4.583   8.024  1.00  0.00    -0.012 A 
HETATM   11  C1  UNL     1      64.973   3.451   9.006  1.00  0.00     0.010 C 
HETATM   12  C3  UNL     1      66.395   5.298   7.853  1.00  0.00     0.012 A 
ENDBRANCH   8   9
BRANCH   8  13
HETATM   13  O1  UNL     1      65.313   7.802   7.148  1.00  0.00    -0.394 OA
ATOM     14  H1  UNL     1      65.080   7.634   6.243  1.00  0.00     0.210 HD
ENDBRANCH   8  13
ENDBRANCH   7   8
ENDBRANCH   1   7
BRANCH   4  15
HETATM   15  C9  UNL     1      59.701   8.002  12.308  1.00  0.00     0.068 C 
BRANCH  15  16
HETATM   16  C10 UNL     1      58.563   8.700  11.603  1.00  0.00     0.024 A 
HETATM   17  C11 UNL     1      58.102  10.019  12.199  1.00  0.00     0.010 A 
HETATM   18  C12 UNL     1      57.214   8.801  12.221  1.00  0.00     0.010 A 
ENDBRANCH  15  16
ENDBRANCH   4  15
TORSDOF 6
ENDMDL
MODEL 5
REMARK VINA RESULT: -6.525164017      5.416      7.066
REMARK  6 active torsions:
REMARK  status: ('A' for Active; 'I' for Inactive)
REMARK    1  A    between atoms: C4_4  and  C5_5 
REMARK    2  A    between atoms: C5_5  and  O1_6 
REMARK    3  A    between atoms: C5_5  and  C6_8 
REMARK    4  A    between atoms: C6_8  and  N1_9 
REMARK    5  A    between atoms: N2_12  and  C9_13 
REMARK    6  A    between atoms: C9_13  and  C10_14 
ROOT
HETATM    1  N1  UNL     1      64.084  13.813  11.906  1.00  0.00    -0.385 N 
HETATM    2  C7  UNL     1      62.909  14.224  11.183  1.00  0.00     0.142 C 
HETATM    3  C8  UNL     1      62.313  13.105  10.353  1.00  0.00     0.147 C 
HETATM    4  N2  UNL     1      63.347  12.657   9.504  1.00  0.00    -0.367 N 
HETATM    5  C13 UNL     1      64.368  12.024  10.207  1.00  0.00     0.107 C 
HETATM    6  C14 UNL     1      64.957  12.950  11.248  1.00  0.00     0.102 C 
ENDROOT
BRANCH   1   7
HETATM    7  C6  UNL     1      63.835  13.702  13.291  1.00  0.00     0.154 C 
BRANCH   7   8
HETATM    8  C5  UNL     1      64.187  12.376  13.902  1.00  0.00     0.140 C 
BRANCH   8   9
HETATM    9  C4  UNL     1      62.878  11.546  13.935  1.00  0.00     0.020 A 
HETATM   10  C2  UNL     1      63.010  10.221  13.218  1.00  0.00    -0.012 A 
HETATM   11  C1  UNL     1      61.826   9.845  12.371  1.00  0.00     0.010 C 
HETATM   12  C3  UNL     1      62.880  10.264  14.712  1.00  0.00     0.012 A 
ENDBRANCH   8   9
BRANCH   8  13
HETATM   13  O1  UNL     1      64.624  12.558  15.215  1.00  0.00    -0.394 OA
ATOM     14  H1  UNL     1      65.066  13.397  15.268  1.00  0.00     0.210 HD
ENDBRANCH   8  13
ENDBRANCH   7   8
ENDBRANCH   1   7
BRANCH   4  15
HETATM   15  C9  UNL     1      63.169  12.554   8.137  1.00  0.00     0.068 C 
BRANCH  15  16
HETATM   16  C10 UNL     1      62.825  11.186   7.599  1.00  0.00     0.024 A 
HETATM   17  C11 UNL     1      62.079  11.144   6.277  1.00  0.00     0.010 A 
HETATM   18  C12 UNL     1      61.421  10.700   7.559  1.00  0.00     0.010 A 
ENDBRANCH  15  16
ENDBRANCH   4  15
TORSDOF 6
ENDMDL
