MODEL 1
REMARK VINA RESULT: -7.058996306      0.000      0.000
REMARK  4 active torsions:
REMARK  status: ('A' for Active; 'I' for Inactive)
REMARK    1  A    between atoms: C2_2  and  C3_3 
REMARK    2  A    between atoms: C3_3  and  N1_5 
REMARK    3  A    between atoms: N1_5  and  C5_7 
REMARK    4  A    between atoms: N2_11  and  C9_12 
ROOT
HETATM    1  C5  UNL     1      61.696  10.220  10.206  1.00  0.00     0.142 C 
HETATM    2  C6  UNL     1      63.062  10.912  10.030  1.00  0.00     0.073 C 
HETATM    3  C7  UNL     1      63.057  11.115   8.527  1.00  0.00     0.107 C 
HETATM    4  C8  UNL     1      63.228   9.786   7.811  1.00  0.00     0.147 C 
HETATM    5  N2  UNL     1      62.801   8.665   8.593  1.00  0.00    -0.385 N 
HETATM    6  C12 UNL     1      61.759   8.893   9.505  1.00  0.00     0.099 C 
HETATM    7  N3  UNL     1      61.677  11.522   8.296  1.00  0.00    -0.348 N 
HETATM    8  C13 UNL     1      61.180  12.127   7.081  1.00  0.00     0.153 C 
HETATM    9  C14 UNL     1      60.896  11.221   9.456  1.00  0.00     0.253 C 
HETATM   10  O1  UNL     1      59.800  11.754   9.668  1.00  0.00    -0.270 OA
ENDROOT
BRANCH   1  11
HETATM   11  N1  UNL     1      61.365  10.173  11.575  1.00  0.00    -0.394 N 
ATOM     12  H1  UNL     1      60.620  10.770  11.931  1.00  0.00     0.155 HD
BRANCH  11  13
HETATM   13  C3  UNL     1      62.041   9.322  12.453  1.00  0.00     0.096 C 
HETATM   14  C4  UNL     1      62.633  10.169  13.593  1.00  0.00     0.036 C 
BRANCH  13  15
HETATM   15  C2  UNL     1      61.257   8.243  13.106  1.00  0.00    -0.013 C 
HETATM   16  C1  UNL     1      61.254   6.991  12.669  1.00  0.00     0.009 C 
ENDBRANCH  13  15
ENDBRANCH  11  13
ENDBRANCH   1  11
BRANCH   5  17
HETATM   17  C9  UNL     1      63.829   7.777   8.994  1.00  0.00     0.075 C 
HETATM   18  C10 UNL     1      64.733   7.341   7.855  1.00  0.00     0.032 C 
HETATM   19  C11 UNL     1      63.194   6.485   9.504  1.00  0.00     0.032 C 
ENDBRANCH   5  17
TORSDOF 4
ENDMDL
MODEL 2
REMARK VINA RESULT: -6.965454896      1.768      3.985
REMARK  4 active torsions:
REMARK  status: ('A' for Active; 'I' for Inactive)
REMARK    1  A    between atoms: C2_2  and  C3_3 
REMARK    2  A    between atoms: C3_3  and  N1_5 
REMARK    3  A    between atoms: N1_5  and  C5_7 
REMARK    4  A    between atoms: N2_11  and  C9_12 
ROOT
HETATM    1  C5  UNL     1      62.707  10.519   8.974  1.00  0.00     0.142 C 
HETATM    2  C6  UNL     1      61.545  10.270   7.991  1.00  0.00     0.073 C 
HETATM    3  C7  UNL     1      60.779  11.568   8.164  1.00  0.00     0.107 C 
HETATM    4  C8  UNL     1      60.103  11.609   9.524  1.00  0.00     0.147 C 
HETATM    5  N2  UNL     1      60.745  10.780  10.498  1.00  0.00    -0.385 N 
HETATM    6  C12 UNL     1      62.130  10.598  10.359  1.00  0.00     0.099 C 
HETATM    7  N3  UNL     1      61.865  12.538   8.225  1.00  0.00    -0.348 N 
HETATM    8  C13 UNL     1      61.711  13.969   8.091  1.00  0.00     0.153 C 
HETATM    9  C14 UNL     1      63.100  11.850   8.445  1.00  0.00     0.253 C 
HETATM   10  O1  UNL     1      64.195  12.371   8.203  1.00  0.00    -0.270 OA
ENDROOT
BRANCH   1  11
HETATM   11  N1  UNL     1      63.702   9.541   8.782  1.00  0.00    -0.394 N 
ATOM     12  H1  UNL     1      64.685   9.806   8.845  1.00  0.00     0.155 HD
BRANCH  11  13
HETATM   13  C3  UNL     1      63.367   8.213   8.506  1.00  0.00     0.096 C 
HETATM   14  C4  UNL     1      64.577   7.534   7.842  1.00  0.00     0.036 C 
BRANCH  13  15
HETATM   15  C2  UNL     1      62.987   7.347   9.651  1.00  0.00    -0.013 C 
HETATM   16  C1  UNL     1      63.146   6.030   9.640  1.00  0.00     0.009 C 
ENDBRANCH  13  15
ENDBRANCH  11  13
ENDBRANCH   1  11
BRANCH   5  17
HETATM   17  C9  UNL     1      59.989   9.667  10.942  1.00  0.00     0.075 C 
HETATM   18  C10 UNL     1      58.617  10.039  11.476  1.00  0.00     0.032 C 
HETATM   19  C11 UNL     1      60.707   9.024  12.127  1.00  0.00     0.032 C 
ENDBRANCH   5  17
TORSDOF 4
ENDMDL
MODEL 3
REMARK VINA RESULT: -6.960384291      2.839      4.935
REMARK  4 active torsions:
REMARK  status: ('A' for Active; 'I' for Inactive)
REMARK    1  A    between atoms: C2_2  and  C3_3 
REMARK    2  A    between atoms: C3_3  and  N1_5 
REMARK    3  A    between atoms: N1_5  and  C5_7 
REMARK    4  A    between atoms: N2_11  and  C9_12 
ROOT
HETATM    1  C5  UNL     1      63.790  12.262   9.810  1.00  0.00     0.142 C 
HETATM    2  C6  UNL     1      62.610  13.129  10.292  1.00  0.00     0.073 C 
HETATM    3  C7  UNL     1      63.316  13.964  11.343  1.00  0.00     0.107 C 
HETATM    4  C8  UNL     1      63.660  13.113  12.555  1.00  0.00     0.147 C 
HETATM    5  N2  UNL     1      63.779  11.720  12.249  1.00  0.00    -0.385 N 
HETATM    6  C12 UNL     1      64.220  11.392  10.958  1.00  0.00     0.099 C 
HETATM    7  N3  UNL     1      64.582  14.251  10.681  1.00  0.00    -0.348 N 
HETATM    8  C13 UNL     1      65.532  15.256  11.102  1.00  0.00     0.153 C 
HETATM    9  C14 UNL     1      64.736  13.378   9.558  1.00  0.00     0.253 C 
HETATM   10  O1  UNL     1      65.528  13.621   8.640  1.00  0.00    -0.270 OA
ENDROOT
BRANCH   1  11
HETATM   11  N1  UNL     1      63.424  11.581   8.632  1.00  0.00    -0.394 N 
ATOM     12  H1  UNL     1      63.684  11.972   7.727  1.00  0.00     0.155 HD
BRANCH  11  13
HETATM   13  C3  UNL     1      62.710  10.381   8.683  1.00  0.00     0.096 C 
HETATM   14  C4  UNL     1      61.392  10.566   7.912  1.00  0.00     0.036 C 
BRANCH  13  15
HETATM   15  C2  UNL     1      63.355   9.173   8.109  1.00  0.00    -0.013 C 
HETATM   16  C1  UNL     1      63.414   8.016   8.755  1.00  0.00     0.009 C 
ENDBRANCH  13  15
ENDBRANCH  11  13
ENDBRANCH   1  11
BRANCH   5  17
HETATM   17  C9  UNL     1      62.790  10.885  12.826  1.00  0.00     0.075 C 
HETATM   18  C10 UNL     1      62.989  10.646  14.312  1.00  0.00     0.032 C 
HETATM   19  C11 UNL     1      62.885   9.498  12.192  1.00  0.00     0.032 C 
ENDBRANCH   5  17
TORSDOF 4
ENDMDL
MODEL 4
REMARK VINA RESULT: -6.931559779      1.641      1.881
REMARK  4 active torsions:
REMARK  status: ('A' for Active; 'I' for Inactive)
REMARK    1  A    between atoms: C2_2  and  C3_3 
REMARK    2  A    between atoms: C3_3  and  N1_5 
REMARK    3  A    between atoms: N1_5  and  C5_7 
REMARK    4  A    between atoms: N2_11  and  C9_12 
ROOT
HETATM    1  C5  UNL     1      61.066  10.490  10.111  1.00  0.00     0.142 C 
HETATM    2  C6  UNL     1      62.445  11.134  10.356  1.00  0.00     0.073 C 
HETATM    3  C7  UNL     1      62.847  11.435   8.925  1.00  0.00     0.107 C 
HETATM    4  C8  UNL     1      63.174  10.149   8.184  1.00  0.00     0.147 C 
HETATM    5  N2  UNL     1      62.528   8.998   8.739  1.00  0.00    -0.385 N 
HETATM    6  C12 UNL     1      61.285   9.209   9.356  1.00  0.00     0.099 C 
HETATM    7  N3  UNL     1      61.590  11.912   8.366  1.00  0.00    -0.348 N 
HETATM    8  C13 UNL     1      61.451  12.616   7.110  1.00  0.00     0.153 C 
HETATM    9  C14 UNL     1      60.519  11.570   9.251  1.00  0.00     0.253 C 
HETATM   10  O1  UNL     1      59.419  12.133   9.202  1.00  0.00    -0.270 OA
ENDROOT
BRANCH   1  11
HETATM   11  N1  UNL     1      60.380  10.367  11.335  1.00  0.00    -0.394 N 
ATOM     12  H1  UNL     1      60.677  10.927  12.134  1.00  0.00     0.155 HD
BRANCH  11  13
HETATM   13  C3  UNL     1      59.299   9.493  11.474  1.00  0.00     0.096 C 
HETATM   14  C4  UNL     1      59.742   8.307  12.348  1.00  0.00     0.036 C 
BRANCH  13  15
HETATM   15  C2  UNL     1      58.060  10.023  12.098  1.00  0.00    -0.013 C 
HETATM   16  C1  UNL     1      57.239   9.269  12.817  1.00  0.00     0.009 C 
ENDBRANCH  13  15
ENDBRANCH  11  13
ENDBRANCH   1  11
BRANCH   5  17
HETATM   17  C9  UNL     1      63.390   8.044   9.332  1.00  0.00     0.075 C 
HETATM   18  C10 UNL     1      64.318   7.364   8.341  1.00  0.00     0.032 C 
HETATM   19  C11 UNL     1      62.547   6.913   9.917  1.00  0.00     0.032 C 
ENDBRANCH   5  17
TORSDOF 4
ENDMDL
MODEL 5
REMARK VINA RESULT: -6.836990059      2.700      4.825
REMARK  4 active torsions:
REMARK  status: ('A' for Active; 'I' for Inactive)
REMARK    1  A    between atoms: C2_2  and  C3_3 
REMARK    2  A    between atoms: C3_3  and  N1_5 
REMARK    3  A    between atoms: N1_5  and  C5_7 
REMARK    4  A    between atoms: N2_11  and  C9_12 
ROOT
HETATM    1  C5  UNL     1      63.526  12.129   9.628  1.00  0.00     0.142 C 
HETATM    2  C6  UNL     1      62.422  13.038  10.205  1.00  0.00     0.073 C 
HETATM    3  C7  UNL     1      63.248  13.861  11.176  1.00  0.00     0.107 C 
HETATM    4  C8  UNL     1      63.676  13.012  12.362  1.00  0.00     0.147 C 
HETATM    5  N2  UNL     1      63.724  11.612  12.065  1.00  0.00    -0.385 N 
HETATM    6  C12 UNL     1      64.034  11.258  10.743  1.00  0.00     0.099 C 
HETATM    7  N3  UNL     1      64.455  14.101  10.397  1.00  0.00    -0.348 N 
HETATM    8  C13 UNL     1      65.470  15.081  10.715  1.00  0.00     0.153 C 
HETATM    9  C14 UNL     1      64.478  13.213   9.276  1.00  0.00     0.253 C 
HETATM   10  O1  UNL     1      65.188  13.422   8.285  1.00  0.00    -0.270 OA
ENDROOT
BRANCH   1  11
HETATM   11  N1  UNL     1      63.032  11.449   8.498  1.00  0.00    -0.394 N 
ATOM     12  H1  UNL     1      63.685  11.109   7.792  1.00  0.00     0.155 HD
BRANCH  11  13
HETATM   13  C3  UNL     1      61.663  11.230   8.327  1.00  0.00     0.096 C 
HETATM   14  C4  UNL     1      61.358  11.207   6.820  1.00  0.00     0.036 C 
BRANCH  13  15
HETATM   15  C2  UNL     1      61.091   9.977   8.882  1.00  0.00    -0.013 C 
HETATM   16  C1  UNL     1      60.200   9.967   9.864  1.00  0.00     0.009 C 
ENDBRANCH  13  15
ENDBRANCH  11  13
ENDBRANCH   1  11
BRANCH   5  17
HETATM   17  C9  UNL     1      62.769  10.815  12.741  1.00  0.00     0.075 C 
HETATM   18  C10 UNL     1      63.013  10.710  14.236  1.00  0.00     0.032 C 
HETATM   19  C11 UNL     1      62.872   9.380  12.227  1.00  0.00     0.032 C 
ENDBRANCH   5  17
TORSDOF 4
ENDMDL
