MODEL 1
REMARK VINA RESULT: -6.781222990      0.000      0.000
REMARK  4 active torsions:
REMARK  status: ('A' for Active; 'I' for Inactive)
REMARK    1  A    between atoms: S1_2  and  N1_4 
REMARK    2  A    between atoms: S1_2  and  N2_13 
REMARK    3  A    between atoms: N1_4  and  C1_6 
REMARK    4  A    between atoms: C1_6  and  C2_7 
ROOT
HETATM    1  N1  UNL     1      63.448  14.372   9.485  1.00  0.00    -0.304 N 
ATOM      2  H1  UNL     1      63.686  15.300   9.135  1.00  0.00     0.173 HD
ENDROOT
BRANCH   1   3
HETATM    3  S1  UNL     1      64.058  12.831   8.865  1.00  0.00     0.298 S 
HETATM    4  O1  UNL     1      65.437  13.547   8.050  1.00  0.00    -0.188 OA
HETATM    5  O2  UNL     1      64.760  12.260  10.009  1.00  0.00    -0.188 OA
BRANCH   3   6
HETATM    6  N2  UNL     1      63.539  11.925   7.675  1.00  0.00    -0.194 NA
HETATM    7  C7  UNL     1      62.186  12.380   7.351  1.00  0.00     0.109 C 
HETATM    8  C8  UNL     1      61.503  11.181   6.822  1.00  0.00     0.017 C 
HETATM    9  C9  UNL     1      61.757  10.244   7.991  1.00  0.00     0.017 C 
HETATM   10  C10 UNL     1      63.181  10.571   8.326  1.00  0.00     0.109 C 
ENDBRANCH   3   6
ENDBRANCH   1   3
BRANCH   1  11
HETATM   11  C1  UNL     1      62.548  14.075  10.583  1.00  0.00     0.165 C 
BRANCH  11  12
HETATM   12  C2  UNL     1      62.943  15.397  11.504  1.00  0.00     0.140 C 
HETATM   13  C3  UNL     1      64.436  15.138  11.864  1.00  0.00     0.034 C 
HETATM   14  C4  UNL     1      64.840  16.366  12.642  1.00  0.00     0.005 C 
HETATM   15  C5  UNL     1      64.039  16.358  13.919  1.00  0.00     0.026 C 
HETATM   16  C6  UNL     1      62.665  15.805  13.645  1.00  0.00     0.168 C 
HETATM   17  O3  UNL     1      62.264  15.996  12.353  1.00  0.00    -0.384 OA
ENDBRANCH  11  12
ENDBRANCH   1  11
TORSDOF 4
ENDMDL
MODEL 2
REMARK VINA RESULT: -6.726533062      2.059      5.962
REMARK  4 active torsions:
REMARK  status: ('A' for Active; 'I' for Inactive)
REMARK    1  A    between atoms: S1_2  and  N1_4 
REMARK    2  A    between atoms: S1_2  and  N2_13 
REMARK    3  A    between atoms: N1_4  and  C1_6 
REMARK    4  A    between atoms: C1_6  and  C2_7 
ROOT
HETATM    1  N1  UNL     1      63.654  11.430   7.383  1.00  0.00    -0.304 N 
ATOM      2  H1  UNL     1      64.444  11.162   6.796  1.00  0.00     0.173 HD
ENDROOT
BRANCH   1   3
HETATM    3  S1  UNL     1      63.578  12.833   8.458  1.00  0.00     0.298 S 
HETATM    4  O1  UNL     1      65.225  13.344   8.135  1.00  0.00    -0.188 OA
HETATM    5  O2  UNL     1      62.883  13.835   7.658  1.00  0.00    -0.188 OA
BRANCH   3   6
HETATM    6  N2  UNL     1      63.623  12.919  10.039  1.00  0.00    -0.194 NA
HETATM    7  C7  UNL     1      62.629  13.915  10.440  1.00  0.00     0.109 C 
HETATM    8  C8  UNL     1      63.148  14.476  11.705  1.00  0.00     0.017 C 
HETATM    9  C9  UNL     1      64.524  14.894  11.217  1.00  0.00     0.017 C 
HETATM   10  C10 UNL     1      64.902  13.722  10.362  1.00  0.00     0.109 C 
ENDBRANCH   3   6
ENDBRANCH   1   3
BRANCH   1  11
HETATM   11  C1  UNL     1      62.388  10.731   7.488  1.00  0.00     0.165 C 
BRANCH  11  12
HETATM   12  C2  UNL     1      62.824   9.756   8.757  1.00  0.00     0.140 C 
HETATM   13  C3  UNL     1      63.575   8.585   8.058  1.00  0.00     0.034 C 
HETATM   14  C4  UNL     1      64.046   7.720   9.200  1.00  0.00     0.005 C 
HETATM   15  C5  UNL     1      62.814   7.161   9.864  1.00  0.00     0.026 C 
HETATM   16  C6  UNL     1      61.715   8.191   9.829  1.00  0.00     0.168 C 
HETATM   17  O3  UNL     1      62.190   9.472   9.786  1.00  0.00    -0.384 OA
ENDBRANCH  11  12
ENDBRANCH   1  11
TORSDOF 4
ENDMDL
MODEL 3
REMARK VINA RESULT: -6.704550812      2.514      3.374
REMARK  4 active torsions:
REMARK  status: ('A' for Active; 'I' for Inactive)
REMARK    1  A    between atoms: S1_2  and  N1_4 
REMARK    2  A    between atoms: S1_2  and  N2_13 
REMARK    3  A    between atoms: N1_4  and  C1_6 
REMARK    4  A    between atoms: C1_6  and  C2_7 
ROOT
HETATM    1  N1  UNL     1      62.159  13.176  10.372  1.00  0.00    -0.304 N 
ATOM      2  H1  UNL     1      61.736  12.452  10.952  1.00  0.00     0.173 HD
ENDROOT
BRANCH   1   3
HETATM    3  S1  UNL     1      61.827  13.472   8.659  1.00  0.00     0.298 S 
HETATM    4  O1  UNL     1      60.257  12.690   8.686  1.00  0.00    -0.188 OA
HETATM    5  O2  UNL     1      61.374  14.858   8.636  1.00  0.00    -0.188 OA
BRANCH   3   6
HETATM    6  N2  UNL     1      62.407  12.768   7.364  1.00  0.00    -0.194 NA
HETATM    7  C7  UNL     1      61.279  12.130   6.684  1.00  0.00     0.109 C 
HETATM    8  C8  UNL     1      61.871  10.975   5.978  1.00  0.00     0.017 C 
HETATM    9  C9  UNL     1      62.549  10.310   7.163  1.00  0.00     0.017 C 
HETATM   10  C10 UNL     1      63.118  11.498   7.881  1.00  0.00     0.109 C 
ENDBRANCH   3   6
ENDBRANCH   1   3
BRANCH   1  11
HETATM   11  C1  UNL     1      63.143  14.152  10.800  1.00  0.00     0.165 C 
BRANCH  11  12
HETATM   12  C2  UNL     1      64.449  13.132  10.736  1.00  0.00     0.140 C 
HETATM   13  C3  UNL     1      64.713  12.807  12.235  1.00  0.00     0.034 C 
HETATM   14  C4  UNL     1      65.854  11.820  12.199  1.00  0.00     0.005 C 
HETATM   15  C5  UNL     1      67.053  12.557  11.659  1.00  0.00     0.026 C 
HETATM   16  C6  UNL     1      66.604  13.545  10.613  1.00  0.00     0.168 C 
HETATM   17  O3  UNL     1      65.444  13.173   9.994  1.00  0.00    -0.384 OA
ENDBRANCH  11  12
ENDBRANCH   1  11
TORSDOF 4
ENDMDL
MODEL 4
REMARK VINA RESULT: -6.693525616      2.919      3.974
REMARK  4 active torsions:
REMARK  status: ('A' for Active; 'I' for Inactive)
REMARK    1  A    between atoms: S1_2  and  N1_4 
REMARK    2  A    between atoms: S1_2  and  N2_13 
REMARK    3  A    between atoms: N1_4  and  C1_6 
REMARK    4  A    between atoms: C1_6  and  C2_7 
ROOT
HETATM    1  N1  UNL     1      62.360  12.912   7.069  1.00  0.00    -0.304 N 
ATOM      2  H1  UNL     1      62.923  13.015   6.224  1.00  0.00     0.173 HD
ENDROOT
BRANCH   1   3
HETATM    3  S1  UNL     1      61.126  11.679   7.361  1.00  0.00     0.298 S 
HETATM    4  O1  UNL     1      60.262  12.629   8.556  1.00  0.00    -0.188 OA
HETATM    5  O2  UNL     1      60.204  11.851   6.245  1.00  0.00    -0.188 OA
BRANCH   3   6
HETATM    6  N2  UNL     1      61.204  10.319   8.170  1.00  0.00    -0.194 NA
HETATM    7  C7  UNL     1      61.201  10.667   9.591  1.00  0.00     0.109 C 
HETATM    8  C8  UNL     1      61.954   9.576  10.246  1.00  0.00     0.017 C 
HETATM    9  C9  UNL     1      63.227   9.655   9.422  1.00  0.00     0.017 C 
HETATM   10  C10 UNL     1      62.673   9.860   8.044  1.00  0.00     0.109 C 
ENDBRANCH   3   6
ENDBRANCH   1   3
BRANCH   1  11
HETATM   11  C1  UNL     1      62.427  13.751   8.250  1.00  0.00     0.165 C 
BRANCH  11  12
HETATM   12  C2  UNL     1      63.911  13.219   8.766  1.00  0.00     0.140 C 
HETATM   13  C3  UNL     1      63.826  13.389  10.311  1.00  0.00     0.034 C 
HETATM   14  C4  UNL     1      65.140  12.842  10.812  1.00  0.00     0.005 C 
HETATM   15  C5  UNL     1      66.220  13.758  10.295  1.00  0.00     0.026 C 
HETATM   16  C6  UNL     1      65.846  14.250   8.922  1.00  0.00     0.168 C 
HETATM   17  O3  UNL     1      65.029  13.383   8.251  1.00  0.00    -0.384 OA
ENDBRANCH  11  12
ENDBRANCH   1  11
TORSDOF 4
ENDMDL
MODEL 5
REMARK VINA RESULT: -6.640891957      2.687      6.062
REMARK  4 active torsions:
REMARK  status: ('A' for Active; 'I' for Inactive)
REMARK    1  A    between atoms: S1_2  and  N1_4 
REMARK    2  A    between atoms: S1_2  and  N2_13 
REMARK    3  A    between atoms: N1_4  and  C1_6 
REMARK    4  A    between atoms: C1_6  and  C2_7 
ROOT
HETATM    1  N1  UNL     1      62.512  11.930   9.030  1.00  0.00    -0.304 N 
ATOM      2  H1  UNL     1      61.762  11.758   9.699  1.00  0.00     0.173 HD
ENDROOT
BRANCH   1   3
HETATM    3  S1  UNL     1      63.456  13.419   8.875  1.00  0.00     0.298 S 
HETATM    4  O1  UNL     1      64.745  12.670   7.951  1.00  0.00    -0.188 OA
HETATM    5  O2  UNL     1      62.795  14.127   7.784  1.00  0.00    -0.188 OA
BRANCH   3   6
HETATM    6  N2  UNL     1      64.353  14.182   9.934  1.00  0.00    -0.194 NA
HETATM    7  C7  UNL     1      65.645  14.435   9.296  1.00  0.00     0.109 C 
HETATM    8  C8  UNL     1      66.615  14.461  10.410  1.00  0.00     0.017 C 
HETATM    9  C9  UNL     1      66.294  13.107  11.020  1.00  0.00     0.017 C 
HETATM   10  C10 UNL     1      64.797  13.097  10.940  1.00  0.00     0.109 C 
ENDBRANCH   3   6
ENDBRANCH   1   3
BRANCH   1  11
HETATM   11  C1  UNL     1      63.000  10.999   8.032  1.00  0.00     0.165 C 
BRANCH  11  12
HETATM   12  C2  UNL     1      63.232   9.726   9.070  1.00  0.00     0.140 C 
HETATM   13  C3  UNL     1      63.648   8.568   8.116  1.00  0.00     0.034 C 
HETATM   14  C4  UNL     1      63.936   7.416   9.047  1.00  0.00     0.005 C 
HETATM   15  C5  UNL     1      62.630   7.042   9.699  1.00  0.00     0.026 C 
HETATM   16  C6  UNL     1      61.815   8.287   9.936  1.00  0.00     0.168 C 
HETATM   17  O3  UNL     1      62.585   9.406  10.081  1.00  0.00    -0.384 OA
ENDBRANCH  11  12
ENDBRANCH   1  11
TORSDOF 4
ENDMDL
