MODEL 1
REMARK VINA RESULT: -5.907065879      0.000      0.000
REMARK  6 active torsions:
REMARK  status: ('A' for Active; 'I' for Inactive)
REMARK    1  A    between atoms: N1_1  and  C1_5 
REMARK    2  A    between atoms: N2_6  and  C2_7 
REMARK    3  A    between atoms: C2_7  and  C3_8 
REMARK    4  A    between atoms: C12_17  and  C13_18 
REMARK    5  A    between atoms: C13_18  and  O1_19 
REMARK    6  A    between atoms: C14_21  and  O2_22 
ROOT
HETATM    1  C1  UNL     1     -29.147  46.277  11.208  1.00  0.00     0.454 C 
HETATM    2  N2  UNL     1     -28.722  45.438  10.132  1.00  0.00     0.128 N 
HETATM    3  C6  UNL     1     -27.476  44.725  10.412  1.00  0.00     0.233 C 
HETATM    4  C7  UNL     1     -27.848  43.813  11.549  1.00  0.00     0.041 C 
HETATM    5  C8  UNL     1     -27.216  44.393  12.769  1.00  0.00    -0.005 C 
HETATM    6  C9  UNL     1     -25.720  44.074  12.537  1.00  0.00     0.010 C 
HETATM    7  C10 UNL     1     -25.422  45.396  11.805  1.00  0.00    -0.005 C 
HETATM    8  C11 UNL     1     -25.846  46.234  13.030  1.00  0.00     0.013 C 
HETATM    9  C12 UNL     1     -27.340  45.850  12.954  1.00  0.00     0.031 C 
HETATM   10  C13 UNL     1     -27.928  46.723  11.952  1.00  0.00     0.144 C 
HETATM   11  C14 UNL     1     -26.906  47.031  10.840  1.00  0.00     0.163 C 
HETATM   12  C15 UNL     1     -26.322  45.620  10.636  1.00  0.00     0.055 C 
ENDROOT
BRANCH   1  13
HETATM   13  N1  UNL     1     -30.208  45.785  12.017  1.00  0.00    -0.044 N 
ATOM     14  H13 UNL     1     -30.318  44.782  11.866  1.00  0.00     0.277 HD
ATOM     15  H12 UNL     1     -29.926  45.796  12.996  1.00  0.00     0.277 HD
ATOM     16  H11 UNL     1     -31.111  46.248  11.914  1.00  0.00     0.277 HD
ENDBRANCH   1  13
BRANCH   2  17
HETATM   17  C2  UNL     1     -29.755  44.673   9.589  1.00  0.00     0.280 C 
BRANCH  17  18
HETATM   18  C3  UNL     1     -29.456  44.034   8.258  1.00  0.00     0.014 A 
HETATM   19  C4  UNL     1     -30.637  43.246   7.681  1.00  0.00     0.007 A 
HETATM   20  C5  UNL     1     -29.457  42.508   8.187  1.00  0.00     0.007 A 
ENDBRANCH  17  18
ENDBRANCH   2  17
BRANCH  10  21
HETATM   21  O1  UNL     1     -28.224  47.959  12.536  1.00  0.00    -0.383 OA
ATOM     22  H1  UNL     1     -27.405  48.332  12.841  1.00  0.00     0.210 HD
ENDBRANCH  10  21
BRANCH  11  23
HETATM   23  O2  UNL     1     -27.511  47.525   9.694  1.00  0.00    -0.392 OA
ATOM     24  H2  UNL     1     -27.662  48.462   9.742  1.00  0.00     0.210 HD
ENDBRANCH  11  23
TORSDOF 6
ENDMDL
MODEL 2
REMARK VINA RESULT: -5.770273744      2.055      4.093
REMARK  6 active torsions:
REMARK  status: ('A' for Active; 'I' for Inactive)
REMARK    1  A    between atoms: N1_1  and  C1_5 
REMARK    2  A    between atoms: N2_6  and  C2_7 
REMARK    3  A    between atoms: C2_7  and  C3_8 
REMARK    4  A    between atoms: C12_17  and  C13_18 
REMARK    5  A    between atoms: C13_18  and  O1_19 
REMARK    6  A    between atoms: C14_21  and  O2_22 
ROOT
HETATM    1  C1  UNL     1     -26.295  46.533  11.052  1.00  0.00     0.454 C 
HETATM    2  N2  UNL     1     -25.843  45.210  11.345  1.00  0.00     0.128 N 
HETATM    3  C6  UNL     1     -26.924  44.299  11.720  1.00  0.00     0.233 C 
HETATM    4  C7  UNL     1     -27.747  44.204  10.466  1.00  0.00     0.041 C 
HETATM    5  C8  UNL     1     -28.985  44.995  10.722  1.00  0.00    -0.005 C 
HETATM    6  C9  UNL     1     -29.748  44.082  11.712  1.00  0.00     0.010 C 
HETATM    7  C10 UNL     1     -29.131  44.720  12.971  1.00  0.00    -0.005 C 
HETATM    8  C11 UNL     1     -29.700  46.109  12.614  1.00  0.00     0.013 C 
HETATM    9  C12 UNL     1     -28.815  46.309  11.365  1.00  0.00     0.031 C 
HETATM   10  C13 UNL     1     -27.532  46.785  11.855  1.00  0.00     0.144 C 
HETATM   11  C14 UNL     1     -27.216  46.161  13.229  1.00  0.00     0.163 C 
HETATM   12  C15 UNL     1     -27.639  44.706  12.948  1.00  0.00     0.055 C 
ENDROOT
BRANCH   1  13
HETATM   13  N1  UNL     1     -26.380  46.885   9.677  1.00  0.00    -0.044 N 
ATOM     14  H13 UNL     1     -25.590  47.479   9.425  1.00  0.00     0.277 HD
ATOM     15  H12 UNL     1     -26.187  46.066   9.101  1.00  0.00     0.277 HD
ATOM     16  H11 UNL     1     -27.249  47.323   9.372  1.00  0.00     0.277 HD
ENDBRANCH   1  13
BRANCH   2  17
HETATM   17  C2  UNL     1     -24.927  44.721  10.413  1.00  0.00     0.280 C 
BRANCH  17  18
HETATM   18  C3  UNL     1     -23.572  44.360  10.963  1.00  0.00     0.014 A 
HETATM   19  C4  UNL     1     -22.877  43.238  10.186  1.00  0.00     0.007 A 
HETATM   20  C5  UNL     1     -23.392  42.960  11.546  1.00  0.00     0.007 A 
ENDBRANCH  17  18
ENDBRANCH   2  17
BRANCH  10  21
HETATM   21  O1  UNL     1     -27.609  48.163  12.083  1.00  0.00    -0.383 OA
ATOM     22  H1  UNL     1     -28.516  48.367  12.283  1.00  0.00     0.210 HD
ENDBRANCH  10  21
BRANCH  11  23
HETATM   23  O2  UNL     1     -25.873  46.269  13.558  1.00  0.00    -0.392 OA
ATOM     24  H2  UNL     1     -25.732  46.823  14.317  1.00  0.00     0.210 HD
ENDBRANCH  11  23
TORSDOF 6
ENDMDL
MODEL 3
REMARK VINA RESULT: -5.716044951      4.828      6.768
REMARK  6 active torsions:
REMARK  status: ('A' for Active; 'I' for Inactive)
REMARK    1  A    between atoms: N1_1  and  C1_5 
REMARK    2  A    between atoms: N2_6  and  C2_7 
REMARK    3  A    between atoms: C2_7  and  C3_8 
REMARK    4  A    between atoms: C12_17  and  C13_18 
REMARK    5  A    between atoms: C13_18  and  O1_19 
REMARK    6  A    between atoms: C14_21  and  O2_22 
ROOT
HETATM    1  C1  UNL     1     -24.912  49.346   8.053  1.00  0.00     0.454 C 
HETATM    2  N2  UNL     1     -26.013  48.478   8.333  1.00  0.00     0.128 N 
HETATM    3  C6  UNL     1     -27.075  48.549   7.330  1.00  0.00     0.233 C 
HETATM    4  C7  UNL     1     -26.413  48.017   6.089  1.00  0.00     0.041 C 
HETATM    5  C8  UNL     1     -26.177  49.197   5.208  1.00  0.00    -0.005 C 
HETATM    6  C9  UNL     1     -27.609  49.530   4.727  1.00  0.00     0.010 C 
HETATM    7  C10 UNL     1     -27.906  50.505   5.883  1.00  0.00    -0.005 C 
HETATM    8  C11 UNL     1     -26.730  51.422   5.483  1.00  0.00     0.013 C 
HETATM    9  C12 UNL     1     -25.627  50.405   5.847  1.00  0.00     0.031 C 
HETATM   10  C13 UNL     1     -25.435  50.518   7.283  1.00  0.00     0.144 C 
HETATM   11  C14 UNL     1     -26.769  50.853   7.979  1.00  0.00     0.163 C 
HETATM   12  C15 UNL     1     -27.698  49.884   7.223  1.00  0.00     0.055 C 
ENDROOT
BRANCH   1  13
HETATM   13  N1  UNL     1     -23.745  48.737   7.516  1.00  0.00    -0.044 N 
ATOM     14  H13 UNL     1     -24.008  47.942   6.935  1.00  0.00     0.277 HD
ATOM     15  H12 UNL     1     -23.330  49.350   6.815  1.00  0.00     0.277 HD
ATOM     16  H11 UNL     1     -23.032  48.450   8.187  1.00  0.00     0.277 HD
ENDBRANCH   1  13
BRANCH   2  17
HETATM   17  C2  UNL     1     -25.620  47.197   8.718  1.00  0.00     0.280 C 
BRANCH  17  18
HETATM   18  C3  UNL     1     -25.968  46.810  10.132  1.00  0.00     0.014 A 
HETATM   19  C4  UNL     1     -25.442  45.428  10.534  1.00  0.00     0.007 A 
HETATM   20  C5  UNL     1     -26.898  45.615  10.333  1.00  0.00     0.007 A 
ENDBRANCH  17  18
ENDBRANCH   2  17
BRANCH  10  21
HETATM   21  O1  UNL     1     -24.594  51.603   7.551  1.00  0.00    -0.383 OA
ATOM     22  H1  UNL     1     -23.834  51.519   6.986  1.00  0.00     0.210 HD
ENDBRANCH  10  21
BRANCH  11  23
HETATM   23  O2  UNL     1     -26.730  50.597   9.341  1.00  0.00    -0.392 OA
ATOM     24  H2  UNL     1     -27.407  49.987   9.612  1.00  0.00     0.210 HD
ENDBRANCH  11  23
TORSDOF 6
ENDMDL
MODEL 4
REMARK VINA RESULT: -5.589491885      5.376      7.386
REMARK  6 active torsions:
REMARK  status: ('A' for Active; 'I' for Inactive)
REMARK    1  A    between atoms: N1_1  and  C1_5 
REMARK    2  A    between atoms: N2_6  and  C2_7 
REMARK    3  A    between atoms: C2_7  and  C3_8 
REMARK    4  A    between atoms: C12_17  and  C13_18 
REMARK    5  A    between atoms: C13_18  and  O1_19 
REMARK    6  A    between atoms: C14_21  and  O2_22 
ROOT
HETATM    1  C1  UNL     1     -26.303  48.142   6.029  1.00  0.00     0.454 C 
HETATM    2  N2  UNL     1     -25.970  48.503   7.371  1.00  0.00     0.128 N 
HETATM    3  C6  UNL     1     -25.955  49.949   7.595  1.00  0.00     0.233 C 
HETATM    4  C7  UNL     1     -27.390  50.346   7.386  1.00  0.00     0.041 C 
HETATM    5  C8  UNL     1     -27.439  51.044   6.069  1.00  0.00    -0.005 C 
HETATM    6  C9  UNL     1     -26.747  52.390   6.395  1.00  0.00     0.010 C 
HETATM    7  C10 UNL     1     -25.334  51.894   6.032  1.00  0.00    -0.005 C 
HETATM    8  C11 UNL     1     -25.757  51.580   4.581  1.00  0.00     0.013 C 
HETATM    9  C12 UNL     1     -26.703  50.420   4.956  1.00  0.00     0.031 C 
HETATM   10  C13 UNL     1     -25.856  49.252   5.130  1.00  0.00     0.144 C 
HETATM   11  C14 UNL     1     -24.484  49.662   5.702  1.00  0.00     0.163 C 
HETATM   12  C15 UNL     1     -24.949  50.661   6.779  1.00  0.00     0.055 C 
ENDROOT
BRANCH   1  13
HETATM   13  N1  UNL     1     -27.627  47.675   5.808  1.00  0.00    -0.044 N 
ATOM     14  H13 UNL     1     -28.286  48.247   6.336  1.00  0.00     0.277 HD
ATOM     15  H12 UNL     1     -27.914  47.896   4.854  1.00  0.00     0.277 HD
ATOM     16  H11 UNL     1     -27.800  46.688   5.999  1.00  0.00     0.277 HD
ENDBRANCH   1  13
BRANCH   2  17
HETATM   17  C2  UNL     1     -26.642  47.744   8.330  1.00  0.00     0.280 C 
BRANCH  17  18
HETATM   18  C3  UNL     1     -25.956  47.634   9.666  1.00  0.00     0.014 A 
HETATM   19  C4  UNL     1     -25.695  46.188  10.100  1.00  0.00     0.007 A 
HETATM   20  C5  UNL     1     -26.729  46.976  10.808  1.00  0.00     0.007 A 
ENDBRANCH  17  18
ENDBRANCH   2  17
BRANCH  10  21
HETATM   21  O1  UNL     1     -25.583  48.691   3.879  1.00  0.00    -0.383 OA
ATOM     22  H1  UNL     1     -24.764  49.065   3.573  1.00  0.00     0.210 HD
ENDBRANCH  10  21
BRANCH  11  23
HETATM   23  O2  UNL     1     -23.795  48.586   6.239  1.00  0.00    -0.392 OA
ATOM     24  H2  UNL     1     -23.137  48.246   5.643  1.00  0.00     0.210 HD
ENDBRANCH  11  23
TORSDOF 6
ENDMDL
MODEL 5
REMARK VINA RESULT: -5.544203126      2.184      3.600
REMARK  6 active torsions:
REMARK  status: ('A' for Active; 'I' for Inactive)
REMARK    1  A    between atoms: N1_1  and  C1_5 
REMARK    2  A    between atoms: N2_6  and  C2_7 
REMARK    3  A    between atoms: C2_7  and  C3_8 
REMARK    4  A    between atoms: C12_17  and  C13_18 
REMARK    5  A    between atoms: C13_18  and  O1_19 
REMARK    6  A    between atoms: C14_21  and  O2_22 
ROOT
HETATM    1  C1  UNL     1     -29.458  46.204  11.629  1.00  0.00     0.454 C 
HETATM    2  N2  UNL     1     -29.397  45.032  12.444  1.00  0.00     0.128 N 
HETATM    3  C6  UNL     1     -28.030  44.610  12.749  1.00  0.00     0.233 C 
HETATM    4  C7  UNL     1     -27.496  45.742  13.582  1.00  0.00     0.041 C 
HETATM    5  C8  UNL     1     -26.548  46.490  12.707  1.00  0.00    -0.005 C 
HETATM    6  C9  UNL     1     -25.348  45.516  12.629  1.00  0.00     0.010 C 
HETATM    7  C10 UNL     1     -25.863  44.783  11.375  1.00  0.00    -0.005 C 
HETATM    8  C11 UNL     1     -25.850  46.083  10.543  1.00  0.00     0.013 C 
HETATM    9  C12 UNL     1     -26.990  46.766  11.329  1.00  0.00     0.031 C 
HETATM   10  C13 UNL     1     -28.227  46.239  10.779  1.00  0.00     0.144 C 
HETATM   11  C14 UNL     1     -28.039  44.773  10.340  1.00  0.00     0.163 C 
HETATM   12  C15 UNL     1     -27.244  44.247  11.551  1.00  0.00     0.055 C 
ENDROOT
BRANCH   1  13
HETATM   13  N1  UNL     1     -29.774  47.422  12.292  1.00  0.00    -0.044 N 
ATOM     14  H13 UNL     1     -30.274  47.223  13.158  1.00  0.00     0.277 HD
ATOM     15  H12 UNL     1     -28.922  47.843  12.662  1.00  0.00     0.277 HD
ATOM     16  H11 UNL     1     -30.292  48.114  11.749  1.00  0.00     0.277 HD
ENDBRANCH   1  13
BRANCH   2  17
HETATM   17  C2  UNL     1     -30.281  45.064  13.523  1.00  0.00     0.280 C 
BRANCH  17  18
HETATM   18  C3  UNL     1     -30.551  43.735  14.178  1.00  0.00     0.014 A 
HETATM   19  C4  UNL     1     -31.474  43.832  15.397  1.00  0.00     0.007 A 
HETATM   20  C5  UNL     1     -30.039  43.528  15.602  1.00  0.00     0.007 A 
ENDBRANCH  17  18
ENDBRANCH   2  17
BRANCH  10  21
HETATM   21  O1  UNL     1     -28.546  46.937   9.610  1.00  0.00    -0.383 OA
ATOM     22  H1  UNL     1     -28.019  47.728   9.599  1.00  0.00     0.210 HD
ENDBRANCH  10  21
BRANCH  11  23
HETATM   23  O2  UNL     1     -29.249  44.115  10.174  1.00  0.00    -0.392 OA
ATOM     24  H2  UNL     1     -29.133  43.190   9.989  1.00  0.00     0.210 HD
ENDBRANCH  11  23
TORSDOF 6
ENDMDL
