MODEL 1
REMARK VINA RESULT: -4.978685754      0.000      0.000
REMARK  3 active torsions:
REMARK  status: ('A' for Active; 'I' for Inactive)
REMARK    1  A    between atoms: C4_4  and  O1_5 
REMARK    2  A    between atoms: C8_10  and  C9_11 
REMARK    3  A    between atoms: C10_14  and  C11_15 
ROOT
HETATM    1  C1  UNL     1     -29.146  43.176  10.761  1.00  0.00     0.011 C 
HETATM    2  C2  UNL     1     -29.016  44.283  11.716  1.00  0.00    -0.005 C 
HETATM    3  C3  UNL     1     -28.911  45.670  11.055  1.00  0.00     0.039 C 
HETATM    4  C4  UNL     1     -27.644  45.410  10.281  1.00  0.00     0.128 C 
HETATM    5  C5  UNL     1     -26.726  45.106  11.471  1.00  0.00     0.024 C 
HETATM    6  C6  UNL     1     -26.341  46.420  12.162  1.00  0.00    -0.005 C 
HETATM    7  C7  UNL     1     -27.436  47.422  12.064  1.00  0.00     0.027 C 
HETATM    8  C8  UNL     1     -28.623  46.507  12.312  1.00  0.00     0.073 C 
HETATM    9  C10 UNL     1     -28.055  45.561  13.334  1.00  0.00     0.071 C 
HETATM   10  C12 UNL     1     -26.621  46.016  13.628  1.00  0.00     0.027 C 
HETATM   11  C13 UNL     1     -27.674  44.389  12.402  1.00  0.00     0.017 C 
ENDROOT
BRANCH   8  12
HETATM   12  C9  UNL     1     -29.815  47.244  12.731  1.00  0.00     0.183 C 
HETATM   13  O2  UNL     1     -29.664  48.266  13.449  1.00  0.00    -0.647 OA
HETATM   14  O3  UNL     1     -31.071  46.817  12.339  1.00  0.00    -0.647 OA
ENDBRANCH   8  12
BRANCH   9  15
HETATM   15  C11 UNL     1     -28.841  45.171  14.444  1.00  0.00     0.183 C 
HETATM   16  O4  UNL     1     -29.591  44.195  14.487  1.00  0.00    -0.647 OA
HETATM   17  O5  UNL     1     -28.777  45.950  15.619  1.00  0.00    -0.647 OA
ENDBRANCH   9  15
BRANCH   4  18
HETATM   18  O1  UNL     1     -27.209  46.391   9.461  1.00  0.00    -0.395 OA
ATOM     19  H1  UNL     1     -27.155  46.191   8.533  1.00  0.00     0.210 HD
ENDBRANCH   4  18
TORSDOF 3
ENDMDL
MODEL 2
REMARK VINA RESULT: -4.927110624      6.231      8.345
REMARK  3 active torsions:
REMARK  status: ('A' for Active; 'I' for Inactive)
REMARK    1  A    between atoms: C4_4  and  O1_5 
REMARK    2  A    between atoms: C8_10  and  C9_11 
REMARK    3  A    between atoms: C10_14  and  C11_15 
ROOT
HETATM    1  C1  UNL     1     -24.397  52.375   5.983  1.00  0.00     0.011 C 
HETATM    2  C2  UNL     1     -25.419  51.379   6.323  1.00  0.00    -0.005 C 
HETATM    3  C3  UNL     1     -24.858  49.965   6.563  1.00  0.00     0.039 C 
HETATM    4  C4  UNL     1     -24.276  49.762   5.187  1.00  0.00     0.128 C 
HETATM    5  C5  UNL     1     -25.574  49.896   4.383  1.00  0.00     0.024 C 
HETATM    6  C6  UNL     1     -26.387  48.602   4.512  1.00  0.00    -0.005 C 
HETATM    7  C7  UNL     1     -26.176  47.963   5.839  1.00  0.00     0.027 C 
HETATM    8  C8  UNL     1     -26.189  49.207   6.711  1.00  0.00     0.073 C 
HETATM    9  C10 UNL     1     -27.233  50.039   6.019  1.00  0.00     0.071 C 
HETATM   10  C12 UNL     1     -27.768  49.213   4.843  1.00  0.00     0.027 C 
HETATM   11  C13 UNL     1     -26.308  50.949   5.179  1.00  0.00     0.017 C 
ENDROOT
BRANCH   8  12
HETATM   12  C9  UNL     1     -26.459  48.900   8.115  1.00  0.00     0.183 C 
HETATM   13  O2  UNL     1     -25.880  49.585   8.998  1.00  0.00    -0.647 OA
HETATM   14  O3  UNL     1     -27.331  47.881   8.449  1.00  0.00    -0.647 OA
ENDBRANCH   8  12
BRANCH   9  15
HETATM   15  C11 UNL     1     -28.187  50.750   6.784  1.00  0.00     0.183 C 
HETATM   16  O4  UNL     1     -27.953  51.729   7.495  1.00  0.00    -0.647 OA
HETATM   17  O5  UNL     1     -29.530  50.323   6.748  1.00  0.00    -0.647 OA
ENDBRANCH   9  15
BRANCH   4  18
HETATM   18  O1  UNL     1     -23.586  48.620   4.970  1.00  0.00    -0.395 OA
ATOM     19  H1  UNL     1     -23.536  48.306   4.075  1.00  0.00     0.210 HD
ENDBRANCH   4  18
TORSDOF 3
ENDMDL
MODEL 3
REMARK VINA RESULT: -4.871443433      6.503      8.557
REMARK  3 active torsions:
REMARK  status: ('A' for Active; 'I' for Inactive)
REMARK    1  A    between atoms: C4_4  and  O1_5 
REMARK    2  A    between atoms: C8_10  and  C9_11 
REMARK    3  A    between atoms: C10_14  and  C11_15 
ROOT
HETATM    1  C1  UNL     1     -25.222  49.073   8.575  1.00  0.00     0.011 C 
HETATM    2  C2  UNL     1     -26.067  49.320   7.401  1.00  0.00    -0.005 C 
HETATM    3  C3  UNL     1     -25.678  48.488   6.165  1.00  0.00     0.039 C 
HETATM    4  C4  UNL     1     -24.281  49.033   6.007  1.00  0.00     0.128 C 
HETATM    5  C5  UNL     1     -24.649  50.507   5.799  1.00  0.00     0.024 C 
HETATM    6  C6  UNL     1     -25.165  50.702   4.368  1.00  0.00    -0.005 C 
HETATM    7  C7  UNL     1     -25.872  49.489   3.879  1.00  0.00     0.027 C 
HETATM    8  C8  UNL     1     -26.634  49.127   5.143  1.00  0.00     0.073 C 
HETATM    9  C10 UNL     1     -26.980  50.490   5.676  1.00  0.00     0.071 C 
HETATM   10  C12 UNL     1     -26.440  51.521   4.678  1.00  0.00     0.027 C 
HETATM   11  C13 UNL     1     -25.843  50.647   6.712  1.00  0.00     0.017 C 
ENDROOT
BRANCH   8  12
HETATM   12  C9  UNL     1     -27.772  48.249   4.875  1.00  0.00     0.183 C 
HETATM   13  O2  UNL     1     -28.498  48.501   3.879  1.00  0.00    -0.647 OA
HETATM   14  O3  UNL     1     -28.031  47.172   5.703  1.00  0.00    -0.647 OA
ENDBRANCH   8  12
BRANCH   9  15
HETATM   15  C11 UNL     1     -28.269  50.731   6.207  1.00  0.00     0.183 C 
HETATM   16  O4  UNL     1     -28.737  50.214   7.222  1.00  0.00    -0.647 OA
HETATM   17  O5  UNL     1     -29.112  51.640   5.535  1.00  0.00    -0.647 OA
ENDBRANCH   9  15
BRANCH   4  18
HETATM   18  O1  UNL     1     -23.514  48.493   5.035  1.00  0.00    -0.395 OA
ATOM     19  H1  UNL     1     -23.304  49.045   4.290  1.00  0.00     0.210 HD
ENDBRANCH   4  18
TORSDOF 3
ENDMDL
MODEL 4
REMARK VINA RESULT: -4.827577146      1.609      2.608
REMARK  3 active torsions:
REMARK  status: ('A' for Active; 'I' for Inactive)
REMARK    1  A    between atoms: C4_4  and  O1_5 
REMARK    2  A    between atoms: C8_10  and  C9_11 
REMARK    3  A    between atoms: C10_14  and  C11_15 
ROOT
HETATM    1  C1  UNL     1     -25.055  43.738  12.539  1.00  0.00     0.011 C 
HETATM    2  C2  UNL     1     -26.414  44.265  12.372  1.00  0.00    -0.005 C 
HETATM    3  C3  UNL     1     -26.747  44.690  10.930  1.00  0.00     0.039 C 
HETATM    4  C4  UNL     1     -25.686  45.753  10.801  1.00  0.00     0.128 C 
HETATM    5  C5  UNL     1     -26.152  46.660  11.947  1.00  0.00     0.024 C 
HETATM    6  C6  UNL     1     -27.376  47.462  11.492  1.00  0.00    -0.005 C 
HETATM    7  C7  UNL     1     -28.200  46.689  10.525  1.00  0.00     0.027 C 
HETATM    8  C8  UNL     1     -28.126  45.322  11.185  1.00  0.00     0.073 C 
HETATM    9  C10 UNL     1     -28.161  45.698  12.641  1.00  0.00     0.071 C 
HETATM   10  C12 UNL     1     -28.293  47.223  12.714  1.00  0.00     0.027 C 
HETATM   11  C13 UNL     1     -26.648  45.643  12.947  1.00  0.00     0.017 C 
ENDROOT
BRANCH   8  12
HETATM   12  C9  UNL     1     -29.197  44.430  10.739  1.00  0.00     0.183 C 
HETATM   13  O2  UNL     1     -30.293  44.941  10.392  1.00  0.00    -0.647 OA
HETATM   14  O3  UNL     1     -28.995  43.063  10.704  1.00  0.00    -0.647 OA
ENDBRANCH   8  12
BRANCH   9  15
HETATM   15  C11 UNL     1     -28.951  44.945  13.542  1.00  0.00     0.183 C 
HETATM   16  O4  UNL     1     -28.601  43.913  14.115  1.00  0.00    -0.647 OA
HETATM   17  O5  UNL     1     -30.256  45.396  13.828  1.00  0.00    -0.647 OA
ENDBRANCH   9  15
BRANCH   4  18
HETATM   18  O1  UNL     1     -25.566  46.365   9.603  1.00  0.00    -0.395 OA
ATOM     19  H1  UNL     1     -25.772  47.292   9.565  1.00  0.00     0.210 HD
ENDBRANCH   4  18
TORSDOF 3
ENDMDL
MODEL 5
REMARK VINA RESULT: -4.808465182      1.120      1.299
REMARK  3 active torsions:
REMARK  status: ('A' for Active; 'I' for Inactive)
REMARK    1  A    between atoms: C4_4  and  O1_5 
REMARK    2  A    between atoms: C8_10  and  C9_11 
REMARK    3  A    between atoms: C10_14  and  C11_15 
ROOT
HETATM    1  C1  UNL     1     -29.173  44.402   8.840  1.00  0.00     0.011 C 
HETATM    2  C2  UNL     1     -29.070  44.866  10.229  1.00  0.00    -0.005 C 
HETATM    3  C3  UNL     1     -28.842  46.383  10.365  1.00  0.00     0.039 C 
HETATM    4  C4  UNL     1     -27.528  46.439   9.628  1.00  0.00     0.128 C 
HETATM    5  C5  UNL     1     -26.729  45.505  10.545  1.00  0.00     0.024 C 
HETATM    6  C6  UNL     1     -26.341  46.258  11.822  1.00  0.00    -0.005 C 
HETATM    7  C7  UNL     1     -27.374  47.263  12.191  1.00  0.00     0.027 C 
HETATM    8  C8  UNL     1     -28.621  46.450  11.885  1.00  0.00     0.073 C 
HETATM    9  C10 UNL     1     -28.188  45.076  12.315  1.00  0.00     0.071 C 
HETATM   10  C12 UNL     1     -26.763  45.199  12.868  1.00  0.00     0.027 C 
HETATM   11  C13 UNL     1     -27.786  44.501  10.938  1.00  0.00     0.017 C 
ENDROOT
BRANCH   8  12
HETATM   12  C9  UNL     1     -29.807  46.976  12.561  1.00  0.00     0.183 C 
HETATM   13  O2  UNL     1     -29.662  47.511  13.690  1.00  0.00    -0.647 OA
HETATM   14  O3  UNL     1     -31.049  46.882  11.961  1.00  0.00    -0.647 OA
ENDBRANCH   8  12
BRANCH   9  15
HETATM   15  C11 UNL     1     -29.082  44.250  13.037  1.00  0.00     0.183 C 
HETATM   16  O4  UNL     1     -29.914  43.488  12.543  1.00  0.00    -0.647 OA
HETATM   17  O5  UNL     1     -29.036  44.282  14.446  1.00  0.00    -0.647 OA
ENDBRANCH   9  15
BRANCH   4  18
HETATM   18  O1  UNL     1     -26.978  47.659   9.438  1.00  0.00    -0.395 OA
ATOM     19  H1  UNL     1     -27.149  48.088   8.608  1.00  0.00     0.210 HD
ENDBRANCH   4  18
TORSDOF 3
ENDMDL
