MODEL 1
REMARK VINA RESULT: -6.468818518      0.000      0.000
REMARK  4 active torsions:
REMARK  status: ('A' for Active; 'I' for Inactive)
REMARK       I    between atoms: C2_2  and  N1_4 
REMARK    1  A    between atoms: N1_4  and  N2_6 
REMARK       I    between atoms: N2_6  and  C3_8 
REMARK       I    between atoms: C3_8  and  N4_15 
REMARK    2  A    between atoms: N3_9  and  C4_11 
REMARK    3  A    between atoms: N4_15  and  C8_17 
REMARK    4  A    between atoms: C8_17  and  C9_18 
ROOT
HETATM    1  N2  UNL     1     -25.039  46.464   8.752  1.00  0.00    -0.130 N 
ATOM      2  H2  UNL     1     -24.976  46.138   7.788  1.00  0.00     0.205 HD
HETATM    3  C3  UNL     1     -24.939  45.507   9.831  1.00  0.00     0.689 C 
HETATM    4  N3  UNL     1     -25.671  45.675  10.833  1.00  0.00    -0.217 N 
ATOM      5  H3  UNL     1     -26.264  46.501  10.749  1.00  0.00     0.178 HD
HETATM    6  N4  UNL     1     -23.997  44.475   9.613  1.00  0.00    -0.224 N 
ATOM      7  H4  UNL     1     -24.204  43.508   9.863  1.00  0.00     0.177 HD
ENDROOT
BRANCH   1   8
HETATM    8  N1  UNL     1     -25.219  47.820   9.004  1.00  0.00    -0.256 N 
HETATM    9  C2  UNL     1     -25.553  48.726   7.977  1.00  0.00     0.232 C 
HETATM   10  C1  UNL     1     -25.744  50.176   8.247  1.00  0.00     0.119 C 
HETATM   11  O1  UNL     1     -25.699  48.319   6.776  1.00  0.00    -0.272 OA
ATOM     12  H1  UNL     1     -25.107  48.168   9.956  1.00  0.00     0.190 HD
ENDBRANCH   1   8
BRANCH   4  13
HETATM   13  C4  UNL     1     -25.869  44.999  12.042  1.00  0.00     0.036 C 
HETATM   14  C5  UNL     1     -25.898  46.041  13.175  1.00  0.00     0.038 C 
HETATM   15  C6  UNL     1     -27.221  44.304  12.141  1.00  0.00     0.038 C 
HETATM   16  C7  UNL     1     -24.840  43.987  12.446  1.00  0.00     0.038 C 
ENDBRANCH   4  13
BRANCH   6  17
HETATM   17  C8  UNL     1     -22.732  44.840   9.022  1.00  0.00     0.155 C 
BRANCH  17  18
HETATM   18  C9  UNL     1     -21.555  44.103   9.594  1.00  0.00     0.040 A 
HETATM   19  C10 UNL     1     -21.863  42.878  10.432  1.00  0.00     0.025 C 
HETATM   20  C11 UNL     1     -20.345  44.012   8.694  1.00  0.00     0.097 A 
HETATM   21  C12 UNL     1     -20.337  44.821   9.988  1.00  0.00     0.138 A 
HETATM   22  O2  UNL     1     -19.596  45.519  10.644  1.00  0.00    -0.297 OA
ENDBRANCH  17  18
ENDBRANCH   6  17
TORSDOF 4
ENDMDL
MODEL 2
REMARK VINA RESULT: -6.118778280      1.964      5.789
REMARK  4 active torsions:
REMARK  status: ('A' for Active; 'I' for Inactive)
REMARK       I    between atoms: C2_2  and  N1_4 
REMARK    1  A    between atoms: N1_4  and  N2_6 
REMARK       I    between atoms: N2_6  and  C3_8 
REMARK       I    between atoms: C3_8  and  N4_15 
REMARK    2  A    between atoms: N3_9  and  C4_11 
REMARK    3  A    between atoms: N4_15  and  C8_17 
REMARK    4  A    between atoms: C8_17  and  C9_18 
ROOT
HETATM    1  N2  UNL     1     -24.191  45.220   9.278  1.00  0.00    -0.130 N 
ATOM      2  H2  UNL     1     -24.589  44.324   9.560  1.00  0.00     0.205 HD
HETATM    3  C3  UNL     1     -25.047  46.381   9.194  1.00  0.00     0.689 C 
HETATM    4  N3  UNL     1     -24.849  47.190   8.259  1.00  0.00    -0.217 N 
ATOM      5  H3  UNL     1     -24.075  46.908   7.657  1.00  0.00     0.178 HD
HETATM    6  N4  UNL     1     -26.027  46.460  10.212  1.00  0.00    -0.224 N 
ATOM      7  H4  UNL     1     -26.982  46.751  10.005  1.00  0.00     0.177 HD
ENDROOT
BRANCH   1   8
HETATM    8  N1  UNL     1     -22.834  45.301   8.982  1.00  0.00    -0.256 N 
HETATM    9  C2  UNL     1     -21.867  44.617   9.745  1.00  0.00     0.232 C 
HETATM   10  C1  UNL     1     -20.416  44.705   9.428  1.00  0.00     0.119 C 
HETATM   11  O1  UNL     1     -22.216  43.898  10.741  1.00  0.00    -0.272 OA
ATOM     12  H1  UNL     1     -22.531  45.870   8.191  1.00  0.00     0.190 HD
ENDBRANCH   1   8
BRANCH   4  13
HETATM   13  C4  UNL     1     -25.437  48.389   7.844  1.00  0.00     0.036 C 
HETATM   14  C5  UNL     1     -24.422  49.141   6.963  1.00  0.00     0.038 C 
HETATM   15  C6  UNL     1     -26.646  48.197   6.938  1.00  0.00     0.038 C 
HETATM   16  C7  UNL     1     -25.852  49.362   8.906  1.00  0.00     0.038 C 
ENDBRANCH   4  13
BRANCH   6  17
HETATM   17  C8  UNL     1     -25.626  46.112  11.553  1.00  0.00     0.155 C 
BRANCH  17  18
HETATM   18  C9  UNL     1     -26.224  44.829  12.058  1.00  0.00     0.040 A 
HETATM   19  C10 UNL     1     -25.251  43.721  12.408  1.00  0.00     0.025 C 
HETATM   20  C11 UNL     1     -27.420  44.983  12.966  1.00  0.00     0.097 A 
HETATM   21  C12 UNL     1     -27.528  44.365  11.574  1.00  0.00     0.138 A 
HETATM   22  O2  UNL     1     -28.356  43.887  10.831  1.00  0.00    -0.297 OA
ENDBRANCH  17  18
ENDBRANCH   6  17
TORSDOF 4
ENDMDL
MODEL 3
REMARK VINA RESULT: -6.074856039      1.984      5.988
REMARK  4 active torsions:
REMARK  status: ('A' for Active; 'I' for Inactive)
REMARK       I    between atoms: C2_2  and  N1_4 
REMARK    1  A    between atoms: N1_4  and  N2_6 
REMARK       I    between atoms: N2_6  and  C3_8 
REMARK       I    between atoms: C3_8  and  N4_15 
REMARK    2  A    between atoms: N3_9  and  C4_11 
REMARK    3  A    between atoms: N4_15  and  C8_17 
REMARK    4  A    between atoms: C8_17  and  C9_18 
ROOT
HETATM    1  N2  UNL     1     -24.067  45.050   9.219  1.00  0.00    -0.130 N 
ATOM      2  H2  UNL     1     -24.441  44.119   9.403  1.00  0.00     0.205 HD
HETATM    3  C3  UNL     1     -24.964  46.183   9.197  1.00  0.00     0.689 C 
HETATM    4  N3  UNL     1     -24.757  47.078   8.346  1.00  0.00    -0.217 N 
ATOM      5  H3  UNL     1     -23.948  46.877   7.758  1.00  0.00     0.178 HD
HETATM    6  N4  UNL     1     -25.990  46.136  10.170  1.00  0.00    -0.224 N 
ATOM      7  H4  UNL     1     -26.946  46.411   9.945  1.00  0.00     0.177 HD
ENDROOT
BRANCH   1   8
HETATM    8  N1  UNL     1     -22.703  45.204   8.995  1.00  0.00    -0.256 N 
HETATM    9  C2  UNL     1     -21.742  44.559   9.798  1.00  0.00     0.232 C 
HETATM   10  C1  UNL     1     -20.284  44.726   9.558  1.00  0.00     0.119 C 
HETATM   11  O1  UNL     1     -22.104  43.808  10.765  1.00  0.00    -0.272 OA
ATOM     12  H1  UNL     1     -22.390  45.801   8.229  1.00  0.00     0.190 HD
ENDBRANCH   1   8
BRANCH   4  13
HETATM   13  C4  UNL     1     -25.373  48.287   8.009  1.00  0.00     0.036 C 
HETATM   14  C5  UNL     1     -24.383  49.112   7.166  1.00  0.00     0.038 C 
HETATM   15  C6  UNL     1     -26.588  48.126   7.104  1.00  0.00     0.038 C 
HETATM   16  C7  UNL     1     -25.797  49.186   9.132  1.00  0.00     0.038 C 
ENDBRANCH   4  13
BRANCH   6  17
HETATM   17  C8  UNL     1     -25.634  45.685  11.494  1.00  0.00     0.155 C 
BRANCH  17  18
HETATM   18  C9  UNL     1     -26.801  45.555  12.430  1.00  0.00     0.040 A 
HETATM   19  C10 UNL     1     -27.560  44.244  12.389  1.00  0.00     0.025 C 
HETATM   20  C11 UNL     1     -26.613  46.178  13.793  1.00  0.00     0.097 A 
HETATM   21  C12 UNL     1     -27.618  46.722  12.781  1.00  0.00     0.138 A 
HETATM   22  O2  UNL     1     -28.437  47.607  12.667  1.00  0.00    -0.297 OA
ENDBRANCH  17  18
ENDBRANCH   6  17
TORSDOF 4
ENDMDL
MODEL 4
REMARK VINA RESULT: -6.062294738      1.741      2.295
REMARK  4 active torsions:
REMARK  status: ('A' for Active; 'I' for Inactive)
REMARK       I    between atoms: C2_2  and  N1_4 
REMARK    1  A    between atoms: N1_4  and  N2_6 
REMARK       I    between atoms: N2_6  and  C3_8 
REMARK       I    between atoms: C3_8  and  N4_15 
REMARK    2  A    between atoms: N3_9  and  C4_11 
REMARK    3  A    between atoms: N4_15  and  C8_17 
REMARK    4  A    between atoms: C8_17  and  C9_18 
ROOT
HETATM    1  N2  UNL     1     -26.832  46.733   9.096  1.00  0.00    -0.130 N 
ATOM      2  H2  UNL     1     -26.705  46.140   8.276  1.00  0.00     0.205 HD
HETATM    3  C3  UNL     1     -26.915  46.125  10.404  1.00  0.00     0.689 C 
HETATM    4  N3  UNL     1     -27.722  46.612  11.228  1.00  0.00    -0.217 N 
ATOM      5  H3  UNL     1     -28.234  47.408  10.847  1.00  0.00     0.178 HD
HETATM    6  N4  UNL     1     -26.045  45.025  10.594  1.00  0.00    -0.224 N 
ATOM      7  H4  UNL     1     -26.354  44.184  11.080  1.00  0.00     0.177 HD
ENDROOT
BRANCH   1   8
HETATM    8  N1  UNL     1     -26.922  48.112   8.934  1.00  0.00    -0.256 N 
HETATM    9  C2  UNL     1     -25.819  48.882   8.513  1.00  0.00     0.232 C 
HETATM   10  C1  UNL     1     -25.916  50.356   8.342  1.00  0.00     0.119 C 
HETATM   11  O1  UNL     1     -24.696  48.327   8.268  1.00  0.00    -0.272 OA
ATOM     12  H1  UNL     1     -27.809  48.578   9.125  1.00  0.00     0.190 HD
ENDBRANCH   1   8
BRANCH   4  13
HETATM   13  C4  UNL     1     -28.089  46.324  12.546  1.00  0.00     0.036 C 
HETATM   14  C5  UNL     1     -29.035  47.436  13.035  1.00  0.00     0.038 C 
HETATM   15  C6  UNL     1     -28.908  45.048  12.690  1.00  0.00     0.038 C 
HETATM   16  C7  UNL     1     -26.995  46.244  13.569  1.00  0.00     0.038 C 
ENDBRANCH   4  13
BRANCH   6  17
HETATM   17  C8  UNL     1     -24.704  45.137  10.073  1.00  0.00     0.155 C 
BRANCH  17  18
HETATM   18  C9  UNL     1     -23.745  44.124  10.629  1.00  0.00     0.040 A 
HETATM   19  C10 UNL     1     -24.082  43.546  11.989  1.00  0.00     0.025 C 
HETATM   20  C11 UNL     1     -23.155  43.166   9.622  1.00  0.00     0.097 A 
HETATM   21  C12 UNL     1     -22.308  44.212  10.344  1.00  0.00     0.138 A 
HETATM   22  O2  UNL     1     -21.164  44.603  10.402  1.00  0.00    -0.297 OA
ENDBRANCH  17  18
ENDBRANCH   6  17
TORSDOF 4
ENDMDL
MODEL 5
REMARK VINA RESULT: -5.926469414      2.229      5.451
REMARK  4 active torsions:
REMARK  status: ('A' for Active; 'I' for Inactive)
REMARK       I    between atoms: C2_2  and  N1_4 
REMARK    1  A    between atoms: N1_4  and  N2_6 
REMARK       I    between atoms: N2_6  and  C3_8 
REMARK       I    between atoms: C3_8  and  N4_15 
REMARK    2  A    between atoms: N3_9  and  C4_11 
REMARK    3  A    between atoms: N4_15  and  C8_17 
REMARK    4  A    between atoms: C8_17  and  C9_18 
ROOT
HETATM    1  N2  UNL     1     -22.036  46.184   8.412  1.00  0.00    -0.130 N 
ATOM      2  H2  UNL     1     -21.835  45.214   8.170  1.00  0.00     0.205 HD
HETATM    3  C3  UNL     1     -23.407  46.640   8.431  1.00  0.00     0.689 C 
HETATM    4  N3  UNL     1     -23.648  47.794   8.011  1.00  0.00    -0.217 N 
ATOM      5  H3  UNL     1     -22.806  48.278   7.699  1.00  0.00     0.178 HD
HETATM    6  N4  UNL     1     -24.330  45.696   8.942  1.00  0.00    -0.224 N 
ATOM      7  H4  UNL     1     -25.240  45.554   8.502  1.00  0.00     0.177 HD
ENDROOT
BRANCH   1   8
HETATM    8  N1  UNL     1     -20.986  47.043   8.717  1.00  0.00    -0.256 N 
HETATM    9  C2  UNL     1     -19.981  46.687   9.639  1.00  0.00     0.232 C 
HETATM   10  C1  UNL     1     -18.859  47.608   9.965  1.00  0.00     0.119 C 
HETATM   11  O1  UNL     1     -20.012  45.555  10.227  1.00  0.00    -0.272 OA
ATOM     12  H1  UNL     1     -20.941  47.954   8.260  1.00  0.00     0.190 HD
ENDBRANCH   1   8
BRANCH   4  13
HETATM   13  C4  UNL     1     -24.797  48.578   7.868  1.00  0.00     0.036 C 
HETATM   14  C5  UNL     1     -24.383  49.932   7.263  1.00  0.00     0.038 C 
HETATM   15  C6  UNL     1     -25.802  48.017   6.870  1.00  0.00     0.038 C 
HETATM   16  C7  UNL     1     -25.571  48.908   9.109  1.00  0.00     0.038 C 
ENDBRANCH   4  13
BRANCH   6  17
HETATM   17  C8  UNL     1     -23.938  44.941  10.106  1.00  0.00     0.155 C 
BRANCH  17  18
HETATM   18  C9  UNL     1     -25.031  44.768  11.121  1.00  0.00     0.040 A 
HETATM   19  C10 UNL     1     -24.775  43.765  12.229  1.00  0.00     0.025 C 
HETATM   20  C11 UNL     1     -25.758  46.031  11.516  1.00  0.00     0.097 A 
HETATM   21  C12 UNL     1     -26.441  44.908  10.740  1.00  0.00     0.138 A 
HETATM   22  O2  UNL     1     -27.517  44.632  10.256  1.00  0.00    -0.297 OA
ENDBRANCH  17  18
ENDBRANCH   6  17
TORSDOF 4
ENDMDL
