MODEL 1
REMARK VINA RESULT: -7.421948492      0.000      0.000
REMARK  7 active torsions:
REMARK  status: ('A' for Active; 'I' for Inactive)
REMARK    1  A    between atoms: C2_2  and  O1_3 
REMARK    2  A    between atoms: O1_3  and  C3_4 
REMARK    3  A    between atoms: C3_4  and  C12_29 
REMARK    4  A    between atoms: N1_5  and  N2_7 
REMARK    5  A    between atoms: N2_7  and  C4_9 
REMARK    6  A    between atoms: C5_12  and  N4_13 
REMARK    7  A    between atoms: C10_23  and  N7_24 
ROOT
HETATM    1  C4  UNL     1      -8.297 -29.080 -18.720  1.00  0.00     0.726 A 
HETATM    2  N3  UNL     1      -7.379 -29.582 -17.891  1.00  0.00    -0.020 N 
ATOM      3  H3  UNL     1      -7.573 -29.569 -16.889  1.00  0.00     0.203 HD
HETATM    4  C5  UNL     1      -6.218 -30.100 -18.308  1.00  0.00     0.709 A 
HETATM    5  N6  UNL     1      -6.020 -30.087 -19.638  1.00  0.00    -0.021 N 
ATOM      6  H6  UNL     1      -5.150 -30.472 -20.006  1.00  0.00     0.203 HD
HETATM    7  C10 UNL     1      -6.922 -29.588 -20.504  1.00  0.00     0.706 A 
HETATM    8  N8  UNL     1      -8.064 -29.085 -20.034  1.00  0.00    -0.020 N 
ATOM      9  H8  UNL     1      -8.758 -28.704 -20.677  1.00  0.00     0.203 HD
ENDROOT
BRANCH   1  10
HETATM   10  N2  UNL     1      -9.396 -28.626 -18.204  1.00  0.00    -0.129 N 
ATOM     11  H2  UNL     1      -9.332 -28.237 -17.263  1.00  0.00     0.205 HD
BRANCH  10  12
HETATM   12  N1  UNL     1     -10.594 -28.614 -18.769  1.00  0.00    -0.267 N 
HETATM   13  C3  UNL     1     -11.490 -27.876 -19.179  1.00  0.00     0.164 C 
ATOM     14  H1  UNL     1     -10.883 -29.579 -18.923  1.00  0.00     0.189 HD
BRANCH  13  15
HETATM   15  O1  UNL     1     -11.417 -26.508 -19.122  1.00  0.00    -0.337 OA
BRANCH  15  16
HETATM   16  C2  UNL     1     -10.773 -25.676 -20.031  1.00  0.00     0.172 C 
HETATM   17  C1  UNL     1     -11.910 -24.832 -20.656  1.00  0.00     0.034 C 
ENDBRANCH  15  16
ENDBRANCH  13  15
BRANCH  13  18
HETATM   18  C12 UNL     1     -12.758 -28.430 -19.786  1.00  0.00     0.261 C 
HETATM   19  C13 UNL     1     -13.945 -27.652 -19.264  1.00  0.00     0.043 C 
HETATM   20  C14 UNL     1     -14.821 -27.379 -20.468  1.00  0.00     0.030 C 
HETATM   21  C15 UNL     1     -14.214 -28.318 -21.492  1.00  0.00     0.233 C 
HETATM   22  N9  UNL     1     -12.787 -28.262 -21.202  1.00  0.00    -0.064 N 
ATOM     23  H92 UNL     1     -12.310 -27.427 -21.546  1.00  0.00     0.278 HD
ATOM     24  H91 UNL     1     -12.214 -28.924 -21.726  1.00  0.00     0.278 HD
ENDBRANCH  13  18
ENDBRANCH  10  12
ENDBRANCH   1  10
BRANCH   4  25
HETATM   25  N4  UNL     1      -5.290 -30.607 -17.362  1.00  0.00    -0.213 N 
HETATM   26  C6  UNL     1      -5.676 -31.729 -16.514  1.00  0.00     0.168 C 
HETATM   27  C7  UNL     1      -4.651 -32.818 -16.697  1.00  0.00     0.252 C 
HETATM   28  N5  UNL     1      -3.346 -32.237 -16.383  1.00  0.00    -0.072 N 
HETATM   29  C8  UNL     1      -2.985 -31.234 -17.379  1.00  0.00     0.252 C 
ATOM     30  H52 UNL     1      -3.315 -31.861 -15.436  1.00  0.00     0.277 HD
ATOM     31  H51 UNL     1      -2.625 -32.952 -16.284  1.00  0.00     0.277 HD
HETATM   32  C9  UNL     1      -3.965 -30.075 -17.176  1.00  0.00     0.168 C 
ENDBRANCH   4  25
BRANCH   7  33
HETATM   33  N7  UNL     1      -6.656 -29.611 -21.745  1.00  0.00    -0.229 N 
HETATM   34  C11 UNL     1      -5.801 -28.783 -22.512  1.00  0.00     0.165 C 
ATOM     35  H7  UNL     1      -7.134 -30.341 -22.273  1.00  0.00     0.177 HD
ENDBRANCH   7  33
TORSDOF 7
ENDMDL
MODEL 2
REMARK VINA RESULT: -7.400911616      2.309      8.054
REMARK  7 active torsions:
REMARK  status: ('A' for Active; 'I' for Inactive)
REMARK    1  A    between atoms: C2_2  and  O1_3 
REMARK    2  A    between atoms: O1_3  and  C3_4 
REMARK    3  A    between atoms: C3_4  and  C12_29 
REMARK    4  A    between atoms: N1_5  and  N2_7 
REMARK    5  A    between atoms: N2_7  and  C4_9 
REMARK    6  A    between atoms: C5_12  and  N4_13 
REMARK    7  A    between atoms: C10_23  and  N7_24 
ROOT
HETATM    1  C4  UNL     1      -9.977 -28.061 -19.493  1.00  0.00     0.726 A 
HETATM    2  N3  UNL     1     -11.273 -27.973 -19.799  1.00  0.00    -0.020 N 
ATOM      3  H3  UNL     1     -11.951 -28.387 -19.160  1.00  0.00     0.203 HD
HETATM    4  C5  UNL     1     -11.727 -27.369 -20.903  1.00  0.00     0.709 A 
HETATM    5  N6  UNL     1     -10.786 -26.843 -21.708  1.00  0.00    -0.021 N 
ATOM      6  H6  UNL     1     -11.082 -26.371 -22.562  1.00  0.00     0.203 HD
HETATM    7  C10 UNL     1      -9.470 -26.914 -21.432  1.00  0.00     0.706 A 
HETATM    8  N8  UNL     1      -9.073 -27.527 -20.317  1.00  0.00    -0.020 N 
ATOM      9  H8  UNL     1      -8.080 -27.589 -20.093  1.00  0.00     0.203 HD
ENDROOT
BRANCH   1  10
HETATM   10  N2  UNL     1      -9.655 -28.649 -18.383  1.00  0.00    -0.129 N 
ATOM     11  H2  UNL     1     -10.425 -28.998 -17.812  1.00  0.00     0.205 HD
BRANCH  10  12
HETATM   12  N1  UNL     1      -8.433 -28.845 -17.913  1.00  0.00    -0.267 N 
HETATM   13  C3  UNL     1      -7.566 -29.699 -17.728  1.00  0.00     0.164 C 
ATOM     14  H1  UNL     1      -8.074 -27.951 -17.579  1.00  0.00     0.189 HD
BRANCH  13  15
HETATM   15  O1  UNL     1      -7.729 -31.017 -18.071  1.00  0.00    -0.337 OA
BRANCH  15  16
HETATM   16  C2  UNL     1      -7.652 -31.553 -19.351  1.00  0.00     0.172 C 
HETATM   17  C1  UNL     1      -8.721 -32.673 -19.366  1.00  0.00     0.034 C 
ENDBRANCH  15  16
ENDBRANCH  13  15
BRANCH  13  18
HETATM   18  C12 UNL     1      -6.236 -29.356 -17.100  1.00  0.00     0.261 C 
HETATM   19  C13 UNL     1      -5.644 -30.595 -16.467  1.00  0.00     0.043 C 
HETATM   20  C14 UNL     1      -4.184 -30.606 -16.865  1.00  0.00     0.030 C 
HETATM   21  C15 UNL     1      -4.016 -29.197 -17.399  1.00  0.00     0.233 C 
HETATM   22  N9  UNL     1      -5.281 -28.935 -18.073  1.00  0.00    -0.064 N 
ATOM     23  H92 UNL     1      -5.380 -29.372 -18.989  1.00  0.00     0.278 HD
ATOM     24  H91 UNL     1      -5.401 -27.979 -18.407  1.00  0.00     0.278 HD
ENDBRANCH  13  18
ENDBRANCH  10  12
ENDBRANCH   1  10
BRANCH   4  25
HETATM   25  N4  UNL     1     -13.122 -27.324 -21.162  1.00  0.00    -0.213 N 
HETATM   26  C6  UNL     1     -13.620 -27.756 -22.463  1.00  0.00     0.168 C 
HETATM   27  C7  UNL     1     -14.653 -28.829 -22.226  1.00  0.00     0.252 C 
HETATM   28  N5  UNL     1     -15.669 -28.260 -21.343  1.00  0.00    -0.072 N 
HETATM   29  C8  UNL     1     -15.106 -28.006 -20.020  1.00  0.00     0.252 C 
ATOM     30  H52 UNL     1     -16.095 -27.423 -21.741  1.00  0.00     0.277 HD
ATOM     31  H51 UNL     1     -16.504 -28.845 -21.295  1.00  0.00     0.277 HD
HETATM   32  C9  UNL     1     -14.099 -26.868 -20.208  1.00  0.00     0.168 C 
ENDBRANCH   4  25
BRANCH   7  33
HETATM   33  N7  UNL     1      -8.646 -26.394 -22.246  1.00  0.00    -0.229 N 
HETATM   34  C11 UNL     1      -8.625 -26.412 -23.661  1.00  0.00     0.165 C 
ATOM     35  H7  UNL     1      -7.878 -25.884 -21.811  1.00  0.00     0.177 HD
ENDBRANCH   7  33
TORSDOF 7
ENDMDL
MODEL 3
REMARK VINA RESULT: -7.249649524      2.342      7.951
REMARK  7 active torsions:
REMARK  status: ('A' for Active; 'I' for Inactive)
REMARK    1  A    between atoms: C2_2  and  O1_3 
REMARK    2  A    between atoms: O1_3  and  C3_4 
REMARK    3  A    between atoms: C3_4  and  C12_29 
REMARK    4  A    between atoms: N1_5  and  N2_7 
REMARK    5  A    between atoms: N2_7  and  C4_9 
REMARK    6  A    between atoms: C5_12  and  N4_13 
REMARK    7  A    between atoms: C10_23  and  N7_24 
ROOT
HETATM    1  C4  UNL     1     -10.027 -28.243 -19.012  1.00  0.00     0.726 A 
HETATM    2  N3  UNL     1     -11.274 -28.565 -19.362  1.00  0.00    -0.020 N 
ATOM      3  H3  UNL     1     -11.824 -29.138 -18.723  1.00  0.00     0.203 HD
HETATM    4  C5  UNL     1     -11.838 -28.172 -20.510  1.00  0.00     0.709 A 
HETATM    5  N6  UNL     1     -11.064 -27.420 -21.312  1.00  0.00    -0.021 N 
ATOM      6  H6  UNL     1     -11.449 -27.095 -22.199  1.00  0.00     0.203 HD
HETATM    7  C10 UNL     1      -9.801 -27.077 -20.992  1.00  0.00     0.706 A 
HETATM    8  N8  UNL     1      -9.289 -27.495 -19.835  1.00  0.00    -0.020 N 
ATOM      9  H8  UNL     1      -8.335 -27.244 -19.578  1.00  0.00     0.203 HD
ENDROOT
BRANCH   1  10
HETATM   10  N2  UNL     1      -9.593 -28.661 -17.864  1.00  0.00    -0.129 N 
ATOM     11  H2  UNL     1     -10.298 -28.846 -17.150  1.00  0.00     0.205 HD
BRANCH  10  12
HETATM   12  N1  UNL     1      -8.332 -28.872 -17.519  1.00  0.00    -0.267 N 
HETATM   13  C3  UNL     1      -7.442 -29.722 -17.484  1.00  0.00     0.164 C 
ATOM     14  H1  UNL     1      -7.956 -28.003 -17.142  1.00  0.00     0.189 HD
BRANCH  13  15
HETATM   15  O1  UNL     1      -7.620 -31.008 -17.923  1.00  0.00    -0.337 OA
BRANCH  15  16
HETATM   16  C2  UNL     1      -7.580 -31.444 -19.242  1.00  0.00     0.172 C 
HETATM   17  C1  UNL     1      -8.611 -32.597 -19.300  1.00  0.00     0.034 C 
ENDBRANCH  15  16
ENDBRANCH  13  15
BRANCH  13  18
HETATM   18  C12 UNL     1      -6.066 -29.407 -16.945  1.00  0.00     0.261 C 
HETATM   19  C13 UNL     1      -5.434 -30.674 -16.413  1.00  0.00     0.043 C 
HETATM   20  C14 UNL     1      -4.008 -30.668 -16.922  1.00  0.00     0.030 C 
HETATM   21  C15 UNL     1      -3.875 -29.238 -17.407  1.00  0.00     0.233 C 
HETATM   22  N9  UNL     1      -5.188 -28.946 -17.970  1.00  0.00    -0.064 N 
ATOM     23  H92 UNL     1      -5.359 -29.343 -18.894  1.00  0.00     0.278 HD
ATOM     24  H91 UNL     1      -5.328 -27.976 -18.253  1.00  0.00     0.278 HD
ENDBRANCH  13  18
ENDBRANCH  10  12
ENDBRANCH   1  10
BRANCH   4  25
HETATM   25  N4  UNL     1     -13.168 -28.563 -20.814  1.00  0.00    -0.213 N 
HETATM   26  C6  UNL     1     -13.676 -29.828 -20.296  1.00  0.00     0.168 C 
HETATM   27  C7  UNL     1     -14.939 -29.535 -19.526  1.00  0.00     0.252 C 
HETATM   28  N5  UNL     1     -15.848 -28.841 -20.438  1.00  0.00    -0.072 N 
HETATM   29  C8  UNL     1     -15.318 -27.523 -20.773  1.00  0.00     0.252 C 
ATOM     30  H52 UNL     1     -16.046 -29.394 -21.271  1.00  0.00     0.277 HD
ATOM     31  H51 UNL     1     -16.795 -28.787 -20.063  1.00  0.00     0.277 HD
HETATM   32  C9  UNL     1     -14.069 -27.780 -21.620  1.00  0.00     0.168 C 
ENDBRANCH   4  25
BRANCH   7  33
HETATM   33  N7  UNL     1      -9.136 -26.367 -21.807  1.00  0.00    -0.229 N 
HETATM   34  C11 UNL     1      -8.766 -26.620 -23.149  1.00  0.00     0.165 C 
ATOM     35  H7  UNL     1      -8.817 -25.472 -21.435  1.00  0.00     0.177 HD
ENDBRANCH   7  33
TORSDOF 7
ENDMDL
MODEL 4
REMARK VINA RESULT: -7.228634352      2.399      7.212
REMARK  7 active torsions:
REMARK  status: ('A' for Active; 'I' for Inactive)
REMARK    1  A    between atoms: C2_2  and  O1_3 
REMARK    2  A    between atoms: O1_3  and  C3_4 
REMARK    3  A    between atoms: C3_4  and  C12_29 
REMARK    4  A    between atoms: N1_5  and  N2_7 
REMARK    5  A    between atoms: N2_7  and  C4_9 
REMARK    6  A    between atoms: C5_12  and  N4_13 
REMARK    7  A    between atoms: C10_23  and  N7_24 
ROOT
HETATM    1  C4  UNL     1     -10.088 -28.095 -19.471  1.00  0.00     0.726 A 
HETATM    2  N3  UNL     1      -9.178 -27.972 -20.440  1.00  0.00    -0.020 N 
ATOM      3  H3  UNL     1      -8.235 -28.320 -20.265  1.00  0.00     0.203 HD
HETATM    4  C5  UNL     1      -9.441 -27.415 -21.628  1.00  0.00     0.709 A 
HETATM    5  N6  UNL     1     -10.700 -26.975 -21.798  1.00  0.00    -0.021 N 
ATOM      6  H6  UNL     1     -10.951 -26.543 -22.687  1.00  0.00     0.203 HD
HETATM    7  C10 UNL     1     -11.644 -27.081 -20.843  1.00  0.00     0.706 A 
HETATM    8  N8  UNL     1     -11.327 -27.645 -19.677  1.00  0.00    -0.020 N 
ATOM      9  H8  UNL     1     -12.031 -27.734 -18.944  1.00  0.00     0.203 HD
ENDROOT
BRANCH   1  10
HETATM   10  N2  UNL     1      -9.726 -28.674 -18.369  1.00  0.00    -0.129 N 
ATOM     11  H2  UNL     1     -10.473 -29.041 -17.779  1.00  0.00     0.205 HD
BRANCH  10  12
HETATM   12  N1  UNL     1      -8.488 -28.839 -17.928  1.00  0.00    -0.267 N 
HETATM   13  C3  UNL     1      -7.593 -29.670 -17.772  1.00  0.00     0.164 C 
ATOM     14  H1  UNL     1      -8.148 -27.939 -17.591  1.00  0.00     0.189 HD
BRANCH  13  15
HETATM   15  O1  UNL     1      -7.726 -30.987 -18.126  1.00  0.00    -0.337 OA
BRANCH  15  16
HETATM   16  C2  UNL     1      -7.666 -31.506 -19.415  1.00  0.00     0.172 C 
HETATM   17  C1  UNL     1      -8.692 -32.665 -19.413  1.00  0.00     0.034 C 
ENDBRANCH  15  16
ENDBRANCH  13  15
BRANCH  13  18
HETATM   18  C12 UNL     1      -6.260 -29.294 -17.169  1.00  0.00     0.261 C 
HETATM   19  C13 UNL     1      -5.679 -30.492 -16.450  1.00  0.00     0.043 C 
HETATM   20  C14 UNL     1      -4.219 -30.543 -16.845  1.00  0.00     0.030 C 
HETATM   21  C15 UNL     1      -4.038 -29.177 -17.478  1.00  0.00     0.233 C 
HETATM   22  N9  UNL     1      -5.302 -28.952 -18.169  1.00  0.00    -0.064 N 
ATOM     23  H92 UNL     1      -5.405 -29.452 -19.052  1.00  0.00     0.278 HD
ATOM     24  H91 UNL     1      -5.413 -28.020 -18.570  1.00  0.00     0.278 HD
ENDBRANCH  13  18
ENDBRANCH  10  12
ENDBRANCH   1  10
BRANCH   4  25
HETATM   25  N4  UNL     1      -8.416 -27.314 -22.603  1.00  0.00    -0.213 N 
HETATM   26  C6  UNL     1      -8.272 -26.077 -23.361  1.00  0.00     0.168 C 
HETATM   27  C7  UNL     1      -6.855 -25.593 -23.186  1.00  0.00     0.252 C 
HETATM   28  N5  UNL     1      -5.974 -26.677 -23.617  1.00  0.00    -0.072 N 
HETATM   29  C8  UNL     1      -6.081 -27.811 -22.703  1.00  0.00     0.252 C 
ATOM     30  H52 UNL     1      -6.151 -26.950 -24.583  1.00  0.00     0.277 HD
ATOM     31  H51 UNL     1      -5.008 -26.364 -23.724  1.00  0.00     0.277 HD
HETATM   32  C9  UNL     1      -7.490 -28.375 -22.905  1.00  0.00     0.168 C 
ENDBRANCH   4  25
BRANCH   7  33
HETATM   33  N7  UNL     1     -12.809 -26.636 -21.083  1.00  0.00    -0.229 N 
HETATM   34  C11 UNL     1     -14.046 -26.935 -20.464  1.00  0.00     0.165 C 
ATOM     35  H7  UNL     1     -12.861 -25.957 -21.842  1.00  0.00     0.177 HD
ENDBRANCH   7  33
TORSDOF 7
ENDMDL
MODEL 5
REMARK VINA RESULT: -7.152316382      3.421      7.723
REMARK  7 active torsions:
REMARK  status: ('A' for Active; 'I' for Inactive)
REMARK    1  A    between atoms: C2_2  and  O1_3 
REMARK    2  A    between atoms: O1_3  and  C3_4 
REMARK    3  A    between atoms: C3_4  and  C12_29 
REMARK    4  A    between atoms: N1_5  and  N2_7 
REMARK    5  A    between atoms: N2_7  and  C4_9 
REMARK    6  A    between atoms: C5_12  and  N4_13 
REMARK    7  A    between atoms: C10_23  and  N7_24 
ROOT
HETATM    1  C4  UNL     1      -4.918 -29.733 -21.026  1.00  0.00     0.726 A 
HETATM    2  N3  UNL     1      -4.261 -28.675 -21.504  1.00  0.00    -0.020 N 
ATOM      3  H3  UNL     1      -3.256 -28.614 -21.341  1.00  0.00     0.203 HD
HETATM    4  C5  UNL     1      -4.854 -27.689 -22.187  1.00  0.00     0.709 A 
HETATM    5  N6  UNL     1      -6.180 -27.823 -22.369  1.00  0.00    -0.021 N 
ATOM      6  H6  UNL     1      -6.679 -27.098 -22.884  1.00  0.00     0.203 HD
HETATM    7  C10 UNL     1      -6.876 -28.876 -21.899  1.00  0.00     0.706 A 
HETATM    8  N8  UNL     1      -6.233 -29.831 -21.226  1.00  0.00    -0.020 N 
ATOM      9  H8  UNL     1      -6.746 -30.635 -20.864  1.00  0.00     0.203 HD
ENDROOT
BRANCH   1  10
HETATM   10  N2  UNL     1      -4.234 -30.639 -20.400  1.00  0.00    -0.129 N 
ATOM     11  H2  UNL     1      -3.659 -31.256 -20.975  1.00  0.00     0.205 HD
BRANCH  10  12
HETATM   12  N1  UNL     1      -4.201 -30.848 -19.092  1.00  0.00    -0.267 N 
HETATM   13  C3  UNL     1      -4.779 -30.601 -18.033  1.00  0.00     0.164 C 
ATOM     14  H1  UNL     1      -3.394 -31.434 -18.884  1.00  0.00     0.189 HD
BRANCH  13  15
HETATM   15  O1  UNL     1      -5.912 -29.833 -17.961  1.00  0.00    -0.337 OA
BRANCH  15  16
HETATM   16  C2  UNL     1      -6.090 -28.694 -17.184  1.00  0.00     0.172 C 
HETATM   17  C1  UNL     1      -7.492 -28.871 -16.554  1.00  0.00     0.034 C 
ENDBRANCH  15  16
ENDBRANCH  13  15
BRANCH  13  18
HETATM   18  C12 UNL     1      -4.275 -31.135 -16.713  1.00  0.00     0.261 C 
HETATM   19  C13 UNL     1      -5.339 -32.008 -16.086  1.00  0.00     0.043 C 
HETATM   20  C14 UNL     1      -4.618 -33.239 -15.579  1.00  0.00     0.030 C 
HETATM   21  C15 UNL     1      -3.173 -32.789 -15.667  1.00  0.00     0.233 C 
HETATM   22  N9  UNL     1      -3.140 -31.983 -16.881  1.00  0.00    -0.064 N 
ATOM     23  H92 UNL     1      -3.126 -32.515 -17.751  1.00  0.00     0.278 HD
ATOM     24  H91 UNL     1      -2.260 -31.495 -17.050  1.00  0.00     0.278 HD
ENDBRANCH  13  18
ENDBRANCH  10  12
ENDBRANCH   1  10
BRANCH   4  25
HETATM   25  N4  UNL     1      -4.087 -26.591 -22.656  1.00  0.00    -0.213 N 
HETATM   26  C6  UNL     1      -2.741 -26.387 -22.134  1.00  0.00     0.168 C 
HETATM   27  C7  UNL     1      -1.795 -26.338 -23.307  1.00  0.00     0.252 C 
HETATM   28  N5  UNL     1      -2.270 -25.280 -24.198  1.00  0.00    -0.072 N 
HETATM   29  C8  UNL     1      -3.552 -25.652 -24.787  1.00  0.00     0.252 C 
ATOM     30  H52 UNL     1      -2.316 -24.377 -23.726  1.00  0.00     0.277 HD
ATOM     31  H51 UNL     1      -1.578 -25.043 -24.910  1.00  0.00     0.277 HD
HETATM   32  C9  UNL     1      -4.558 -25.643 -23.632  1.00  0.00     0.168 C 
ENDBRANCH   4  25
BRANCH   7  33
HETATM   33  N7  UNL     1      -8.127 -28.926 -22.111  1.00  0.00    -0.229 N 
HETATM   34  C11 UNL     1      -9.137 -27.971 -21.844  1.00  0.00     0.165 C 
ATOM     35  H7  UNL     1      -8.455 -29.790 -22.541  1.00  0.00     0.177 HD
ENDBRANCH   7  33
TORSDOF 7
ENDMDL
