MODEL 1
REMARK VINA RESULT: -9.268821575      0.000      0.000
REMARK  5 active torsions:
REMARK  status: ('A' for Active; 'I' for Inactive)
REMARK    1  A    between atoms: C3_3  and  N1_4 
REMARK    2  A    between atoms: C7_13  and  C8_14 
REMARK    3  A    between atoms: C8_14  and  C9_15 
REMARK    4  A    between atoms: C9_15  and  C10_16 
REMARK    5  A    between atoms: C13_23  and  N6_24 
ROOT
HETATM    1  C1  UNL     1      -3.560 -33.934 -14.905  1.00  0.00     0.014 C 
HETATM    2  C2  UNL     1      -4.413 -33.243 -15.416  1.00  0.00    -0.097 C 
HETATM    3  C3  UNL     1      -5.437 -32.409 -16.055  1.00  0.00     0.224 C 
ENDROOT
BRANCH   3   4
HETATM    4  N1  UNL     1      -4.861 -31.637 -17.135  1.00  0.00    -0.316 N 
HETATM    5  C4  UNL     1      -3.573 -31.455 -17.413  1.00  0.00     0.186 A 
HETATM    6  N2  UNL     1      -3.436 -30.663 -18.510  1.00  0.00    -0.345 N 
HETATM    7  C5  UNL     1      -4.658 -30.340 -18.930  1.00  0.00     0.146 A 
ATOM      8  H2  UNL     1      -2.557 -30.369 -18.935  1.00  0.00     0.167 HD
HETATM    9  C6  UNL     1      -5.108 -29.562 -19.994  1.00  0.00     0.277 A 
HETATM   10  C16 UNL     1      -5.557 -30.951 -18.066  1.00  0.00     0.143 A 
HETATM   11  O1  UNL     1      -4.271 -29.026 -20.753  1.00  0.00    -0.266 OA
HETATM   12  N3  UNL     1      -6.441 -29.443 -20.129  1.00  0.00    -0.311 N 
HETATM   13  C7  UNL     1      -7.320 -30.030 -19.302  1.00  0.00     0.085 A 
ATOM     14  H3  UNL     1      -6.801 -28.880 -20.899  1.00  0.00     0.170 HD
HETATM   15  N10 UNL     1      -6.873 -30.776 -18.280  1.00  0.00    -0.330 N 
ATOM     16  H10 UNL     1      -7.544 -31.219 -17.653  1.00  0.00     0.168 HD
BRANCH  13  17
HETATM   17  C8  UNL     1      -8.765 -29.811 -19.572  1.00  0.00     0.083 C 
BRANCH  17  18
HETATM   18  C9  UNL     1      -9.104 -28.426 -19.060  1.00  0.00     0.066 C 
BRANCH  18  19
HETATM   19  C10 UNL     1     -10.502 -28.037 -19.395  1.00  0.00     0.025 A 
HETATM   20  C11 UNL     1     -10.870 -26.711 -19.516  1.00  0.00     0.114 A 
HETATM   21  N4  UNL     1     -12.131 -26.344 -19.817  1.00  0.00    -0.348 N 
HETATM   22  C12 UNL     1     -13.097 -27.260 -20.015  1.00  0.00     0.151 A 
ATOM     23  H4  UNL     1     -12.357 -25.353 -19.897  1.00  0.00     0.167 HD
HETATM   24  N5  UNL     1     -14.368 -26.914 -20.318  1.00  0.00    -0.174 N 
HETATM   25  C15 UNL     1     -12.738 -28.586 -19.895  1.00  0.00     0.122 A 
HETATM   26  C13 UNL     1     -15.336 -27.825 -20.516  1.00  0.00     0.679 A 
ATOM     27  H5  UNL     1     -14.602 -25.925 -20.400  1.00  0.00     0.186 HD
HETATM   28  N7  UNL     1     -14.992 -29.121 -20.400  1.00  0.00    -0.175 N 
HETATM   29  C14 UNL     1     -13.741 -29.513 -20.100  1.00  0.00     0.145 A 
ATOM     30  H7  UNL     1     -15.708 -29.833 -20.545  1.00  0.00     0.186 HD
HETATM   31  N8  UNL     1     -13.444 -30.764 -19.997  1.00  0.00    -0.383 N 
ATOM     32  H82 UNL     1     -14.185 -31.449 -20.148  1.00  0.00     0.157 HD
ATOM     33  H81 UNL     1     -12.495 -31.062 -19.770  1.00  0.00     0.157 HD
HETATM   34  N9  UNL     1     -11.476 -28.946 -19.594  1.00  0.00    -0.352 N 
ATOM     35  H9  UNL     1     -11.250 -29.938 -19.515  1.00  0.00     0.166 HD
BRANCH  26  36
HETATM   36  N6  UNL     1     -16.557 -27.479 -20.807  1.00  0.00    -0.234 N 
ATOM     37  H62 UNL     1     -16.785 -27.068 -21.713  1.00  0.00     0.174 HD
ATOM     38  H61 UNL     1     -17.324 -27.606 -20.147  1.00  0.00     0.174 HD
ENDBRANCH  26  36
ENDBRANCH  18  19
ENDBRANCH  17  18
ENDBRANCH  13  17
ENDBRANCH   3   4
TORSDOF 5
ENDMDL
MODEL 2
REMARK VINA RESULT: -9.185848033      0.812      1.797
REMARK  5 active torsions:
REMARK  status: ('A' for Active; 'I' for Inactive)
REMARK    1  A    between atoms: C3_3  and  N1_4 
REMARK    2  A    between atoms: C7_13  and  C8_14 
REMARK    3  A    between atoms: C8_14  and  C9_15 
REMARK    4  A    between atoms: C9_15  and  C10_16 
REMARK    5  A    between atoms: C13_23  and  N6_24 
ROOT
HETATM    1  C1  UNL     1      -3.530 -33.931 -14.905  1.00  0.00     0.014 C 
HETATM    2  C2  UNL     1      -4.383 -33.184 -15.329  1.00  0.00    -0.097 C 
HETATM    3  C3  UNL     1      -5.407 -32.280 -15.864  1.00  0.00     0.224 C 
ENDROOT
BRANCH   3   4
HETATM    4  N1  UNL     1      -4.833 -31.387 -16.847  1.00  0.00    -0.316 N 
HETATM    5  C4  UNL     1      -3.588 -30.921 -16.899  1.00  0.00     0.186 A 
HETATM    6  N2  UNL     1      -3.436 -30.107 -17.978  1.00  0.00    -0.345 N 
HETATM    7  C5  UNL     1      -4.604 -30.059 -18.616  1.00  0.00     0.146 A 
ATOM      8  H2  UNL     1      -2.581 -29.621 -18.250  1.00  0.00     0.167 HD
HETATM    9  C6  UNL     1      -5.017 -29.389 -19.765  1.00  0.00     0.277 A 
HETATM   10  C16 UNL     1      -5.485 -30.863 -17.906  1.00  0.00     0.143 A 
HETATM   11  O1  UNL     1      -4.197 -28.672 -20.380  1.00  0.00    -0.266 OA
HETATM   12  N3  UNL     1      -6.297 -29.568 -20.136  1.00  0.00    -0.311 N 
HETATM   13  C7  UNL     1      -7.158 -30.343 -19.460  1.00  0.00     0.085 A 
ATOM     14  H3  UNL     1      -6.630 -29.090 -20.974  1.00  0.00     0.170 HD
HETATM   15  N10 UNL     1      -6.748 -30.982 -18.354  1.00  0.00    -0.330 N 
ATOM     16  H10 UNL     1      -7.406 -31.570 -17.842  1.00  0.00     0.168 HD
BRANCH  13  17
HETATM   17  C8  UNL     1      -8.545 -30.448 -19.986  1.00  0.00     0.083 C 
BRANCH  17  18
HETATM   18  C9  UNL     1      -9.053 -29.034 -20.172  1.00  0.00     0.066 C 
BRANCH  18  19
HETATM   19  C10 UNL     1     -10.540 -28.983 -20.249  1.00  0.00     0.025 A 
HETATM   20  C11 UNL     1     -11.300 -30.137 -20.236  1.00  0.00     0.114 A 
HETATM   21  N4  UNL     1     -12.645 -30.106 -20.305  1.00  0.00    -0.348 N 
HETATM   22  C12 UNL     1     -13.315 -28.942 -20.392  1.00  0.00     0.151 A 
ATOM     23  H4  UNL     1     -13.166 -30.982 -20.292  1.00  0.00     0.167 HD
HETATM   24  N5  UNL     1     -14.664 -28.888 -20.462  1.00  0.00    -0.174 N 
HETATM   25  C15 UNL     1     -12.563 -27.786 -20.406  1.00  0.00     0.122 A 
HETATM   26  C13 UNL     1     -15.335 -27.727 -20.549  1.00  0.00     0.679 A 
ATOM     27  H5  UNL     1     -15.191 -29.760 -20.450  1.00  0.00     0.186 HD
HETATM   28  N7  UNL     1     -14.608 -26.596 -20.564  1.00  0.00    -0.175 N 
HETATM   29  C14 UNL     1     -13.264 -26.599 -20.496  1.00  0.00     0.145 A 
ATOM     30  H7  UNL     1     -15.093 -25.701 -20.629  1.00  0.00     0.186 HD
HETATM   31  N8  UNL     1     -12.596 -25.496 -20.512  1.00  0.00    -0.383 N 
ATOM     32  H82 UNL     1     -13.113 -24.620 -20.578  1.00  0.00     0.157 HD
ATOM     33  H81 UNL     1     -11.577 -25.499 -20.460  1.00  0.00     0.157 HD
HETATM   34  N9  UNL     1     -11.218 -27.823 -20.336  1.00  0.00    -0.352 N 
ATOM     35  H9  UNL     1     -10.698 -26.946 -20.349  1.00  0.00     0.166 HD
BRANCH  26  36
HETATM   36  N6  UNL     1     -16.635 -27.689 -20.617  1.00  0.00    -0.234 N 
ATOM     37  H62 UNL     1     -17.110 -27.475 -21.494  1.00  0.00     0.174 HD
ATOM     38  H61 UNL     1     -17.222 -27.873 -19.803  1.00  0.00     0.174 HD
ENDBRANCH  26  36
ENDBRANCH  18  19
ENDBRANCH  17  18
ENDBRANCH  13  17
ENDBRANCH   3   4
TORSDOF 5
ENDMDL
MODEL 3
REMARK VINA RESULT: -9.027600166      2.363      9.242
REMARK  5 active torsions:
REMARK  status: ('A' for Active; 'I' for Inactive)
REMARK    1  A    between atoms: C3_3  and  N1_4 
REMARK    2  A    between atoms: C7_13  and  C8_14 
REMARK    3  A    between atoms: C8_14  and  C9_15 
REMARK    4  A    between atoms: C9_15  and  C10_16 
REMARK    5  A    between atoms: C13_23  and  N6_24 
ROOT
HETATM    1  C1  UNL     1     -17.022 -30.841 -18.675  1.00  0.00     0.014 C 
HETATM    2  C2  UNL     1     -15.950 -30.628 -19.196  1.00  0.00    -0.097 C 
HETATM    3  C3  UNL     1     -14.648 -30.350 -19.814  1.00  0.00     0.224 C 
ENDROOT
BRANCH   3   4
HETATM    4  N1  UNL     1     -14.504 -28.935 -20.078  1.00  0.00    -0.316 N 
HETATM    5  C4  UNL     1     -15.445 -28.074 -20.458  1.00  0.00     0.186 A 
HETATM    6  N2  UNL     1     -14.913 -26.830 -20.603  1.00  0.00    -0.345 N 
HETATM    7  C5  UNL     1     -13.616 -26.909 -20.312  1.00  0.00     0.146 A 
ATOM      8  H2  UNL     1     -15.417 -25.989 -20.885  1.00  0.00     0.167 HD
HETATM    9  C6  UNL     1     -12.600 -25.957 -20.294  1.00  0.00     0.277 A 
HETATM   10  C16 UNL     1     -13.356 -28.232 -19.981  1.00  0.00     0.143 A 
HETATM   11  O1  UNL     1     -12.870 -24.773 -20.598  1.00  0.00    -0.266 OA
HETATM   12  N3  UNL     1     -11.376 -26.390 -19.944  1.00  0.00    -0.311 N 
HETATM   13  C7  UNL     1     -11.112 -27.666 -19.622  1.00  0.00     0.085 A 
ATOM     14  H3  UNL     1     -10.611 -25.716 -19.923  1.00  0.00     0.170 HD
HETATM   15  N10 UNL     1     -12.100 -28.574 -19.643  1.00  0.00    -0.330 N 
ATOM     16  H10 UNL     1     -11.894 -29.542 -19.398  1.00  0.00     0.168 HD
BRANCH  13  17
HETATM   17  C8  UNL     1      -9.712 -28.003 -19.255  1.00  0.00     0.083 C 
BRANCH  17  18
HETATM   18  C9  UNL     1      -9.296 -29.168 -20.130  1.00  0.00     0.066 C 
BRANCH  18  19
HETATM   19  C10 UNL     1      -8.230 -29.990 -19.492  1.00  0.00     0.025 A 
HETATM   20  C11 UNL     1      -8.202 -31.364 -19.631  1.00  0.00     0.114 A 
HETATM   21  N4  UNL     1      -7.244 -32.119 -19.060  1.00  0.00    -0.348 N 
HETATM   22  C12 UNL     1      -6.264 -31.567 -18.321  1.00  0.00     0.151 A 
ATOM     23  H4  UNL     1      -7.263 -33.131 -19.189  1.00  0.00     0.167 HD
HETATM   24  N5  UNL     1      -5.294 -32.306 -17.739  1.00  0.00    -0.174 N 
HETATM   25  C15 UNL     1      -6.286 -30.196 -18.177  1.00  0.00     0.122 A 
HETATM   26  C13 UNL     1      -4.314 -31.758 -17.001  1.00  0.00     0.679 A 
ATOM     27  H5  UNL     1      -5.306 -33.318 -17.864  1.00  0.00     0.186 HD
HETATM   28  N7  UNL     1      -4.330 -30.420 -16.856  1.00  0.00    -0.175 N 
HETATM   29  C14 UNL     1      -5.275 -29.643 -17.416  1.00  0.00     0.145 A 
ATOM     30  H7  UNL     1      -3.598 -29.978 -16.300  1.00  0.00     0.186 HD
HETATM   31  N8  UNL     1      -5.261 -28.363 -17.257  1.00  0.00    -0.383 N 
ATOM     32  H82 UNL     1      -4.514 -27.955 -16.696  1.00  0.00     0.157 HD
ATOM     33  H81 UNL     1      -5.977 -27.774 -17.682  1.00  0.00     0.157 HD
HETATM   34  N9  UNL     1      -7.246 -29.445 -18.751  1.00  0.00    -0.352 N 
ATOM     35  H9  UNL     1      -7.227 -28.434 -18.621  1.00  0.00     0.166 HD
BRANCH  26  36
HETATM   36  N6  UNL     1      -3.386 -32.482 -16.445  1.00  0.00    -0.234 N 
ATOM     37  H62 UNL     1      -2.872 -33.180 -16.982  1.00  0.00     0.174 HD
ATOM     38  H61 UNL     1      -3.138 -32.376 -15.461  1.00  0.00     0.174 HD
ENDBRANCH  26  36
ENDBRANCH  18  19
ENDBRANCH  17  18
ENDBRANCH  13  17
ENDBRANCH   3   4
TORSDOF 5
ENDMDL
MODEL 4
REMARK VINA RESULT: -8.880924751      1.711      2.270
REMARK  5 active torsions:
REMARK  status: ('A' for Active; 'I' for Inactive)
REMARK    1  A    between atoms: C3_3  and  N1_4 
REMARK    2  A    between atoms: C7_13  and  C8_14 
REMARK    3  A    between atoms: C8_14  and  C9_15 
REMARK    4  A    between atoms: C9_15  and  C10_16 
REMARK    5  A    between atoms: C13_23  and  N6_24 
ROOT
HETATM    1  C1  UNL     1      -3.547 -33.853 -14.918  1.00  0.00     0.014 C 
HETATM    2  C2  UNL     1      -4.417 -33.220 -15.472  1.00  0.00    -0.097 C 
HETATM    3  C3  UNL     1      -5.459 -32.452 -16.163  1.00  0.00     0.224 C 
ENDROOT
BRANCH   3   4
HETATM    4  N1  UNL     1      -4.866 -31.461 -17.034  1.00  0.00    -0.316 N 
HETATM    5  C4  UNL     1      -3.766 -30.741 -16.824  1.00  0.00     0.186 A 
HETATM    6  N2  UNL     1      -3.535 -29.916 -17.880  1.00  0.00    -0.345 N 
HETATM    7  C5  UNL     1      -4.505 -30.119 -18.770  1.00  0.00     0.146 A 
ATOM      8  H2  UNL     1      -2.759 -29.261 -17.974  1.00  0.00     0.167 HD
HETATM    9  C6  UNL     1      -4.764 -29.556 -20.018  1.00  0.00     0.277 A 
HETATM   10  C16 UNL     1      -5.343 -31.090 -18.241  1.00  0.00     0.143 A 
HETATM   11  O1  UNL     1      -3.988 -28.683 -20.465  1.00  0.00    -0.266 OA
HETATM   12  N3  UNL     1      -5.856 -30.003 -20.663  1.00  0.00    -0.311 N 
HETATM   13  C7  UNL     1      -6.674 -30.941 -20.162  1.00  0.00     0.085 A 
ATOM     14  H3  UNL     1      -6.073 -29.609 -21.578  1.00  0.00     0.170 HD
HETATM   15  N10 UNL     1      -6.413 -31.476 -18.959  1.00  0.00    -0.330 N 
ATOM     16  H10 UNL     1      -7.038 -32.188 -18.582  1.00  0.00     0.168 HD
BRANCH  13  17
HETATM   17  C8  UNL     1      -7.846 -31.339 -20.986  1.00  0.00     0.083 C 
BRANCH  17  18
HETATM   18  C9  UNL     1      -9.072 -31.184 -20.111  1.00  0.00     0.066 C 
BRANCH  18  19
HETATM   19  C10 UNL     1      -9.596 -29.789 -20.132  1.00  0.00     0.025 A 
HETATM   20  C11 UNL     1      -8.996 -28.785 -19.396  1.00  0.00     0.114 A 
HETATM   21  N4  UNL     1      -9.460 -27.520 -19.405  1.00  0.00    -0.348 N 
HETATM   22  C12 UNL     1     -10.536 -27.174 -20.135  1.00  0.00     0.151 A 
ATOM     23  H4  UNL     1      -8.985 -26.811 -18.846  1.00  0.00     0.167 HD
HETATM   24  N5  UNL     1     -11.017 -25.911 -20.159  1.00  0.00    -0.174 N 
HETATM   25  C15 UNL     1     -11.140 -28.171 -20.872  1.00  0.00     0.122 A 
HETATM   26  C13 UNL     1     -12.091 -25.562 -20.887  1.00  0.00     0.679 A 
ATOM     27  H5  UNL     1     -10.548 -25.197 -19.603  1.00  0.00     0.186 HD
HETATM   28  N7  UNL     1     -12.686 -26.530 -21.607  1.00  0.00    -0.175 N 
HETATM   29  C14 UNL     1     -12.243 -27.801 -21.616  1.00  0.00     0.145 A 
ATOM     30  H7  UNL     1     -13.504 -26.292 -22.169  1.00  0.00     0.186 HD
HETATM   31  N8  UNL     1     -12.836 -28.705 -22.318  1.00  0.00    -0.383 N 
ATOM     32  H82 UNL     1     -13.651 -28.432 -22.867  1.00  0.00     0.157 HD
ATOM     33  H81 UNL     1     -12.501 -29.669 -22.325  1.00  0.00     0.157 HD
HETATM   34  N9  UNL     1     -10.672 -29.434 -20.859  1.00  0.00    -0.352 N 
ATOM     35  H9  UNL     1     -11.147 -30.143 -21.418  1.00  0.00     0.166 HD
BRANCH  26  36
HETATM   36  N6  UNL     1     -12.545 -24.342 -20.900  1.00  0.00    -0.234 N 
ATOM     37  H62 UNL     1     -13.226 -24.027 -20.209  1.00  0.00     0.174 HD
ATOM     38  H61 UNL     1     -12.238 -23.661 -21.594  1.00  0.00     0.174 HD
ENDBRANCH  26  36
ENDBRANCH  18  19
ENDBRANCH  17  18
ENDBRANCH  13  17
ENDBRANCH   3   4
TORSDOF 5
ENDMDL
MODEL 5
REMARK VINA RESULT: -8.816478134      2.273      2.572
REMARK  5 active torsions:
REMARK  status: ('A' for Active; 'I' for Inactive)
REMARK    1  A    between atoms: C3_3  and  N1_4 
REMARK    2  A    between atoms: C7_13  and  C8_14 
REMARK    3  A    between atoms: C8_14  and  C9_15 
REMARK    4  A    between atoms: C9_15  and  C10_16 
REMARK    5  A    between atoms: C13_23  and  N6_24 
ROOT
HETATM    1  C1  UNL     1      -3.529 -33.924 -14.852  1.00  0.00     0.014 C 
HETATM    2  C2  UNL     1      -4.367 -33.174 -15.299  1.00  0.00    -0.097 C 
HETATM    3  C3  UNL     1      -5.374 -32.268 -15.862  1.00  0.00     0.224 C 
ENDROOT
BRANCH   3   4
HETATM    4  N1  UNL     1      -4.801 -31.469 -16.924  1.00  0.00    -0.316 N 
HETATM    5  C4  UNL     1      -3.515 -31.219 -17.155  1.00  0.00     0.186 A 
HETATM    6  N2  UNL     1      -3.381 -30.425 -18.251  1.00  0.00    -0.345 N 
HETATM    7  C5  UNL     1      -4.602 -30.170 -18.718  1.00  0.00     0.146 A 
ATOM      8  H2  UNL     1      -2.503 -30.086 -18.646  1.00  0.00     0.167 HD
HETATM    9  C6  UNL     1      -5.053 -29.422 -19.802  1.00  0.00     0.277 A 
HETATM   10  C16 UNL     1      -5.498 -30.826 -17.884  1.00  0.00     0.143 A 
HETATM   11  O1  UNL     1      -4.218 -28.844 -20.533  1.00  0.00    -0.266 OA
HETATM   12  N3  UNL     1      -6.385 -29.376 -19.987  1.00  0.00    -0.311 N 
HETATM   13  C7  UNL     1      -7.261 -30.006 -19.189  1.00  0.00     0.085 A 
ATOM     14  H3  UNL     1      -6.746 -28.835 -20.773  1.00  0.00     0.170 HD
HETATM   15  N10 UNL     1      -6.812 -30.723 -18.148  1.00  0.00    -0.330 N 
ATOM     16  H10 UNL     1      -7.482 -31.199 -17.543  1.00  0.00     0.168 HD
BRANCH  13  17
HETATM   17  C8  UNL     1      -8.705 -29.867 -19.513  1.00  0.00     0.083 C 
BRANCH  17  18
HETATM   18  C9  UNL     1      -9.126 -28.484 -19.061  1.00  0.00     0.066 C 
BRANCH  18  19
HETATM   19  C10 UNL     1      -9.938 -27.784 -20.096  1.00  0.00     0.025 A 
HETATM   20  C11 UNL     1     -10.613 -26.614 -19.809  1.00  0.00     0.114 A 
HETATM   21  N4  UNL     1     -11.351 -25.971 -20.735  1.00  0.00    -0.348 N 
HETATM   22  C12 UNL     1     -11.466 -26.442 -21.990  1.00  0.00     0.151 A 
ATOM     23  H4  UNL     1     -11.832 -25.109 -20.479  1.00  0.00     0.167 HD
HETATM   24  N5  UNL     1     -12.201 -25.813 -22.934  1.00  0.00    -0.174 N 
HETATM   25  C15 UNL     1     -10.795 -27.611 -22.283  1.00  0.00     0.122 A 
HETATM   26  C13 UNL     1     -12.318 -26.282 -24.188  1.00  0.00     0.679 A 
ATOM     27  H5  UNL     1     -12.685 -24.951 -22.685  1.00  0.00     0.186 HD
HETATM   28  N7  UNL     1     -11.666 -27.422 -24.480  1.00  0.00    -0.175 N 
HETATM   29  C14 UNL     1     -10.923 -28.083 -23.575  1.00  0.00     0.145 A 
ATOM     30  H7  UNL     1     -11.739 -27.800 -25.425  1.00  0.00     0.186 HD
HETATM   31  N8  UNL     1     -10.311 -29.175 -23.888  1.00  0.00    -0.383 N 
ATOM     32  H82 UNL     1     -10.405 -29.524 -24.842  1.00  0.00     0.157 HD
ATOM     33  H81 UNL     1      -9.747 -29.676 -23.202  1.00  0.00     0.157 HD
HETATM   34  N9  UNL     1     -10.058 -28.250 -21.354  1.00  0.00    -0.352 N 
ATOM     35  H9  UNL     1      -9.577 -29.112 -21.611  1.00  0.00     0.166 HD
BRANCH  26  36
HETATM   36  N6  UNL     1     -13.029 -25.666 -25.088  1.00  0.00    -0.234 N 
ATOM     37  H62 UNL     1     -13.380 -24.722 -24.925  1.00  0.00     0.174 HD
ATOM     38  H61 UNL     1     -13.259 -26.101 -25.981  1.00  0.00     0.174 HD
ENDBRANCH  26  36
ENDBRANCH  18  19
ENDBRANCH  17  18
ENDBRANCH  13  17
ENDBRANCH   3   4
TORSDOF 5
ENDMDL
