MODEL 1
REMARK VINA RESULT: -7.483477270      0.000      0.000
REMARK  7 active torsions:
REMARK  status: ('A' for Active; 'I' for Inactive)
REMARK    1  A    between atoms: N1_2  and  C3_4 
REMARK    2  A    between atoms: C3_4  and  C4_5 
REMARK    3  A    between atoms: C4_5  and  N2_6 
REMARK    4  A    between atoms: N2_6  and  C5_8 
REMARK    5  A    between atoms: C6_12  and  C7_13 
REMARK    6  A    between atoms: C12_27  and  N8_28 
REMARK    7  A    between atoms: C13_31  and  O2_32 
ROOT
HETATM    1  C7  UNL     1      -7.409 -29.983 -19.132  1.00  0.00     0.107 A 
HETATM    2  N4  UNL     1      -6.226 -29.518 -18.632  1.00  0.00    -0.344 N 
ATOM      3  H4  UNL     1      -6.019 -28.525 -18.740  1.00  0.00     0.166 HD
HETATM    4  C8  UNL     1      -5.327 -30.278 -18.011  1.00  0.00     0.146 A 
HETATM    5  C9  UNL     1      -4.137 -29.770 -17.515  1.00  0.00     0.277 A 
HETATM    6  O1  UNL     1      -3.880 -28.545 -17.647  1.00  0.00    -0.266 OA
HETATM    7  N5  UNL     1      -3.268 -30.584 -16.897  1.00  0.00    -0.318 N 
ATOM      8  H5  UNL     1      -2.388 -30.225 -16.525  1.00  0.00     0.169 HD
HETATM    9  C10 UNL     1      -3.587 -31.883 -16.781  1.00  0.00     0.185 A 
HETATM   10  N6  UNL     1      -4.734 -32.398 -17.255  1.00  0.00    -0.336 N 
ATOM     11  H6  UNL     1      -4.924 -33.394 -17.138  1.00  0.00     0.168 HD
HETATM   12  C11 UNL     1      -5.638 -31.617 -17.883  1.00  0.00     0.140 A 
HETATM   13  N7  UNL     1      -6.768 -32.146 -18.344  1.00  0.00    -0.325 N 
ATOM     14  H7  UNL     1      -6.970 -33.140 -18.233  1.00  0.00     0.169 HD
HETATM   15  C12 UNL     1      -7.658 -31.306 -18.976  1.00  0.00     0.130 A 
ENDROOT
BRANCH   1  16
HETATM   16  C6  UNL     1      -8.340 -29.034 -19.826  1.00  0.00     0.105 A 
HETATM   17  N3  UNL     1      -8.286 -28.747 -21.117  1.00  0.00    -0.320 N 
HETATM   18  S1  UNL     1      -9.550 -27.621 -21.350  1.00  0.00     0.007 SA
ATOM     19  H3  UNL     1      -7.638 -29.114 -21.814  1.00  0.00     0.174 HD
HETATM   20  C5  UNL     1     -10.125 -27.545 -19.768  1.00  0.00     0.122 A 
HETATM   21  C13 UNL     1      -9.312 -28.402 -19.099  1.00  0.00     0.130 A 
BRANCH  20  22
HETATM   22  N2  UNL     1     -11.111 -26.829 -19.300  1.00  0.00    -0.379 N 
ATOM     23  H2  UNL     1     -10.957 -25.900 -18.908  1.00  0.00     0.160 HD
BRANCH  22  24
HETATM   24  C4  UNL     1     -12.440 -27.418 -19.366  1.00  0.00     0.150 C 
BRANCH  24  25
HETATM   25  C3  UNL     1     -13.326 -26.642 -20.309  1.00  0.00     0.290 C 
BRANCH  25  26
HETATM   26  N1  UNL     1     -14.094 -27.538 -21.152  1.00  0.00     0.081 N 
HETATM   27  C1  UNL     1     -13.472 -28.838 -21.234  1.00  0.00     0.309 C 
HETATM   28  C2  UNL     1     -15.470 -27.605 -20.718  1.00  0.00     0.309 C 
ENDBRANCH  25  26
ENDBRANCH  24  25
ENDBRANCH  22  24
ENDBRANCH  20  22
BRANCH  21  29
HETATM   29  O2  UNL     1      -9.527 -28.582 -17.701  1.00  0.00    -0.356 OA
ATOM     30  H2  UNL     1     -10.351 -28.961 -17.418  1.00  0.00     0.218 HD
ENDBRANCH  21  29
ENDBRANCH   1  16
BRANCH  15  31
HETATM   31  N8  UNL     1      -8.755 -31.835 -19.401  1.00  0.00    -0.384 N 
ATOM     32  H82 UNL     1      -9.598 -31.641 -18.862  1.00  0.00     0.157 HD
ATOM     33  H81 UNL     1      -8.774 -32.408 -20.245  1.00  0.00     0.157 HD
ENDBRANCH  15  31
TORSDOF 7
ENDMDL
MODEL 2
REMARK VINA RESULT: -7.234296458      0.787      1.013
REMARK  7 active torsions:
REMARK  status: ('A' for Active; 'I' for Inactive)
REMARK    1  A    between atoms: N1_2  and  C3_4 
REMARK    2  A    between atoms: C3_4  and  C4_5 
REMARK    3  A    between atoms: C4_5  and  N2_6 
REMARK    4  A    between atoms: N2_6  and  C5_8 
REMARK    5  A    between atoms: C6_12  and  C7_13 
REMARK    6  A    between atoms: C12_27  and  N8_28 
REMARK    7  A    between atoms: C13_31  and  O2_32 
ROOT
HETATM    1  C7  UNL     1      -7.770 -29.867 -19.273  1.00  0.00     0.107 A 
HETATM    2  N4  UNL     1      -6.628 -29.492 -18.624  1.00  0.00    -0.344 N 
ATOM      3  H4  UNL     1      -6.396 -28.499 -18.601  1.00  0.00     0.166 HD
HETATM    4  C8  UNL     1      -5.798 -30.340 -18.020  1.00  0.00     0.146 A 
HETATM    5  C9  UNL     1      -4.648 -29.922 -17.370  1.00  0.00     0.277 A 
HETATM    6  O1  UNL     1      -4.361 -28.697 -17.340  1.00  0.00    -0.266 OA
HETATM    7  N5  UNL     1      -3.850 -30.822 -16.778  1.00  0.00    -0.318 N 
ATOM      8  H5  UNL     1      -3.000 -30.531 -16.295  1.00  0.00     0.169 HD
HETATM    9  C10 UNL     1      -4.200 -32.117 -16.838  1.00  0.00     0.185 A 
HETATM   10  N6  UNL     1      -5.309 -32.546 -17.462  1.00  0.00    -0.336 N 
ATOM     11  H6  UNL     1      -5.525 -33.543 -17.476  1.00  0.00     0.168 HD
HETATM   12  C11 UNL     1      -6.142 -31.676 -18.072  1.00  0.00     0.140 A 
HETATM   13  N7  UNL     1      -7.236 -32.121 -18.684  1.00  0.00    -0.325 N 
ATOM     14  H7  UNL     1      -7.463 -33.115 -18.704  1.00  0.00     0.169 HD
HETATM   15  C12 UNL     1      -8.054 -31.192 -19.290  1.00  0.00     0.130 A 
ENDROOT
BRANCH   1  16
HETATM   16  C6  UNL     1      -8.622 -28.822 -19.930  1.00  0.00     0.105 A 
HETATM   17  N3  UNL     1      -8.509 -28.459 -21.199  1.00  0.00    -0.320 N 
HETATM   18  S1  UNL     1      -9.698 -27.247 -21.395  1.00  0.00     0.007 SA
ATOM     19  H3  UNL     1      -7.862 -28.821 -21.899  1.00  0.00     0.174 HD
HETATM   20  C5  UNL     1     -10.317 -27.235 -19.828  1.00  0.00     0.122 A 
HETATM   21  C13 UNL     1      -9.577 -28.179 -19.193  1.00  0.00     0.130 A 
BRANCH  20  22
HETATM   22  N2  UNL     1     -11.274 -26.490 -19.344  1.00  0.00    -0.379 N 
ATOM     23  H2  UNL     1     -11.105 -25.830 -18.585  1.00  0.00     0.160 HD
BRANCH  22  24
HETATM   24  C4  UNL     1     -12.593 -26.646 -19.939  1.00  0.00     0.150 C 
BRANCH  24  25
HETATM   25  C3  UNL     1     -13.293 -27.861 -19.382  1.00  0.00     0.290 C 
BRANCH  25  26
HETATM   26  N1  UNL     1     -13.555 -28.831 -20.428  1.00  0.00     0.081 N 
HETATM   27  C1  UNL     1     -13.459 -28.228 -21.735  1.00  0.00     0.309 C 
HETATM   28  C2  UNL     1     -12.704 -29.989 -20.285  1.00  0.00     0.309 C 
ENDBRANCH  25  26
ENDBRANCH  24  25
ENDBRANCH  22  24
ENDBRANCH  20  22
BRANCH  21  29
HETATM   29  O2  UNL     1      -9.847 -28.432 -17.815  1.00  0.00    -0.356 OA
ATOM     30  H2  UNL     1      -9.110 -28.505 -17.220  1.00  0.00     0.218 HD
ENDBRANCH  21  29
ENDBRANCH   1  16
BRANCH  15  31
HETATM   31  N8  UNL     1      -9.118 -31.641 -19.863  1.00  0.00    -0.384 N 
ATOM     32  H82 UNL     1      -9.308 -31.304 -20.807  1.00  0.00     0.157 HD
ATOM     33  H81 UNL     1      -9.729 -32.311 -19.396  1.00  0.00     0.157 HD
ENDBRANCH  15  31
TORSDOF 7
ENDMDL
MODEL 3
REMARK VINA RESULT: -6.811343154      2.021      8.256
REMARK  7 active torsions:
REMARK  status: ('A' for Active; 'I' for Inactive)
REMARK    1  A    between atoms: N1_2  and  C3_4 
REMARK    2  A    between atoms: C3_4  and  C4_5 
REMARK    3  A    between atoms: C4_5  and  N2_6 
REMARK    4  A    between atoms: N2_6  and  C5_8 
REMARK    5  A    between atoms: C6_12  and  C7_13 
REMARK    6  A    between atoms: C12_27  and  N8_28 
REMARK    7  A    between atoms: C13_31  and  O2_32 
ROOT
HETATM    1  C7  UNL     1     -10.176 -28.245 -19.977  1.00  0.00     0.107 A 
HETATM    2  N4  UNL     1     -11.282 -29.045 -19.938  1.00  0.00    -0.344 N 
ATOM      3  H4  UNL     1     -11.163 -30.011 -19.631  1.00  0.00     0.166 HD
HETATM    4  C8  UNL     1     -12.507 -28.646 -20.274  1.00  0.00     0.146 A 
HETATM    5  C9  UNL     1     -13.607 -29.487 -20.221  1.00  0.00     0.277 A 
HETATM    6  O1  UNL     1     -13.460 -30.679 -19.841  1.00  0.00    -0.266 OA
HETATM    7  N5  UNL     1     -14.817 -29.029 -20.570  1.00  0.00    -0.318 N 
ATOM      8  H5  UNL     1     -15.637 -29.635 -20.535  1.00  0.00     0.169 HD
HETATM    9  C10 UNL     1     -14.922 -27.751 -20.968  1.00  0.00     0.185 A 
HETATM   10  N6  UNL     1     -13.870 -26.917 -21.029  1.00  0.00    -0.336 N 
ATOM     11  H6  UNL     1     -14.008 -25.955 -21.339  1.00  0.00     0.168 HD
HETATM   12  C11 UNL     1     -12.633 -27.334 -20.686  1.00  0.00     0.140 A 
HETATM   13  N7  UNL     1     -11.605 -26.492 -20.752  1.00  0.00    -0.325 N 
ATOM     14  H7  UNL     1     -11.731 -25.528 -21.060  1.00  0.00     0.169 HD
HETATM   15  C12 UNL     1     -10.364 -26.967 -20.390  1.00  0.00     0.130 A 
ENDROOT
BRANCH   1  16
HETATM   16  C6  UNL     1      -8.843 -28.809 -19.588  1.00  0.00     0.105 A 
HETATM   17  N3  UNL     1      -7.918 -29.201 -20.452  1.00  0.00    -0.320 N 
HETATM   18  S1  UNL     1      -6.637 -29.759 -19.469  1.00  0.00     0.007 SA
ATOM     19  H3  UNL     1      -7.961 -29.174 -21.470  1.00  0.00     0.174 HD
HETATM   20  C5  UNL     1      -7.325 -29.475 -17.958  1.00  0.00     0.122 A 
HETATM   21  C13 UNL     1      -8.539 -28.951 -18.262  1.00  0.00     0.130 A 
BRANCH  20  22
HETATM   22  N2  UNL     1      -6.812 -29.709 -16.780  1.00  0.00    -0.379 N 
ATOM     23  H2  UNL     1      -7.313 -29.473 -15.923  1.00  0.00     0.160 HD
BRANCH  22  24
HETATM   24  C4  UNL     1      -5.493 -30.323 -16.748  1.00  0.00     0.150 C 
BRANCH  24  25
HETATM   25  C3  UNL     1      -5.548 -31.680 -16.090  1.00  0.00     0.290 C 
BRANCH  25  26
HETATM   26  N1  UNL     1      -4.373 -32.462 -16.422  1.00  0.00     0.081 N 
HETATM   27  C1  UNL     1      -3.236 -31.612 -16.681  1.00  0.00     0.309 C 
HETATM   28  C2  UNL     1      -4.107 -33.454 -15.405  1.00  0.00     0.309 C 
ENDBRANCH  25  26
ENDBRANCH  24  25
ENDBRANCH  22  24
ENDBRANCH  20  22
BRANCH  21  29
HETATM   29  O2  UNL     1      -9.404 -28.586 -17.188  1.00  0.00    -0.356 OA
ATOM     30  H2  UNL     1     -10.305 -28.363 -17.392  1.00  0.00     0.218 HD
ENDBRANCH  21  29
ENDBRANCH   1  16
BRANCH  15  31
HETATM   31  N8  UNL     1      -9.383 -26.132 -20.446  1.00  0.00    -0.384 N 
ATOM     32  H82 UNL     1      -9.360 -25.502 -21.247  1.00  0.00     0.157 HD
ATOM     33  H81 UNL     1      -8.674 -26.098 -19.713  1.00  0.00     0.157 HD
ENDBRANCH  15  31
TORSDOF 7
ENDMDL
MODEL 4
REMARK VINA RESULT: -6.795591499      2.406      2.558
REMARK  7 active torsions:
REMARK  status: ('A' for Active; 'I' for Inactive)
REMARK    1  A    between atoms: N1_2  and  C3_4 
REMARK    2  A    between atoms: C3_4  and  C4_5 
REMARK    3  A    between atoms: C4_5  and  N2_6 
REMARK    4  A    between atoms: N2_6  and  C5_8 
REMARK    5  A    between atoms: C6_12  and  C7_13 
REMARK    6  A    between atoms: C12_27  and  N8_28 
REMARK    7  A    between atoms: C13_31  and  O2_32 
ROOT
HETATM    1  C7  UNL     1      -7.504 -29.975 -18.764  1.00  0.00     0.107 A 
HETATM    2  N4  UNL     1      -6.318 -29.427 -18.363  1.00  0.00    -0.344 N 
ATOM      3  H4  UNL     1      -6.226 -28.411 -18.396  1.00  0.00     0.166 HD
HETATM    4  C8  UNL     1      -5.276 -30.134 -17.933  1.00  0.00     0.146 A 
HETATM    5  C9  UNL     1      -4.088 -29.542 -17.533  1.00  0.00     0.277 A 
HETATM    6  O1  UNL     1      -3.973 -28.289 -17.573  1.00  0.00    -0.266 OA
HETATM    7  N5  UNL     1      -3.071 -30.305 -17.108  1.00  0.00    -0.318 N 
ATOM      8  H5  UNL     1      -2.191 -29.885 -16.809  1.00  0.00     0.169 HD
HETATM    9  C10 UNL     1      -3.243 -31.637 -17.084  1.00  0.00     0.185 A 
HETATM   10  N6  UNL     1      -4.384 -32.233 -17.466  1.00  0.00    -0.336 N 
ATOM     11  H6  UNL     1      -4.458 -33.249 -17.428  1.00  0.00     0.168 HD
HETATM   12  C11 UNL     1      -5.434 -31.505 -17.902  1.00  0.00     0.140 A 
HETATM   13  N7  UNL     1      -6.557 -32.114 -18.276  1.00  0.00    -0.325 N 
ATOM     14  H7  UNL     1      -6.643 -33.130 -18.241  1.00  0.00     0.169 HD
HETATM   15  C12 UNL     1      -7.599 -31.326 -18.711  1.00  0.00     0.130 A 
ENDROOT
BRANCH   1  16
HETATM   16  C6  UNL     1      -8.606 -29.078 -19.244  1.00  0.00     0.105 A 
HETATM   17  N3  UNL     1      -9.680 -28.770 -18.532  1.00  0.00    -0.320 N 
HETATM   18  S1  UNL     1     -10.585 -27.748 -19.560  1.00  0.00     0.007 SA
ATOM     19  H3  UNL     1      -9.913 -29.073 -17.586  1.00  0.00     0.174 HD
HETATM   20  C5  UNL     1      -9.553 -27.741 -20.893  1.00  0.00     0.122 A 
HETATM   21  C13 UNL     1      -8.528 -28.538 -20.498  1.00  0.00     0.130 A 
BRANCH  20  22
HETATM   22  N2  UNL     1      -9.709 -27.120 -22.031  1.00  0.00    -0.379 N 
ATOM     23  H2  UNL     1      -8.952 -27.052 -22.710  1.00  0.00     0.160 HD
BRANCH  22  24
HETATM   24  C4  UNL     1     -11.016 -26.531 -22.284  1.00  0.00     0.150 C 
BRANCH  24  25
HETATM   25  C3  UNL     1     -11.589 -27.034 -23.586  1.00  0.00     0.290 C 
BRANCH  25  26
HETATM   26  N1  UNL     1     -11.596 -25.984 -24.587  1.00  0.00     0.081 N 
HETATM   27  C1  UNL     1     -10.473 -26.111 -25.484  1.00  0.00     0.309 C 
HETATM   28  C2  UNL     1     -12.862 -25.940 -25.281  1.00  0.00     0.309 C 
ENDBRANCH  25  26
ENDBRANCH  24  25
ENDBRANCH  22  24
ENDBRANCH  20  22
BRANCH  21  29
HETATM   29  O2  UNL     1      -7.452 -28.753 -21.410  1.00  0.00    -0.356 OA
ATOM     30  H2  UNL     1      -7.635 -28.698 -22.340  1.00  0.00     0.218 HD
ENDBRANCH  21  29
ENDBRANCH   1  16
BRANCH  15  31
HETATM   31  N8  UNL     1      -8.684 -31.934 -19.053  1.00  0.00    -0.384 N 
ATOM     32  H82 UNL     1      -9.562 -31.466 -18.832  1.00  0.00     0.157 HD
ATOM     33  H81 UNL     1      -8.657 -32.834 -19.533  1.00  0.00     0.157 HD
ENDBRANCH  15  31
TORSDOF 7
ENDMDL
MODEL 5
REMARK VINA RESULT: -6.772876662      2.080      8.094
REMARK  7 active torsions:
REMARK  status: ('A' for Active; 'I' for Inactive)
REMARK    1  A    between atoms: N1_2  and  C3_4 
REMARK    2  A    between atoms: C3_4  and  C4_5 
REMARK    3  A    between atoms: C4_5  and  N2_6 
REMARK    4  A    between atoms: N2_6  and  C5_8 
REMARK    5  A    between atoms: C6_12  and  C7_13 
REMARK    6  A    between atoms: C12_27  and  N8_28 
REMARK    7  A    between atoms: C13_31  and  O2_32 
ROOT
HETATM    1  C7  UNL     1     -11.430 -29.497 -20.159  1.00  0.00     0.107 A 
HETATM    2  N4  UNL     1     -12.089 -28.306 -20.285  1.00  0.00    -0.344 N 
ATOM      3  H4  UNL     1     -11.533 -27.450 -20.285  1.00  0.00     0.166 HD
HETATM    4  C8  UNL     1     -13.410 -28.192 -20.407  1.00  0.00     0.146 A 
HETATM    5  C9  UNL     1     -14.043 -26.966 -20.533  1.00  0.00     0.277 A 
HETATM    6  O1  UNL     1     -13.358 -25.909 -20.534  1.00  0.00    -0.266 OA
HETATM    7  N5  UNL     1     -15.377 -26.912 -20.653  1.00  0.00    -0.318 N 
ATOM      8  H5  UNL     1     -15.858 -26.017 -20.748  1.00  0.00     0.169 HD
HETATM    9  C10 UNL     1     -16.063 -28.066 -20.647  1.00  0.00     0.185 A 
HETATM   10  N6  UNL     1     -15.471 -29.266 -20.525  1.00  0.00    -0.336 N 
ATOM     11  H6  UNL     1     -16.042 -30.111 -20.526  1.00  0.00     0.168 HD
HETATM   12  C11 UNL     1     -14.131 -29.369 -20.401  1.00  0.00     0.140 A 
HETATM   13  N7  UNL     1     -13.563 -30.567 -20.283  1.00  0.00    -0.325 N 
ATOM     14  H7  UNL     1     -14.124 -31.419 -20.283  1.00  0.00     0.169 HD
HETATM   15  C12 UNL     1     -12.193 -30.618 -20.161  1.00  0.00     0.130 A 
ENDROOT
BRANCH   1  16
HETATM   16  C6  UNL     1      -9.938 -29.502 -20.015  1.00  0.00     0.105 A 
HETATM   17  N3  UNL     1      -9.105 -30.024 -20.901  1.00  0.00    -0.320 N 
HETATM   18  S1  UNL     1      -7.556 -29.764 -20.226  1.00  0.00     0.007 SA
ATOM     19  H3  UNL     1      -9.334 -30.478 -21.786  1.00  0.00     0.174 HD
HETATM   20  C5  UNL     1      -8.020 -28.983 -18.807  1.00  0.00     0.122 A 
HETATM   21  C13 UNL     1      -9.373 -28.947 -18.899  1.00  0.00     0.130 A 
BRANCH  20  22
HETATM   22  N2  UNL     1      -7.258 -28.529 -17.849  1.00  0.00    -0.379 N 
ATOM     23  H2  UNL     1      -7.083 -27.531 -17.733  1.00  0.00     0.160 HD
BRANCH  22  24
HETATM   24  C4  UNL     1      -6.668 -29.515 -16.955  1.00  0.00     0.150 C 
BRANCH  24  25
HETATM   25  C3  UNL     1      -5.164 -29.518 -17.076  1.00  0.00     0.290 C 
BRANCH  25  26
HETATM   26  N1  UNL     1      -4.613 -30.781 -16.623  1.00  0.00     0.081 N 
HETATM   27  C1  UNL     1      -5.447 -31.888 -17.023  1.00  0.00     0.309 C 
HETATM   28  C2  UNL     1      -3.242 -30.931 -17.052  1.00  0.00     0.309 C 
ENDBRANCH  25  26
ENDBRANCH  24  25
ENDBRANCH  22  24
ENDBRANCH  20  22
BRANCH  21  29
HETATM   29  O2  UNL     1     -10.105 -28.337 -17.837  1.00  0.00    -0.356 OA
ATOM     30  H2  UNL     1      -9.937 -27.422 -17.644  1.00  0.00     0.218 HD
ENDBRANCH  21  29
ENDBRANCH   1  16
BRANCH  15  31
HETATM   31  N8  UNL     1     -11.661 -31.788 -20.064  1.00  0.00    -0.384 N 
ATOM     32  H82 UNL     1     -10.906 -31.895 -19.386  1.00  0.00     0.157 HD
ATOM     33  H81 UNL     1     -11.992 -32.569 -20.631  1.00  0.00     0.157 HD
ENDBRANCH  15  31
TORSDOF 7
ENDMDL
