MODEL 1
REMARK VINA RESULT: -8.597524578      0.000      0.000
REMARK  6 active torsions:
REMARK  status: ('A' for Active; 'I' for Inactive)
REMARK    1  A    between atoms: C2_2  and  N1_4 
REMARK    2  A    between atoms: C5_9  and  N3_10 
REMARK    3  A    between atoms: N5_16  and  C7_18 
REMARK    4  A    between atoms: C7_18  and  O1_19 
REMARK    5  A    between atoms: C8_23  and  C9_24 
REMARK    6  A    between atoms: C10_29  and  N9_30 
ROOT
HETATM    1  N1  UNL     1      61.508  11.276  51.232  1.00  0.00    -0.370 N 
ATOM      2  H1  UNL     1      61.778  11.395  52.208  1.00  0.00     0.161 HD
HETATM    3  C4  UNL     1      60.786  12.178  50.767  1.00  0.00     0.148 C 
HETATM    4  N2  UNL     1      60.343  12.162  49.460  1.00  0.00    -0.174 N 
ATOM      5  H2  UNL     1      60.978  11.762  48.768  1.00  0.00     0.186 HD
HETATM    6  C5  UNL     1      59.149  12.623  48.995  1.00  0.00     0.692 C 
HETATM    7  N4  UNL     1      58.106  13.072  49.716  1.00  0.00    -0.023 N 
ATOM      8  H4  UNL     1      57.212  13.110  49.228  1.00  0.00     0.203 HD
HETATM    9  C6  UNL     1      58.089  13.480  51.008  1.00  0.00     0.695 C 
HETATM   10  N5  UNL     1      56.976  13.656  51.568  1.00  0.00    -0.205 N 
ATOM     11  H5  UNL     1      57.020  13.961  52.540  1.00  0.00     0.179 HD
HETATM   12  N6  UNL     1      59.185  13.708  51.792  1.00  0.00    -0.184 N 
ATOM     13  H6  UNL     1      59.052  14.377  52.551  1.00  0.00     0.184 HD
HETATM   14  C8  UNL     1      60.429  13.164  51.700  1.00  0.00     0.139 C 
ENDROOT
BRANCH  14  15
HETATM   15  C9  UNL     1      61.455  13.570  52.633  1.00  0.00     0.167 A 
HETATM   16  N7  UNL     1      61.155  13.527  53.980  1.00  0.00    -0.269 N 
HETATM   17  N8  UNL     1      62.203  13.883  54.636  1.00  0.00    -0.130 N 
ATOM     18  H7  UNL     1      60.257  13.260  54.384  1.00  0.00     0.189 HD
HETATM   19  C10 UNL     1      63.199  14.163  53.752  1.00  0.00     0.696 A 
ATOM     20  H8  UNL     1      62.276  13.945  55.651  1.00  0.00     0.205 HD
HETATM   21  N10 UNL     1      62.700  13.961  52.515  1.00  0.00    -0.172 N 
ATOM     22  H10 UNL     1      63.206  14.091  51.638  1.00  0.00     0.186 HD
BRANCH  19  23
HETATM   23  N9  UNL     1      64.469  14.554  54.196  1.00  0.00    -0.216 N 
HETATM   24  C11 UNL     1      65.363  15.318  53.382  1.00  0.00     0.141 C 
HETATM   25  C12 UNL     1      66.481  15.900  54.272  1.00  0.00     0.020 C 
HETATM   26  C13 UNL     1      65.924  16.484  55.529  1.00  0.00     0.003 C 
HETATM   27  C14 UNL     1      65.056  15.519  56.270  1.00  0.00     0.020 C 
HETATM   28  C15 UNL     1      64.927  14.191  55.510  1.00  0.00     0.141 C 
ENDBRANCH  19  23
ENDBRANCH  14  15
BRANCH   1  29
HETATM   29  C2  UNL     1      62.009  10.115  50.607  1.00  0.00     0.075 C 
HETATM   30  C1  UNL     1      63.410  10.236  50.063  1.00  0.00     0.031 C 
HETATM   31  C3  UNL     1      61.931   8.836  51.408  1.00  0.00     0.031 C 
ENDBRANCH   1  29
BRANCH   6  32
HETATM   32  N3  UNL     1      59.046  12.614  47.704  1.00  0.00    -0.234 N 
ATOM     33  H32 UNL     1      58.790  11.739  47.245  1.00  0.00     0.174 HD
ATOM     34  H31 UNL     1      59.236  13.515  47.265  1.00  0.00     0.174 HD
ENDBRANCH   6  32
BRANCH  10  35
HETATM   35  C7  UNL     1      55.666  13.490  51.042  1.00  0.00     0.305 C 
BRANCH  35  36
HETATM   36  O1  UNL     1      54.878  14.526  51.609  1.00  0.00    -0.382 OA
ATOM     37  H1  UNL     1      54.133  14.639  51.031  1.00  0.00     0.211 HD
ENDBRANCH  35  36
ENDBRANCH  10  35
TORSDOF 6
ENDMDL
MODEL 2
REMARK VINA RESULT: -8.347448167      1.109      1.201
REMARK  6 active torsions:
REMARK  status: ('A' for Active; 'I' for Inactive)
REMARK    1  A    between atoms: C2_2  and  N1_4 
REMARK    2  A    between atoms: C5_9  and  N3_10 
REMARK    3  A    between atoms: N5_16  and  C7_18 
REMARK    4  A    between atoms: C7_18  and  O1_19 
REMARK    5  A    between atoms: C8_23  and  C9_24 
REMARK    6  A    between atoms: C10_29  and  N9_30 
ROOT
HETATM    1  N1  UNL     1      62.099  11.722  51.621  1.00  0.00    -0.370 N 
ATOM      2  H1  UNL     1      62.539  12.007  52.496  1.00  0.00     0.161 HD
HETATM    3  C4  UNL     1      61.302  12.546  51.134  1.00  0.00     0.148 C 
HETATM    4  N2  UNL     1      60.632  12.308  49.951  1.00  0.00    -0.174 N 
ATOM      5  H2  UNL     1      61.133  11.770  49.243  1.00  0.00     0.186 HD
HETATM    6  C5  UNL     1      59.373  12.715  49.629  1.00  0.00     0.692 C 
HETATM    7  N4  UNL     1      58.475  13.318  50.429  1.00  0.00    -0.023 N 
ATOM      8  H4  UNL     1      57.508  13.295  50.107  1.00  0.00     0.203 HD
HETATM    9  C6  UNL     1      58.690  13.953  51.606  1.00  0.00     0.695 C 
HETATM   10  N5  UNL     1      57.695  14.261  52.312  1.00  0.00    -0.205 N 
ATOM     11  H5  UNL     1      57.913  14.736  53.188  1.00  0.00     0.179 HD
HETATM   12  N6  UNL     1      59.908  14.286  52.129  1.00  0.00    -0.184 N 
ATOM     13  H6  UNL     1      59.912  15.084  52.763  1.00  0.00     0.184 HD
HETATM   14  C8  UNL     1      61.117  13.696  51.919  1.00  0.00     0.139 C 
ENDROOT
BRANCH  14  15
HETATM   15  C9  UNL     1      62.293  14.232  52.565  1.00  0.00     0.167 A 
HETATM   16  N7  UNL     1      62.325  15.588  52.821  1.00  0.00    -0.269 N 
HETATM   17  N8  UNL     1      63.427  15.854  53.431  1.00  0.00    -0.130 N 
ATOM     18  H7  UNL     1      61.602  16.262  52.570  1.00  0.00     0.189 HD
HETATM   19  C10 UNL     1      64.131  14.701  53.587  1.00  0.00     0.696 A 
ATOM     20  H8  UNL     1      63.723  16.778  53.746  1.00  0.00     0.205 HD
HETATM   21  N10 UNL     1      63.399  13.711  53.035  1.00  0.00    -0.172 N 
ATOM     22  H10 UNL     1      63.663  12.727  52.991  1.00  0.00     0.186 HD
BRANCH  19  23
HETATM   23  N9  UNL     1      65.367  14.694  54.247  1.00  0.00    -0.216 N 
HETATM   24  C11 UNL     1      66.568  15.164  53.629  1.00  0.00     0.141 C 
HETATM   25  C12 UNL     1      67.641  15.382  54.716  1.00  0.00     0.020 C 
HETATM   26  C13 UNL     1      67.076  16.096  55.899  1.00  0.00     0.003 C 
HETATM   27  C14 UNL     1      65.854  15.428  56.439  1.00  0.00     0.020 C 
HETATM   28  C15 UNL     1      65.472  14.203  55.595  1.00  0.00     0.141 C 
ENDBRANCH  19  23
ENDBRANCH  14  15
BRANCH   1  29
HETATM   29  C2  UNL     1      62.481  10.452  51.142  1.00  0.00     0.075 C 
HETATM   30  C1  UNL     1      63.493  10.470  50.024  1.00  0.00     0.031 C 
HETATM   31  C3  UNL     1      62.951   9.457  52.177  1.00  0.00     0.031 C 
ENDBRANCH   1  29
BRANCH   6  32
HETATM   32  N3  UNL     1      59.039  12.475  48.400  1.00  0.00    -0.234 N 
ATOM     33  H32 UNL     1      58.271  11.826  48.225  1.00  0.00     0.174 HD
ATOM     34  H31 UNL     1      59.598  12.979  47.712  1.00  0.00     0.174 HD
ENDBRANCH   6  32
BRANCH  10  35
HETATM   35  C7  UNL     1      56.312  14.044  52.066  1.00  0.00     0.305 C 
BRANCH  35  36
HETATM   36  O1  UNL     1      56.021  14.699  50.840  1.00  0.00    -0.382 OA
ATOM     37  H1  UNL     1      55.113  14.503  50.644  1.00  0.00     0.211 HD
ENDBRANCH  35  36
ENDBRANCH  10  35
TORSDOF 6
ENDMDL
MODEL 3
REMARK VINA RESULT: -8.253404650      0.667      1.170
REMARK  6 active torsions:
REMARK  status: ('A' for Active; 'I' for Inactive)
REMARK    1  A    between atoms: C2_2  and  N1_4 
REMARK    2  A    between atoms: C5_9  and  N3_10 
REMARK    3  A    between atoms: N5_16  and  C7_18 
REMARK    4  A    between atoms: C7_18  and  O1_19 
REMARK    5  A    between atoms: C8_23  and  C9_24 
REMARK    6  A    between atoms: C10_29  and  N9_30 
ROOT
HETATM    1  N1  UNL     1      61.792  11.534  51.540  1.00  0.00    -0.370 N 
ATOM      2  H1  UNL     1      62.062  11.767  52.496  1.00  0.00     0.161 HD
HETATM    3  C4  UNL     1      61.035  12.354  50.988  1.00  0.00     0.148 C 
HETATM    4  N2  UNL     1      60.586  12.182  49.694  1.00  0.00    -0.174 N 
ATOM      5  H2  UNL     1      61.231  11.733  49.044  1.00  0.00     0.186 HD
HETATM    6  C5  UNL     1      59.373  12.547  49.194  1.00  0.00     0.692 C 
HETATM    7  N4  UNL     1      58.318  13.033  49.873  1.00  0.00    -0.023 N 
ATOM      8  H4  UNL     1      57.420  12.986  49.391  1.00  0.00     0.203 HD
HETATM    9  C6  UNL     1      58.293  13.577  51.113  1.00  0.00     0.695 C 
HETATM   10  N5  UNL     1      57.177  13.771  51.661  1.00  0.00    -0.205 N 
ATOM     11  H5  UNL     1      57.215  14.180  52.595  1.00  0.00     0.179 HD
HETATM   12  N6  UNL     1      59.384  13.927  51.859  1.00  0.00    -0.184 N 
ATOM     13  H6  UNL     1      59.230  14.668  52.542  1.00  0.00     0.184 HD
HETATM   14  C8  UNL     1      60.647  13.422  51.814  1.00  0.00     0.139 C 
ENDROOT
BRANCH  14  15
HETATM   15  C9  UNL     1      61.662  13.962  52.688  1.00  0.00     0.167 A 
HETATM   16  N7  UNL     1      61.597  13.636  54.028  1.00  0.00    -0.269 N 
HETATM   17  N8  UNL     1      62.604  14.177  54.621  1.00  0.00    -0.130 N 
ATOM     18  H7  UNL     1      60.877  13.067  54.472  1.00  0.00     0.189 HD
HETATM   19  C10 UNL     1      63.340  14.858  53.701  1.00  0.00     0.696 A 
ATOM     20  H8  UNL     1      62.816  14.106  55.616  1.00  0.00     0.205 HD
HETATM   21  N10 UNL     1      62.725  14.707  52.510  1.00  0.00    -0.172 N 
ATOM     22  H10 UNL     1      63.035  15.104  51.623  1.00  0.00     0.186 HD
BRANCH  19  23
HETATM   23  N9  UNL     1      64.515  15.526  54.069  1.00  0.00    -0.216 N 
HETATM   24  C11 UNL     1      64.775  15.933  55.415  1.00  0.00     0.141 C 
HETATM   25  C12 UNL     1      66.273  16.278  55.555  1.00  0.00     0.020 C 
HETATM   26  C13 UNL     1      67.130  15.243  54.904  1.00  0.00     0.003 C 
HETATM   27  C14 UNL     1      66.740  14.991  53.484  1.00  0.00     0.020 C 
HETATM   28  C15 UNL     1      65.519  15.832  53.086  1.00  0.00     0.141 C 
ENDBRANCH  19  23
ENDBRANCH  14  15
BRANCH   1  29
HETATM   29  C2  UNL     1      62.332  10.332  51.039  1.00  0.00     0.075 C 
HETATM   30  C1  UNL     1      63.446  10.500  50.037  1.00  0.00     0.031 C 
HETATM   31  C3  UNL     1      62.781   9.318  52.066  1.00  0.00     0.031 C 
ENDBRANCH   1  29
BRANCH   6  32
HETATM   32  N3  UNL     1      59.263  12.396  47.912  1.00  0.00    -0.234 N 
ATOM     33  H32 UNL     1      59.424  11.468  47.519  1.00  0.00     0.174 HD
ATOM     34  H31 UNL     1      59.018  13.250  47.412  1.00  0.00     0.174 HD
ENDBRANCH   6  32
BRANCH  10  35
HETATM   35  C7  UNL     1      55.871  13.502  51.168  1.00  0.00     0.305 C 
BRANCH  35  36
HETATM   36  O1  UNL     1      55.060  14.591  51.585  1.00  0.00    -0.382 OA
ATOM     37  H1  UNL     1      54.433  14.232  52.202  1.00  0.00     0.211 HD
ENDBRANCH  35  36
ENDBRANCH  10  35
TORSDOF 6
ENDMDL
MODEL 4
REMARK VINA RESULT: -7.931245555      1.381      1.742
REMARK  6 active torsions:
REMARK  status: ('A' for Active; 'I' for Inactive)
REMARK    1  A    between atoms: C2_2  and  N1_4 
REMARK    2  A    between atoms: C5_9  and  N3_10 
REMARK    3  A    between atoms: N5_16  and  C7_18 
REMARK    4  A    between atoms: C7_18  and  O1_19 
REMARK    5  A    between atoms: C8_23  and  C9_24 
REMARK    6  A    between atoms: C10_29  and  N9_30 
ROOT
HETATM    1  N1  UNL     1      62.105  11.437  51.940  1.00  0.00    -0.370 N 
ATOM      2  H1  UNL     1      62.690  11.616  52.756  1.00  0.00     0.161 HD
HETATM    3  C4  UNL     1      61.264  12.320  51.686  1.00  0.00     0.148 C 
HETATM    4  N2  UNL     1      60.404  12.226  50.611  1.00  0.00    -0.174 N 
ATOM      5  H2  UNL     1      60.766  11.766  49.775  1.00  0.00     0.186 HD
HETATM    6  C5  UNL     1      59.121  12.680  50.548  1.00  0.00     0.692 C 
HETATM    7  N4  UNL     1      58.384  13.198  51.547  1.00  0.00    -0.023 N 
ATOM      8  H4  UNL     1      57.377  13.222  51.389  1.00  0.00     0.203 HD
HETATM    9  C6  UNL     1      58.807  13.693  52.736  1.00  0.00     0.695 C 
HETATM   10  N5  UNL     1      57.950  13.929  53.626  1.00  0.00    -0.205 N 
ATOM     11  H5  UNL     1      58.321  14.298  54.501  1.00  0.00     0.179 HD
HETATM   12  N6  UNL     1      60.103  13.950  53.083  1.00  0.00    -0.184 N 
ATOM     13  H6  UNL     1      60.234  14.671  53.792  1.00  0.00     0.184 HD
HETATM   14  C8  UNL     1      61.243  13.375  52.613  1.00  0.00     0.139 C 
ENDROOT
BRANCH  14  15
HETATM   15  C9  UNL     1      62.524  13.821  53.110  1.00  0.00     0.167 A 
HETATM   16  N7  UNL     1      63.251  14.695  52.326  1.00  0.00    -0.269 N 
HETATM   17  N8  UNL     1      64.329  15.000  52.960  1.00  0.00    -0.130 N 
ATOM     18  H7  UNL     1      62.981  15.039  51.405  1.00  0.00     0.189 HD
HETATM   19  C10 UNL     1      64.336  14.345  54.153  1.00  0.00     0.696 A 
ATOM     20  H8  UNL     1      65.058  15.628  52.624  1.00  0.00     0.205 HD
HETATM   21  N10 UNL     1      63.201  13.619  54.214  1.00  0.00    -0.172 N 
ATOM     22  H10 UNL     1      62.918  13.015  54.987  1.00  0.00     0.186 HD
BRANCH  19  23
HETATM   23  N9  UNL     1      65.387  14.515  55.063  1.00  0.00    -0.216 N 
HETATM   24  C11 UNL     1      66.709  14.033  54.805  1.00  0.00     0.141 C 
HETATM   25  C12 UNL     1      67.690  14.701  55.791  1.00  0.00     0.020 C 
HETATM   26  C13 UNL     1      67.434  16.168  55.898  1.00  0.00     0.003 C 
HETATM   27  C14 UNL     1      66.008  16.476  56.225  1.00  0.00     0.020 C 
HETATM   28  C15 UNL     1      65.170  15.193  56.312  1.00  0.00     0.141 C 
ENDBRANCH  19  23
ENDBRANCH  14  15
BRANCH   1  29
HETATM   29  C2  UNL     1      62.366  10.226  51.267  1.00  0.00     0.075 C 
HETATM   30  C1  UNL     1      63.261  10.347  50.059  1.00  0.00     0.031 C 
HETATM   31  C3  UNL     1      62.882   9.085  52.113  1.00  0.00     0.031 C 
ENDBRANCH   1  29
BRANCH   6  32
HETATM   32  N3  UNL     1      58.585  12.586  49.373  1.00  0.00    -0.234 N 
ATOM     33  H32 UNL     1      58.601  11.680  48.904  1.00  0.00     0.174 HD
ATOM     34  H31 UNL     1      58.187  13.459  49.026  1.00  0.00     0.174 HD
ENDBRANCH   6  32
BRANCH  10  35
HETATM   35  C7  UNL     1      56.539  13.756  53.589  1.00  0.00     0.305 C 
BRANCH  35  36
HETATM   36  O1  UNL     1      56.032  14.814  52.788  1.00  0.00    -0.382 OA
ATOM     37  H1  UNL     1      55.793  14.423  51.956  1.00  0.00     0.211 HD
ENDBRANCH  35  36
ENDBRANCH  10  35
TORSDOF 6
ENDMDL
MODEL 5
REMARK VINA RESULT: -7.843526096      1.213      1.795
REMARK  6 active torsions:
REMARK  status: ('A' for Active; 'I' for Inactive)
REMARK    1  A    between atoms: C2_2  and  N1_4 
REMARK    2  A    between atoms: C5_9  and  N3_10 
REMARK    3  A    between atoms: N5_16  and  C7_18 
REMARK    4  A    between atoms: C7_18  and  O1_19 
REMARK    5  A    between atoms: C8_23  and  C9_24 
REMARK    6  A    between atoms: C10_29  and  N9_30 
ROOT
HETATM    1  N1  UNL     1      62.016  11.705  52.080  1.00  0.00    -0.370 N 
ATOM      2  H1  UNL     1      62.488  12.038  52.920  1.00  0.00     0.161 HD
HETATM    3  C4  UNL     1      61.201  12.502  51.578  1.00  0.00     0.148 C 
HETATM    4  N2  UNL     1      60.487  12.199  50.436  1.00  0.00    -0.174 N 
ATOM      5  H2  UNL     1      60.962  11.622  49.741  1.00  0.00     0.186 HD
HETATM    6  C5  UNL     1      59.216  12.587  50.139  1.00  0.00     0.692 C 
HETATM    7  N4  UNL     1      58.348  13.235  50.937  1.00  0.00    -0.023 N 
ATOM      8  H4  UNL     1      57.369  13.194  50.654  1.00  0.00     0.203 HD
HETATM    9  C6  UNL     1      58.606  13.934  52.069  1.00  0.00     0.695 C 
HETATM   10  N5  UNL     1      57.637  14.281  52.794  1.00  0.00    -0.205 N 
ATOM     11  H5  UNL     1      57.887  14.803  53.633  1.00  0.00     0.179 HD
HETATM   12  N6  UNL     1      59.842  14.294  52.526  1.00  0.00    -0.184 N 
ATOM     13  H6  UNL     1      59.868  15.127  53.115  1.00  0.00     0.184 HD
HETATM   14  C8  UNL     1      61.043  13.693  52.305  1.00  0.00     0.139 C 
ENDROOT
BRANCH  14  15
HETATM   15  C9  UNL     1      62.241  14.263  52.875  1.00  0.00     0.167 A 
HETATM   16  N7  UNL     1      63.234  14.675  52.009  1.00  0.00    -0.269 N 
HETATM   17  N8  UNL     1      64.188  15.186  52.706  1.00  0.00    -0.130 N 
ATOM     18  H7  UNL     1      63.215  14.590  50.993  1.00  0.00     0.189 HD
HETATM   19  C10 UNL     1      63.851  15.123  54.022  1.00  0.00     0.696 A 
ATOM     20  H8  UNL     1      65.054  15.575  52.333  1.00  0.00     0.205 HD
HETATM   21  N10 UNL     1      62.635  14.541  54.094  1.00  0.00    -0.172 N 
ATOM     22  H10 UNL     1      62.114  14.349  54.949  1.00  0.00     0.186 HD
BRANCH  19  23
HETATM   23  N9  UNL     1      64.701  15.635  55.011  1.00  0.00    -0.216 N 
HETATM   24  C11 UNL     1      64.556  15.301  56.394  1.00  0.00     0.141 C 
HETATM   25  C12 UNL     1      65.843  15.700  57.146  1.00  0.00     0.020 C 
HETATM   26  C13 UNL     1      67.062  15.277  56.394  1.00  0.00     0.003 C 
HETATM   27  C14 UNL     1      67.060  15.764  54.982  1.00  0.00     0.020 C 
HETATM   28  C15 UNL     1      65.769  16.532  54.663  1.00  0.00     0.141 C 
ENDBRANCH  19  23
ENDBRANCH  14  15
BRANCH   1  29
HETATM   29  C2  UNL     1      62.382  10.410  51.657  1.00  0.00     0.075 C 
HETATM   30  C1  UNL     1      63.238  10.362  50.417  1.00  0.00     0.031 C 
HETATM   31  C3  UNL     1      63.022   9.521  52.698  1.00  0.00     0.031 C 
ENDBRANCH   1  29
BRANCH   6  32
HETATM   32  N3  UNL     1      58.837  12.281  48.939  1.00  0.00    -0.234 N 
ATOM     33  H32 UNL     1      58.031  11.664  48.828  1.00  0.00     0.174 HD
ATOM     34  H31 UNL     1      59.403  12.704  48.204  1.00  0.00     0.174 HD
ENDBRANCH   6  32
BRANCH  10  35
HETATM   35  C7  UNL     1      56.247  14.051  52.612  1.00  0.00     0.305 C 
BRANCH  35  36
HETATM   36  O1  UNL     1      55.911  14.631  51.359  1.00  0.00    -0.382 OA
ATOM     37  H1  UNL     1      55.027  14.343  51.163  1.00  0.00     0.211 HD
ENDBRANCH  35  36
ENDBRANCH  10  35
TORSDOF 6
ENDMDL
