MODEL 1
REMARK VINA RESULT: -8.039376520      0.000      0.000
REMARK  6 active torsions:
REMARK  status: ('A' for Active; 'I' for Inactive)
REMARK    1  A    between atoms: C2_2  and  C4_4 
REMARK    2  A    between atoms: C4_4  and  N1_5 
REMARK    3  A    between atoms: N1_5  and  C5_7 
REMARK    4  A    between atoms: C8_14  and  C9_15 
REMARK    5  A    between atoms: C11_19  and  N5_20 
REMARK    6  A    between atoms: C14_29  and  N8_30 
REMARK       I    between atoms: N8_30  and  C16_32 
ROOT
HETATM    1  C5  UNL     1      62.305  14.530  52.826  1.00  0.00     0.681 A 
HETATM    2  N2  UNL     1      62.928  13.417  52.409  1.00  0.00    -0.174 N 
ATOM      3  H2  UNL     1      63.942  13.338  52.483  1.00  0.00     0.186 HD
HETATM    4  C6  UNL     1      62.207  12.406  51.893  1.00  0.00     0.151 A 
HETATM    5  N3  UNL     1      62.803  11.265  51.461  1.00  0.00    -0.348 N 
ATOM      6  H3  UNL     1      63.815  11.152  51.520  1.00  0.00     0.167 HD
HETATM    7  C7  UNL     1      62.022  10.276  50.948  1.00  0.00     0.120 A 
HETATM    8  C8  UNL     1      60.658  10.374  50.843  1.00  0.00     0.061 A 
HETATM    9  N7  UNL     1      60.106  11.523  51.284  1.00  0.00    -0.348 N 
ATOM     10  H7  UNL     1      59.093  11.634  51.223  1.00  0.00     0.166 HD
HETATM   11  C13 UNL     1      60.836  12.528  51.799  1.00  0.00     0.123 A 
HETATM   12  C14 UNL     1      60.188  13.679  52.228  1.00  0.00     0.156 A 
HETATM   13  N11 UNL     1      60.972  14.647  52.733  1.00  0.00    -0.174 N 
ATOM     14  H11 UNL     1      60.534  15.508  53.060  1.00  0.00     0.186 HD
ENDROOT
BRANCH   8  15
HETATM   15  C9  UNL     1      59.854   9.296  50.290  1.00  0.00     0.024 A 
HETATM   16  C10 UNL     1      60.305   8.024  50.053  1.00  0.00     0.121 A 
HETATM   17  N4  UNL     1      59.476   7.071  49.528  1.00  0.00    -0.201 N 
HETATM   18  C11 UNL     1      58.195   7.339  49.224  1.00  0.00     0.675 A 
ATOM     19  H4  UNL     1      59.840   6.132  49.363  1.00  0.00     0.183 HD
HETATM   20  N6  UNL     1      57.732   8.582  49.448  1.00  0.00    -0.201 N 
HETATM   21  C12 UNL     1      58.518   9.553  49.965  1.00  0.00     0.121 A 
ATOM     22  H6  UNL     1      56.761   8.797  49.223  1.00  0.00     0.183 HD
BRANCH  18  23
HETATM   23  N5  UNL     1      57.388   6.466  48.729  1.00  0.00    -0.234 N 
ATOM     24  H52 UNL     1      57.581   6.102  47.795  1.00  0.00     0.174 HD
ATOM     25  H51 UNL     1      56.565   6.119  49.223  1.00  0.00     0.174 HD
ENDBRANCH  18  23
ENDBRANCH   8  15
BRANCH  12  26
HETATM   26  N8  UNL     1      58.779  13.842  52.147  1.00  0.00    -0.310 N 
HETATM   27  C15 UNL     1      57.981  13.377  53.264  1.00  0.00     0.160 C 
HETATM   28  C16 UNL     1      58.118  14.425  51.051  1.00  0.00     0.189 C 
HETATM   29  N9  UNL     1      58.574  14.317  49.857  1.00  0.00    -0.373 N 
HETATM   30  N10 UNL     1      56.925  15.147  51.259  1.00  0.00    -0.064 NA
ATOM     31  H92 UNL     1      59.437  13.794  49.706  1.00  0.00     0.158 HD
ATOM     32  H91 UNL     1      58.095  14.739  49.062  1.00  0.00     0.158 HD
ENDBRANCH  12  26
BRANCH   1  33
HETATM   33  N1  UNL     1      62.974  15.522  53.329  1.00  0.00    -0.226 N 
ATOM     34  H1  UNL     1      62.573  16.046  54.107  1.00  0.00     0.177 HD
BRANCH  33  35
HETATM   35  C4  UNL     1      64.274  15.908  52.818  1.00  0.00     0.142 C 
BRANCH  35  36
HETATM   36  C2  UNL     1      65.148  16.221  54.029  1.00  0.00    -0.004 C 
HETATM   37  C1  UNL     1      64.503  15.758  55.300  1.00  0.00     0.011 C 
HETATM   38  C3  UNL     1      66.488  15.560  53.803  1.00  0.00     0.011 C 
ENDBRANCH  35  36
ENDBRANCH  33  35
ENDBRANCH   1  33
TORSDOF 6
ENDMDL
MODEL 2
REMARK VINA RESULT: -8.016133227      3.309      8.839
REMARK  6 active torsions:
REMARK  status: ('A' for Active; 'I' for Inactive)
REMARK    1  A    between atoms: C2_2  and  C4_4 
REMARK    2  A    between atoms: C4_4  and  N1_5 
REMARK    3  A    between atoms: N1_5  and  C5_7 
REMARK    4  A    between atoms: C8_14  and  C9_15 
REMARK    5  A    between atoms: C11_19  and  N5_20 
REMARK    6  A    between atoms: C14_29  and  N8_30 
REMARK       I    between atoms: N8_30  and  C16_32 
ROOT
HETATM    1  C5  UNL     1      61.479  13.064  52.347  1.00  0.00     0.681 A 
HETATM    2  N2  UNL     1      62.435  13.910  51.933  1.00  0.00    -0.174 N 
ATOM      3  H2  UNL     1      62.502  14.167  50.948  1.00  0.00     0.186 HD
HETATM    4  C6  UNL     1      63.305  14.417  52.825  1.00  0.00     0.151 A 
HETATM    5  N3  UNL     1      64.285  15.276  52.443  1.00  0.00    -0.348 N 
ATOM      6  H3  UNL     1      64.380  15.555  51.466  1.00  0.00     0.167 HD
HETATM    7  C7  UNL     1      65.135  15.757  53.389  1.00  0.00     0.120 A 
HETATM    8  C8  UNL     1      65.054  15.415  54.716  1.00  0.00     0.061 A 
HETATM    9  N7  UNL     1      64.067  14.560  55.053  1.00  0.00    -0.348 N 
ATOM     10  H7  UNL     1      63.973  14.282  56.030  1.00  0.00     0.166 HD
HETATM   11  C13 UNL     1      63.202  14.059  54.153  1.00  0.00     0.123 A 
HETATM   12  C14 UNL     1      62.215  13.182  54.585  1.00  0.00     0.156 A 
HETATM   13  N11 UNL     1      61.382  12.716  53.639  1.00  0.00    -0.174 N 
ATOM     14  H11 UNL     1      60.643  12.070  53.915  1.00  0.00     0.186 HD
ENDROOT
BRANCH   8  15
HETATM   15  C9  UNL     1      65.980  15.950  55.701  1.00  0.00     0.024 A 
HETATM   16  C10 UNL     1      67.282  15.550  55.851  1.00  0.00     0.121 A 
HETATM   17  N4  UNL     1      68.083  16.109  56.808  1.00  0.00    -0.201 N 
HETATM   18  C11 UNL     1      67.632  17.067  57.635  1.00  0.00     0.675 A 
ATOM     19  H4  UNL     1      69.049  15.791  56.896  1.00  0.00     0.183 HD
HETATM   20  N6  UNL     1      66.357  17.475  57.504  1.00  0.00    -0.201 N 
HETATM   21  C12 UNL     1      65.532  16.948  56.573  1.00  0.00     0.121 A 
ATOM     22  H6  UNL     1      66.004  18.203  58.125  1.00  0.00     0.183 HD
BRANCH  18  23
HETATM   23  N5  UNL     1      68.360  17.615  58.546  1.00  0.00    -0.234 N 
ATOM     24  H52 UNL     1      69.297  17.928  58.294  1.00  0.00     0.174 HD
ATOM     25  H51 UNL     1      68.045  17.752  59.507  1.00  0.00     0.174 HD
ENDBRANCH  18  23
ENDBRANCH   8  15
BRANCH  12  26
HETATM   26  N8  UNL     1      62.078  12.790  55.943  1.00  0.00    -0.310 N 
HETATM   27  C15 UNL     1      62.780  11.597  56.376  1.00  0.00     0.160 C 
HETATM   28  C16 UNL     1      61.306  13.489  56.888  1.00  0.00     0.189 C 
HETATM   29  N9  UNL     1      60.243  14.124  56.549  1.00  0.00    -0.373 N 
HETATM   30  N10 UNL     1      61.700  13.499  58.242  1.00  0.00    -0.064 NA
ATOM     31  H92 UNL     1      59.958  14.116  55.570  1.00  0.00     0.158 HD
ATOM     32  H91 UNL     1      59.682  14.630  57.234  1.00  0.00     0.158 HD
ENDBRANCH  12  26
BRANCH   1  33
HETATM   33  N1  UNL     1      60.626  12.558  51.510  1.00  0.00    -0.226 N 
ATOM     34  H1  UNL     1      60.962  11.934  50.776  1.00  0.00     0.177 HD
BRANCH  33  35
HETATM   35  C4  UNL     1      59.209  12.855  51.586  1.00  0.00     0.142 C 
BRANCH  35  36
HETATM   36  C2  UNL     1      58.998  14.185  50.869  1.00  0.00    -0.004 C 
HETATM   37  C1  UNL     1      59.365  14.086  49.419  1.00  0.00     0.011 C 
HETATM   38  C3  UNL     1      57.553  14.579  51.061  1.00  0.00     0.011 C 
ENDBRANCH  35  36
ENDBRANCH  33  35
ENDBRANCH   1  33
TORSDOF 6
ENDMDL
MODEL 3
REMARK VINA RESULT: -8.009662718      2.381      4.657
REMARK  6 active torsions:
REMARK  status: ('A' for Active; 'I' for Inactive)
REMARK    1  A    between atoms: C2_2  and  C4_4 
REMARK    2  A    between atoms: C4_4  and  N1_5 
REMARK    3  A    between atoms: N1_5  and  C5_7 
REMARK    4  A    between atoms: C8_14  and  C9_15 
REMARK    5  A    between atoms: C11_19  and  N5_20 
REMARK    6  A    between atoms: C14_29  and  N8_30 
REMARK       I    between atoms: N8_30  and  C16_32 
ROOT
HETATM    1  C5  UNL     1      64.591  13.386  53.361  1.00  0.00     0.681 A 
HETATM    2  N2  UNL     1      63.802  14.450  53.145  1.00  0.00    -0.174 N 
ATOM      3  H2  UNL     1      64.168  15.394  53.269  1.00  0.00     0.186 HD
HETATM    4  C6  UNL     1      62.526  14.265  52.762  1.00  0.00     0.151 A 
HETATM    5  N3  UNL     1      61.700  15.317  52.533  1.00  0.00    -0.348 N 
ATOM      6  H3  UNL     1      62.033  16.274  52.648  1.00  0.00     0.167 HD
HETATM    7  C7  UNL     1      60.419  15.068  52.149  1.00  0.00     0.120 A 
HETATM    8  C8  UNL     1      59.917  13.802  51.981  1.00  0.00     0.061 A 
HETATM    9  N7  UNL     1      60.771  12.785  52.218  1.00  0.00    -0.348 N 
ATOM     10  H7  UNL     1      60.436  11.828  52.104  1.00  0.00     0.166 HD
HETATM   11  C13 UNL     1      62.045  12.981  52.600  1.00  0.00     0.123 A 
HETATM   12  C14 UNL     1      62.858  11.878  52.825  1.00  0.00     0.156 A 
HETATM   13  N11 UNL     1      64.121  12.139  53.203  1.00  0.00    -0.174 N 
ATOM     14  H11 UNL     1      64.749  11.355  53.379  1.00  0.00     0.186 HD
ENDROOT
BRANCH   8  15
HETATM   15  C9  UNL     1      58.542  13.574  51.568  1.00  0.00     0.024 A 
HETATM   16  C10 UNL     1      58.016  12.353  51.235  1.00  0.00     0.121 A 
HETATM   17  N4  UNL     1      56.707  12.232  50.856  1.00  0.00    -0.201 N 
HETATM   18  C11 UNL     1      55.888  13.296  50.794  1.00  0.00     0.675 A 
ATOM     19  H4  UNL     1      56.343  11.311  50.613  1.00  0.00     0.183 HD
HETATM   20  N6  UNL     1      56.385  14.503  51.117  1.00  0.00    -0.201 N 
HETATM   21  C12 UNL     1      57.672  14.667  51.496  1.00  0.00     0.121 A 
ATOM     22  H6  UNL     1      55.773  15.318  51.076  1.00  0.00     0.183 HD
BRANCH  18  23
HETATM   23  N5  UNL     1      54.652  13.217  50.442  1.00  0.00    -0.234 N 
ATOM     24  H52 UNL     1      54.248  13.992  49.916  1.00  0.00     0.174 HD
ATOM     25  H51 UNL     1      54.056  12.418  50.663  1.00  0.00     0.174 HD
ENDBRANCH  18  23
ENDBRANCH   8  15
BRANCH  12  26
HETATM   26  N8  UNL     1      62.399  10.543  52.668  1.00  0.00    -0.310 N 
HETATM   27  C15 UNL     1      62.018   9.815  53.863  1.00  0.00     0.160 C 
HETATM   28  C16 UNL     1      62.292   9.890  51.427  1.00  0.00     0.189 C 
HETATM   29  N9  UNL     1      63.095  10.149  50.460  1.00  0.00    -0.373 N 
HETATM   30  N10 UNL     1      61.281   8.926  51.230  1.00  0.00    -0.064 NA
ATOM     31  H92 UNL     1      63.826  10.846  50.603  1.00  0.00     0.158 HD
ATOM     32  H91 UNL     1      63.018   9.675  49.560  1.00  0.00     0.158 HD
ENDBRANCH  12  26
BRANCH   1  33
HETATM   33  N1  UNL     1      65.826  13.533  53.731  1.00  0.00    -0.226 N 
ATOM     34  H1  UNL     1      66.336  12.724  54.085  1.00  0.00     0.177 HD
BRANCH  33  35
HETATM   35  C4  UNL     1      66.502  14.813  53.654  1.00  0.00     0.142 C 
BRANCH  35  36
HETATM   36  C2  UNL     1      66.775  15.253  55.090  1.00  0.00    -0.004 C 
HETATM   37  C1  UNL     1      68.247  15.354  55.357  1.00  0.00     0.011 C 
HETATM   38  C3  UNL     1      66.070  16.572  55.301  1.00  0.00     0.011 C 
ENDBRANCH  35  36
ENDBRANCH  33  35
ENDBRANCH   1  33
TORSDOF 6
ENDMDL
MODEL 4
REMARK VINA RESULT: -7.835894809      3.852      5.257
REMARK  6 active torsions:
REMARK  status: ('A' for Active; 'I' for Inactive)
REMARK    1  A    between atoms: C2_2  and  C4_4 
REMARK    2  A    between atoms: C4_4  and  N1_5 
REMARK    3  A    between atoms: N1_5  and  C5_7 
REMARK    4  A    between atoms: C8_14  and  C9_15 
REMARK    5  A    between atoms: C11_19  and  N5_20 
REMARK    6  A    between atoms: C14_29  and  N8_30 
REMARK       I    between atoms: N8_30  and  C16_32 
ROOT
HETATM    1  C5  UNL     1      64.438  13.157  54.940  1.00  0.00     0.681 A 
HETATM    2  N2  UNL     1      64.067  13.517  53.702  1.00  0.00    -0.174 N 
ATOM      3  H2  UNL     1      64.771  13.725  52.994  1.00  0.00     0.186 HD
HETATM    4  C6  UNL     1      62.759  13.604  53.399  1.00  0.00     0.151 A 
HETATM    5  N3  UNL     1      62.346  13.964  52.156  1.00  0.00    -0.348 N 
ATOM      6  H3  UNL     1      63.024  14.178  51.425  1.00  0.00     0.167 HD
HETATM    7  C7  UNL     1      61.011  14.034  51.909  1.00  0.00     0.120 A 
HETATM    8  C8  UNL     1      60.055  13.760  52.855  1.00  0.00     0.061 A 
HETATM    9  N7  UNL     1      60.508  13.405  54.076  1.00  0.00    -0.348 N 
ATOM     10  H7  UNL     1      59.829  13.192  54.806  1.00  0.00     0.166 HD
HETATM   11  C13 UNL     1      61.818  13.322  54.368  1.00  0.00     0.123 A 
HETATM   12  C14 UNL     1      62.199  12.950  55.650  1.00  0.00     0.156 A 
HETATM   13  N11 UNL     1      63.522  12.885  55.880  1.00  0.00    -0.174 N 
ATOM     14  H11 UNL     1      63.842  12.615  56.810  1.00  0.00     0.186 HD
ENDROOT
BRANCH   8  15
HETATM   15  C9  UNL     1      58.635  13.844  52.555  1.00  0.00     0.024 A 
HETATM   16  C10 UNL     1      57.644  13.229  53.272  1.00  0.00     0.121 A 
HETATM   17  N4  UNL     1      56.330  13.364  52.915  1.00  0.00    -0.201 N 
HETATM   18  C11 UNL     1      55.959  14.100  51.854  1.00  0.00     0.675 A 
ATOM     19  H4  UNL     1      55.613  12.894  53.468  1.00  0.00     0.183 HD
HETATM   20  N6  UNL     1      56.917  14.713  51.136  1.00  0.00    -0.201 N 
HETATM   21  C12 UNL     1      58.226  14.605  51.454  1.00  0.00     0.121 A 
ATOM     22  H6  UNL     1      56.648  15.276  50.329  1.00  0.00     0.183 HD
BRANCH  18  23
HETATM   23  N5  UNL     1      54.732  14.249  51.491  1.00  0.00    -0.234 N 
ATOM     24  H52 UNL     1      54.379  15.196  51.355  1.00  0.00     0.174 HD
ATOM     25  H51 UNL     1      54.097  13.466  51.331  1.00  0.00     0.174 HD
ENDBRANCH  18  23
ENDBRANCH   8  15
BRANCH  12  26
HETATM   26  N8  UNL     1      61.259  12.653  56.673  1.00  0.00    -0.310 N 
HETATM   27  C15 UNL     1      60.718  11.309  56.722  1.00  0.00     0.160 C 
HETATM   28  C16 UNL     1      60.827  13.582  57.636  1.00  0.00     0.189 C 
HETATM   29  N9  UNL     1      60.740  14.834  57.369  1.00  0.00    -0.373 N 
HETATM   30  N10 UNL     1      60.478  13.137  58.928  1.00  0.00    -0.064 NA
ATOM     31  H92 UNL     1      60.991  15.156  56.435  1.00  0.00     0.158 HD
ATOM     32  H91 UNL     1      60.425  15.508  58.068  1.00  0.00     0.158 HD
ENDBRANCH  12  26
BRANCH   1  33
HETATM   33  N1  UNL     1      65.692  13.065  55.261  1.00  0.00    -0.226 N 
ATOM     34  H1  UNL     1      65.967  12.424  56.005  1.00  0.00     0.177 HD
BRANCH  33  35
HETATM   35  C4  UNL     1      66.715  13.847  54.594  1.00  0.00     0.142 C 
BRANCH  35  36
HETATM   36  C2  UNL     1      67.135  14.945  55.566  1.00  0.00    -0.004 C 
HETATM   37  C1  UNL     1      68.627  15.065  55.640  1.00  0.00     0.011 C 
HETATM   38  C3  UNL     1      66.487  16.230  55.106  1.00  0.00     0.011 C 
ENDBRANCH  35  36
ENDBRANCH  33  35
ENDBRANCH   1  33
TORSDOF 6
ENDMDL
MODEL 5
REMARK VINA RESULT: -7.822936536      3.349      8.915
REMARK  6 active torsions:
REMARK  status: ('A' for Active; 'I' for Inactive)
REMARK    1  A    between atoms: C2_2  and  C4_4 
REMARK    2  A    between atoms: C4_4  and  N1_5 
REMARK    3  A    between atoms: N1_5  and  C5_7 
REMARK    4  A    between atoms: C8_14  and  C9_15 
REMARK    5  A    between atoms: C11_19  and  N5_20 
REMARK    6  A    between atoms: C14_29  and  N8_30 
REMARK       I    between atoms: N8_30  and  C16_32 
ROOT
HETATM    1  C5  UNL     1      61.325  13.047  52.541  1.00  0.00     0.681 A 
HETATM    2  N2  UNL     1      62.299  13.845  52.079  1.00  0.00    -0.174 N 
ATOM      3  H2  UNL     1      62.360  14.058  51.083  1.00  0.00     0.186 HD
HETATM    4  C6  UNL     1      63.197  14.362  52.937  1.00  0.00     0.151 A 
HETATM    5  N3  UNL     1      64.196  15.175  52.506  1.00  0.00    -0.348 N 
ATOM      6  H3  UNL     1      64.286  15.409  51.518  1.00  0.00     0.167 HD
HETATM    7  C7  UNL     1      65.073  15.668  53.420  1.00  0.00     0.120 A 
HETATM    8  C8  UNL     1      65.001  15.385  54.761  1.00  0.00     0.061 A 
HETATM    9  N7  UNL     1      63.994  14.575  55.147  1.00  0.00    -0.348 N 
ATOM     10  H7  UNL     1      63.906  14.341  56.136  1.00  0.00     0.166 HD
HETATM   11  C13 UNL     1      63.102  14.063  54.281  1.00  0.00     0.123 A 
HETATM   12  C14 UNL     1      62.095  13.236  54.762  1.00  0.00     0.156 A 
HETATM   13  N11 UNL     1      61.235  12.756  53.847  1.00  0.00    -0.174 N 
ATOM     14  H11 UNL     1      60.481  12.145  54.160  1.00  0.00     0.186 HD
ENDROOT
BRANCH   8  15
HETATM   15  C9  UNL     1      65.958  15.932  55.710  1.00  0.00     0.024 A 
HETATM   16  C10 UNL     1      67.269  15.547  55.812  1.00  0.00     0.121 A 
HETATM   17  N4  UNL     1      68.099  16.118  56.738  1.00  0.00    -0.201 N 
HETATM   18  C11 UNL     1      67.667  17.071  57.580  1.00  0.00     0.675 A 
ATOM     19  H4  UNL     1      69.070  15.811  56.790  1.00  0.00     0.183 HD
HETATM   20  N6  UNL     1      66.383  17.463  57.497  1.00  0.00    -0.201 N 
HETATM   21  C12 UNL     1      65.530  16.925  56.598  1.00  0.00     0.121 A 
ATOM     22  H6  UNL     1      66.044  18.187  58.131  1.00  0.00     0.183 HD
BRANCH  18  23
HETATM   23  N5  UNL     1      68.421  17.629  58.463  1.00  0.00    -0.234 N 
ATOM     24  H52 UNL     1      68.944  18.463  58.196  1.00  0.00     0.174 HD
ATOM     25  H51 UNL     1      68.522  17.277  59.416  1.00  0.00     0.174 HD
ENDBRANCH  18  23
ENDBRANCH   8  15
BRANCH  12  26
HETATM   26  N8  UNL     1      61.966  12.906  56.137  1.00  0.00    -0.310 N 
HETATM   27  C15 UNL     1      61.208  13.809  56.980  1.00  0.00     0.160 C 
HETATM   28  C16 UNL     1      62.529  11.758  56.725  1.00  0.00     0.189 C 
HETATM   29  N9  UNL     1      63.629  11.255  56.297  1.00  0.00    -0.373 N 
HETATM   30  N10 UNL     1      61.875  11.138  57.810  1.00  0.00    -0.064 NA
ATOM     31  H92 UNL     1      64.102  11.704  55.513  1.00  0.00     0.158 HD
ATOM     32  H91 UNL     1      64.037  10.423  56.724  1.00  0.00     0.158 HD
ENDBRANCH  12  26
BRANCH   1  33
HETATM   33  N1  UNL     1      60.445  12.533  51.737  1.00  0.00    -0.226 N 
ATOM     34  H1  UNL     1      60.744  11.835  51.056  1.00  0.00     0.177 HD
BRANCH  33  35
HETATM   35  C4  UNL     1      59.049  12.922  51.778  1.00  0.00     0.142 C 
BRANCH  35  36
HETATM   36  C2  UNL     1      58.937  14.241  51.019  1.00  0.00    -0.004 C 
HETATM   37  C1  UNL     1      59.328  14.077  49.581  1.00  0.00     0.011 C 
HETATM   38  C3  UNL     1      57.515  14.729  51.165  1.00  0.00     0.011 C 
ENDBRANCH  35  36
ENDBRANCH  33  35
ENDBRANCH   1  33
TORSDOF 6
ENDMDL
