MODEL 1
REMARK VINA RESULT: -6.429757326      0.000      0.000
REMARK  9 active torsions:
REMARK  status: ('A' for Active; 'I' for Inactive)
REMARK    1  A    between atoms: C2_2  and  N1_3 
REMARK    2  A    between atoms: C3_4  and  C4_5 
REMARK    3  A    between atoms: C4_5  and  O1_6 
REMARK    4  A    between atoms: C9_13  and  N3_14 
REMARK    5  A    between atoms: N3_14  and  N4_16 
REMARK    6  A    between atoms: C10_21  and  N6_22 
REMARK    7  A    between atoms: C13_25  and  N7_26 
REMARK    8  A    between atoms: C13_25  and  C14_30 
REMARK    9  A    between atoms: C14_30  and  O2_31 
ROOT
HETATM    1  N1  UNL     1      60.764   9.325  50.269  1.00  0.00    -0.345 N 
HETATM    2  C3  UNL     1      61.899  10.094  50.342  1.00  0.00     0.036 A 
HETATM    3  C5  UNL     1      61.522  11.391  50.546  1.00  0.00     0.043 A 
HETATM    4  C6  UNL     1      60.152  11.440  50.600  1.00  0.00     0.021 A 
HETATM    5  C7  UNL     1      59.241  12.474  50.777  1.00  0.00     0.102 A 
HETATM    6  C8  UNL     1      59.746  13.802  50.959  1.00  0.00     0.104 C 
HETATM    7  N2  UNL     1      60.186  14.882  51.106  1.00  0.00    -0.191 NA
HETATM    8  C9  UNL     1      57.894  12.206  50.774  1.00  0.00     0.143 A 
HETATM    9  N5  UNL     1      57.515  10.944  50.597  1.00  0.00    -0.325 N 
ATOM     10  H5  UNL     1      56.513  10.752  50.596  1.00  0.00     0.169 HD
HETATM   11  C10 UNL     1      58.363   9.877  50.417  1.00  0.00     0.133 A 
HETATM   12  C16 UNL     1      59.702  10.117  50.420  1.00  0.00     0.091 A 
ENDROOT
BRANCH   8  13
HETATM   13  N3  UNL     1      57.025  13.121  50.932  1.00  0.00    -0.291 N 
ATOM     14  H3  UNL     1      57.341  13.902  51.508  1.00  0.00     0.188 HD
BRANCH  13  15
HETATM   15  N4  UNL     1      55.757  13.248  50.474  1.00  0.00    -0.344 N 
ATOM     16  H42 UNL     1      55.701  13.243  49.456  1.00  0.00     0.176 HD
ATOM     17  H41 UNL     1      54.867  13.347  50.961  1.00  0.00     0.176 HD
ENDBRANCH  13  15
ENDBRANCH   8  13
BRANCH   2  18
HETATM   18  C4  UNL     1      63.278   9.560  50.215  1.00  0.00     0.221 C 
BRANCH  18  19
HETATM   19  O1  UNL     1      63.947  10.093  49.109  1.00  0.00    -0.395 OA
ATOM     20  H1  UNL     1      64.891  10.074  49.220  1.00  0.00     0.209 HD
ENDBRANCH  18  19
ENDBRANCH   2  18
BRANCH   1  21
HETATM   21  C2  UNL     1      60.850   7.916  50.062  1.00  0.00     0.125 C 
HETATM   22  C1  UNL     1      61.020   7.168  51.385  1.00  0.00     0.027 C 
ENDBRANCH   1  21
BRANCH  11  23
HETATM   23  N6  UNL     1      57.745   8.654  50.200  1.00  0.00    -0.363 N 
HETATM   24  C11 UNL     1      57.666   7.848  49.021  1.00  0.00     0.127 C 
HETATM   25  C12 UNL     1      57.917   6.416  49.501  1.00  0.00     0.062 C 
HETATM   26  C13 UNL     1      57.188   6.423  50.799  1.00  0.00     0.162 C 
HETATM   27  C15 UNL     1      57.090   7.850  51.242  1.00  0.00     0.165 C 
BRANCH  26  28
HETATM   28  N7  UNL     1      57.870   5.676  51.842  1.00  0.00    -0.067 N 
ATOM     29  H73 UNL     1      58.846   5.963  51.914  1.00  0.00     0.275 HD
ATOM     30  H72 UNL     1      57.543   5.959  52.765  1.00  0.00     0.275 HD
ATOM     31  H71 UNL     1      57.796   4.665  51.724  1.00  0.00     0.275 HD
ENDBRANCH  26  28
BRANCH  26  32
HETATM   32  C14 UNL     1      55.811   5.788  50.624  1.00  0.00     0.204 C 
BRANCH  32  33
HETATM   33  O2  UNL     1      54.816   6.747  50.765  1.00  0.00    -0.398 OA
ATOM     34  H2  UNL     1      54.166   6.653  50.078  1.00  0.00     0.209 HD
ENDBRANCH  32  33
ENDBRANCH  26  32
ENDBRANCH  11  23
TORSDOF 9
ENDMDL
MODEL 2
REMARK VINA RESULT: -6.390514397      2.464      5.397
REMARK  9 active torsions:
REMARK  status: ('A' for Active; 'I' for Inactive)
REMARK    1  A    between atoms: C2_2  and  N1_3 
REMARK    2  A    between atoms: C3_4  and  C4_5 
REMARK    3  A    between atoms: C4_5  and  O1_6 
REMARK    4  A    between atoms: C9_13  and  N3_14 
REMARK    5  A    between atoms: N3_14  and  N4_16 
REMARK    6  A    between atoms: C10_21  and  N6_22 
REMARK    7  A    between atoms: C13_25  and  N7_26 
REMARK    8  A    between atoms: C13_25  and  C14_30 
REMARK    9  A    between atoms: C14_30  and  O2_31 
ROOT
HETATM    1  N1  UNL     1      60.056  11.039  51.141  1.00  0.00    -0.345 N 
HETATM    2  C3  UNL     1      61.226  10.477  50.693  1.00  0.00     0.036 A 
HETATM    3  C5  UNL     1      60.925   9.290  50.088  1.00  0.00     0.043 A 
HETATM    4  C6  UNL     1      59.567   9.102  50.156  1.00  0.00     0.021 A 
HETATM    5  C7  UNL     1      58.721   8.090  49.722  1.00  0.00     0.102 A 
HETATM    6  C8  UNL     1      59.297   6.969  49.039  1.00  0.00     0.104 C 
HETATM    7  N2  UNL     1      59.793   6.062  48.482  1.00  0.00    -0.191 NA
HETATM    8  C9  UNL     1      57.370   8.181  49.952  1.00  0.00     0.143 A 
HETATM    9  N5  UNL     1      56.924   9.256  50.594  1.00  0.00    -0.325 N 
ATOM     10  H5  UNL     1      55.920   9.317  50.762  1.00  0.00     0.169 HD
HETATM   11  C10 UNL     1      57.705  10.291  51.049  1.00  0.00     0.133 A 
HETATM   12  C16 UNL     1      59.047  10.226  50.830  1.00  0.00     0.091 A 
ENDROOT
BRANCH   8  13
HETATM   13  N3  UNL     1      56.560   7.277  49.572  1.00  0.00    -0.291 N 
ATOM     14  H3  UNL     1      56.943   6.641  48.871  1.00  0.00     0.188 HD
BRANCH  13  15
HETATM   15  N4  UNL     1      55.283   7.006  49.928  1.00  0.00    -0.344 N 
ATOM     16  H42 UNL     1      55.090   7.218  50.906  1.00  0.00     0.176 HD
ATOM     17  H41 UNL     1      54.495   6.634  49.397  1.00  0.00     0.176 HD
ENDBRANCH  13  15
ENDBRANCH   8  13
BRANCH   2  18
HETATM   18  C4  UNL     1      62.565  11.095  50.861  1.00  0.00     0.221 C 
BRANCH  18  19
HETATM   19  O1  UNL     1      63.372  10.912  49.734  1.00  0.00    -0.395 OA
ATOM     20  H1  UNL     1      63.619  11.738  49.335  1.00  0.00     0.209 HD
ENDBRANCH  18  19
ENDBRANCH   2  18
BRANCH   1  21
HETATM   21  C2  UNL     1      60.063  12.295  51.817  1.00  0.00     0.125 C 
HETATM   22  C1  UNL     1      60.032  13.460  50.827  1.00  0.00     0.027 C 
ENDBRANCH   1  21
BRANCH  11  23
HETATM   23  N6  UNL     1      57.031  11.289  51.740  1.00  0.00    -0.363 N 
HETATM   24  C11 UNL     1      56.981  11.580  53.139  1.00  0.00     0.127 C 
HETATM   25  C12 UNL     1      57.115  13.103  53.233  1.00  0.00     0.062 C 
HETATM   26  C13 UNL     1      56.306  13.529  52.058  1.00  0.00     0.162 C 
HETATM   27  C15 UNL     1      56.264  12.372  51.109  1.00  0.00     0.165 C 
BRANCH  26  28
HETATM   28  N7  UNL     1      56.874  14.666  51.356  1.00  0.00    -0.067 N 
ATOM     29  H73 UNL     1      56.256  15.475  51.416  1.00  0.00     0.275 HD
ATOM     30  H72 UNL     1      57.683  15.035  51.856  1.00  0.00     0.275 HD
ATOM     31  H71 UNL     1      57.110  14.460  50.385  1.00  0.00     0.275 HD
ENDBRANCH  26  28
BRANCH  26  32
HETATM   32  C14 UNL     1      54.907  13.939  52.513  1.00  0.00     0.204 C 
BRANCH  32  33
HETATM   33  O2  UNL     1      54.250  14.620  51.498  1.00  0.00    -0.398 OA
ATOM     34  H2  UNL     1      54.854  15.188  51.035  1.00  0.00     0.209 HD
ENDBRANCH  32  33
ENDBRANCH  26  32
ENDBRANCH  11  23
TORSDOF 9
ENDMDL
MODEL 3
REMARK VINA RESULT: -6.301109444      2.624      5.334
REMARK  9 active torsions:
REMARK  status: ('A' for Active; 'I' for Inactive)
REMARK    1  A    between atoms: C2_2  and  N1_3 
REMARK    2  A    between atoms: C3_4  and  C4_5 
REMARK    3  A    between atoms: C4_5  and  O1_6 
REMARK    4  A    between atoms: C9_13  and  N3_14 
REMARK    5  A    between atoms: N3_14  and  N4_16 
REMARK    6  A    between atoms: C10_21  and  N6_22 
REMARK    7  A    between atoms: C13_25  and  N7_26 
REMARK    8  A    between atoms: C13_25  and  C14_30 
REMARK    9  A    between atoms: C14_30  and  O2_31 
ROOT
HETATM    1  N1  UNL     1      58.375   8.955  50.348  1.00  0.00    -0.345 N 
HETATM    2  C3  UNL     1      59.078   7.920  49.783  1.00  0.00     0.036 A 
HETATM    3  C5  UNL     1      60.398   8.270  49.749  1.00  0.00     0.043 A 
HETATM    4  C6  UNL     1      60.527   9.524  50.291  1.00  0.00     0.021 A 
HETATM    5  C7  UNL     1      61.613  10.365  50.501  1.00  0.00     0.102 A 
HETATM    6  C8  UNL     1      62.914   9.905  50.113  1.00  0.00     0.104 C 
HETATM    7  N2  UNL     1      63.969   9.506  49.787  1.00  0.00    -0.191 NA
HETATM    8  C9  UNL     1      61.422  11.600  51.069  1.00  0.00     0.143 A 
HETATM    9  N5  UNL     1      60.180  11.944  51.397  1.00  0.00    -0.325 N 
ATOM     10  H5  UNL     1      60.044  12.863  51.818  1.00  0.00     0.169 HD
HETATM   11  C10 UNL     1      59.064  11.161  51.216  1.00  0.00     0.133 A 
HETATM   12  C16 UNL     1      59.229   9.931  50.658  1.00  0.00     0.091 A 
ENDROOT
BRANCH   8  13
HETATM   13  N3  UNL     1      62.386  12.401  51.281  1.00  0.00    -0.291 N 
ATOM     14  H3  UNL     1      63.269  12.113  50.856  1.00  0.00     0.188 HD
BRANCH  13  15
HETATM   15  N4  UNL     1      62.456  13.566  51.966  1.00  0.00    -0.344 N 
ATOM     16  H42 UNL     1      61.540  13.985  52.130  1.00  0.00     0.176 HD
ATOM     17  H41 UNL     1      63.248  14.088  52.340  1.00  0.00     0.176 HD
ENDBRANCH  13  15
ENDBRANCH   8  13
BRANCH   2  18
HETATM   18  C4  UNL     1      58.463   6.656  49.307  1.00  0.00     0.221 C 
BRANCH  18  19
HETATM   19  O1  UNL     1      59.337   5.916  48.507  1.00  0.00    -0.395 OA
ATOM     20  H1  UNL     1      58.873   5.360  47.891  1.00  0.00     0.209 HD
ENDBRANCH  18  19
ENDBRANCH   2  18
BRANCH   1  21
HETATM   21  C2  UNL     1      56.961   8.870  50.517  1.00  0.00     0.125 C 
HETATM   22  C1  UNL     1      56.598   8.296  51.886  1.00  0.00     0.027 C 
ENDBRANCH   1  21
BRANCH  11  23
HETATM   23  N6  UNL     1      57.860  11.744  51.585  1.00  0.00    -0.363 N 
HETATM   24  C11 UNL     1      57.165  11.730  52.836  1.00  0.00     0.127 C 
HETATM   25  C12 UNL     1      56.684  13.170  53.039  1.00  0.00     0.062 C 
HETATM   26  C13 UNL     1      56.302  13.538  51.647  1.00  0.00     0.162 C 
HETATM   27  C15 UNL     1      57.061  12.631  50.728  1.00  0.00     0.165 C 
BRANCH  26  28
HETATM   28  N7  UNL     1      56.640  14.909  51.305  1.00  0.00    -0.067 N 
ATOM     29  H73 UNL     1      57.650  15.050  51.331  1.00  0.00     0.275 HD
ATOM     30  H72 UNL     1      56.470  15.088  50.316  1.00  0.00     0.275 HD
ATOM     31  H71 UNL     1      56.161  15.596  51.888  1.00  0.00     0.275 HD
ENDBRANCH  26  28
BRANCH  26  32
HETATM   32  C14 UNL     1      54.794  13.392  51.468  1.00  0.00     0.204 C 
BRANCH  32  33
HETATM   33  O2  UNL     1      54.156  14.594  51.745  1.00  0.00    -0.398 OA
ATOM     34  H2  UNL     1      54.704  15.326  51.486  1.00  0.00     0.209 HD
ENDBRANCH  32  33
ENDBRANCH  26  32
ENDBRANCH  11  23
TORSDOF 9
ENDMDL
MODEL 4
REMARK VINA RESULT: -6.138047892      5.338      7.627
REMARK  9 active torsions:
REMARK  status: ('A' for Active; 'I' for Inactive)
REMARK    1  A    between atoms: C2_2  and  N1_3 
REMARK    2  A    between atoms: C3_4  and  C4_5 
REMARK    3  A    between atoms: C4_5  and  O1_6 
REMARK    4  A    between atoms: C9_13  and  N3_14 
REMARK    5  A    between atoms: N3_14  and  N4_16 
REMARK    6  A    between atoms: C10_21  and  N6_22 
REMARK    7  A    between atoms: C13_25  and  N7_26 
REMARK    8  A    between atoms: C13_25  and  C14_30 
REMARK    9  A    between atoms: C14_30  and  O2_31 
ROOT
HETATM    1  N1  UNL     1      61.534  13.079  55.491  1.00  0.00    -0.345 N 
HETATM    2  C3  UNL     1      61.665  13.537  56.779  1.00  0.00     0.036 A 
HETATM    3  C5  UNL     1      62.747  14.368  56.829  1.00  0.00     0.043 A 
HETATM    4  C6  UNL     1      63.300  14.434  55.574  1.00  0.00     0.021 A 
HETATM    5  C7  UNL     1      64.396  15.106  55.049  1.00  0.00     0.102 A 
HETATM    6  C8  UNL     1      65.167  15.938  55.924  1.00  0.00     0.104 C 
HETATM    7  N2  UNL     1      65.782  16.614  56.662  1.00  0.00    -0.191 NA
HETATM    8  C9  UNL     1      64.715  14.961  53.720  1.00  0.00     0.143 A 
HETATM    9  N5  UNL     1      63.944  14.168  52.983  1.00  0.00    -0.325 N 
ATOM     10  H5  UNL     1      64.186  14.065  51.998  1.00  0.00     0.169 HD
HETATM   11  C10 UNL     1      62.848  13.476  53.440  1.00  0.00     0.133 A 
HETATM   12  C16 UNL     1      62.510  13.606  54.752  1.00  0.00     0.091 A 
ENDROOT
BRANCH   8  13
HETATM   13  N3  UNL     1      65.709  15.558  53.198  1.00  0.00    -0.291 N 
ATOM     14  H3  UNL     1      65.493  16.484  52.828  1.00  0.00     0.188 HD
BRANCH  13  15
HETATM   15  N4  UNL     1      67.002  15.187  53.044  1.00  0.00    -0.344 N 
ATOM     16  H42 UNL     1      67.151  14.190  53.202  1.00  0.00     0.176 HD
ATOM     17  H41 UNL     1      67.836  15.720  52.801  1.00  0.00     0.176 HD
ENDBRANCH  13  15
ENDBRANCH   8  13
BRANCH   2  18
HETATM   18  C4  UNL     1      60.758  13.163  57.893  1.00  0.00     0.221 C 
BRANCH  18  19
HETATM   19  O1  UNL     1      61.449  12.980  59.094  1.00  0.00    -0.395 OA
ATOM     20  H1  UNL     1      61.172  12.194  59.550  1.00  0.00     0.209 HD
ENDBRANCH  18  19
ENDBRANCH   2  18
BRANCH   1  21
HETATM   21  C2  UNL     1      60.479  12.187  55.139  1.00  0.00     0.125 C 
HETATM   22  C1  UNL     1      59.249  12.948  54.643  1.00  0.00     0.027 C 
ENDBRANCH   1  21
BRANCH  11  23
HETATM   23  N6  UNL     1      62.221  12.666  52.503  1.00  0.00    -0.363 N 
HETATM   24  C11 UNL     1      61.182  12.961  51.565  1.00  0.00     0.127 C 
HETATM   25  C12 UNL     1      61.620  12.285  50.262  1.00  0.00     0.062 C 
HETATM   26  C13 UNL     1      62.213  11.023  50.786  1.00  0.00     0.162 C 
HETATM   27  C15 UNL     1      62.600  11.276  52.210  1.00  0.00     0.165 C 
BRANCH  26  28
HETATM   28  N7  UNL     1      63.403  10.608  50.064  1.00  0.00    -0.067 N 
ATOM     29  H73 UNL     1      63.154  10.125  49.202  1.00  0.00     0.275 HD
ATOM     30  H72 UNL     1      63.889  11.414  49.672  1.00  0.00     0.275 HD
ATOM     31  H71 UNL     1      64.037  10.041  50.629  1.00  0.00     0.275 HD
ENDBRANCH  26  28
BRANCH  26  32
HETATM   32  C14 UNL     1      61.200   9.887  50.668  1.00  0.00     0.204 C 
BRANCH  32  33
HETATM   33  O2  UNL     1      61.766   8.802  50.011  1.00  0.00    -0.398 OA
ATOM     34  H2  UNL     1      61.088   8.236  49.663  1.00  0.00     0.209 HD
ENDBRANCH  32  33
ENDBRANCH  26  32
ENDBRANCH  11  23
TORSDOF 9
ENDMDL
MODEL 5
REMARK VINA RESULT: -6.127605641      3.014      4.953
REMARK  9 active torsions:
REMARK  status: ('A' for Active; 'I' for Inactive)
REMARK    1  A    between atoms: C2_2  and  N1_3 
REMARK    2  A    between atoms: C3_4  and  C4_5 
REMARK    3  A    between atoms: C4_5  and  O1_6 
REMARK    4  A    between atoms: C9_13  and  N3_14 
REMARK    5  A    between atoms: N3_14  and  N4_16 
REMARK    6  A    between atoms: C10_21  and  N6_22 
REMARK    7  A    between atoms: C13_25  and  N7_26 
REMARK    8  A    between atoms: C13_25  and  C14_30 
REMARK    9  A    between atoms: C14_30  and  O2_31 
ROOT
HETATM    1  N1  UNL     1      58.450  12.554  51.273  1.00  0.00    -0.345 N 
HETATM    2  C3  UNL     1      58.293  13.912  51.398  1.00  0.00     0.036 A 
HETATM    3  C5  UNL     1      59.482  14.443  51.809  1.00  0.00     0.043 A 
HETATM    4  C6  UNL     1      60.389  13.421  51.944  1.00  0.00     0.021 A 
HETATM    5  C7  UNL     1      61.722  13.374  52.332  1.00  0.00     0.102 A 
HETATM    6  C8  UNL     1      62.376  14.603  52.671  1.00  0.00     0.104 C 
HETATM    7  N2  UNL     1      62.889  15.624  52.943  1.00  0.00    -0.191 NA
HETATM    8  C9  UNL     1      62.377  12.168  52.382  1.00  0.00     0.143 A 
HETATM    9  N5  UNL     1      61.692  11.078  52.051  1.00  0.00    -0.325 N 
ATOM     10  H5  UNL     1      62.184  10.186  52.090  1.00  0.00     0.169 HD
HETATM   11  C10 UNL     1      60.374  11.056  51.660  1.00  0.00     0.133 A 
HETATM   12  C16 UNL     1      59.704  12.239  51.599  1.00  0.00     0.091 A 
ENDROOT
BRANCH   8  13
HETATM   13  N3  UNL     1      63.597  12.078  52.730  1.00  0.00    -0.291 N 
ATOM     14  H3  UNL     1      64.260  12.325  51.996  1.00  0.00     0.188 HD
BRANCH  13  15
HETATM   15  N4  UNL     1      64.174  11.716  53.900  1.00  0.00    -0.344 N 
ATOM     16  H42 UNL     1      64.879  12.381  54.217  1.00  0.00     0.176 HD
ATOM     17  H41 UNL     1      64.029  10.909  54.507  1.00  0.00     0.176 HD
ENDBRANCH  13  15
ENDBRANCH   8  13
BRANCH   2  18
HETATM   18  C4  UNL     1      57.026  14.633  51.123  1.00  0.00     0.221 C 
BRANCH  18  19
HETATM   19  O1  UNL     1      56.369  15.009  52.297  1.00  0.00    -0.395 OA
ATOM     20  H1  UNL     1      56.976  15.173  53.010  1.00  0.00     0.209 HD
ENDBRANCH  18  19
ENDBRANCH   2  18
BRANCH   1  21
HETATM   21  C2  UNL     1      57.365  11.730  50.853  1.00  0.00     0.125 C 
HETATM   22  C1  UNL     1      56.418  11.422  52.013  1.00  0.00     0.027 C 
ENDBRANCH   1  21
BRANCH  11  23
HETATM   23  N6  UNL     1      59.847   9.796  51.411  1.00  0.00    -0.363 N 
HETATM   24  C11 UNL     1      59.201   8.869  52.287  1.00  0.00     0.127 C 
HETATM   25  C12 UNL     1      58.001   8.342  51.494  1.00  0.00     0.062 C 
HETATM   26  C13 UNL     1      58.590   8.239  50.130  1.00  0.00     0.162 C 
HETATM   27  C15 UNL     1      59.758   9.173  50.082  1.00  0.00     0.165 C 
BRANCH  26  28
HETATM   28  N7  UNL     1      57.664   8.623  49.078  1.00  0.00    -0.067 N 
ATOM     29  H73 UNL     1      56.970   7.893  48.921  1.00  0.00     0.275 HD
ATOM     30  H72 UNL     1      57.051   9.375  49.391  1.00  0.00     0.275 HD
ATOM     31  H71 UNL     1      58.131   8.874  48.206  1.00  0.00     0.275 HD
ENDBRANCH  26  28
BRANCH  26  32
HETATM   32  C14 UNL     1      59.006   6.797  49.853  1.00  0.00     0.204 C 
BRANCH  32  33
HETATM   33  O2  UNL     1      60.058   6.763  48.947  1.00  0.00    -0.398 OA
ATOM     34  H2  UNL     1      60.000   5.987  48.402  1.00  0.00     0.209 HD
ENDBRANCH  32  33
ENDBRANCH  26  32
ENDBRANCH  11  23
TORSDOF 9
ENDMDL
