MODEL 1
REMARK VINA RESULT: -7.115475158      0.000      0.000
REMARK  1 active torsions:
REMARK  status: ('A' for Active; 'I' for Inactive)
REMARK    1  A    between atoms: C3_4  and  N2_5 
ROOT
HETATM    1  N1  UNL     1     -22.461 -30.319  16.700  1.00  0.00    -0.191 NA
HETATM    2  C1  UNL     1     -22.371 -30.822  15.662  1.00  0.00     0.109 C 
HETATM    3  C2  UNL     1     -22.248 -31.466  14.367  1.00  0.00     0.157 A 
HETATM    4  C3  UNL     1     -21.037 -31.600  13.715  1.00  0.00     0.154 A 
HETATM    5  N5  UNL     1     -20.969 -32.204  12.514  1.00  0.00    -0.292 N 
ATOM      6  H5  UNL     1     -20.074 -32.300  12.035  1.00  0.00     0.172 HD
HETATM    7  C7  UNL     1     -22.106 -32.683  11.946  1.00  0.00     0.328 A 
HETATM    8  O1  UNL     1     -22.011 -33.242  10.830  1.00  0.00    -0.247 OA
HETATM    9  N6  UNL     1     -23.303 -32.580  12.534  1.00  0.00    -0.274 N 
ATOM     10  H6  UNL     1     -24.142 -32.948  12.086  1.00  0.00     0.173 HD
HETATM   11  C8  UNL     1     -23.370 -31.973  13.737  1.00  0.00     0.274 A 
HETATM   12  O2  UNL     1     -24.470 -31.860  14.309  1.00  0.00    -0.266 OA
ENDROOT
BRANCH   4  13
HETATM   13  N2  UNL     1     -19.858 -31.117  14.297  1.00  0.00    -0.165 N 
HETATM   14  C4  UNL     1     -18.965 -31.962  15.087  1.00  0.00     0.169 C 
HETATM   15  C5  UNL     1     -17.930 -31.049  15.684  1.00  0.00     0.159 C 
HETATM   16  N3  UNL     1     -18.313 -29.697  15.347  1.00  0.00    -0.225 N 
HETATM   17  C6  UNL     1     -19.266 -29.831  14.288  1.00  0.00     0.675 C 
ATOM     18  H3  UNL     1     -17.977 -28.834  15.773  1.00  0.00     0.177 HD
HETATM   19  N4  UNL     1     -19.530 -28.889  13.468  1.00  0.00    -0.235 N 
ATOM     20  H42 UNL     1     -20.209 -28.985  12.712  1.00  0.00     0.174 HD
ATOM     21  H41 UNL     1     -19.103 -27.963  13.461  1.00  0.00     0.174 HD
ENDBRANCH   4  13
TORSDOF 1
ENDMDL
MODEL 2
REMARK VINA RESULT: -6.813396815      0.789      1.494
REMARK  1 active torsions:
REMARK  status: ('A' for Active; 'I' for Inactive)
REMARK    1  A    between atoms: C3_4  and  N2_5 
ROOT
HETATM    1  N1  UNL     1     -22.371 -30.217  16.657  1.00  0.00    -0.191 NA
HETATM    2  C1  UNL     1     -22.287 -30.741  15.628  1.00  0.00     0.109 C 
HETATM    3  C2  UNL     1     -22.172 -31.410  14.346  1.00  0.00     0.157 A 
HETATM    4  C3  UNL     1     -20.966 -31.549  13.684  1.00  0.00     0.154 A 
HETATM    5  N5  UNL     1     -20.906 -32.176  12.495  1.00  0.00    -0.292 N 
ATOM      6  H5  UNL     1     -20.015 -32.276  12.009  1.00  0.00     0.172 HD
HETATM    7  C7  UNL     1     -22.045 -32.676  11.949  1.00  0.00     0.328 A 
HETATM    8  O1  UNL     1     -21.956 -33.256  10.843  1.00  0.00    -0.247 OA
HETATM    9  N6  UNL     1     -23.237 -32.569  12.547  1.00  0.00    -0.274 N 
ATOM     10  H6  UNL     1     -24.077 -32.953  12.114  1.00  0.00     0.173 HD
HETATM   11  C8  UNL     1     -23.297 -31.939  13.738  1.00  0.00     0.274 A 
HETATM   12  O2  UNL     1     -24.391 -31.821  14.318  1.00  0.00    -0.266 OA
ENDROOT
BRANCH   4  13
HETATM   13  N2  UNL     1     -19.785 -31.045  14.245  1.00  0.00    -0.165 N 
HETATM   14  C4  UNL     1     -19.215 -29.757  13.855  1.00  0.00     0.169 C 
HETATM   15  C5  UNL     1     -17.875 -29.662  14.530  1.00  0.00     0.159 C 
HETATM   16  N3  UNL     1     -17.636 -30.932  15.179  1.00  0.00    -0.225 N 
HETATM   17  C6  UNL     1     -18.915 -31.572  15.229  1.00  0.00     0.675 C 
ATOM     18  H3  UNL     1     -16.749 -31.293  15.527  1.00  0.00     0.177 HD
HETATM   19  N4  UNL     1     -19.195 -32.501  16.058  1.00  0.00    -0.235 N 
ATOM     20  H42 UNL     1     -20.107 -32.958  16.094  1.00  0.00     0.174 HD
ATOM     21  H41 UNL     1     -18.567 -32.881  16.767  1.00  0.00     0.174 HD
ENDBRANCH   4  13
TORSDOF 1
ENDMDL
MODEL 3
REMARK VINA RESULT: -6.473996073      2.624      4.632
REMARK  1 active torsions:
REMARK  status: ('A' for Active; 'I' for Inactive)
REMARK    1  A    between atoms: C3_4  and  N2_5 
ROOT
HETATM    1  N1  UNL     1     -21.737 -31.316  17.678  1.00  0.00    -0.191 NA
HETATM    2  C1  UNL     1     -21.033 -31.039  16.803  1.00  0.00     0.109 C 
HETATM    3  C2  UNL     1     -20.160 -30.678  15.702  1.00  0.00     0.157 A 
HETATM    4  C3  UNL     1     -20.571 -30.717  14.382  1.00  0.00     0.154 A 
HETATM    5  N5  UNL     1     -19.727 -30.375  13.391  1.00  0.00    -0.292 N 
ATOM      6  H5  UNL     1     -20.033 -30.406  12.419  1.00  0.00     0.172 HD
HETATM    7  C7  UNL     1     -18.463 -29.987  13.700  1.00  0.00     0.328 A 
HETATM    8  O1  UNL     1     -17.702 -29.672  12.757  1.00  0.00    -0.247 OA
HETATM    9  N6  UNL     1     -18.014 -29.931  14.959  1.00  0.00    -0.274 N 
ATOM     10  H6  UNL     1     -17.059 -29.636  15.163  1.00  0.00     0.173 HD
HETATM   11  C8  UNL     1     -18.860 -30.276  15.951  1.00  0.00     0.274 A 
HETATM   12  O2  UNL     1     -18.472 -30.236  17.133  1.00  0.00    -0.266 OA
ENDROOT
BRANCH   4  13
HETATM   13  N2  UNL     1     -21.877 -31.107  14.056  1.00  0.00    -0.165 N 
HETATM   14  C4  UNL     1     -23.000 -30.172  14.048  1.00  0.00     0.169 C 
HETATM   15  C5  UNL     1     -24.239 -30.996  13.836  1.00  0.00     0.159 C 
HETATM   16  N3  UNL     1     -23.835 -32.384  13.858  1.00  0.00    -0.225 N 
HETATM   17  C6  UNL     1     -22.415 -32.362  13.683  1.00  0.00     0.675 C 
ATOM     18  H3  UNL     1     -24.433 -33.201  13.974  1.00  0.00     0.177 HD
HETATM   19  N4  UNL     1     -21.752 -33.366  13.255  1.00  0.00    -0.235 N 
ATOM     20  H42 UNL     1     -20.740 -33.351  13.130  1.00  0.00     0.174 HD
ATOM     21  H41 UNL     1     -22.141 -34.270  12.987  1.00  0.00     0.174 HD
ENDBRANCH   4  13
TORSDOF 1
ENDMDL
MODEL 4
REMARK VINA RESULT: -6.131670028      2.359      4.712
REMARK  1 active torsions:
REMARK  status: ('A' for Active; 'I' for Inactive)
REMARK    1  A    between atoms: C3_4  and  N2_5 
ROOT
HETATM    1  N1  UNL     1     -24.974 -31.302  13.886  1.00  0.00    -0.191 NA
HETATM    2  C1  UNL     1     -23.839 -31.131  13.739  1.00  0.00     0.109 C 
HETATM    3  C2  UNL     1     -22.419 -30.913  13.539  1.00  0.00     0.157 A 
HETATM    4  C3  UNL     1     -21.653 -31.709  12.708  1.00  0.00     0.154 A 
HETATM    5  N5  UNL     1     -20.337 -31.471  12.552  1.00  0.00    -0.292 N 
ATOM      6  H5  UNL     1     -19.776 -32.062  11.939  1.00  0.00     0.172 HD
HETATM    7  C7  UNL     1     -19.766 -30.436  13.220  1.00  0.00     0.328 A 
HETATM    8  O1  UNL     1     -18.541 -30.238  13.052  1.00  0.00    -0.247 OA
HETATM    9  N6  UNL     1     -20.461 -29.634  14.035  1.00  0.00    -0.274 N 
ATOM     10  H6  UNL     1     -20.007 -28.864  14.525  1.00  0.00     0.173 HD
HETATM   11  C8  UNL     1     -21.779 -29.875  14.192  1.00  0.00     0.274 A 
HETATM   12  O2  UNL     1     -22.451 -29.148  14.946  1.00  0.00    -0.266 OA
ENDROOT
BRANCH   4  13
HETATM   13  N2  UNL     1     -22.236 -32.774  12.008  1.00  0.00    -0.165 N 
HETATM   14  C4  UNL     1     -22.283 -32.827  10.548  1.00  0.00     0.169 C 
HETATM   15  C5  UNL     1     -23.139 -34.009  10.191  1.00  0.00     0.159 C 
HETATM   16  N3  UNL     1     -23.676 -34.532  11.426  1.00  0.00    -0.225 N 
HETATM   17  C6  UNL     1     -22.869 -33.958  12.458  1.00  0.00     0.675 C 
ATOM     18  H3  UNL     1     -24.461 -35.173  11.538  1.00  0.00     0.177 HD
HETATM   19  N4  UNL     1     -22.764 -34.468  13.624  1.00  0.00    -0.235 N 
ATOM     20  H42 UNL     1     -22.188 -34.058  14.360  1.00  0.00     0.174 HD
ATOM     21  H41 UNL     1     -23.220 -35.321  13.948  1.00  0.00     0.174 HD
ENDBRANCH   4  13
TORSDOF 1
ENDMDL
MODEL 5
REMARK VINA RESULT: -6.108872341      2.943      5.145
REMARK  1 active torsions:
REMARK  status: ('A' for Active; 'I' for Inactive)
REMARK    1  A    between atoms: C3_4  and  N2_5 
ROOT
HETATM    1  N1  UNL     1     -19.619 -28.670  12.918  1.00  0.00    -0.191 NA
HETATM    2  C1  UNL     1     -19.260 -29.478  13.664  1.00  0.00     0.109 C 
HETATM    3  C2  UNL     1     -18.811 -30.504  14.587  1.00  0.00     0.157 A 
HETATM    4  C3  UNL     1     -19.607 -31.571  14.958  1.00  0.00     0.154 A 
HETATM    5  N5  UNL     1     -19.150 -32.500  15.819  1.00  0.00    -0.292 N 
ATOM      6  H5  UNL     1     -19.741 -33.286  16.091  1.00  0.00     0.172 HD
HETATM    7  C7  UNL     1     -17.894 -32.380  16.320  1.00  0.00     0.328 A 
HETATM    8  O1  UNL     1     -17.496 -33.261  17.116  1.00  0.00    -0.247 OA
HETATM    9  N6  UNL     1     -17.082 -31.368  15.993  1.00  0.00    -0.274 N 
ATOM     10  H6  UNL     1     -16.143 -31.301  16.385  1.00  0.00     0.173 HD
HETATM   11  C8  UNL     1     -17.542 -30.437  15.132  1.00  0.00     0.274 A 
HETATM   12  O2  UNL     1     -16.811 -29.482  14.811  1.00  0.00    -0.266 OA
ENDROOT
BRANCH   4  13
HETATM   13  N2  UNL     1     -20.901 -31.708  14.438  1.00  0.00    -0.165 N 
HETATM   14  C4  UNL     1     -21.171 -32.351  13.154  1.00  0.00     0.169 C 
HETATM   15  C5  UNL     1     -22.631 -32.136  12.867  1.00  0.00     0.159 C 
HETATM   16  N3  UNL     1     -23.144 -31.271  13.906  1.00  0.00    -0.225 N 
HETATM   17  C6  UNL     1     -22.162 -31.313  14.946  1.00  0.00     0.675 C 
ATOM     18  H3  UNL     1     -24.017 -30.745  13.899  1.00  0.00     0.177 HD
HETATM   19  N4  UNL     1     -22.423 -31.017  16.160  1.00  0.00    -0.235 N 
ATOM     20  H42 UNL     1     -21.723 -31.047  16.902  1.00  0.00     0.174 HD
ATOM     21  H41 UNL     1     -23.332 -30.732  16.526  1.00  0.00     0.174 HD
ENDBRANCH   4  13
TORSDOF 1
ENDMDL
