MODEL 1
REMARK VINA RESULT: -7.824305814      0.000      0.000
REMARK  2 active torsions:
REMARK  status: ('A' for Active; 'I' for Inactive)
REMARK    1  A    between atoms: N1_1  and  N2_4 
REMARK       I    between atoms: N2_4  and  C1_6 
REMARK    2  A    between atoms: C1_6  and  C2_8 
ROOT
HETATM    1  C2  UNL     1     -23.358 -31.067  14.333  1.00  0.00     0.177 A 
HETATM    2  N3  UNL     1     -22.740 -31.179  15.508  1.00  0.00    -0.331 N 
ATOM      3  H3  UNL     1     -23.175 -31.481  16.380  1.00  0.00     0.168 HD
HETATM    4  C3  UNL     1     -21.455 -30.832  15.357  1.00  0.00     0.134 A 
HETATM    5  C4  UNL     1     -21.272 -30.491  14.035  1.00  0.00     0.123 A 
HETATM    6  N4  UNL     1     -22.459 -30.645  13.430  1.00  0.00    -0.332 N 
ATOM      7  H4  UNL     1     -22.649 -30.470  12.443  1.00  0.00     0.168 HD
HETATM    8  C5  UNL     1     -19.963 -30.057  13.526  1.00  0.00     0.268 A 
HETATM    9  O2  UNL     1     -19.867 -29.761  12.310  1.00  0.00    -0.280 OA
HETATM   10  C6  UNL     1     -18.831 -29.983  14.427  1.00  0.00     0.300 A 
HETATM   11  O3  UNL     1     -17.692 -29.612  14.011  1.00  0.00    -0.264 OA
HETATM   12  N5  UNL     1     -19.008 -30.332  15.795  1.00  0.00    -0.285 N 
ATOM     13  H5  UNL     1     -18.224 -30.287  16.445  1.00  0.00     0.172 HD
HETATM   14  C7  UNL     1     -20.289 -30.746  16.241  1.00  0.00     0.277 A 
HETATM   15  O4  UNL     1     -20.440 -31.053  17.448  1.00  0.00    -0.266 OA
ENDROOT
BRANCH   1  16
HETATM   16  C1  UNL     1     -24.760 -31.335  14.002  1.00  0.00     0.303 C 
HETATM   17  N2  UNL     1     -25.089 -32.216  12.952  1.00  0.00    -0.270 N 
ATOM     18  H2  UNL     1     -24.342 -32.667  12.423  1.00  0.00     0.189 HD
HETATM   19  O1  UNL     1     -25.693 -30.801  14.630  1.00  0.00    -0.263 OA
BRANCH  17  20
HETATM   20  N1  UNL     1     -26.401 -32.478  12.631  1.00  0.00    -0.342 N 
ATOM     21  H12 UNL     1     -26.964 -33.018  13.287  1.00  0.00     0.176 HD
ATOM     22  H11 UNL     1     -26.806 -32.141  11.757  1.00  0.00     0.176 HD
ENDBRANCH  17  20
ENDBRANCH   1  16
TORSDOF 2
ENDMDL
MODEL 2
REMARK VINA RESULT: -7.629517859      0.807      2.495
REMARK  2 active torsions:
REMARK  status: ('A' for Active; 'I' for Inactive)
REMARK    1  A    between atoms: N1_1  and  N2_4 
REMARK       I    between atoms: N2_4  and  C1_6 
REMARK    2  A    between atoms: C1_6  and  C2_8 
ROOT
HETATM    1  C2  UNL     1     -23.390 -30.985  14.294  1.00  0.00     0.177 A 
HETATM    2  N3  UNL     1     -22.481 -30.336  13.568  1.00  0.00    -0.331 N 
ATOM      3  H3  UNL     1     -22.639 -29.927  12.646  1.00  0.00     0.168 HD
HETATM    4  C3  UNL     1     -21.326 -30.306  14.246  1.00  0.00     0.134 A 
HETATM    5  C4  UNL     1     -21.530 -30.965  15.438  1.00  0.00     0.123 A 
HETATM    6  N4  UNL     1     -22.808 -31.371  15.440  1.00  0.00    -0.332 N 
ATOM      7  H4  UNL     1     -23.264 -31.889  16.191  1.00  0.00     0.168 HD
HETATM    8  C5  UNL     1     -20.453 -31.116  16.428  1.00  0.00     0.268 A 
HETATM    9  O2  UNL     1     -20.708 -31.728  17.494  1.00  0.00    -0.280 OA
HETATM   10  C6  UNL     1     -19.143 -30.564  16.153  1.00  0.00     0.300 A 
HETATM   11  O3  UNL     1     -18.198 -30.681  16.992  1.00  0.00    -0.264 OA
HETATM   12  N5  UNL     1     -18.920 -29.882  14.924  1.00  0.00    -0.285 N 
ATOM     13  H5  UNL     1     -18.005 -29.486  14.711  1.00  0.00     0.172 HD
HETATM   14  C7  UNL     1     -19.988 -29.760  14.000  1.00  0.00     0.277 A 
HETATM   15  O4  UNL     1     -19.787 -29.157  12.918  1.00  0.00    -0.266 OA
ENDROOT
BRANCH   1  16
HETATM   16  C1  UNL     1     -24.791 -31.269  13.972  1.00  0.00     0.303 C 
HETATM   17  N2  UNL     1     -25.117 -32.198  12.964  1.00  0.00    -0.270 N 
ATOM     18  H2  UNL     1     -24.370 -32.673  12.459  1.00  0.00     0.189 HD
HETATM   19  O1  UNL     1     -25.726 -30.706  14.571  1.00  0.00    -0.263 OA
BRANCH  17  20
HETATM   20  N1  UNL     1     -26.429 -32.475  12.652  1.00  0.00    -0.342 N 
ATOM     21  H12 UNL     1     -26.648 -33.377  12.230  1.00  0.00     0.176 HD
ATOM     22  H11 UNL     1     -27.168 -31.797  12.837  1.00  0.00     0.176 HD
ENDBRANCH  17  20
ENDBRANCH   1  16
TORSDOF 2
ENDMDL
MODEL 3
REMARK VINA RESULT: -7.506755319      1.320      1.342
REMARK  2 active torsions:
REMARK  status: ('A' for Active; 'I' for Inactive)
REMARK    1  A    between atoms: N1_1  and  N2_4 
REMARK       I    between atoms: N2_4  and  C1_6 
REMARK    2  A    between atoms: C1_6  and  C2_8 
ROOT
HETATM    1  C2  UNL     1     -22.285 -31.477  13.910  1.00  0.00     0.177 A 
HETATM    2  N3  UNL     1     -21.818 -31.576  15.152  1.00  0.00    -0.331 N 
ATOM      3  H3  UNL     1     -22.311 -31.996  15.941  1.00  0.00     0.168 HD
HETATM    4  C3  UNL     1     -20.593 -31.033  15.200  1.00  0.00     0.134 A 
HETATM    5  C4  UNL     1     -20.294 -30.580  13.933  1.00  0.00     0.123 A 
HETATM    6  N4  UNL     1     -21.352 -30.867  13.161  1.00  0.00    -0.332 N 
ATOM      7  H4  UNL     1     -21.435 -30.656  12.167  1.00  0.00     0.168 HD
HETATM    8  C5  UNL     1     -19.012 -29.925  13.634  1.00  0.00     0.268 A 
HETATM    9  O2  UNL     1     -18.805 -29.536  12.458  1.00  0.00    -0.280 OA
HETATM   10  C6  UNL     1     -18.035 -29.744  14.687  1.00  0.00     0.300 A 
HETATM   11  O3  UNL     1     -16.922 -29.182  14.452  1.00  0.00    -0.264 OA
HETATM   12  N5  UNL     1     -18.333 -30.207  15.999  1.00  0.00    -0.285 N 
ATOM     13  H5  UNL     1     -17.659 -30.090  16.755  1.00  0.00     0.172 HD
HETATM   14  C7  UNL     1     -19.582 -30.834  16.242  1.00  0.00     0.277 A 
HETATM   15  O4  UNL     1     -19.841 -31.241  17.400  1.00  0.00    -0.266 OA
ENDROOT
BRANCH   1  16
HETATM   16  C1  UNL     1     -23.573 -31.927  13.373  1.00  0.00     0.303 C 
HETATM   17  N2  UNL     1     -24.780 -31.493  13.957  1.00  0.00    -0.270 N 
ATOM     18  H2  UNL     1     -24.751 -30.862  14.758  1.00  0.00     0.189 HD
HETATM   19  O1  UNL     1     -23.641 -32.697  12.397  1.00  0.00    -0.263 OA
BRANCH  17  20
HETATM   20  N1  UNL     1     -25.996 -31.907  13.464  1.00  0.00    -0.342 N 
ATOM     21  H12 UNL     1     -26.264 -31.616  12.524  1.00  0.00     0.176 HD
ATOM     22  H11 UNL     1     -26.619 -32.491  14.022  1.00  0.00     0.176 HD
ENDBRANCH  17  20
ENDBRANCH   1  16
TORSDOF 2
ENDMDL
MODEL 4
REMARK VINA RESULT: -7.477530975      2.433      3.533
REMARK  2 active torsions:
REMARK  status: ('A' for Active; 'I' for Inactive)
REMARK    1  A    between atoms: N1_1  and  N2_4 
REMARK       I    between atoms: N2_4  and  C1_6 
REMARK    2  A    between atoms: C1_6  and  C2_8 
ROOT
HETATM    1  C2  UNL     1     -21.029 -32.124  13.130  1.00  0.00     0.177 A 
HETATM    2  N3  UNL     1     -19.946 -31.368  12.956  1.00  0.00    -0.331 N 
ATOM      3  H3  UNL     1     -19.504 -31.163  12.060  1.00  0.00     0.168 HD
HETATM    4  C3  UNL     1     -19.532 -30.923  14.150  1.00  0.00     0.134 A 
HETATM    5  C4  UNL     1     -20.395 -31.425  15.099  1.00  0.00     0.123 A 
HETATM    6  N4  UNL     1     -21.305 -32.159  14.443  1.00  0.00    -0.332 N 
ATOM      7  H4  UNL     1     -22.081 -32.663  14.872  1.00  0.00     0.168 HD
HETATM    8  C5  UNL     1     -20.224 -31.125  16.529  1.00  0.00     0.268 A 
HETATM    9  O2  UNL     1     -21.047 -31.615  17.340  1.00  0.00    -0.280 OA
HETATM   10  C6  UNL     1     -19.127 -30.284  16.960  1.00  0.00     0.300 A 
HETATM   11  O3  UNL     1     -18.960 -30.012  18.188  1.00  0.00    -0.264 OA
HETATM   12  N5  UNL     1     -18.229 -29.761  15.989  1.00  0.00    -0.285 N 
ATOM     13  H5  UNL     1     -17.450 -29.167  16.272  1.00  0.00     0.172 HD
HETATM   14  C7  UNL     1     -18.432 -30.076  14.621  1.00  0.00     0.277 A 
HETATM   15  O4  UNL     1     -17.638 -29.612  13.768  1.00  0.00    -0.266 OA
ENDROOT
BRANCH   1  16
HETATM   16  C1  UNL     1     -21.832 -32.825  12.124  1.00  0.00     0.303 C 
HETATM   17  N2  UNL     1     -22.899 -33.658  12.518  1.00  0.00    -0.270 N 
ATOM     18  H2  UNL     1     -23.108 -33.770  13.510  1.00  0.00     0.189 HD
HETATM   19  O1  UNL     1     -21.602 -32.708  10.907  1.00  0.00    -0.263 OA
BRANCH  17  20
HETATM   20  N1  UNL     1     -23.662 -34.322  11.585  1.00  0.00    -0.342 N 
ATOM     21  H12 UNL     1     -23.289 -35.174  11.169  1.00  0.00     0.176 HD
ATOM     22  H11 UNL     1     -24.581 -33.972  11.312  1.00  0.00     0.176 HD
ENDBRANCH  17  20
ENDBRANCH   1  16
TORSDOF 2
ENDMDL
MODEL 5
REMARK VINA RESULT: -7.407339942      2.410      2.574
REMARK  2 active torsions:
REMARK  status: ('A' for Active; 'I' for Inactive)
REMARK    1  A    between atoms: N1_1  and  N2_4 
REMARK       I    between atoms: N2_4  and  C1_6 
REMARK    2  A    between atoms: C1_6  and  C2_8 
ROOT
HETATM    1  C2  UNL     1     -21.183 -32.226  13.059  1.00  0.00     0.177 A 
HETATM    2  N3  UNL     1     -21.380 -32.214  14.376  1.00  0.00    -0.331 N 
ATOM      3  H3  UNL     1     -22.136 -32.692  14.868  1.00  0.00     0.168 HD
HETATM    4  C3  UNL     1     -20.423 -31.471  14.951  1.00  0.00     0.134 A 
HETATM    5  C4  UNL     1     -19.604 -31.006  13.947  1.00  0.00     0.123 A 
HETATM    6  N4  UNL     1     -20.095 -31.486  12.795  1.00  0.00    -0.332 N 
ATOM      7  H4  UNL     1     -19.705 -31.316  11.868  1.00  0.00     0.168 HD
HETATM    8  C5  UNL     1     -18.442 -30.151  14.235  1.00  0.00     0.268 A 
HETATM    9  O2  UNL     1     -17.738 -29.762  13.272  1.00  0.00    -0.280 OA
HETATM   10  C6  UNL     1     -18.145 -29.783  15.604  1.00  0.00     0.300 A 
HETATM   11  O3  UNL     1     -17.148 -29.047  15.878  1.00  0.00    -0.264 OA
HETATM   12  N5  UNL     1     -18.985 -30.258  16.650  1.00  0.00    -0.285 N 
ATOM     13  H5  UNL     1     -18.793 -30.010  17.620  1.00  0.00     0.172 HD
HETATM   14  C7  UNL     1     -20.093 -31.080  16.324  1.00  0.00     0.277 A 
HETATM   15  O4  UNL     1     -20.832 -31.496  17.250  1.00  0.00    -0.266 OA
ENDROOT
BRANCH   1  16
HETATM   16  C1  UNL     1     -21.966 -32.899  12.019  1.00  0.00     0.303 C 
HETATM   17  N2  UNL     1     -23.064 -33.712  12.367  1.00  0.00    -0.270 N 
ATOM     18  H2  UNL     1     -23.311 -33.828  13.349  1.00  0.00     0.189 HD
HETATM   19  O1  UNL     1     -21.689 -32.777  10.812  1.00  0.00    -0.263 OA
BRANCH  17  20
HETATM   20  N1  UNL     1     -23.808 -34.350  11.400  1.00  0.00    -0.342 N 
ATOM     21  H12 UNL     1     -23.364 -35.087  10.854  1.00  0.00     0.176 HD
ATOM     22  H11 UNL     1     -24.781 -34.094  11.232  1.00  0.00     0.176 HD
ENDBRANCH  17  20
ENDBRANCH   1  16
TORSDOF 2
ENDMDL
