MODEL 1
REMARK VINA RESULT: -6.319904980      0.000      0.000
REMARK  4 active torsions:
REMARK  status: ('A' for Active; 'I' for Inactive)
REMARK    1  A    between atoms: C1_2  and  C2_4 
REMARK       I    between atoms: C2_4  and  N2_6 
REMARK    2  A    between atoms: N2_6  and  C3_8 
REMARK    3  A    between atoms: C3_8  and  N3_10 
REMARK    4  A    between atoms: N3_10  and  C4_12 
ROOT
HETATM    1  C3  UNL     1     -22.110 -32.525  13.052  1.00  0.00     0.181 C 
HETATM    2  S1  UNL     1     -21.643 -32.946  11.528  1.00  0.00    -0.040 SA
ENDROOT
BRANCH   1   3
HETATM    3  N2  UNL     1     -23.482 -32.412  13.300  1.00  0.00    -0.296 N 
HETATM    4  C2  UNL     1     -24.202 -31.288  13.744  1.00  0.00     0.312 C 
HETATM    5  O2  UNL     1     -23.621 -30.211  13.971  1.00  0.00    -0.262 OA
ATOM      6  H2  UNL     1     -24.032 -33.256  13.137  1.00  0.00     0.171 HD
BRANCH   4   7
HETATM    7  C1  UNL     1     -25.639 -31.321  13.959  1.00  0.00     0.322 C 
HETATM    8  N1  UNL     1     -26.487 -32.160  13.203  1.00  0.00    -0.053 NA
HETATM    9  O1  UNL     1     -26.148 -30.587  14.836  1.00  0.00    -0.266 OA
ENDBRANCH   4   7
ENDBRANCH   1   3
BRANCH   1  10
HETATM   10  N3  UNL     1     -21.089 -32.311  13.984  1.00  0.00    -0.305 N 
ATOM     11  H3  UNL     1     -20.944 -32.977  14.743  1.00  0.00     0.171 HD
BRANCH  10  12
HETATM   12  C4  UNL     1     -20.234 -31.138  13.869  1.00  0.00     0.177 A 
HETATM   13  N4  UNL     1     -19.027 -31.067  14.279  1.00  0.00    -0.361 N 
HETATM   14  C5  UNL     1     -18.439 -29.775  14.025  1.00  0.00     0.142 A 
ATOM     15  H4  UNL     1     -18.534 -31.836  14.733  1.00  0.00     0.162 HD
HETATM   16  C6  UNL     1     -19.503 -28.997  13.301  1.00  0.00     0.142 A 
HETATM   17  N5  UNL     1     -20.617 -29.907  13.289  1.00  0.00    -0.361 N 
ATOM     18  H5  UNL     1     -21.543 -29.696  12.917  1.00  0.00     0.162 HD
ENDBRANCH  10  12
ENDBRANCH   1  10
TORSDOF 4
ENDMDL
MODEL 2
REMARK VINA RESULT: -5.782123536      2.891      3.884
REMARK  4 active torsions:
REMARK  status: ('A' for Active; 'I' for Inactive)
REMARK    1  A    between atoms: C1_2  and  C2_4 
REMARK       I    between atoms: C2_4  and  N2_6 
REMARK    2  A    between atoms: N2_6  and  C3_8 
REMARK    3  A    between atoms: C3_8  and  N3_10 
REMARK    4  A    between atoms: N3_10  and  C4_12 
ROOT
HETATM    1  C3  UNL     1     -20.739 -30.120  13.613  1.00  0.00     0.181 C 
HETATM    2  S1  UNL     1     -19.470 -29.143  13.222  1.00  0.00    -0.040 SA
ENDROOT
BRANCH   1   3
HETATM    3  N2  UNL     1     -21.076 -31.134  12.712  1.00  0.00    -0.296 N 
HETATM    4  C2  UNL     1     -22.084 -32.109  12.827  1.00  0.00     0.312 C 
HETATM    5  O2  UNL     1     -22.818 -32.148  13.832  1.00  0.00    -0.262 OA
ATOM      6  H2  UNL     1     -20.518 -31.172  11.859  1.00  0.00     0.171 HD
BRANCH   4   7
HETATM    7  C1  UNL     1     -22.319 -33.109  11.799  1.00  0.00     0.322 C 
HETATM    8  N1  UNL     1     -23.052 -34.288  12.059  1.00  0.00    -0.053 NA
HETATM    9  O1  UNL     1     -21.862 -32.928  10.648  1.00  0.00    -0.266 OA
ENDBRANCH   4   7
ENDBRANCH   1   3
BRANCH   1  10
HETATM   10  N3  UNL     1     -21.384 -29.854  14.825  1.00  0.00    -0.305 N 
ATOM     11  H3  UNL     1     -22.209 -29.254  14.843  1.00  0.00     0.171 HD
BRANCH  10  12
HETATM   12  C4  UNL     1     -20.877 -30.432  16.062  1.00  0.00     0.177 A 
HETATM   13  N4  UNL     1     -21.383 -31.439  16.663  1.00  0.00    -0.361 N 
HETATM   14  C5  UNL     1     -20.660 -31.779  17.863  1.00  0.00     0.142 A 
ATOM     15  H4  UNL     1     -22.205 -31.945  16.332  1.00  0.00     0.162 HD
HETATM   16  C6  UNL     1     -19.513 -30.808  17.916  1.00  0.00     0.142 A 
HETATM   17  N5  UNL     1     -19.751 -29.964  16.776  1.00  0.00    -0.361 N 
ATOM     18  H5  UNL     1     -19.190 -29.150  16.522  1.00  0.00     0.162 HD
ENDBRANCH  10  12
ENDBRANCH   1  10
TORSDOF 4
ENDMDL
MODEL 3
REMARK VINA RESULT: -5.673727206      3.354      5.742
REMARK  4 active torsions:
REMARK  status: ('A' for Active; 'I' for Inactive)
REMARK    1  A    between atoms: C1_2  and  C2_4 
REMARK       I    between atoms: C2_4  and  N2_6 
REMARK    2  A    between atoms: N2_6  and  C3_8 
REMARK    3  A    between atoms: C3_8  and  N3_10 
REMARK    4  A    between atoms: N3_10  and  C4_12 
ROOT
HETATM    1  C3  UNL     1     -21.462 -31.392  14.051  1.00  0.00     0.181 C 
HETATM    2  S1  UNL     1     -22.898 -30.609  13.843  1.00  0.00    -0.040 SA
ENDROOT
BRANCH   1   3
HETATM    3  N2  UNL     1     -20.382 -30.645  14.531  1.00  0.00    -0.296 N 
HETATM    4  C2  UNL     1     -19.065 -31.073  14.785  1.00  0.00     0.312 C 
HETATM    5  O2  UNL     1     -18.732 -32.255  14.585  1.00  0.00    -0.262 OA
ATOM      6  H2  UNL     1     -20.573 -29.662  14.722  1.00  0.00     0.171 HD
BRANCH   4   7
HETATM    7  C1  UNL     1     -18.040 -30.174  15.287  1.00  0.00     0.322 C 
HETATM    8  N1  UNL     1     -17.135 -29.517  14.424  1.00  0.00    -0.053 NA
HETATM    9  O1  UNL     1     -17.949 -29.970  16.519  1.00  0.00    -0.266 OA
ENDBRANCH   4   7
ENDBRANCH   1   3
BRANCH   1  10
HETATM   10  N3  UNL     1     -21.438 -32.753  13.728  1.00  0.00    -0.305 N 
ATOM     11  H3  UNL     1     -20.919 -33.407  14.314  1.00  0.00     0.171 HD
BRANCH  10  12
HETATM   12  C4  UNL     1     -22.153 -33.235  12.554  1.00  0.00     0.177 A 
HETATM   13  N4  UNL     1     -23.160 -34.019  12.579  1.00  0.00    -0.361 N 
HETATM   14  C5  UNL     1     -23.652 -34.318  11.258  1.00  0.00     0.142 A 
ATOM     15  H4  UNL     1     -23.570 -34.391  13.436  1.00  0.00     0.162 HD
HETATM   16  C6  UNL     1     -22.785 -33.516  10.327  1.00  0.00     0.142 A 
HETATM   17  N5  UNL     1     -21.836 -32.904  11.217  1.00  0.00    -0.361 N 
ATOM     18  H5  UNL     1     -21.052 -32.319  10.926  1.00  0.00     0.162 HD
ENDBRANCH  10  12
ENDBRANCH   1  10
TORSDOF 4
ENDMDL
MODEL 4
REMARK VINA RESULT: -5.636800458      3.391      6.040
REMARK  4 active torsions:
REMARK  status: ('A' for Active; 'I' for Inactive)
REMARK    1  A    between atoms: C1_2  and  C2_4 
REMARK       I    between atoms: C2_4  and  N2_6 
REMARK    2  A    between atoms: N2_6  and  C3_8 
REMARK    3  A    between atoms: C3_8  and  N3_10 
REMARK    4  A    between atoms: N3_10  and  C4_12 
ROOT
HETATM    1  C3  UNL     1     -20.757 -30.172  15.210  1.00  0.00     0.181 C 
HETATM    2  S1  UNL     1     -21.623 -30.870  16.426  1.00  0.00    -0.040 SA
ENDROOT
BRANCH   1   3
HETATM    3  N2  UNL     1     -19.426 -29.837  15.474  1.00  0.00    -0.296 N 
HETATM    4  C2  UNL     1     -18.338 -29.799  14.581  1.00  0.00     0.312 C 
HETATM    5  O2  UNL     1     -18.492 -30.088  13.381  1.00  0.00    -0.262 OA
ATOM      6  H2  UNL     1     -19.215 -29.587  16.440  1.00  0.00     0.171 HD
BRANCH   4   7
HETATM    7  C1  UNL     1     -16.998 -29.429  15.004  1.00  0.00     0.322 C 
HETATM    8  N1  UNL     1     -16.704 -29.100  16.346  1.00  0.00    -0.053 NA
HETATM    9  O1  UNL     1     -16.072 -29.397  14.162  1.00  0.00    -0.266 OA
ENDBRANCH   4   7
ENDBRANCH   1   3
BRANCH   1  10
HETATM   10  N3  UNL     1     -21.429 -29.966  14.000  1.00  0.00    -0.305 N 
ATOM     11  H3  UNL     1     -21.637 -29.018  13.687  1.00  0.00     0.171 HD
BRANCH  10  12
HETATM   12  C4  UNL     1     -21.831 -31.106  13.188  1.00  0.00     0.177 A 
HETATM   13  N4  UNL     1     -21.080 -31.714  12.353  1.00  0.00    -0.361 N 
HETATM   14  C5  UNL     1     -21.760 -32.805  11.700  1.00  0.00     0.142 A 
ATOM     15  H4  UNL     1     -20.110 -31.457  12.169  1.00  0.00     0.162 HD
HETATM   16  C6  UNL     1     -23.130 -32.838  12.319  1.00  0.00     0.142 A 
HETATM   17  N5  UNL     1     -23.110 -31.707  13.207  1.00  0.00    -0.361 N 
ATOM     18  H5  UNL     1     -23.902 -31.386  13.766  1.00  0.00     0.162 HD
ENDBRANCH  10  12
ENDBRANCH   1  10
TORSDOF 4
ENDMDL
MODEL 5
REMARK VINA RESULT: -5.578384588      2.485      2.692
REMARK  4 active torsions:
REMARK  status: ('A' for Active; 'I' for Inactive)
REMARK    1  A    between atoms: C1_2  and  C2_4 
REMARK       I    between atoms: C2_4  and  N2_6 
REMARK    2  A    between atoms: N2_6  and  C3_8 
REMARK    3  A    between atoms: C3_8  and  N3_10 
REMARK    4  A    between atoms: N3_10  and  C4_12 
ROOT
HETATM    1  C3  UNL     1     -21.455 -30.904  16.469  1.00  0.00     0.181 C 
HETATM    2  S1  UNL     1     -21.269 -31.532  17.982  1.00  0.00    -0.040 SA
ENDROOT
BRANCH   1   3
HETATM    3  N2  UNL     1     -22.544 -31.349  15.714  1.00  0.00    -0.296 N 
HETATM    4  C2  UNL     1     -23.223 -30.681  14.677  1.00  0.00     0.312 C 
HETATM    5  O2  UNL     1     -22.874 -29.540  14.322  1.00  0.00    -0.262 OA
ATOM      6  H2  UNL     1     -22.893 -32.279  15.944  1.00  0.00     0.171 HD
BRANCH   4   7
HETATM    7  C1  UNL     1     -24.349 -31.275  13.977  1.00  0.00     0.322 C 
HETATM    8  N1  UNL     1     -25.685 -30.997  14.343  1.00  0.00    -0.053 NA
HETATM    9  O1  UNL     1     -24.139 -32.056  13.022  1.00  0.00    -0.266 OA
ENDBRANCH   4   7
ENDBRANCH   1   3
BRANCH   1  10
HETATM   10  N3  UNL     1     -20.499 -29.970  16.056  1.00  0.00    -0.305 N 
ATOM     11  H3  UNL     1     -20.249 -29.193  16.667  1.00  0.00     0.171 HD
BRANCH  10  12
HETATM   12  C4  UNL     1     -19.863 -30.107  14.753  1.00  0.00     0.177 A 
HETATM   13  N4  UNL     1     -19.278 -31.159  14.328  1.00  0.00    -0.361 N 
HETATM   14  C5  UNL     1     -18.746 -30.990  13.000  1.00  0.00     0.142 A 
ATOM     15  H4  UNL     1     -19.197 -32.021  14.868  1.00  0.00     0.162 HD
HETATM   16  C6  UNL     1     -19.148 -29.600  12.592  1.00  0.00     0.142 A 
HETATM   17  N5  UNL     1     -19.802 -29.094  13.768  1.00  0.00    -0.361 N 
ATOM     18  H5  UNL     1     -20.167 -28.147  13.876  1.00  0.00     0.162 HD
ENDBRANCH  10  12
ENDBRANCH   1  10
TORSDOF 4
ENDMDL
