MODEL 1
REMARK VINA RESULT: -6.852847125      0.000      0.000
REMARK  5 active torsions:
REMARK  status: ('A' for Active; 'I' for Inactive)
REMARK    1  A    between atoms: N1_1  and  C1_4 
REMARK    2  A    between atoms: N3_8  and  O1_9 
REMARK    3  A    between atoms: C3_11  and  S1_12 
REMARK    4  A    between atoms: S1_12  and  N4_13 
REMARK    5  A    between atoms: N5_19  and  O3_20 
ROOT
HETATM    1  C1  UNL     1     -23.127 -33.281  12.138  1.00  0.00     0.694 A 
HETATM    2  N2  UNL     1     -21.810 -33.052  12.228  1.00  0.00    -0.171 N 
ATOM      3  H2  UNL     1     -21.157 -33.682  11.763  1.00  0.00     0.186 HD
HETATM    4  C2  UNL     1     -21.335 -31.995  12.928  1.00  0.00     0.180 A 
HETATM    5  N3  UNL     1     -20.129 -31.501  13.206  1.00  0.00    -0.195 N 
HETATM    6  C3  UNL     1     -20.214 -30.397  13.966  1.00  0.00     0.154 A 
HETATM    7  C4  UNL     1     -21.546 -30.149  14.204  1.00  0.00     0.081 A 
HETATM    8  C5  UNL     1     -22.291 -31.122  13.575  1.00  0.00     0.131 A 
HETATM    9  N5  UNL     1     -23.587 -31.396  13.454  1.00  0.00    -0.145 N 
HETATM   10  N6  UNL     1     -23.989 -32.451  12.751  1.00  0.00    -0.105 N 
ATOM     11  H6  UNL     1     -24.988 -32.638  12.675  1.00  0.00     0.208 HD
ENDROOT
BRANCH   6  12
HETATM   12  S1  UNL     1     -18.808 -29.524  14.493  1.00  0.00     0.163 S 
HETATM   13  O2  UNL     1     -17.523 -29.634  13.478  1.00  0.00    -0.229 OA
BRANCH  12  14
HETATM   14  N4  UNL     1     -18.465 -29.771  16.138  1.00  0.00    -0.344 NA
ATOM     15  H42 UNL     1     -18.937 -29.139  16.785  1.00  0.00     0.166 HD
ATOM     16  H41 UNL     1     -17.468 -29.888  16.316  1.00  0.00     0.166 HD
ENDBRANCH  12  14
ENDBRANCH   6  12
BRANCH   5  17
HETATM   17  O1  UNL     1     -18.966 -32.108  12.729  1.00  0.00    -0.280 OA
ATOM     18  H1  UNL     1     -18.205 -32.225  13.285  1.00  0.00     0.245 HD
ENDBRANCH   5  17
BRANCH   9  19
HETATM   19  O3  UNL     1     -24.487 -30.568  14.068  1.00  0.00    -0.267 OA
ATOM     20  H3  UNL     1     -24.759 -29.780  13.612  1.00  0.00     0.247 HD
ENDBRANCH   9  19
BRANCH   1  21
HETATM   21  N1  UNL     1     -23.606 -34.296  11.466  1.00  0.00    -0.233 N 
ATOM     22  H12 UNL     1     -23.874 -34.155  10.493  1.00  0.00     0.174 HD
ATOM     23  H11 UNL     1     -23.716 -35.217  11.891  1.00  0.00     0.174 HD
ENDBRANCH   1  21
TORSDOF 5
ENDMDL
MODEL 2
REMARK VINA RESULT: -6.775458434      2.129      2.809
REMARK  5 active torsions:
REMARK  status: ('A' for Active; 'I' for Inactive)
REMARK    1  A    between atoms: N1_1  and  C1_4 
REMARK    2  A    between atoms: N3_8  and  O1_9 
REMARK    3  A    between atoms: C3_11  and  S1_12 
REMARK    4  A    between atoms: S1_12  and  N4_13 
REMARK    5  A    between atoms: N5_19  and  O3_20 
ROOT
HETATM    1  C1  UNL     1     -24.492 -31.604  13.760  1.00  0.00     0.694 A 
HETATM    2  N2  UNL     1     -23.648 -30.939  14.560  1.00  0.00    -0.171 N 
ATOM      3  H2  UNL     1     -24.019 -30.316  15.276  1.00  0.00     0.186 HD
HETATM    4  C2  UNL     1     -22.308 -31.085  14.430  1.00  0.00     0.180 A 
HETATM    5  N3  UNL     1     -21.232 -30.589  15.041  1.00  0.00    -0.195 N 
HETATM    6  C3  UNL     1     -20.098 -31.074  14.510  1.00  0.00     0.154 A 
HETATM    7  C4  UNL     1     -20.442 -31.936  13.494  1.00  0.00     0.081 A 
HETATM    8  C5  UNL     1     -21.816 -31.978  13.404  1.00  0.00     0.131 A 
HETATM    9  N5  UNL     1     -22.698 -32.613  12.636  1.00  0.00    -0.145 N 
HETATM   10  N6  UNL     1     -24.002 -32.426  12.815  1.00  0.00    -0.105 N 
ATOM     11  H6  UNL     1     -24.657 -32.925  12.212  1.00  0.00     0.208 HD
ENDROOT
BRANCH   6  12
HETATM   12  S1  UNL     1     -18.529 -30.613  15.095  1.00  0.00     0.163 S 
HETATM   13  O2  UNL     1     -18.497 -30.176  16.676  1.00  0.00    -0.229 OA
BRANCH  12  14
HETATM   14  N4  UNL     1     -17.717 -29.568  14.030  1.00  0.00    -0.344 NA
ATOM     15  H42 UNL     1     -18.124 -29.487  13.098  1.00  0.00     0.166 HD
ATOM     16  H41 UNL     1     -16.707 -29.709  14.038  1.00  0.00     0.166 HD
ENDBRANCH  12  14
ENDBRANCH   6  12
BRANCH   5  17
HETATM   17  O1  UNL     1     -21.347 -29.683  16.096  1.00  0.00    -0.280 OA
ATOM     18  H1  UNL     1     -20.882 -29.812  16.914  1.00  0.00     0.245 HD
ENDBRANCH   5  17
BRANCH   9  19
HETATM   19  O3  UNL     1     -22.228 -33.456  11.666  1.00  0.00    -0.267 OA
ATOM     20  H3  UNL     1     -22.088 -33.106  10.794  1.00  0.00     0.247 HD
ENDBRANCH   9  19
BRANCH   1  21
HETATM   21  N1  UNL     1     -25.789 -31.477  13.869  1.00  0.00    -0.233 N 
ATOM     22  H12 UNL     1     -26.382 -31.880  13.144  1.00  0.00     0.174 HD
ATOM     23  H11 UNL     1     -26.216 -30.989  14.656  1.00  0.00     0.174 HD
ENDBRANCH   1  21
TORSDOF 5
ENDMDL
MODEL 3
REMARK VINA RESULT: -6.749139311      1.861      2.608
REMARK  5 active torsions:
REMARK  status: ('A' for Active; 'I' for Inactive)
REMARK    1  A    between atoms: N1_1  and  C1_4 
REMARK    2  A    between atoms: N3_8  and  O1_9 
REMARK    3  A    between atoms: C3_11  and  S1_12 
REMARK    4  A    between atoms: S1_12  and  N4_13 
REMARK    5  A    between atoms: N5_19  and  O3_20 
ROOT
HETATM    1  C1  UNL     1     -24.459 -31.672  13.688  1.00  0.00     0.694 A 
HETATM    2  N2  UNL     1     -23.631 -30.970  14.473  1.00  0.00    -0.171 N 
ATOM      3  H2  UNL     1     -24.015 -30.378  15.209  1.00  0.00     0.186 HD
HETATM    4  C2  UNL     1     -22.289 -31.037  14.302  1.00  0.00     0.180 A 
HETATM    5  N3  UNL     1     -21.225 -30.488  14.889  1.00  0.00    -0.195 N 
HETATM    6  C3  UNL     1     -20.082 -30.900  14.317  1.00  0.00     0.154 A 
HETATM    7  C4  UNL     1     -20.407 -31.767  13.298  1.00  0.00     0.081 A 
HETATM    8  C5  UNL     1     -21.778 -31.887  13.248  1.00  0.00     0.131 A 
HETATM    9  N5  UNL     1     -22.645 -32.561  12.497  1.00  0.00    -0.145 N 
HETATM   10  N6  UNL     1     -23.952 -32.452  12.717  1.00  0.00    -0.105 N 
ATOM     11  H6  UNL     1     -24.595 -32.980  12.126  1.00  0.00     0.208 HD
ENDROOT
BRANCH   6  12
HETATM   12  S1  UNL     1     -18.525 -30.358  14.862  1.00  0.00     0.163 S 
HETATM   13  O2  UNL     1     -17.639 -29.583  13.718  1.00  0.00    -0.229 OA
BRANCH  12  14
HETATM   14  N4  UNL     1     -17.695 -31.543  15.752  1.00  0.00    -0.344 NA
ATOM     15  H42 UNL     1     -17.828 -31.507  16.762  1.00  0.00     0.166 HD
ATOM     16  H41 UNL     1     -16.724 -31.644  15.458  1.00  0.00     0.166 HD
ENDBRANCH  12  14
ENDBRANCH   6  12
BRANCH   5  17
HETATM   17  O1  UNL     1     -21.360 -29.604  15.960  1.00  0.00    -0.280 OA
ATOM     18  H1  UNL     1     -21.079 -29.840  16.836  1.00  0.00     0.245 HD
ENDBRANCH   5  17
BRANCH   9  19
HETATM   19  O3  UNL     1     -22.158 -33.363  11.502  1.00  0.00    -0.267 OA
ATOM     20  H3  UNL     1     -21.324 -33.797  11.639  1.00  0.00     0.247 HD
ENDBRANCH   9  19
BRANCH   1  21
HETATM   21  N1  UNL     1     -25.757 -31.621  13.837  1.00  0.00    -0.233 N 
ATOM     22  H12 UNL     1     -26.138 -31.516  14.778  1.00  0.00     0.174 HD
ATOM     23  H11 UNL     1     -26.392 -31.684  13.041  1.00  0.00     0.174 HD
ENDBRANCH   1  21
TORSDOF 5
ENDMDL
MODEL 4
REMARK VINA RESULT: -6.623665654      2.158      5.686
REMARK  5 active torsions:
REMARK  status: ('A' for Active; 'I' for Inactive)
REMARK    1  A    between atoms: N1_1  and  C1_4 
REMARK    2  A    between atoms: N3_8  and  O1_9 
REMARK    3  A    between atoms: C3_11  and  S1_12 
REMARK    4  A    between atoms: S1_12  and  N4_13 
REMARK    5  A    between atoms: N5_19  and  O3_20 
ROOT
HETATM    1  C1  UNL     1     -18.474 -29.793  16.326  1.00  0.00     0.694 A 
HETATM    2  N2  UNL     1     -19.749 -30.158  16.524  1.00  0.00    -0.171 N 
ATOM      3  H2  UNL     1     -20.098 -30.272  17.475  1.00  0.00     0.186 HD
HETATM    4  C2  UNL     1     -20.578 -30.377  15.476  1.00  0.00     0.180 A 
HETATM    5  N3  UNL     1     -21.854 -30.736  15.330  1.00  0.00    -0.195 N 
HETATM    6  C3  UNL     1     -22.197 -30.813  14.034  1.00  0.00     0.154 A 
HETATM    7  C4  UNL     1     -21.090 -30.487  13.283  1.00  0.00     0.081 A 
HETATM    8  C5  UNL     1     -20.049 -30.205  14.140  1.00  0.00     0.131 A 
HETATM    9  N5  UNL     1     -18.776 -29.842  14.002  1.00  0.00    -0.145 N 
HETATM   10  N6  UNL     1     -18.014 -29.643  15.073  1.00  0.00    -0.105 N 
ATOM     11  H6  UNL     1     -17.041 -29.366  14.937  1.00  0.00     0.208 HD
ENDROOT
BRANCH   6  12
HETATM   12  S1  UNL     1     -23.796 -31.259  13.522  1.00  0.00     0.163 S 
HETATM   13  O2  UNL     1     -24.966 -30.978  14.638  1.00  0.00    -0.229 OA
BRANCH  12  14
HETATM   14  N4  UNL     1     -23.841 -32.786  12.782  1.00  0.00    -0.344 NA
ATOM     15  H42 UNL     1     -24.077 -33.566  13.396  1.00  0.00     0.166 HD
ATOM     16  H41 UNL     1     -23.035 -32.953  12.180  1.00  0.00     0.166 HD
ENDBRANCH  12  14
ENDBRANCH   6  12
BRANCH   5  17
HETATM   17  O1  UNL     1     -22.671 -30.985  16.433  1.00  0.00    -0.280 OA
ATOM     18  H1  UNL     1     -23.413 -30.428  16.636  1.00  0.00     0.245 HD
ENDBRANCH   5  17
BRANCH   9  19
HETATM   19  O3  UNL     1     -18.280 -29.682  12.737  1.00  0.00    -0.267 OA
ATOM     20  H3  UNL     1     -17.679 -28.965  12.575  1.00  0.00     0.247 HD
ENDBRANCH   9  19
BRANCH   1  21
HETATM   21  N1  UNL     1     -17.657 -29.577  17.325  1.00  0.00    -0.233 N 
ATOM     22  H12 UNL     1     -17.783 -28.734  17.885  1.00  0.00     0.174 HD
ATOM     23  H11 UNL     1     -16.904 -30.226  17.552  1.00  0.00     0.174 HD
ENDBRANCH   1  21
TORSDOF 5
ENDMDL
MODEL 5
REMARK VINA RESULT: -6.360567103      2.697      5.323
REMARK  5 active torsions:
REMARK  status: ('A' for Active; 'I' for Inactive)
REMARK    1  A    between atoms: N1_1  and  C1_4 
REMARK    2  A    between atoms: N3_8  and  O1_9 
REMARK    3  A    between atoms: C3_11  and  S1_12 
REMARK    4  A    between atoms: S1_12  and  N4_13 
REMARK    5  A    between atoms: N5_19  and  O3_20 
ROOT
HETATM    1  C1  UNL     1     -20.586 -30.417  15.797  1.00  0.00     0.694 A 
HETATM    2  N2  UNL     1     -21.664 -31.136  15.457  1.00  0.00    -0.171 N 
ATOM      3  H2  UNL     1     -22.420 -31.261  16.130  1.00  0.00     0.186 HD
HETATM    4  C2  UNL     1     -21.763 -31.701  14.229  1.00  0.00     0.180 A 
HETATM    5  N3  UNL     1     -22.667 -32.448  13.595  1.00  0.00    -0.195 N 
HETATM    6  C3  UNL     1     -22.265 -32.752  12.350  1.00  0.00     0.154 A 
HETATM    7  C4  UNL     1     -21.032 -32.174  12.150  1.00  0.00     0.081 A 
HETATM    8  C5  UNL     1     -20.673 -31.504  13.299  1.00  0.00     0.131 A 
HETATM    9  N5  UNL     1     -19.626 -30.782  13.689  1.00  0.00    -0.145 N 
HETATM   10  N6  UNL     1     -19.590 -30.254  14.909  1.00  0.00    -0.105 N 
ATOM     11  H6  UNL     1     -18.775 -29.705  15.182  1.00  0.00     0.208 HD
ENDROOT
BRANCH   6  12
HETATM   12  S1  UNL     1     -23.230 -33.716  11.274  1.00  0.00     0.163 S 
HETATM   13  O2  UNL     1     -22.766 -33.644   9.702  1.00  0.00    -0.229 OA
BRANCH  12  14
HETATM   14  N4  UNL     1     -24.895 -33.540  11.556  1.00  0.00    -0.344 NA
ATOM     15  H42 UNL     1     -25.182 -33.575  12.535  1.00  0.00     0.166 HD
ATOM     16  H41 UNL     1     -25.460 -34.115  10.932  1.00  0.00     0.166 HD
ENDBRANCH  12  14
ENDBRANCH   6  12
BRANCH   5  17
HETATM   17  O1  UNL     1     -23.859 -32.829  14.212  1.00  0.00    -0.280 OA
ATOM     18  H1  UNL     1     -23.895 -33.031  15.139  1.00  0.00     0.245 HD
ENDBRANCH   5  17
BRANCH   9  19
HETATM   19  O3  UNL     1     -18.597 -30.599  12.806  1.00  0.00    -0.267 OA
ATOM     20  H3  UNL     1     -17.770 -30.271  13.138  1.00  0.00     0.247 HD
ENDBRANCH   9  19
BRANCH   1  21
HETATM   21  N1  UNL     1     -20.471 -29.864  16.976  1.00  0.00    -0.233 N 
ATOM     22  H12 UNL     1     -19.838 -30.288  17.655  1.00  0.00     0.174 HD
ATOM     23  H11 UNL     1     -20.995 -29.027  17.230  1.00  0.00     0.174 HD
ENDBRANCH   1  21
TORSDOF 5
ENDMDL
