MODEL 1
REMARK VINA RESULT: -6.686358719      0.000      0.000
REMARK  4 active torsions:
REMARK  status: ('A' for Active; 'I' for Inactive)
REMARK    1  A    between atoms: N1_1  and  C1_4 
REMARK    2  A    between atoms: C2_7  and  N3_8 
REMARK    3  A    between atoms: N4_11  and  O1_12 
REMARK    4  A    between atoms: C4_17  and  N6_18 
ROOT
HETATM    1  C1  UNL     1     -21.189 -30.599  16.098  1.00  0.00     0.147 A 
HETATM    2  N2  UNL     1     -19.959 -30.058  16.080  1.00  0.00    -0.173 N 
ATOM      3  H2  UNL     1     -19.629 -29.544  16.896  1.00  0.00     0.186 HD
HETATM    4  C2  UNL     1     -19.154 -30.178  15.008  1.00  0.00     0.705 A 
HETATM    5  N4  UNL     1     -19.520 -30.840  13.895  1.00  0.00    -0.033 N 
HETATM    6  C3  UNL     1     -20.718 -31.409  13.817  1.00  0.00     0.198 A 
HETATM    7  N5  UNL     1     -21.176 -32.093  12.743  1.00  0.00    -0.170 N 
ATOM      8  H5  UNL     1     -20.585 -32.197  11.918  1.00  0.00     0.186 HD
HETATM    9  C4  UNL     1     -22.399 -32.635  12.756  1.00  0.00     0.696 A 
HETATM   10  N7  UNL     1     -23.193 -32.506  13.834  1.00  0.00    -0.131 N 
ATOM     11  H7  UNL     1     -24.121 -32.929  13.814  1.00  0.00     0.205 HD
HETATM   12  N8  UNL     1     -22.813 -31.852  14.918  1.00  0.00    -0.280 N 
ATOM     13  H8  UNL     1     -23.447 -31.778  15.714  1.00  0.00     0.188 HD
HETATM   14  C7  UNL     1     -21.606 -31.287  14.976  1.00  0.00     0.140 A 
ENDROOT
BRANCH   1  15
HETATM   15  N1  UNL     1     -21.922 -30.461  17.138  1.00  0.00    -0.383 N 
ATOM     16  H12 UNL     1     -21.693 -29.814  17.893  1.00  0.00     0.157 HD
ATOM     17  H11 UNL     1     -22.774 -31.014  17.228  1.00  0.00     0.157 HD
ENDBRANCH   1  15
BRANCH   4  18
HETATM   18  N3  UNL     1     -17.982 -29.641  15.041  1.00  0.00    -0.232 N 
ATOM     19  H32 UNL     1     -17.674 -29.207  15.911  1.00  0.00     0.174 HD
ATOM     20  H31 UNL     1     -17.402 -29.665  14.202  1.00  0.00     0.174 HD
ENDBRANCH   4  18
BRANCH   5  21
HETATM   21  O1  UNL     1     -18.655 -30.939  12.811  1.00  0.00    -0.268 OA
ATOM     22  H1  UNL     1     -17.810 -31.362  12.902  1.00  0.00     0.246 HD
ENDBRANCH   5  21
BRANCH   9  23
HETATM   23  N6  UNL     1     -22.870 -33.350  11.626  1.00  0.00    -0.213 N 
HETATM   24  C5  UNL     1     -22.891 -33.648  10.188  1.00  0.00     0.161 A 
HETATM   25  C6  UNL     1     -23.747 -34.388  11.041  1.00  0.00     0.161 A 
ENDBRANCH   9  23
TORSDOF 4
ENDMDL
MODEL 2
REMARK VINA RESULT: -6.181479963      1.653      2.561
REMARK  4 active torsions:
REMARK  status: ('A' for Active; 'I' for Inactive)
REMARK    1  A    between atoms: N1_1  and  C1_4 
REMARK    2  A    between atoms: C2_7  and  N3_8 
REMARK    3  A    between atoms: N4_11  and  O1_12 
REMARK    4  A    between atoms: C4_17  and  N6_18 
ROOT
HETATM    1  C1  UNL     1     -18.694 -30.203  17.468  1.00  0.00     0.147 A 
HETATM    2  N2  UNL     1     -17.563 -29.528  17.196  1.00  0.00    -0.173 N 
ATOM      3  H2  UNL     1     -17.008 -29.154  17.966  1.00  0.00     0.186 HD
HETATM    4  C2  UNL     1     -17.148 -29.335  15.930  1.00  0.00     0.705 A 
HETATM    5  N4  UNL     1     -17.826 -29.797  14.864  1.00  0.00    -0.033 N 
HETATM    6  C3  UNL     1     -18.956 -30.475  15.032  1.00  0.00     0.198 A 
HETATM    7  N5  UNL     1     -19.708 -30.978  14.025  1.00  0.00    -0.170 N 
ATOM      8  H5  UNL     1     -19.414 -30.843  13.057  1.00  0.00     0.186 HD
HETATM    9  C4  UNL     1     -20.834 -31.650  14.290  1.00  0.00     0.696 A 
HETATM   10  N7  UNL     1     -21.237 -31.836  15.559  1.00  0.00    -0.131 N 
ATOM     11  H7  UNL     1     -22.100 -32.352  15.731  1.00  0.00     0.205 HD
HETATM   12  N8  UNL     1     -20.555 -31.373  16.593  1.00  0.00    -0.280 N 
ATOM     13  H8  UNL     1     -20.896 -31.536  17.540  1.00  0.00     0.188 HD
HETATM   14  C7  UNL     1     -19.422 -30.695  16.403  1.00  0.00     0.140 A 
ENDROOT
BRANCH   1  15
HETATM   15  N1  UNL     1     -19.053 -30.364  18.686  1.00  0.00    -0.383 N 
ATOM     16  H12 UNL     1     -18.551 -29.945  19.469  1.00  0.00     0.157 HD
ATOM     17  H11 UNL     1     -19.872 -30.933  18.896  1.00  0.00     0.157 HD
ENDBRANCH   1  15
BRANCH   4  18
HETATM   18  N3  UNL     1     -16.056 -28.682  15.723  1.00  0.00    -0.232 N 
ATOM     19  H32 UNL     1     -15.222 -28.956  16.243  1.00  0.00     0.174 HD
ATOM     20  H31 UNL     1     -16.056 -27.916  15.049  1.00  0.00     0.174 HD
ENDBRANCH   4  18
BRANCH   5  21
HETATM   21  O1  UNL     1     -17.359 -29.573  13.574  1.00  0.00    -0.268 OA
ATOM     22  H1  UNL     1     -17.809 -28.971  12.993  1.00  0.00     0.246 HD
ENDBRANCH   5  21
BRANCH   9  23
HETATM   23  N6  UNL     1     -21.614 -32.173  13.228  1.00  0.00    -0.213 N 
HETATM   24  C5  UNL     1     -22.889 -32.596  12.634  1.00  0.00     0.161 A 
HETATM   25  C6  UNL     1     -21.712 -32.709  11.854  1.00  0.00     0.161 A 
ENDBRANCH   9  23
TORSDOF 4
ENDMDL
MODEL 3
REMARK VINA RESULT: -6.143085840      2.059      5.609
REMARK  4 active torsions:
REMARK  status: ('A' for Active; 'I' for Inactive)
REMARK    1  A    between atoms: N1_1  and  C1_4 
REMARK    2  A    between atoms: C2_7  and  N3_8 
REMARK    3  A    between atoms: N4_11  and  O1_12 
REMARK    4  A    between atoms: C4_17  and  N6_18 
ROOT
HETATM    1  C1  UNL     1     -21.906 -32.337  12.306  1.00  0.00     0.147 A 
HETATM    2  N2  UNL     1     -23.208 -32.281  12.635  1.00  0.00    -0.173 N 
ATOM      3  H2  UNL     1     -23.905 -32.617  11.971  1.00  0.00     0.186 HD
HETATM    4  C2  UNL     1     -23.613 -31.790  13.822  1.00  0.00     0.705 A 
HETATM    5  N4  UNL     1     -22.753 -31.328  14.748  1.00  0.00    -0.033 N 
HETATM    6  C3  UNL     1     -21.446 -31.341  14.514  1.00  0.00     0.198 A 
HETATM    7  N5  UNL     1     -20.504 -30.899  15.380  1.00  0.00    -0.170 N 
ATOM      8  H5  UNL     1     -20.786 -30.521  16.285  1.00  0.00     0.186 HD
HETATM    9  C4  UNL     1     -19.207 -30.953  15.058  1.00  0.00     0.696 A 
HETATM   10  N7  UNL     1     -18.818 -31.446  13.869  1.00  0.00    -0.131 N 
ATOM     11  H7  UNL     1     -17.822 -31.473  13.651  1.00  0.00     0.205 HD
HETATM   12  N8  UNL     1     -19.680 -31.895  12.973  1.00  0.00    -0.280 N 
ATOM     13  H8  UNL     1     -19.342 -32.261  12.083  1.00  0.00     0.188 HD
HETATM   14  C7  UNL     1     -20.989 -31.873  13.227  1.00  0.00     0.140 A 
ENDROOT
BRANCH   1  15
HETATM   15  N1  UNL     1     -21.565 -32.811  11.167  1.00  0.00    -0.383 N 
ATOM     16  H12 UNL     1     -22.202 -32.846  10.371  1.00  0.00     0.157 HD
ATOM     17  H11 UNL     1     -20.620 -33.173  11.037  1.00  0.00     0.157 HD
ENDBRANCH   1  15
BRANCH   4  18
HETATM   18  N3  UNL     1     -24.874 -31.758  14.089  1.00  0.00    -0.232 N 
ATOM     19  H32 UNL     1     -25.474 -31.162  13.519  1.00  0.00     0.174 HD
ATOM     20  H31 UNL     1     -25.232 -32.326  14.858  1.00  0.00     0.174 HD
ENDBRANCH   4  18
BRANCH   5  21
HETATM   21  O1  UNL     1     -23.216 -30.829  15.960  1.00  0.00    -0.268 OA
ATOM     22  H1  UNL     1     -22.885 -31.170  16.782  1.00  0.00     0.246 HD
ENDBRANCH   5  21
BRANCH   9  23
HETATM   23  N6  UNL     1     -18.229 -30.487  15.972  1.00  0.00    -0.213 N 
HETATM   24  C5  UNL     1     -17.681 -30.328  17.325  1.00  0.00     0.161 A 
HETATM   25  C6  UNL     1     -16.963 -29.771  16.239  1.00  0.00     0.161 A 
ENDBRANCH   9  23
TORSDOF 4
ENDMDL
MODEL 4
REMARK VINA RESULT: -6.025256660      2.081      3.381
REMARK  4 active torsions:
REMARK  status: ('A' for Active; 'I' for Inactive)
REMARK    1  A    between atoms: N1_1  and  C1_4 
REMARK    2  A    between atoms: C2_7  and  N3_8 
REMARK    3  A    between atoms: N4_11  and  O1_12 
REMARK    4  A    between atoms: C4_17  and  N6_18 
ROOT
HETATM    1  C1  UNL     1     -17.972 -29.764  15.875  1.00  0.00     0.147 A 
HETATM    2  N2  UNL     1     -18.132 -29.807  17.209  1.00  0.00    -0.173 N 
ATOM      3  H2  UNL     1     -17.489 -29.287  17.806  1.00  0.00     0.186 HD
HETATM    4  C2  UNL     1     -19.123 -30.522  17.775  1.00  0.00     0.705 A 
HETATM    5  N4  UNL     1     -20.008 -31.235  17.054  1.00  0.00    -0.033 N 
HETATM    6  C3  UNL     1     -19.930 -31.255  15.728  1.00  0.00     0.198 A 
HETATM    7  N5  UNL     1     -20.771 -31.940  14.919  1.00  0.00    -0.170 N 
ATOM      8  H5  UNL     1     -21.529 -32.490  15.324  1.00  0.00     0.186 HD
HETATM    9  C4  UNL     1     -20.615 -31.900  13.590  1.00  0.00     0.696 A 
HETATM   10  N7  UNL     1     -19.622 -31.182  13.039  1.00  0.00    -0.131 N 
ATOM     11  H7  UNL     1     -19.527 -31.171  12.023  1.00  0.00     0.205 HD
HETATM   12  N8  UNL     1     -18.762 -30.489  13.766  1.00  0.00    -0.280 N 
ATOM     13  H8  UNL     1     -18.022 -29.957  13.308  1.00  0.00     0.188 HD
HETATM   14  C7  UNL     1     -18.858 -30.481  15.096  1.00  0.00     0.140 A 
ENDROOT
BRANCH   1  15
HETATM   15  N1  UNL     1     -17.017 -29.072  15.379  1.00  0.00    -0.383 N 
ATOM     16  H12 UNL     1     -16.873 -28.087  15.604  1.00  0.00     0.157 HD
ATOM     17  H11 UNL     1     -16.364 -29.511  14.729  1.00  0.00     0.157 HD
ENDBRANCH   1  15
BRANCH   4  18
HETATM   18  N3  UNL     1     -19.234 -30.530  19.059  1.00  0.00    -0.232 N 
ATOM     19  H32 UNL     1     -18.861 -31.329  19.572  1.00  0.00     0.174 HD
ATOM     20  H31 UNL     1     -19.690 -29.743  19.522  1.00  0.00     0.174 HD
ENDBRANCH   4  18
BRANCH   5  21
HETATM   21  O1  UNL     1     -21.014 -31.959  17.681  1.00  0.00    -0.268 OA
ATOM     22  H1  UNL     1     -21.891 -31.988  17.316  1.00  0.00     0.246 HD
ENDBRANCH   5  21
BRANCH   9  23
HETATM   23  N6  UNL     1     -21.502 -32.621  12.751  1.00  0.00    -0.213 N 
HETATM   24  C5  UNL     1     -22.633 -33.530  12.525  1.00  0.00     0.161 A 
HETATM   25  C6  UNL     1     -21.955 -33.005  11.397  1.00  0.00     0.161 A 
ENDBRANCH   9  23
TORSDOF 4
ENDMDL
MODEL 5
REMARK VINA RESULT: -5.976934767      2.132      5.449
REMARK  4 active torsions:
REMARK  status: ('A' for Active; 'I' for Inactive)
REMARK    1  A    between atoms: N1_1  and  C1_4 
REMARK    2  A    between atoms: C2_7  and  N3_8 
REMARK    3  A    between atoms: N4_11  and  O1_12 
REMARK    4  A    between atoms: C4_17  and  N6_18 
ROOT
HETATM    1  C1  UNL     1     -21.701 -31.021  16.352  1.00  0.00     0.147 A 
HETATM    2  N2  UNL     1     -22.450 -31.275  15.265  1.00  0.00    -0.173 N 
ATOM      3  H2  UNL     1     -23.399 -31.630  15.386  1.00  0.00     0.186 HD
HETATM    4  C2  UNL     1     -21.976 -31.074  14.021  1.00  0.00     0.705 A 
HETATM    5  N4  UNL     1     -20.735 -30.610  13.784  1.00  0.00    -0.033 N 
HETATM    6  C3  UNL     1     -19.919 -30.330  14.794  1.00  0.00     0.198 A 
HETATM    7  N5  UNL     1     -18.657 -29.862  14.656  1.00  0.00    -0.170 N 
ATOM      8  H5  UNL     1     -18.274 -29.702  13.724  1.00  0.00     0.186 HD
HETATM    9  C4  UNL     1     -17.907 -29.606  15.734  1.00  0.00     0.696 A 
HETATM   10  N7  UNL     1     -18.394 -29.813  16.970  1.00  0.00    -0.131 N 
ATOM     11  H7  UNL     1     -17.799 -29.610  17.773  1.00  0.00     0.205 HD
HETATM   12  N8  UNL     1     -19.617 -30.269  17.182  1.00  0.00    -0.280 N 
ATOM     13  H8  UNL     1     -19.947 -30.412  18.136  1.00  0.00     0.188 HD
HETATM   14  C7  UNL     1     -20.421 -30.544  16.154  1.00  0.00     0.140 A 
ENDROOT
BRANCH   1  15
HETATM   15  N1  UNL     1     -22.191 -31.227  17.516  1.00  0.00    -0.383 N 
ATOM     16  H12 UNL     1     -22.814 -30.564  17.978  1.00  0.00     0.157 HD
ATOM     17  H11 UNL     1     -21.957 -32.086  18.014  1.00  0.00     0.157 HD
ENDBRANCH   1  15
BRANCH   4  18
HETATM   18  N3  UNL     1     -22.735 -31.333  13.012  1.00  0.00    -0.232 N 
ATOM     19  H32 UNL     1     -23.654 -30.891  12.973  1.00  0.00     0.174 HD
ATOM     20  H31 UNL     1     -22.397 -31.966  12.287  1.00  0.00     0.174 HD
ENDBRANCH   4  18
BRANCH   5  21
HETATM   21  O1  UNL     1     -20.287 -30.417  12.482  1.00  0.00    -0.268 OA
ATOM     22  H1  UNL     1     -19.434 -30.735  12.211  1.00  0.00     0.246 HD
ENDBRANCH   5  21
BRANCH   9  23
HETATM   23  N6  UNL     1     -16.586 -29.116  15.579  1.00  0.00    -0.213 N 
HETATM   24  C5  UNL     1     -15.509 -28.161  15.869  1.00  0.00     0.161 A 
HETATM   25  C6  UNL     1     -15.244 -29.222  14.968  1.00  0.00     0.161 A 
ENDBRANCH   9  23
TORSDOF 4
ENDMDL
