MODEL 1
REMARK VINA RESULT: -7.506808930      0.000      0.000
REMARK  2 active torsions:
REMARK  status: ('A' for Active; 'I' for Inactive)
REMARK    1  A    between atoms: C3_9  and  N3_10 
REMARK    2  A    between atoms: N3_10  and  C4_12 
ROOT
HETATM    1  O1  UNL     1     -23.178 -33.997  11.772  1.00  0.00    -0.246 OA
HETATM    2  C1  UNL     1     -22.958 -32.895  12.365  1.00  0.00     0.331 C 
HETATM    3  N1  UNL     1     -23.990 -32.362  13.055  1.00  0.00    -0.260 N 
ATOM      4  H1  UNL     1     -24.844 -32.919  13.052  1.00  0.00     0.175 HD
HETATM    5  C2  UNL     1     -24.065 -31.198  13.753  1.00  0.00     0.329 C 
HETATM    6  O2  UNL     1     -25.223 -30.916  14.174  1.00  0.00    -0.246 OA
HETATM    7  N2  UNL     1     -23.100 -30.313  14.058  1.00  0.00    -0.290 N 
ATOM      8  H2  UNL     1     -23.392 -29.460  14.536  1.00  0.00     0.172 HD
HETATM    9  C3  UNL     1     -21.772 -30.443  13.791  1.00  0.00     0.180 C 
HETATM   10  C7  UNL     1     -21.231 -31.234  12.782  1.00  0.00     0.293 C 
HETATM   11  O3  UNL     1     -20.153 -30.819  12.328  1.00  0.00    -0.264 OA
HETATM   12  N6  UNL     1     -21.727 -32.369  12.252  1.00  0.00    -0.272 N 
ATOM     13  H6  UNL     1     -21.074 -32.907  11.682  1.00  0.00     0.174 HD
ENDROOT
BRANCH   9  14
HETATM   14  N3  UNL     1     -21.004 -29.766  14.554  1.00  0.00    -0.323 N 
ATOM     15  H3  UNL     1     -20.900 -28.778  14.325  1.00  0.00     0.169 HD
BRANCH  14  16
HETATM   16  C4  UNL     1     -20.286 -30.223  15.675  1.00  0.00     0.123 A 
HETATM   17  C5  UNL     1     -20.848 -30.921  16.753  1.00  0.00     0.137 A 
HETATM   18  N4  UNL     1     -19.872 -31.188  17.634  1.00  0.00    -0.358 N 
HETATM   19  C6  UNL     1     -18.718 -30.692  17.163  1.00  0.00     0.182 A 
ATOM     20  H4  UNL     1     -19.988 -31.686  18.517  1.00  0.00     0.166 HD
HETATM   21  N5  UNL     1     -18.970 -30.103  15.969  1.00  0.00    -0.337 N 
ATOM     22  H5  UNL     1     -18.275 -29.641  15.382  1.00  0.00     0.168 HD
ENDBRANCH  14  16
ENDBRANCH   9  14
TORSDOF 2
ENDMDL
MODEL 2
REMARK VINA RESULT: -7.272542335      0.701      1.036
REMARK  2 active torsions:
REMARK  status: ('A' for Active; 'I' for Inactive)
REMARK    1  A    between atoms: C3_9  and  N3_10 
REMARK    2  A    between atoms: N3_10  and  C4_12 
ROOT
HETATM    1  O1  UNL     1     -23.167 -33.917  11.681  1.00  0.00    -0.246 OA
HETATM    2  C1  UNL     1     -22.931 -32.883  12.381  1.00  0.00     0.331 C 
HETATM    3  N1  UNL     1     -23.985 -32.331  13.021  1.00  0.00    -0.260 N 
ATOM      4  H1  UNL     1     -24.870 -32.823  12.897  1.00  0.00     0.175 HD
HETATM    5  C2  UNL     1     -24.048 -31.222  13.803  1.00  0.00     0.329 C 
HETATM    6  O2  UNL     1     -25.219 -30.890  14.145  1.00  0.00    -0.246 OA
HETATM    7  N2  UNL     1     -23.060 -30.435  14.263  1.00  0.00    -0.290 N 
ATOM      8  H2  UNL     1     -23.339 -29.602  14.784  1.00  0.00     0.172 HD
HETATM    9  C3  UNL     1     -21.724 -30.640  14.103  1.00  0.00     0.180 C 
HETATM   10  C7  UNL     1     -21.146 -31.388  13.082  1.00  0.00     0.293 C 
HETATM   11  O3  UNL     1     -20.005 -31.018  12.758  1.00  0.00    -0.264 OA
HETATM   12  N6  UNL     1     -21.664 -32.440  12.418  1.00  0.00    -0.272 N 
ATOM     13  H6  UNL     1     -20.997 -32.978  11.865  1.00  0.00     0.174 HD
ENDROOT
BRANCH   9  14
HETATM   14  N3  UNL     1     -20.988 -30.081  14.983  1.00  0.00    -0.323 N 
ATOM     15  H3  UNL     1     -20.687 -29.128  14.779  1.00  0.00     0.169 HD
BRANCH  14  16
HETATM   16  C4  UNL     1     -20.543 -30.625  16.202  1.00  0.00     0.123 A 
HETATM   17  C5  UNL     1     -19.303 -30.348  16.794  1.00  0.00     0.137 A 
HETATM   18  N4  UNL     1     -19.219 -31.045  17.938  1.00  0.00    -0.358 N 
HETATM   19  C6  UNL     1     -20.350 -31.749  18.098  1.00  0.00     0.182 A 
ATOM     20  H4  UNL     1     -18.427 -31.039  18.581  1.00  0.00     0.166 HD
HETATM   21  N5  UNL     1     -21.157 -31.494  17.040  1.00  0.00    -0.337 N 
ATOM     22  H5  UNL     1     -22.084 -31.896  16.896  1.00  0.00     0.168 HD
ENDBRANCH  14  16
ENDBRANCH   9  14
TORSDOF 2
ENDMDL
MODEL 3
REMARK VINA RESULT: -7.110131457      2.190      5.438
REMARK  2 active torsions:
REMARK  status: ('A' for Active; 'I' for Inactive)
REMARK    1  A    between atoms: C3_9  and  N3_10 
REMARK    2  A    between atoms: N3_10  and  C4_12 
ROOT
HETATM    1  O1  UNL     1     -18.308 -31.175  17.771  1.00  0.00    -0.246 OA
HETATM    2  C1  UNL     1     -18.867 -30.726  16.721  1.00  0.00     0.331 C 
HETATM    3  N1  UNL     1     -18.051 -30.368  15.706  1.00  0.00    -0.260 N 
ATOM      4  H1  UNL     1     -17.056 -30.522  15.877  1.00  0.00     0.175 HD
HETATM    5  C2  UNL     1     -18.349 -29.835  14.493  1.00  0.00     0.329 C 
HETATM    6  O2  UNL     1     -17.342 -29.481  13.815  1.00  0.00    -0.246 OA
HETATM    7  N2  UNL     1     -19.545 -29.631  13.911  1.00  0.00    -0.290 N 
ATOM      8  H2  UNL     1     -19.544 -29.147  13.013  1.00  0.00     0.172 HD
HETATM    9  C3  UNL     1     -20.756 -30.009  14.405  1.00  0.00     0.180 C 
HETATM   10  C7  UNL     1     -21.040 -30.231  15.748  1.00  0.00     0.293 C 
HETATM   11  O3  UNL     1     -22.218 -30.006  16.068  1.00  0.00    -0.264 OA
HETATM   12  N6  UNL     1     -20.208 -30.652  16.721  1.00  0.00    -0.272 N 
ATOM     13  H6  UNL     1     -20.662 -30.960  17.581  1.00  0.00     0.174 HD
ENDROOT
BRANCH   9  14
HETATM   14  N3  UNL     1     -21.669 -30.156  13.524  1.00  0.00    -0.323 N 
ATOM     15  H3  UNL     1     -22.117 -29.302  13.194  1.00  0.00     0.169 HD
BRANCH  14  16
HETATM   16  C4  UNL     1     -22.129 -31.358  12.957  1.00  0.00     0.123 A 
HETATM   17  C5  UNL     1     -23.388 -31.924  13.197  1.00  0.00     0.137 A 
HETATM   18  N4  UNL     1     -23.476 -33.066  12.496  1.00  0.00    -0.358 N 
HETATM   19  C6  UNL     1     -22.330 -33.248  11.823  1.00  0.00     0.182 A 
ATOM     20  H4  UNL     1     -24.282 -33.691  12.479  1.00  0.00     0.166 HD
HETATM   21  N5  UNL     1     -21.508 -32.208  12.104  1.00  0.00    -0.337 N 
ATOM     22  H5  UNL     1     -20.567 -32.084  11.730  1.00  0.00     0.168 HD
ENDBRANCH  14  16
ENDBRANCH   9  14
TORSDOF 2
ENDMDL
MODEL 4
REMARK VINA RESULT: -6.896621604      1.669      2.920
REMARK  2 active torsions:
REMARK  status: ('A' for Active; 'I' for Inactive)
REMARK    1  A    between atoms: C3_9  and  N3_10 
REMARK    2  A    between atoms: N3_10  and  C4_12 
ROOT
HETATM    1  O1  UNL     1     -25.911 -31.755  13.868  1.00  0.00    -0.246 OA
HETATM    2  C1  UNL     1     -24.656 -31.651  13.697  1.00  0.00     0.331 C 
HETATM    3  N1  UNL     1     -24.097 -32.481  12.789  1.00  0.00    -0.260 N 
ATOM      4  H1  UNL     1     -24.752 -33.097  12.307  1.00  0.00     0.175 HD
HETATM    5  C2  UNL     1     -22.797 -32.622  12.419  1.00  0.00     0.329 C 
HETATM    6  O2  UNL     1     -22.579 -33.590  11.636  1.00  0.00    -0.246 OA
HETATM    7  N2  UNL     1     -21.721 -31.891  12.758  1.00  0.00    -0.290 N 
ATOM      8  H2  UNL     1     -20.816 -32.218  12.417  1.00  0.00     0.172 HD
HETATM    9  C3  UNL     1     -21.720 -30.757  13.510  1.00  0.00     0.180 C 
HETATM   10  C7  UNL     1     -22.700 -30.409  14.435  1.00  0.00     0.293 C 
HETATM   11  O3  UNL     1     -22.291 -29.713  15.378  1.00  0.00    -0.264 OA
HETATM   12  N6  UNL     1     -24.009 -30.730  14.429  1.00  0.00    -0.272 N 
ATOM     13  H6  UNL     1     -24.592 -30.196  15.074  1.00  0.00     0.174 HD
ENDROOT
BRANCH   9  14
HETATM   14  N3  UNL     1     -20.721 -29.987  13.315  1.00  0.00    -0.323 N 
ATOM     15  H3  UNL     1     -20.824 -29.296  12.572  1.00  0.00     0.169 HD
BRANCH  14  16
HETATM   16  C4  UNL     1     -19.495 -29.978  14.005  1.00  0.00     0.123 A 
HETATM   17  C5  UNL     1     -18.246 -29.758  13.411  1.00  0.00     0.137 A 
HETATM   18  N4  UNL     1     -17.307 -29.828  14.367  1.00  0.00    -0.358 N 
HETATM   19  C6  UNL     1     -17.905 -30.082  15.541  1.00  0.00     0.182 A 
ATOM     20  H4  UNL     1     -16.304 -29.707  14.225  1.00  0.00     0.166 HD
HETATM   21  N5  UNL     1     -19.239 -30.174  15.321  1.00  0.00    -0.337 N 
ATOM     22  H5  UNL     1     -19.942 -30.363  16.036  1.00  0.00     0.168 HD
ENDBRANCH  14  16
ENDBRANCH   9  14
TORSDOF 2
ENDMDL
MODEL 5
REMARK VINA RESULT: -6.744334303      2.786      5.340
REMARK  2 active torsions:
REMARK  status: ('A' for Active; 'I' for Inactive)
REMARK    1  A    between atoms: C3_9  and  N3_10 
REMARK    2  A    between atoms: N3_10  and  C4_12 
ROOT
HETATM    1  O1  UNL     1     -17.216 -29.385  16.633  1.00  0.00    -0.246 OA
HETATM    2  C1  UNL     1     -17.838 -30.024  15.726  1.00  0.00     0.331 C 
HETATM    3  N1  UNL     1     -17.928 -31.363  15.884  1.00  0.00    -0.260 N 
ATOM      4  H1  UNL     1     -17.507 -31.727  16.738  1.00  0.00     0.175 HD
HETATM    5  C2  UNL     1     -18.495 -32.299  15.078  1.00  0.00     0.329 C 
HETATM    6  O2  UNL     1     -18.291 -33.493  15.442  1.00  0.00    -0.246 OA
HETATM    7  N2  UNL     1     -19.233 -32.146  13.965  1.00  0.00    -0.290 N 
ATOM      8  H2  UNL     1     -19.503 -32.997  13.470  1.00  0.00     0.172 HD
HETATM    9  C3  UNL     1     -19.655 -30.967  13.433  1.00  0.00     0.180 C 
HETATM   10  C7  UNL     1     -19.045 -29.733  13.636  1.00  0.00     0.293 C 
HETATM   11  O3  UNL     1     -19.179 -28.933  12.695  1.00  0.00    -0.264 OA
HETATM   12  N6  UNL     1     -18.343 -29.312  14.707  1.00  0.00    -0.272 N 
ATOM     13  H6  UNL     1     -18.171 -28.307  14.748  1.00  0.00     0.174 HD
ENDROOT
BRANCH   9  14
HETATM   14  N3  UNL     1     -20.695 -31.054  12.698  1.00  0.00    -0.323 N 
ATOM     15  H3  UNL     1     -20.544 -30.966  11.693  1.00  0.00     0.169 HD
BRANCH  14  16
HETATM   16  C4  UNL     1     -22.024 -31.256  13.111  1.00  0.00     0.123 A 
HETATM   17  C5  UNL     1     -22.758 -32.430  12.893  1.00  0.00     0.137 A 
HETATM   18  N4  UNL     1     -23.983 -32.263  13.415  1.00  0.00    -0.358 N 
HETATM   19  C6  UNL     1     -24.058 -31.036  13.953  1.00  0.00     0.182 A 
ATOM     20  H4  UNL     1     -24.733 -32.954  13.404  1.00  0.00     0.166 HD
HETATM   21  N5  UNL     1     -22.865 -30.422  13.767  1.00  0.00    -0.337 N 
ATOM     22  H5  UNL     1     -22.636 -29.476  14.075  1.00  0.00     0.168 HD
ENDBRANCH  14  16
ENDBRANCH   9  14
TORSDOF 2
ENDMDL
