MODEL 1
REMARK VINA RESULT: -5.594279359      0.000      0.000
REMARK  1 active torsions:
REMARK  status: ('A' for Active; 'I' for Inactive)
REMARK    1  A    between atoms: C2_3  and  N2_4 
ROOT
HETATM    1  N1  UNL     1      -7.757   7.204   8.931  1.00  0.00    -0.092 NA
HETATM    2  C1  UNL     1      -6.395   7.471   8.567  1.00  0.00     0.164 A 
HETATM    3  C2  UNL     1      -6.080   8.275   7.497  1.00  0.00     0.207 A 
HETATM    4  N3  UNL     1      -4.798   8.510   7.180  1.00  0.00    -0.288 N 
ATOM      5  H3  UNL     1      -4.555   9.105   6.388  1.00  0.00     0.172 HD
HETATM    6  C3  UNL     1      -3.847   7.941   7.931  1.00  0.00     0.328 A 
HETATM    7  O3  UNL     1      -2.638   8.186   7.598  1.00  0.00    -0.247 OA
HETATM    8  N4  UNL     1      -4.136   7.157   8.973  1.00  0.00    -0.274 N 
ATOM      9  H4  UNL     1      -3.374   6.747   9.514  1.00  0.00     0.173 HD
HETATM   10  C4  UNL     1      -5.402   6.898   9.326  1.00  0.00     0.277 A 
HETATM   11  O4  UNL     1      -5.666   6.147  10.325  1.00  0.00    -0.266 OA
ENDROOT
BRANCH   3  12
HETATM   12  N2  UNL     1      -7.138   8.853   6.734  1.00  0.00    -0.096 N 
HETATM   13  O1  UNL     1      -7.712   9.898   7.145  1.00  0.00    -0.530 OA
HETATM   14  O2  UNL     1      -7.494   8.240   5.567  1.00  0.00    -0.530 OA
ENDBRANCH   3  12
TORSDOF 1
ENDMDL
MODEL 2
REMARK VINA RESULT: -5.110103066      2.466      2.877
REMARK  1 active torsions:
REMARK  status: ('A' for Active; 'I' for Inactive)
REMARK    1  A    between atoms: C2_3  and  N2_4 
ROOT
HETATM    1  N1  UNL     1      -4.800   7.226  10.068  1.00  0.00    -0.092 NA
HETATM    2  C1  UNL     1      -4.320   8.406   9.408  1.00  0.00     0.164 A 
HETATM    3  C2  UNL     1      -4.593   8.651   8.083  1.00  0.00     0.207 A 
HETATM    4  N3  UNL     1      -4.133   9.764   7.491  1.00  0.00    -0.288 N 
ATOM      5  H3  UNL     1      -4.331   9.955   6.508  1.00  0.00     0.172 HD
HETATM    6  C3  UNL     1      -3.407  10.617   8.225  1.00  0.00     0.328 A 
HETATM    7  O3  UNL     1      -2.986  11.664   7.626  1.00  0.00    -0.247 OA
HETATM    8  N4  UNL     1      -3.132  10.394   9.512  1.00  0.00    -0.274 N 
ATOM      9  H4  UNL     1      -2.574  11.074  10.028  1.00  0.00     0.173 HD
HETATM   10  C4  UNL     1      -3.573   9.297  10.144  1.00  0.00     0.277 A 
HETATM   11  O4  UNL     1      -3.304   9.094  11.376  1.00  0.00    -0.266 OA
ENDROOT
BRANCH   3  12
HETATM   12  N2  UNL     1      -5.372   7.705   7.354  1.00  0.00    -0.096 N 
HETATM   13  O1  UNL     1      -6.596   7.924   7.147  1.00  0.00    -0.530 OA
HETATM   14  O2  UNL     1      -4.748   6.578   6.899  1.00  0.00    -0.530 OA
ENDBRANCH   3  12
TORSDOF 1
ENDMDL
MODEL 3
REMARK VINA RESULT: -5.059920636      0.580      1.086
REMARK  1 active torsions:
REMARK  status: ('A' for Active; 'I' for Inactive)
REMARK    1  A    between atoms: C2_3  and  N2_4 
ROOT
HETATM    1  N1  UNL     1      -8.232   7.768   8.646  1.00  0.00    -0.092 NA
HETATM    2  C1  UNL     1      -6.828   7.837   8.357  1.00  0.00     0.164 A 
HETATM    3  C2  UNL     1      -6.355   8.459   7.226  1.00  0.00     0.207 A 
HETATM    4  N3  UNL     1      -5.037   8.509   6.981  1.00  0.00    -0.288 N 
ATOM      5  H3  UNL     1      -4.677   8.969   6.145  1.00  0.00     0.172 HD
HETATM    6  C3  UNL     1      -4.207   7.939   7.864  1.00  0.00     0.328 A 
HETATM    7  O3  UNL     1      -2.960   8.007   7.596  1.00  0.00    -0.247 OA
HETATM    8  N4  UNL     1      -4.650   7.331   8.968  1.00  0.00    -0.274 N 
ATOM      9  H4  UNL     1      -3.977   6.912   9.609  1.00  0.00     0.173 HD
HETATM   10  C4  UNL     1      -5.958   7.259   9.252  1.00  0.00     0.277 A 
HETATM   11  O4  UNL     1      -6.369   6.674  10.310  1.00  0.00    -0.266 OA
ENDROOT
BRANCH   3  12
HETATM   12  N2  UNL     1      -7.288   9.047   6.322  1.00  0.00    -0.096 N 
HETATM   13  O1  UNL     1      -7.780   8.358   5.388  1.00  0.00    -0.530 OA
HETATM   14  O2  UNL     1      -7.618  10.360   6.508  1.00  0.00    -0.530 OA
ENDBRANCH   3  12
TORSDOF 1
ENDMDL
MODEL 4
REMARK VINA RESULT: -4.943522166      1.447      3.642
REMARK  1 active torsions:
REMARK  status: ('A' for Active; 'I' for Inactive)
REMARK    1  A    between atoms: C2_3  and  N2_4 
ROOT
HETATM    1  N1  UNL     1      -6.329   9.191   7.134  1.00  0.00    -0.092 NA
HETATM    2  C1  UNL     1      -6.218   8.181   8.146  1.00  0.00     0.164 A 
HETATM    3  C2  UNL     1      -4.996   7.691   8.544  1.00  0.00     0.207 A 
HETATM    4  N3  UNL     1      -4.922   6.747   9.494  1.00  0.00    -0.288 N 
ATOM      5  H3  UNL     1      -4.020   6.378   9.796  1.00  0.00     0.172 HD
HETATM    6  C3  UNL     1      -6.063   6.303  10.035  1.00  0.00     0.328 A 
HETATM    7  O3  UNL     1      -5.951   5.404  10.936  1.00  0.00    -0.247 OA
HETATM    8  N4  UNL     1      -7.257   6.768   9.661  1.00  0.00    -0.274 N 
ATOM      9  H4  UNL     1      -8.098   6.396  10.103  1.00  0.00     0.173 HD
HETATM   10  C4  UNL     1      -7.378   7.711   8.717  1.00  0.00     0.277 A 
HETATM   11  O4  UNL     1      -8.526   8.148   8.366  1.00  0.00    -0.266 OA
ENDROOT
BRANCH   3  12
HETATM   12  N2  UNL     1      -3.816   8.203   7.930  1.00  0.00    -0.096 N 
HETATM   13  O1  UNL     1      -3.291   7.588   6.962  1.00  0.00    -0.530 OA
HETATM   14  O2  UNL     1      -3.289   9.363   8.424  1.00  0.00    -0.530 OA
ENDBRANCH   3  12
TORSDOF 1
ENDMDL
MODEL 5
REMARK VINA RESULT: -4.862492086      1.544      3.658
REMARK  1 active torsions:
REMARK  status: ('A' for Active; 'I' for Inactive)
REMARK    1  A    between atoms: C2_3  and  N2_4 
ROOT
HETATM    1  N1  UNL     1      -5.351   6.516  10.187  1.00  0.00    -0.092 NA
HETATM    2  C1  UNL     1      -5.723   7.473   9.185  1.00  0.00     0.164 A 
HETATM    3  C2  UNL     1      -4.813   8.367   8.671  1.00  0.00     0.207 A 
HETATM    4  N3  UNL     1      -5.187   9.250   7.733  1.00  0.00    -0.288 N 
ATOM      5  H3  UNL     1      -4.520   9.917   7.345  1.00  0.00     0.172 HD
HETATM    6  C3  UNL     1      -6.461   9.232   7.320  1.00  0.00     0.328 A 
HETATM    7  O3  UNL     1      -6.780  10.089   6.427  1.00  0.00    -0.247 OA
HETATM    8  N4  UNL     1      -7.357   8.371   7.809  1.00  0.00    -0.274 N 
ATOM      9  H4  UNL     1      -8.315   8.398   7.461  1.00  0.00     0.173 HD
HETATM   10  C4  UNL     1      -7.026   7.471   8.745  1.00  0.00     0.277 A 
HETATM   11  O4  UNL     1      -7.891   6.652   9.205  1.00  0.00    -0.266 OA
ENDROOT
BRANCH   3  12
HETATM   12  N2  UNL     1      -3.471   8.337   9.151  1.00  0.00    -0.096 N 
HETATM   13  O1  UNL     1      -2.555   7.854   8.431  1.00  0.00    -0.530 OA
HETATM   14  O2  UNL     1      -3.225   8.843  10.396  1.00  0.00    -0.530 OA
ENDBRANCH   3  12
TORSDOF 1
ENDMDL
