MODEL 1
REMARK VINA RESULT: -4.850343394      0.000      0.000
REMARK  3 active torsions:
REMARK  status: ('A' for Active; 'I' for Inactive)
REMARK    1  A    between atoms: C2_3  and  C3_4 
REMARK    2  A    between atoms: C2_3  and  C7_13 
REMARK    3  A    between atoms: C3_4  and  C4_5 
ROOT
HETATM    1  N1  UNL     1      -9.423   7.661   8.954  1.00  0.00    -0.191 NA
HETATM    2  C1  UNL     1      -8.520   8.261   8.481  1.00  0.00     0.104 C 
HETATM    3  C2  UNL     1      -7.410   8.976   7.923  1.00  0.00     0.111 C 
ENDROOT
BRANCH   3   4
HETATM    4  C3  UNL     1      -6.385   9.251   8.707  1.00  0.00     0.061 C 
BRANCH   4   5
HETATM    5  C4  UNL     1      -5.059   8.668   8.428  1.00  0.00     0.076 A 
HETATM    6  N2  UNL     1      -4.100   9.139   7.612  1.00  0.00    -0.350 N 
HETATM    7  C5  UNL     1      -3.033   8.334   7.681  1.00  0.00     0.182 A 
ATOM      8  H2  UNL     1      -4.174   9.975   7.034  1.00  0.00     0.166 HD
HETATM    9  N3  UNL     1      -3.270   7.317   8.544  1.00  0.00    -0.339 N 
HETATM   10  C6  UNL     1      -4.508   7.517   9.005  1.00  0.00     0.144 A 
ATOM     11  H3  UNL     1      -2.635   6.557   8.791  1.00  0.00     0.167 HD
HETATM   12  N4  UNL     1      -5.204   6.702   9.966  1.00  0.00    -0.080 NA
ENDBRANCH   4   5
ENDBRANCH   3   4
BRANCH   3  13
HETATM   13  C7  UNL     1      -7.389   9.390   6.513  1.00  0.00     0.275 C 
HETATM   14  N5  UNL     1      -7.977   8.594   5.497  1.00  0.00    -0.057 NA
HETATM   15  O1  UNL     1      -6.820  10.496   6.243  1.00  0.00    -0.270 OA
ENDBRANCH   3  13
TORSDOF 3
ENDMDL
MODEL 2
REMARK VINA RESULT: -4.838575624      2.521      4.553
REMARK  3 active torsions:
REMARK  status: ('A' for Active; 'I' for Inactive)
REMARK    1  A    between atoms: C2_3  and  C3_4 
REMARK    2  A    between atoms: C2_3  and  C7_13 
REMARK    3  A    between atoms: C3_4  and  C4_5 
ROOT
HETATM    1  N1  UNL     1      -3.853   9.106  10.927  1.00  0.00    -0.191 NA
HETATM    2  C1  UNL     1      -4.346   8.553  10.006  1.00  0.00     0.104 C 
HETATM    3  C2  UNL     1      -4.965   7.894   8.893  1.00  0.00     0.111 C 
ENDROOT
BRANCH   3   4
HETATM    4  C3  UNL     1      -6.261   7.653   8.951  1.00  0.00     0.061 C 
BRANCH   4   5
HETATM    5  C4  UNL     1      -6.760   6.429   9.607  1.00  0.00     0.076 A 
HETATM    6  N2  UNL     1      -6.049   5.465  10.217  1.00  0.00    -0.350 N 
HETATM    7  C5  UNL     1      -6.890   4.554  10.720  1.00  0.00     0.182 A 
ATOM      8  H2  UNL     1      -5.032   5.434  10.285  1.00  0.00     0.166 HD
HETATM    9  N3  UNL     1      -8.172   4.901  10.451  1.00  0.00    -0.339 N 
HETATM   10  C6  UNL     1      -8.098   6.048   9.770  1.00  0.00     0.144 A 
ATOM     11  H3  UNL     1      -9.016   4.392  10.713  1.00  0.00     0.167 HD
HETATM   12  N4  UNL     1      -9.208   6.820   9.274  1.00  0.00    -0.080 NA
ENDBRANCH   4   5
ENDBRANCH   3   4
BRANCH   3  13
HETATM   13  C7  UNL     1      -4.197   7.502   7.704  1.00  0.00     0.275 C 
HETATM   14  N5  UNL     1      -2.931   8.073   7.416  1.00  0.00    -0.057 NA
HETATM   15  O1  UNL     1      -4.717   6.625   6.941  1.00  0.00    -0.270 OA
ENDBRANCH   3  13
TORSDOF 3
ENDMDL
MODEL 3
REMARK VINA RESULT: -4.835161531      2.837      4.817
REMARK  3 active torsions:
REMARK  status: ('A' for Active; 'I' for Inactive)
REMARK    1  A    between atoms: C2_3  and  C3_4 
REMARK    2  A    between atoms: C2_3  and  C7_13 
REMARK    3  A    between atoms: C3_4  and  C4_5 
ROOT
HETATM    1  N1  UNL     1      -4.941   6.440   6.726  1.00  0.00    -0.191 NA
HETATM    2  C1  UNL     1      -4.824   6.972   7.776  1.00  0.00     0.104 C 
HETATM    3  C2  UNL     1      -4.697   7.601   9.057  1.00  0.00     0.111 C 
ENDROOT
BRANCH   3   4
HETATM    4  C3  UNL     1      -5.730   7.564   9.877  1.00  0.00     0.061 C 
BRANCH   4   5
HETATM    5  C4  UNL     1      -6.510   6.321  10.033  1.00  0.00     0.076 A 
HETATM    6  N2  UNL     1      -6.103   5.144  10.539  1.00  0.00    -0.350 N 
HETATM    7  C5  UNL     1      -7.134   4.290  10.543  1.00  0.00     0.182 A 
ATOM      8  H2  UNL     1      -5.161   4.935  10.867  1.00  0.00     0.166 HD
HETATM    9  N3  UNL     1      -8.240   4.890  10.040  1.00  0.00    -0.339 N 
HETATM   10  C6  UNL     1      -7.864   6.134   9.727  1.00  0.00     0.144 A 
ATOM     11  H3  UNL     1      -9.166   4.478   9.923  1.00  0.00     0.167 HD
HETATM   12  N4  UNL     1      -8.700   7.165   9.169  1.00  0.00    -0.080 NA
ENDBRANCH   4   5
ENDBRANCH   3   4
BRANCH   3  13
HETATM   13  C7  UNL     1      -3.454   8.264   9.473  1.00  0.00     0.275 C 
HETATM   14  N5  UNL     1      -3.361   8.964  10.704  1.00  0.00    -0.057 NA
HETATM   15  O1  UNL     1      -2.460   8.183   8.680  1.00  0.00    -0.270 OA
ENDBRANCH   3  13
TORSDOF 3
ENDMDL
MODEL 4
REMARK VINA RESULT: -4.827383036      2.121      3.193
REMARK  3 active torsions:
REMARK  status: ('A' for Active; 'I' for Inactive)
REMARK    1  A    between atoms: C2_3  and  C3_4 
REMARK    2  A    between atoms: C2_3  and  C7_13 
REMARK    3  A    between atoms: C3_4  and  C4_5 
ROOT
HETATM    1  N1  UNL     1      -7.175   8.703   6.299  1.00  0.00    -0.191 NA
HETATM    2  C1  UNL     1      -6.728   8.461   7.367  1.00  0.00     0.104 C 
HETATM    3  C2  UNL     1      -6.186   8.192   8.666  1.00  0.00     0.111 C 
ENDROOT
BRANCH   3   4
HETATM    4  C3  UNL     1      -5.416   9.107   9.225  1.00  0.00     0.061 C 
BRANCH   4   5
HETATM    5  C4  UNL     1      -4.301   9.705   8.466  1.00  0.00     0.076 A 
HETATM    6  N2  UNL     1      -4.167  10.976   8.052  1.00  0.00    -0.350 N 
HETATM    7  C5  UNL     1      -2.987  11.113   7.436  1.00  0.00     0.182 A 
ATOM      8  H2  UNL     1      -4.854  11.717   8.185  1.00  0.00     0.166 HD
HETATM    9  N3  UNL     1      -2.320   9.933   7.434  1.00  0.00    -0.339 N 
HETATM   10  C6  UNL     1      -3.121   9.067   8.064  1.00  0.00     0.144 A 
ATOM     11  H3  UNL     1      -1.401   9.745   7.035  1.00  0.00     0.167 HD
HETATM   12  N4  UNL     1      -2.841   7.680   8.325  1.00  0.00    -0.080 NA
ENDBRANCH   4   5
ENDBRANCH   3   4
BRANCH   3  13
HETATM   13  C7  UNL     1      -6.478   6.942   9.381  1.00  0.00     0.275 C 
HETATM   14  N5  UNL     1      -5.506   6.311  10.200  1.00  0.00    -0.057 NA
HETATM   15  O1  UNL     1      -7.643   6.449   9.236  1.00  0.00    -0.270 OA
ENDBRANCH   3  13
TORSDOF 3
ENDMDL
MODEL 5
REMARK VINA RESULT: -4.800877230      0.977      1.026
REMARK  3 active torsions:
REMARK  status: ('A' for Active; 'I' for Inactive)
REMARK    1  A    between atoms: C2_3  and  C3_4 
REMARK    2  A    between atoms: C2_3  and  C7_13 
REMARK    3  A    between atoms: C3_4  and  C4_5 
ROOT
HETATM    1  N1  UNL     1      -8.327   9.144   9.711  1.00  0.00    -0.191 NA
HETATM    2  C1  UNL     1      -7.777   8.960   8.680  1.00  0.00     0.104 C 
HETATM    3  C2  UNL     1      -7.107   8.715   7.437  1.00  0.00     0.111 C 
ENDROOT
BRANCH   3   4
HETATM    4  C3  UNL     1      -6.101   7.861   7.427  1.00  0.00     0.061 C 
BRANCH   4   5
HETATM    5  C4  UNL     1      -4.785   8.258   7.966  1.00  0.00     0.076 A 
HETATM    6  N2  UNL     1      -3.901   9.124   7.442  1.00  0.00    -0.350 N 
HETATM    7  C5  UNL     1      -2.854   9.233   8.269  1.00  0.00     0.182 A 
ATOM      8  H2  UNL     1      -4.010   9.618   6.557  1.00  0.00     0.166 HD
HETATM    9  N3  UNL     1      -3.030   8.440   9.354  1.00  0.00    -0.339 N 
HETATM   10  C6  UNL     1      -4.211   7.841   9.173  1.00  0.00     0.144 A 
ATOM     11  H3  UNL     1      -2.394   8.324  10.142  1.00  0.00     0.167 HD
HETATM   12  N4  UNL     1      -4.843   6.911  10.072  1.00  0.00    -0.080 NA
ENDBRANCH   4   5
ENDBRANCH   3   4
BRANCH   3  13
HETATM   13  C7  UNL     1      -7.522   9.376   6.192  1.00  0.00     0.275 C 
HETATM   14  N5  UNL     1      -8.237   8.678   5.185  1.00  0.00    -0.057 NA
HETATM   15  O1  UNL     1      -7.213  10.603   6.057  1.00  0.00    -0.270 OA
ENDBRANCH   3  13
TORSDOF 3
ENDMDL
