MODEL 1
REMARK VINA RESULT: -5.849862352      0.000      0.000
REMARK  8 active torsions:
REMARK  status: ('A' for Active; 'I' for Inactive)
REMARK    1  A    between atoms: C2_2  and  C3_4 
REMARK    2  A    between atoms: C3_4  and  N1_5 
REMARK    3  A    between atoms: C3_4  and  C5_10 
REMARK       I    between atoms: N1_5  and  C4_7 
REMARK    4  A    between atoms: C16_22  and  C18_24 
REMARK    5  A    between atoms: C18_24  and  C19_25 
REMARK    6  A    between atoms: C19_25  and  N4_26 
REMARK    7  A    between atoms: C19_25  and  C20_30 
REMARK    8  A    between atoms: N5_34  and  N6_36 
ROOT
HETATM    1  C5  UNL     1      85.098  88.431 -38.505  1.00  0.00     0.072 C 
HETATM    2  C6  UNL     1      85.862  89.326 -39.524  1.00  0.00     0.048 C 
HETATM    3  C7  UNL     1      86.751  88.223 -40.098  1.00  0.00    -0.067 C 
HETATM    4  C8  UNL     1      87.948  88.375 -39.588  1.00  0.00    -0.018 C 
HETATM    5  C9  UNL     1      89.216  87.634 -39.748  1.00  0.00     0.072 C 
HETATM    6  C10 UNL     1      89.043  86.318 -40.364  1.00  0.00     0.068 C 
HETATM    7  N3  UNL     1      88.212  85.959 -41.220  1.00  0.00    -0.361 N 
HETATM    8  C11 UNL     1      87.413  85.256 -42.172  1.00  0.00     0.091 A 
HETATM    9  C12 UNL     1      87.129  86.608 -41.848  1.00  0.00     0.143 A 
HETATM   10  C13 UNL     1      86.131  87.215 -41.018  1.00  0.00     0.034 C 
HETATM   11  C14 UNL     1      85.404  88.196 -42.029  1.00  0.00     0.028 C 
HETATM   12  C15 UNL     1      85.104  86.562 -40.193  1.00  0.00    -0.013 C 
HETATM   13  C16 UNL     1      84.416  85.313 -40.404  1.00  0.00    -0.054 C 
HETATM   14  C17 UNL     1      83.715  85.052 -41.678  1.00  0.00     0.048 C 
HETATM   15  C23 UNL     1      84.308  87.630 -39.478  1.00  0.00     0.040 C 
HETATM   16  N5  UNL     1      83.104  87.887 -39.715  1.00  0.00    -0.310 N 
ATOM     17  H5  UNL     1      82.688  87.255 -40.398  1.00  0.00     0.186 HD
ENDROOT
BRANCH  13  18
HETATM   18  C18 UNL     1      84.862  84.144 -39.576  1.00  0.00     0.013 C 
BRANCH  18  19
HETATM   19  C19 UNL     1      84.660  84.091 -38.136  1.00  0.00     0.210 C 
BRANCH  19  20
HETATM   20  N4  UNL     1      83.241  84.587 -37.935  1.00  0.00    -0.071 N 
ATOM     21  H43 UNL     1      83.001  85.401 -38.500  1.00  0.00     0.275 HD
ATOM     22  H42 UNL     1      82.526  83.969 -38.318  1.00  0.00     0.275 HD
ATOM     23  H41 UNL     1      83.165  84.741 -36.929  1.00  0.00     0.275 HD
ENDBRANCH  19  20
BRANCH  19  24
HETATM   24  C20 UNL     1      85.428  84.996 -37.230  1.00  0.00     0.011 C 
HETATM   25  C21 UNL     1      86.931  84.829 -37.627  1.00  0.00     0.012 C 
HETATM   26  C22 UNL     1      85.387  84.528 -35.783  1.00  0.00     0.012 C 
ENDBRANCH  19  24
ENDBRANCH  18  19
ENDBRANCH  13  18
BRANCH   1  27
HETATM   27  C3  UNL     1      84.478  89.161 -37.430  1.00  0.00     0.165 C 
BRANCH  27  28
HETATM   28  C2  UNL     1      83.998  88.324 -36.306  1.00  0.00     0.146 C 
HETATM   29  C1  UNL     1      84.464  88.424 -34.913  1.00  0.00     0.093 C 
HETATM   30  O1  UNL     1      83.126  87.458 -36.514  1.00  0.00    -0.296 OA
ENDBRANCH  27  28
BRANCH  27  31
HETATM   31  N1  UNL     1      85.371  90.153 -36.808  1.00  0.00    -0.333 N 
HETATM   32  C4  UNL     1      84.952  91.482 -36.692  1.00  0.00     0.329 C 
HETATM   33  N2  UNL     1      85.814  92.467 -36.085  1.00  0.00    -0.040 NA
HETATM   34  O2  UNL     1      83.818  91.808 -37.120  1.00  0.00    -0.251 OA
ATOM     35  H1  UNL     1      86.289  89.873 -36.465  1.00  0.00     0.164 HD
ENDBRANCH  27  31
ENDBRANCH   1  27
BRANCH  16  36
HETATM   36  N6  UNL     1      82.226  88.832 -39.255  1.00  0.00    -0.345 N 
ATOM     37  H62 UNL     1      82.435  89.104 -38.294  1.00  0.00     0.176 HD
ATOM     38  H61 UNL     1      81.424  89.311 -39.664  1.00  0.00     0.176 HD
ENDBRANCH  16  36
TORSDOF 8
ENDMDL
MODEL 2
REMARK VINA RESULT: -5.461911628     13.646     17.162
REMARK  8 active torsions:
REMARK  status: ('A' for Active; 'I' for Inactive)
REMARK    1  A    between atoms: C2_2  and  C3_4 
REMARK    2  A    between atoms: C3_4  and  N1_5 
REMARK    3  A    between atoms: C3_4  and  C5_10 
REMARK       I    between atoms: N1_5  and  C4_7 
REMARK    4  A    between atoms: C16_22  and  C18_24 
REMARK    5  A    between atoms: C18_24  and  C19_25 
REMARK    6  A    between atoms: C19_25  and  N4_26 
REMARK    7  A    between atoms: C19_25  and  C20_30 
REMARK    8  A    between atoms: N5_34  and  N6_36 
ROOT
HETATM    1  C5  UNL     1      90.976 100.893 -42.345  1.00  0.00     0.072 C 
HETATM    2  C6  UNL     1      92.016 101.372 -43.400  1.00  0.00     0.048 C 
HETATM    3  C7  UNL     1      92.085 102.826 -42.935  1.00  0.00    -0.067 C 
HETATM    4  C8  UNL     1      91.398 103.546 -43.789  1.00  0.00    -0.018 C 
HETATM    5  C9  UNL     1      91.094 104.989 -43.878  1.00  0.00     0.072 C 
HETATM    6  C10 UNL     1      91.364 105.715 -42.637  1.00  0.00     0.068 C 
HETATM    7  N3  UNL     1      92.247 105.502 -41.783  1.00  0.00    -0.361 N 
HETATM    8  C11 UNL     1      93.123 105.522 -40.656  1.00  0.00     0.091 A 
HETATM    9  C12 UNL     1      93.231 104.505 -41.639  1.00  0.00     0.143 A 
HETATM   10  C13 UNL     1      92.814 103.134 -41.663  1.00  0.00     0.034 C 
HETATM   11  C14 UNL     1      94.174 102.372 -41.950  1.00  0.00     0.028 C 
HETATM   12  C15 UNL     1      92.075 102.383 -40.637  1.00  0.00    -0.013 C 
HETATM   13  C16 UNL     1      92.086 102.535 -39.204  1.00  0.00    -0.054 C 
HETATM   14  C17 UNL     1      93.362 102.509 -38.459  1.00  0.00     0.048 C 
HETATM   15  C23 UNL     1      91.845 100.977 -41.140  1.00  0.00     0.040 C 
HETATM   16  N5  UNL     1      92.382  99.956 -40.648  1.00  0.00    -0.310 N 
ATOM     17  H5  UNL     1      92.946 100.161 -39.823  1.00  0.00     0.186 HD
ENDROOT
BRANCH  13  18
HETATM   18  C18 UNL     1      90.905 103.225 -38.584  1.00  0.00     0.013 C 
BRANCH  18  19
HETATM   19  C19 UNL     1      91.002 103.945 -37.324  1.00  0.00     0.210 C 
BRANCH  19  20
HETATM   20  N4  UNL     1      89.933 103.320 -36.449  1.00  0.00    -0.071 N 
ATOM     21  H43 UNL     1      88.996 103.687 -36.610  1.00  0.00     0.275 HD
ATOM     22  H42 UNL     1      89.716 102.352 -36.683  1.00  0.00     0.275 HD
ATOM     23  H41 UNL     1      90.274 103.452 -35.497  1.00  0.00     0.275 HD
ENDBRANCH  19  20
BRANCH  19  24
HETATM   24  C20 UNL     1      90.644 105.393 -37.251  1.00  0.00     0.011 C 
HETATM   25  C21 UNL     1      90.013 105.752 -38.635  1.00  0.00     0.012 C 
HETATM   26  C22 UNL     1      91.876 106.284 -37.179  1.00  0.00     0.012 C 
ENDBRANCH  19  24
ENDBRANCH  18  19
ENDBRANCH  13  18
BRANCH   1  27
HETATM   27  C3  UNL     1      90.282  99.686 -42.708  1.00  0.00     0.165 C 
BRANCH  27  28
HETATM   28  C2  UNL     1      88.805  99.796 -42.716  1.00  0.00     0.146 C 
HETATM   29  C1  UNL     1      88.047 101.055 -42.792  1.00  0.00     0.093 C 
HETATM   30  O1  UNL     1      88.112  98.761 -42.661  1.00  0.00    -0.296 OA
ENDBRANCH  27  28
BRANCH  27  31
HETATM   31  N1  UNL     1      90.632  99.194 -44.052  1.00  0.00    -0.333 N 
HETATM   32  C4  UNL     1      91.038  97.867 -44.218  1.00  0.00     0.329 C 
HETATM   33  N2  UNL     1      91.384  97.370 -45.527  1.00  0.00    -0.040 NA
HETATM   34  O2  UNL     1      91.098  97.113 -43.215  1.00  0.00    -0.251 OA
ATOM     35  H1  UNL     1      90.578  99.818 -44.856  1.00  0.00     0.164 HD
ENDBRANCH  27  31
ENDBRANCH   1  27
BRANCH  16  36
HETATM   36  N6  UNL     1      92.377  98.628 -40.977  1.00  0.00    -0.345 N 
ATOM     37  H62 UNL     1      91.649  98.411 -41.657  1.00  0.00     0.176 HD
ATOM     38  H61 UNL     1      92.938  97.825 -40.689  1.00  0.00     0.176 HD
ENDBRANCH  16  36
TORSDOF 8
ENDMDL
MODEL 3
REMARK VINA RESULT: -5.416177776     13.739     17.270
REMARK  8 active torsions:
REMARK  status: ('A' for Active; 'I' for Inactive)
REMARK    1  A    between atoms: C2_2  and  C3_4 
REMARK    2  A    between atoms: C3_4  and  N1_5 
REMARK    3  A    between atoms: C3_4  and  C5_10 
REMARK       I    between atoms: N1_5  and  C4_7 
REMARK    4  A    between atoms: C16_22  and  C18_24 
REMARK    5  A    between atoms: C18_24  and  C19_25 
REMARK    6  A    between atoms: C19_25  and  N4_26 
REMARK    7  A    between atoms: C19_25  and  C20_30 
REMARK    8  A    between atoms: N5_34  and  N6_36 
ROOT
HETATM    1  C5  UNL     1      91.108 100.986 -42.295  1.00  0.00     0.072 C 
HETATM    2  C6  UNL     1      92.185 101.435 -43.325  1.00  0.00     0.048 C 
HETATM    3  C7  UNL     1      92.280 102.889 -42.861  1.00  0.00    -0.067 C 
HETATM    4  C8  UNL     1      91.634 103.624 -43.733  1.00  0.00    -0.018 C 
HETATM    5  C9  UNL     1      91.369 105.073 -43.833  1.00  0.00     0.072 C 
HETATM    6  C10 UNL     1      91.627 105.795 -42.586  1.00  0.00     0.068 C 
HETATM    7  N3  UNL     1      92.482 105.563 -41.711  1.00  0.00    -0.361 N 
HETATM    8  C11 UNL     1      93.330 105.563 -40.562  1.00  0.00     0.091 A 
HETATM    9  C12 UNL     1      93.437 104.540 -41.540  1.00  0.00     0.143 A 
HETATM   10  C13 UNL     1      92.985 103.181 -41.572  1.00  0.00     0.034 C 
HETATM   11  C14 UNL     1      94.332 102.384 -41.823  1.00  0.00     0.028 C 
HETATM   12  C15 UNL     1      92.202 102.452 -40.563  1.00  0.00    -0.013 C 
HETATM   13  C16 UNL     1      92.181 102.607 -39.130  1.00  0.00    -0.054 C 
HETATM   14  C17 UNL     1      93.437 102.550 -38.354  1.00  0.00     0.048 C 
HETATM   15  C23 UNL     1      91.948 101.050 -41.069  1.00  0.00     0.040 C 
HETATM   16  N5  UNL     1      92.447 100.018 -40.561  1.00  0.00    -0.310 N 
ATOM     17  H5  UNL     1      92.995 100.210 -39.723  1.00  0.00     0.186 HD
ENDROOT
BRANCH  13  18
HETATM   18  C18 UNL     1      91.004 103.329 -38.542  1.00  0.00     0.013 C 
BRANCH  18  19
HETATM   19  C19 UNL     1      90.629 104.671 -38.959  1.00  0.00     0.210 C 
BRANCH  19  20
HETATM   20  N4  UNL     1      90.672 105.489 -37.684  1.00  0.00    -0.071 N 
ATOM     21  H43 UNL     1      89.809 105.462 -37.142  1.00  0.00     0.275 HD
ATOM     22  H42 UNL     1      91.273 105.098 -36.958  1.00  0.00     0.275 HD
ATOM     23  H41 UNL     1      90.943 106.424 -37.990  1.00  0.00     0.275 HD
ENDBRANCH  19  20
BRANCH  19  24
HETATM   24  C20 UNL     1      89.248 104.953 -39.452  1.00  0.00     0.011 C 
HETATM   25  C21 UNL     1      89.108 104.180 -40.805  1.00  0.00     0.012 C 
HETATM   26  C22 UNL     1      89.069 106.409 -39.854  1.00  0.00     0.012 C 
ENDBRANCH  19  24
ENDBRANCH  18  19
ENDBRANCH  13  18
BRANCH   1  27
HETATM   27  C3  UNL     1      90.392  99.796 -42.673  1.00  0.00     0.165 C 
BRANCH  27  28
HETATM   28  C2  UNL     1      88.918  99.936 -42.691  1.00  0.00     0.146 C 
HETATM   29  C1  UNL     1      88.186 101.204 -42.845  1.00  0.00     0.093 C 
HETATM   30  O1  UNL     1      88.204  98.921 -42.574  1.00  0.00    -0.296 OA
ENDBRANCH  27  28
BRANCH  27  31
HETATM   31  N1  UNL     1      90.742  99.308 -44.018  1.00  0.00    -0.333 N 
HETATM   32  C4  UNL     1      91.117  97.973 -44.193  1.00  0.00     0.329 C 
HETATM   33  N2  UNL     1      91.463  97.479 -45.503  1.00  0.00    -0.040 NA
HETATM   34  O2  UNL     1      91.150  97.209 -43.197  1.00  0.00    -0.251 OA
ATOM     35  H1  UNL     1      90.711  99.941 -44.817  1.00  0.00     0.164 HD
ENDBRANCH  27  31
ENDBRANCH   1  27
BRANCH  16  36
HETATM   36  N6  UNL     1      92.416  98.689 -40.887  1.00  0.00    -0.345 N 
ATOM     37  H62 UNL     1      93.154  98.446 -41.548  1.00  0.00     0.176 HD
ATOM     38  H61 UNL     1      91.822  97.906 -40.614  1.00  0.00     0.176 HD
ENDBRANCH  16  36
TORSDOF 8
ENDMDL
MODEL 4
REMARK VINA RESULT: -5.306696496     13.340     16.102
REMARK  8 active torsions:
REMARK  status: ('A' for Active; 'I' for Inactive)
REMARK    1  A    between atoms: C2_2  and  C3_4 
REMARK    2  A    between atoms: C3_4  and  N1_5 
REMARK    3  A    between atoms: C3_4  and  C5_10 
REMARK       I    between atoms: N1_5  and  C4_7 
REMARK    4  A    between atoms: C16_22  and  C18_24 
REMARK    5  A    between atoms: C18_24  and  C19_25 
REMARK    6  A    between atoms: C19_25  and  N4_26 
REMARK    7  A    between atoms: C19_25  and  C20_30 
REMARK    8  A    between atoms: N5_34  and  N6_36 
ROOT
HETATM    1  C5  UNL     1      91.177 101.489 -42.420  1.00  0.00     0.072 C 
HETATM    2  C6  UNL     1      89.673 101.475 -42.017  1.00  0.00     0.048 C 
HETATM    3  C7  UNL     1      89.123 101.117 -43.398  1.00  0.00    -0.067 C 
HETATM    4  C8  UNL     1      88.621 102.210 -43.918  1.00  0.00    -0.018 C 
HETATM    5  C9  UNL     1      87.961 102.504 -45.207  1.00  0.00     0.072 C 
HETATM    6  C10 UNL     1      88.157 101.456 -46.209  1.00  0.00     0.068 C 
HETATM    7  N3  UNL     1      88.268 100.227 -46.042  1.00  0.00    -0.361 N 
HETATM    8  C11 UNL     1      88.423  98.814 -46.182  1.00  0.00     0.091 A 
HETATM    9  C12 UNL     1      88.320  99.407 -44.897  1.00  0.00     0.143 A 
HETATM   10  C13 UNL     1      89.295  99.712 -43.891  1.00  0.00     0.034 C 
HETATM   11  C14 UNL     1      88.739  98.923 -42.633  1.00  0.00     0.028 C 
HETATM   12  C15 UNL     1      90.753  99.527 -43.941  1.00  0.00    -0.013 C 
HETATM   13  C16 UNL     1      91.526  98.527 -44.634  1.00  0.00    -0.054 C 
HETATM   14  C17 UNL     1      91.241  97.090 -44.435  1.00  0.00     0.048 C 
HETATM   15  C23 UNL     1      91.348 100.028 -42.646  1.00  0.00     0.040 C 
HETATM   16  N5  UNL     1      91.884  99.290 -41.786  1.00  0.00    -0.310 N 
ATOM     17  H5  UNL     1      91.939  98.314 -42.076  1.00  0.00     0.186 HD
ENDROOT
BRANCH  13  18
HETATM   18  C18 UNL     1      92.216  98.955 -45.896  1.00  0.00     0.013 C 
BRANCH  18  19
HETATM   19  C19 UNL     1      91.877 100.191 -46.584  1.00  0.00     0.210 C 
BRANCH  19  20
HETATM   20  N4  UNL     1      92.150  99.897 -48.046  1.00  0.00    -0.071 N 
ATOM     21  H43 UNL     1      93.057 100.226 -48.375  1.00  0.00     0.275 HD
ATOM     22  H42 UNL     1      92.306  98.910 -48.251  1.00  0.00     0.275 HD
ATOM     23  H41 UNL     1      91.356 100.305 -48.540  1.00  0.00     0.275 HD
ENDBRANCH  19  20
BRANCH  19  24
HETATM   24  C20 UNL     1      92.689 101.425 -46.367  1.00  0.00     0.011 C 
HETATM   25  C21 UNL     1      91.669 102.555 -46.010  1.00  0.00     0.012 C 
HETATM   26  C22 UNL     1      93.334 101.920 -47.653  1.00  0.00     0.012 C 
ENDBRANCH  19  24
ENDBRANCH  18  19
ENDBRANCH  13  18
BRANCH   1  27
HETATM   27  C3  UNL     1      92.021 102.229 -41.519  1.00  0.00     0.165 C 
BRANCH  27  28
HETATM   28  C2  UNL     1      92.761 103.350 -42.141  1.00  0.00     0.146 C 
HETATM   29  C1  UNL     1      92.149 104.563 -42.707  1.00  0.00     0.093 C 
HETATM   30  O1  UNL     1      94.005 103.304 -42.204  1.00  0.00    -0.296 OA
ENDBRANCH  27  28
BRANCH  27  31
HETATM   31  N1  UNL     1      91.284 102.838 -40.399  1.00  0.00    -0.333 N 
HETATM   32  C4  UNL     1      91.789 102.730 -39.100  1.00  0.00     0.329 C 
HETATM   33  N2  UNL     1      91.080 103.321 -37.991  1.00  0.00    -0.040 NA
HETATM   34  O2  UNL     1      92.866 102.114 -38.908  1.00  0.00    -0.251 OA
ATOM     35  H1  UNL     1      90.410 103.335 -40.569  1.00  0.00     0.164 HD
ENDBRANCH  27  31
ENDBRANCH   1  27
BRANCH  16  36
HETATM   36  N6  UNL     1      92.410  99.509 -40.541  1.00  0.00    -0.345 N 
ATOM     37  H62 UNL     1      93.405  99.727 -40.586  1.00  0.00     0.176 HD
ATOM     38  H61 UNL     1      92.023  99.499 -39.597  1.00  0.00     0.176 HD
ENDBRANCH  16  36
TORSDOF 8
ENDMDL
MODEL 5
REMARK VINA RESULT: -5.300528228     12.059     14.853
REMARK  8 active torsions:
REMARK  status: ('A' for Active; 'I' for Inactive)
REMARK    1  A    between atoms: C2_2  and  C3_4 
REMARK    2  A    between atoms: C3_4  and  N1_5 
REMARK    3  A    between atoms: C3_4  and  C5_10 
REMARK       I    between atoms: N1_5  and  C4_7 
REMARK    4  A    between atoms: C16_22  and  C18_24 
REMARK    5  A    between atoms: C18_24  and  C19_25 
REMARK    6  A    between atoms: C19_25  and  N4_26 
REMARK    7  A    between atoms: C19_25  and  C20_30 
REMARK    8  A    between atoms: N5_34  and  N6_36 
ROOT
HETATM    1  C5  UNL     1      89.804  98.241 -45.330  1.00  0.00     0.072 C 
HETATM    2  C6  UNL     1      89.005  97.392 -46.363  1.00  0.00     0.048 C 
HETATM    3  C7  UNL     1      87.655  98.074 -46.148  1.00  0.00    -0.067 C 
HETATM    4  C8  UNL     1      86.915  97.267 -45.427  1.00  0.00    -0.018 C 
HETATM    5  C9  UNL     1      85.540  97.360 -44.895  1.00  0.00     0.072 C 
HETATM    6  C10 UNL     1      84.998  98.719 -44.931  1.00  0.00     0.068 C 
HETATM    7  N3  UNL     1      85.213  99.624 -45.760  1.00  0.00    -0.361 N 
HETATM    8  C11 UNL     1      85.248 100.833 -46.519  1.00  0.00     0.091 A 
HETATM    9  C12 UNL     1      86.060  99.728 -46.881  1.00  0.00     0.143 A 
HETATM   10  C13 UNL     1      87.455  99.452 -46.702  1.00  0.00     0.034 C 
HETATM   11  C14 UNL     1      87.945  99.209 -48.190  1.00  0.00     0.028 C 
HETATM   12  C15 UNL     1      88.469 100.265 -46.013  1.00  0.00    -0.013 C 
HETATM   13  C16 UNL     1      88.556 101.697 -45.874  1.00  0.00    -0.054 C 
HETATM   14  C17 UNL     1      88.512 102.568 -47.067  1.00  0.00     0.048 C 
HETATM   15  C23 UNL     1      89.791  99.534 -46.065  1.00  0.00     0.040 C 
HETATM   16  N5  UNL     1      90.785  99.926 -46.721  1.00  0.00    -0.310 N 
ATOM     17  H5  UNL     1      90.637 100.830 -47.169  1.00  0.00     0.186 HD
ENDROOT
BRANCH  13  18
HETATM   18  C18 UNL     1      88.165 102.276 -44.546  1.00  0.00     0.013 C 
BRANCH  18  19
HETATM   19  C19 UNL     1      87.430 101.509 -43.551  1.00  0.00     0.210 C 
BRANCH  19  20
HETATM   20  N4  UNL     1      86.610 102.545 -42.807  1.00  0.00    -0.071 N 
ATOM     21  H43 UNL     1      85.935 103.039 -43.390  1.00  0.00     0.275 HD
ATOM     22  H42 UNL     1      85.929 102.150 -42.158  1.00  0.00     0.275 HD
ATOM     23  H41 UNL     1      87.303 103.150 -42.367  1.00  0.00     0.275 HD
ENDBRANCH  19  20
BRANCH  19  24
HETATM   24  C20 UNL     1      88.150 100.833 -42.433  1.00  0.00     0.011 C 
HETATM   25  C21 UNL     1      89.656 101.221 -42.592  1.00  0.00     0.012 C 
HETATM   26  C22 UNL     1      88.155  99.319 -42.587  1.00  0.00     0.012 C 
ENDBRANCH  19  24
ENDBRANCH  18  19
ENDBRANCH  13  18
BRANCH   1  27
HETATM   27  C3  UNL     1      91.025  97.626 -44.882  1.00  0.00     0.165 C 
BRANCH  27  28
HETATM   28  C2  UNL     1      91.740  98.366 -43.818  1.00  0.00     0.146 C 
HETATM   29  C1  UNL     1      91.658  98.075 -42.377  1.00  0.00     0.093 C 
HETATM   30  O1  UNL     1      92.486  99.316 -44.126  1.00  0.00    -0.296 OA
ENDBRANCH  27  28
BRANCH  27  31
HETATM   31  N1  UNL     1      90.829  96.272 -44.335  1.00  0.00    -0.333 N 
HETATM   32  C4  UNL     1      91.416  95.177 -44.974  1.00  0.00     0.329 C 
HETATM   33  N2  UNL     1      91.235  93.845 -44.452  1.00  0.00    -0.040 NA
HETATM   34  O2  UNL     1      92.103  95.365 -46.009  1.00  0.00    -0.251 OA
ATOM     35  H1  UNL     1      90.269  96.135 -43.494  1.00  0.00     0.164 HD
ENDBRANCH  27  31
ENDBRANCH   1  27
BRANCH  16  36
HETATM   36  N6  UNL     1      92.026  99.403 -46.967  1.00  0.00    -0.345 N 
ATOM     37  H62 UNL     1      92.154  98.502 -46.506  1.00  0.00     0.176 HD
ATOM     38  H61 UNL     1      92.834  99.720 -47.504  1.00  0.00     0.176 HD
ENDBRANCH  16  36
TORSDOF 8
ENDMDL
