MODEL 1
REMARK VINA RESULT: -6.806592139      0.000      0.000
REMARK  7 active torsions:
REMARK  status: ('A' for Active; 'I' for Inactive)
REMARK    1  A    between atoms: N1_2  and  C2_3 
REMARK    2  A    between atoms: C2_3  and  C3_4 
REMARK       I    between atoms: C3_4  and  N2_6 
REMARK    3  A    between atoms: N2_6  and  C4_8 
REMARK    4  A    between atoms: C4_8  and  C5_9 
REMARK    5  A    between atoms: C5_9  and  C6_10 
REMARK       I    between atoms: C6_10  and  N3_12 
REMARK    6  A    between atoms: N3_12  and  C7_14 
REMARK    7  A    between atoms: C7_14  and  C8_15 
ROOT
HETATM    1  C3  UNL     1      90.922  95.634 -45.214  1.00  0.00     0.244 C 
HETATM    2  O1  UNL     1      90.344  96.096 -46.219  1.00  0.00    -0.272 OA
HETATM    3  N2  UNL     1      91.450  94.314 -45.279  1.00  0.00    -0.359 N 
ATOM      4  H2  UNL     1      91.916  93.924 -44.460  1.00  0.00     0.162 HD
ENDROOT
BRANCH   3   5
HETATM    5  C4  UNL     1      91.344  93.515 -46.468  1.00  0.00     0.132 C 
BRANCH   5   6
HETATM    6  C5  UNL     1      91.787  92.111 -46.218  1.00  0.00     0.122 C 
BRANCH   6   7
HETATM    7  C6  UNL     1      91.940  91.378 -47.546  1.00  0.00     0.222 C 
HETATM    8  O2  UNL     1      92.842  90.546 -47.577  1.00  0.00    -0.273 OA
HETATM    9  N3  UNL     1      91.084  91.689 -48.585  1.00  0.00    -0.340 N 
ATOM     10  H3  UNL     1      90.383  92.395 -48.359  1.00  0.00     0.167 HD
BRANCH   9  11
HETATM   11  C7  UNL     1      91.015  91.202 -49.889  1.00  0.00     0.073 C 
BRANCH  11  12
HETATM   12  C8  UNL     1      90.162  91.811 -50.938  1.00  0.00    -0.007 C 
HETATM   13  C9  UNL     1      91.001  92.508 -52.013  1.00  0.00     0.019 C 
HETATM   14  C10 UNL     1      90.056  93.208 -52.948  1.00  0.00    -0.013 C 
HETATM   15  C11 UNL     1      89.320  94.286 -52.176  1.00  0.00     0.009 C 
HETATM   16  C15 UNL     1      89.093  92.281 -53.619  1.00  0.00     0.009 C 
HETATM   17  C12 UNL     1      88.475  93.600 -51.152  1.00  0.00    -0.013 C 
HETATM   18  C13 UNL     1      87.524  92.575 -51.730  1.00  0.00     0.009 C 
HETATM   19  C17 UNL     1      89.354  92.904 -50.183  1.00  0.00     0.019 C 
HETATM   20  C14 UNL     1      88.279  91.592 -52.545  1.00  0.00    -0.013 C 
HETATM   21  C16 UNL     1      89.274  90.851 -51.634  1.00  0.00     0.019 C 
ENDBRANCH  11  12
ENDBRANCH   9  11
ENDBRANCH   6   7
ENDBRANCH   5   6
ENDBRANCH   3   5
BRANCH   1  22
HETATM   22  C2  UNL     1      91.067  96.418 -43.970  1.00  0.00     0.351 C 
BRANCH  22  23
HETATM   23  N1  UNL     1      91.162  97.853 -44.154  1.00  0.00     0.018 N 
HETATM   24  C1  UNL     1      92.226  98.290 -45.043  1.00  0.00     0.286 C 
HETATM   25  C18 UNL     1      91.105  98.491 -42.890  1.00  0.00     0.280 C 
HETATM   26  N4  UNL     1      91.991  98.751 -41.957  1.00  0.00    -0.365 N 
HETATM   27  N5  UNL     1      89.736  98.724 -43.072  1.00  0.00    -0.318 N 
ATOM     28  H42 UNL     1      92.987  98.582 -41.825  1.00  0.00     0.159 HD
ATOM     29  H41 UNL     1      91.950  99.211 -41.047  1.00  0.00     0.159 HD
HETATM   30  C19 UNL     1      88.420  99.101 -42.666  1.00  0.00     0.128 C 
HETATM   31  C23 UNL     1      89.871  98.365 -44.471  1.00  0.00     0.303 C 
HETATM   32  C20 UNL     1      87.632  99.726 -43.792  1.00  0.00     0.020 C 
HETATM   33  C21 UNL     1      88.403 100.241 -44.939  1.00  0.00     0.006 C 
HETATM   34  C22 UNL     1      89.762  99.690 -45.188  1.00  0.00     0.056 C 
ENDBRANCH  22  23
ENDBRANCH   1  22
TORSDOF 7
ENDMDL
MODEL 2
REMARK VINA RESULT: -6.642410545      5.085      7.472
REMARK  7 active torsions:
REMARK  status: ('A' for Active; 'I' for Inactive)
REMARK    1  A    between atoms: N1_2  and  C2_3 
REMARK    2  A    between atoms: C2_3  and  C3_4 
REMARK       I    between atoms: C3_4  and  N2_6 
REMARK    3  A    between atoms: N2_6  and  C4_8 
REMARK    4  A    between atoms: C4_8  and  C5_9 
REMARK    5  A    between atoms: C5_9  and  C6_10 
REMARK       I    between atoms: C6_10  and  N3_12 
REMARK    6  A    between atoms: N3_12  and  C7_14 
REMARK    7  A    between atoms: C7_14  and  C8_15 
ROOT
HETATM    1  C3  UNL     1      91.801  98.251 -43.840  1.00  0.00     0.244 C 
HETATM    2  O1  UNL     1      92.658  98.568 -44.688  1.00  0.00    -0.272 OA
HETATM    3  N2  UNL     1      91.000  97.098 -44.079  1.00  0.00    -0.359 N 
ATOM      4  H2  UNL     1      90.291  96.836 -43.394  1.00  0.00     0.162 HD
ENDROOT
BRANCH   3   5
HETATM    5  C4  UNL     1      91.165  96.295 -45.257  1.00  0.00     0.132 C 
BRANCH   5   6
HETATM    6  C5  UNL     1      89.878  96.158 -46.003  1.00  0.00     0.122 C 
BRANCH   6   7
HETATM    7  C6  UNL     1      89.281  97.538 -46.251  1.00  0.00     0.222 C 
HETATM    8  O2  UNL     1      90.014  98.319 -46.850  1.00  0.00    -0.273 OA
HETATM    9  N3  UNL     1      88.002  97.804 -45.802  1.00  0.00    -0.340 N 
ATOM     10  H3  UNL     1      87.542  97.018 -45.343  1.00  0.00     0.167 HD
BRANCH   9  11
HETATM   11  C7  UNL     1      87.232  98.965 -45.870  1.00  0.00     0.073 C 
BRANCH  11  12
HETATM   12  C8  UNL     1      85.774  98.988 -45.600  1.00  0.00    -0.007 C 
HETATM   13  C9  UNL     1      85.293 100.391 -45.221  1.00  0.00     0.019 C 
HETATM   14  C10 UNL     1      83.845 100.288 -44.834  1.00  0.00    -0.013 C 
HETATM   15  C11 UNL     1      83.734  99.419 -43.596  1.00  0.00     0.009 C 
HETATM   16  C15 UNL     1      82.975  99.766 -45.932  1.00  0.00     0.009 C 
HETATM   17  C12 UNL     1      84.170  98.043 -43.980  1.00  0.00    -0.013 C 
HETATM   18  C13 UNL     1      83.402  97.460 -45.146  1.00  0.00     0.009 C 
HETATM   19  C17 UNL     1      85.604  98.074 -44.354  1.00  0.00     0.019 C 
HETATM   20  C14 UNL     1      83.469  98.383 -46.304  1.00  0.00    -0.013 C 
HETATM   21  C16 UNL     1      84.938  98.534 -46.736  1.00  0.00     0.019 C 
ENDBRANCH  11  12
ENDBRANCH   9  11
ENDBRANCH   6   7
ENDBRANCH   5   6
ENDBRANCH   3   5
BRANCH   1  22
HETATM   22  C2  UNL     1      91.599  99.037 -42.604  1.00  0.00     0.351 C 
BRANCH  22  23
HETATM   23  N1  UNL     1      91.176 100.408 -42.809  1.00  0.00     0.018 N 
HETATM   24  C1  UNL     1      90.101 100.583 -43.772  1.00  0.00     0.286 C 
HETATM   25  C18 UNL     1      92.318 101.226 -42.996  1.00  0.00     0.280 C 
HETATM   26  N4  UNL     1      93.077 101.514 -44.028  1.00  0.00    -0.365 N 
HETATM   27  N5  UNL     1      92.276 101.589 -41.645  1.00  0.00    -0.318 N 
ATOM     28  H42 UNL     1      93.108 101.249 -45.012  1.00  0.00     0.159 HD
ATOM     29  H41 UNL     1      93.899 102.103 -44.163  1.00  0.00     0.159 HD
HETATM   30  C19 UNL     1      92.780 102.174 -40.443  1.00  0.00     0.128 C 
HETATM   31  C23 UNL     1      90.948 101.016 -41.542  1.00  0.00     0.303 C 
HETATM   32  C20 UNL     1      91.678 102.716 -39.566  1.00  0.00     0.020 C 
HETATM   33  C21 UNL     1      90.374 102.964 -40.210  1.00  0.00     0.006 C 
HETATM   34  C22 UNL     1      90.047 102.226 -41.459  1.00  0.00     0.056 C 
ENDBRANCH  22  23
ENDBRANCH   1  22
TORSDOF 7
ENDMDL
MODEL 3
REMARK VINA RESULT: -6.576061546      4.692     10.911
REMARK  7 active torsions:
REMARK  status: ('A' for Active; 'I' for Inactive)
REMARK    1  A    between atoms: N1_2  and  C2_3 
REMARK    2  A    between atoms: C2_3  and  C3_4 
REMARK       I    between atoms: C3_4  and  N2_6 
REMARK    3  A    between atoms: N2_6  and  C4_8 
REMARK    4  A    between atoms: C4_8  and  C5_9 
REMARK    5  A    between atoms: C5_9  and  C6_10 
REMARK       I    between atoms: C6_10  and  N3_12 
REMARK    6  A    between atoms: N3_12  and  C7_14 
REMARK    7  A    between atoms: C7_14  and  C8_15 
ROOT
HETATM    1  C3  UNL     1      92.616 100.005 -45.784  1.00  0.00     0.244 C 
HETATM    2  O1  UNL     1      92.678  99.508 -46.926  1.00  0.00    -0.272 OA
HETATM    3  N2  UNL     1      92.729 101.417 -45.649  1.00  0.00    -0.359 N 
ATOM      4  H2  UNL     1      92.689 101.832 -44.718  1.00  0.00     0.162 HD
ENDROOT
BRANCH   3   5
HETATM    5  C4  UNL     1      92.899 102.274 -46.788  1.00  0.00     0.132 C 
BRANCH   5   6
HETATM    6  C5  UNL     1      93.531 103.570 -46.402  1.00  0.00     0.122 C 
BRANCH   6   7
HETATM    7  C6  UNL     1      93.131 103.930 -44.976  1.00  0.00     0.222 C 
HETATM    8  O2  UNL     1      92.014 104.426 -44.861  1.00  0.00    -0.273 OA
HETATM    9  N3  UNL     1      94.020 103.682 -43.948  1.00  0.00    -0.340 N 
ATOM     10  H3  UNL     1      94.894 103.243 -44.240  1.00  0.00     0.167 HD
BRANCH   9  11
HETATM   11  C7  UNL     1      93.927 103.928 -42.579  1.00  0.00     0.073 C 
BRANCH  11  12
HETATM   12  C8  UNL     1      93.041 103.155 -41.675  1.00  0.00    -0.007 C 
HETATM   13  C9  UNL     1      91.784 103.946 -41.305  1.00  0.00     0.019 C 
HETATM   14  C10 UNL     1      91.023 103.145 -40.286  1.00  0.00    -0.013 C 
HETATM   15  C11 UNL     1      91.870 103.026 -39.034  1.00  0.00     0.009 C 
HETATM   16  C15 UNL     1      90.611 101.796 -40.782  1.00  0.00     0.009 C 
HETATM   17  C12 UNL     1      93.078 102.223 -39.390  1.00  0.00    -0.013 C 
HETATM   18  C13 UNL     1      92.760 100.868 -39.983  1.00  0.00     0.009 C 
HETATM   19  C17 UNL     1      93.884 102.972 -40.382  1.00  0.00     0.019 C 
HETATM   20  C14 UNL     1      91.863 101.030 -41.153  1.00  0.00    -0.013 C 
HETATM   21  C16 UNL     1      92.591 101.856 -42.228  1.00  0.00     0.019 C 
ENDBRANCH  11  12
ENDBRANCH   9  11
ENDBRANCH   6   7
ENDBRANCH   5   6
ENDBRANCH   3   5
BRANCH   1  22
HETATM   22  C2  UNL     1      92.430  99.168 -44.579  1.00  0.00     0.351 C 
BRANCH  22  23
HETATM   23  N1  UNL     1      91.090  98.650 -44.391  1.00  0.00     0.018 N 
HETATM   24  C1  UNL     1      90.060  99.659 -44.206  1.00  0.00     0.286 C 
HETATM   25  C18 UNL     1      91.123  97.610 -43.429  1.00  0.00     0.280 C 
HETATM   26  N4  UNL     1      91.107  97.578 -42.117  1.00  0.00    -0.365 N 
HETATM   27  N5  UNL     1      91.167  96.662 -44.458  1.00  0.00    -0.318 N 
ATOM     28  H42 UNL     1      91.075  98.269 -41.367  1.00  0.00     0.159 HD
ATOM     29  H41 UNL     1      91.130  96.829 -41.424  1.00  0.00     0.159 HD
HETATM   30  C19 UNL     1      91.339  95.357 -45.013  1.00  0.00     0.128 C 
HETATM   31  C23 UNL     1      90.815  97.696 -45.413  1.00  0.00     0.303 C 
HETATM   32  C20 UNL     1      90.482  95.139 -46.237  1.00  0.00     0.020 C 
HETATM   33  C21 UNL     1      89.339  96.053 -46.422  1.00  0.00     0.006 C 
HETATM   34  C22 UNL     1      89.378  97.384 -45.758  1.00  0.00     0.056 C 
ENDBRANCH  22  23
ENDBRANCH   1  22
TORSDOF 7
ENDMDL
MODEL 4
REMARK VINA RESULT: -6.563393281      5.547      9.783
REMARK  7 active torsions:
REMARK  status: ('A' for Active; 'I' for Inactive)
REMARK    1  A    between atoms: N1_2  and  C2_3 
REMARK    2  A    between atoms: C2_3  and  C3_4 
REMARK       I    between atoms: C3_4  and  N2_6 
REMARK    3  A    between atoms: N2_6  and  C4_8 
REMARK    4  A    between atoms: C4_8  and  C5_9 
REMARK    5  A    between atoms: C5_9  and  C6_10 
REMARK       I    between atoms: C6_10  and  N3_12 
REMARK    6  A    between atoms: N3_12  and  C7_14 
REMARK    7  A    between atoms: C7_14  and  C8_15 
ROOT
HETATM    1  C3  UNL     1      89.295  99.173 -48.118  1.00  0.00     0.244 C 
HETATM    2  O1  UNL     1      89.473  98.506 -49.156  1.00  0.00    -0.272 OA
HETATM    3  N2  UNL     1      90.276 100.138 -47.751  1.00  0.00    -0.359 N 
ATOM      4  H2  UNL     1      90.143 100.682 -46.899  1.00  0.00     0.162 HD
ENDROOT
BRANCH   3   5
HETATM    5  C4  UNL     1      91.447 100.365 -48.550  1.00  0.00     0.132 C 
BRANCH   5   6
HETATM    6  C5  UNL     1      92.604 100.787 -47.705  1.00  0.00     0.122 C 
BRANCH   6   7
HETATM    7  C6  UNL     1      92.539 100.082 -46.356  1.00  0.00     0.222 C 
HETATM    8  O2  UNL     1      92.400  98.863 -46.415  1.00  0.00    -0.273 OA
HETATM    9  N3  UNL     1      92.637 100.834 -45.201  1.00  0.00    -0.340 N 
ATOM     10  H3  UNL     1      92.770 101.833 -45.357  1.00  0.00     0.167 HD
BRANCH   9  11
HETATM   11  C7  UNL     1      92.584 100.459 -43.859  1.00  0.00     0.073 C 
BRANCH  11  12
HETATM   12  C8  UNL     1      92.316 101.418 -42.760  1.00  0.00    -0.007 C 
HETATM   13  C9  UNL     1      93.547 102.271 -42.443  1.00  0.00     0.019 C 
HETATM   14  C10 UNL     1      93.226 103.106 -41.237  1.00  0.00    -0.013 C 
HETATM   15  C11 UNL     1      92.996 102.184 -40.056  1.00  0.00     0.009 C 
HETATM   16  C15 UNL     1      92.055 104.014 -41.440  1.00  0.00     0.009 C 
HETATM   17  C12 UNL     1      91.773 101.378 -40.353  1.00  0.00    -0.013 C 
HETATM   18  C13 UNL     1      90.549 102.213 -40.659  1.00  0.00     0.009 C 
HETATM   19  C17 UNL     1      92.035 100.514 -41.527  1.00  0.00     0.019 C 
HETATM   20  C14 UNL     1      90.848 103.158 -41.763  1.00  0.00    -0.013 C 
HETATM   21  C16 UNL     1      91.196 102.351 -43.026  1.00  0.00     0.019 C 
ENDBRANCH  11  12
ENDBRANCH   9  11
ENDBRANCH   6   7
ENDBRANCH   5   6
ENDBRANCH   3   5
BRANCH   1  22
HETATM   22  C2  UNL     1      88.101  98.986 -47.267  1.00  0.00     0.351 C 
BRANCH  22  23
HETATM   23  N1  UNL     1      88.315  98.197 -46.070  1.00  0.00     0.018 N 
HETATM   24  C1  UNL     1      89.276  97.116 -46.210  1.00  0.00     0.286 C 
HETATM   25  C18 UNL     1      87.061  97.847 -45.512  1.00  0.00     0.280 C 
HETATM   26  N4  UNL     1      86.190  96.893 -45.746  1.00  0.00    -0.365 N 
HETATM   27  N5  UNL     1      87.160  98.923 -44.621  1.00  0.00    -0.318 N 
ATOM     28  H42 UNL     1      86.118  96.110 -46.395  1.00  0.00     0.159 HD
ATOM     29  H41 UNL     1      85.287  96.641 -45.344  1.00  0.00     0.159 HD
HETATM   30  C19 UNL     1      86.678  99.844 -43.641  1.00  0.00     0.128 C 
HETATM   31  C23 UNL     1      88.558  99.075 -44.975  1.00  0.00     0.303 C 
HETATM   32  C20 UNL     1      87.762 100.281 -42.686  1.00  0.00     0.020 C 
HETATM   33  C21 UNL     1      88.964  99.430 -42.607  1.00  0.00     0.006 C 
HETATM   34  C22 UNL     1      89.289  98.550 -43.762  1.00  0.00     0.056 C 
ENDBRANCH  22  23
ENDBRANCH   1  22
TORSDOF 7
ENDMDL
MODEL 5
REMARK VINA RESULT: -6.521785414      4.868      7.292
REMARK  7 active torsions:
REMARK  status: ('A' for Active; 'I' for Inactive)
REMARK    1  A    between atoms: N1_2  and  C2_3 
REMARK    2  A    between atoms: C2_3  and  C3_4 
REMARK       I    between atoms: C3_4  and  N2_6 
REMARK    3  A    between atoms: N2_6  and  C4_8 
REMARK    4  A    between atoms: C4_8  and  C5_9 
REMARK    5  A    between atoms: C5_9  and  C6_10 
REMARK       I    between atoms: C6_10  and  N3_12 
REMARK    6  A    between atoms: N3_12  and  C7_14 
REMARK    7  A    between atoms: C7_14  and  C8_15 
ROOT
HETATM    1  C3  UNL     1      91.959  98.136 -44.435  1.00  0.00     0.244 C 
HETATM    2  O1  UNL     1      91.436  97.817 -43.349  1.00  0.00    -0.272 OA
HETATM    3  N2  UNL     1      91.903  97.211 -45.515  1.00  0.00    -0.359 N 
ATOM      4  H2  UNL     1      92.336  97.460 -46.405  1.00  0.00     0.162 HD
ENDROOT
BRANCH   3   5
HETATM    5  C4  UNL     1      91.255  95.936 -45.386  1.00  0.00     0.132 C 
BRANCH   5   6
HETATM    6  C5  UNL     1      90.010  95.877 -46.208  1.00  0.00     0.122 C 
BRANCH   6   7
HETATM    7  C6  UNL     1      89.294  97.221 -46.152  1.00  0.00     0.222 C 
HETATM    8  O2  UNL     1      89.396  97.905 -47.166  1.00  0.00    -0.273 OA
HETATM    9  N3  UNL     1      88.604  97.564 -45.005  1.00  0.00    -0.340 N 
ATOM     10  H3  UNL     1      88.616  96.853 -44.274  1.00  0.00     0.167 HD
BRANCH   9  11
HETATM   11  C7  UNL     1      87.893  98.718 -44.677  1.00  0.00     0.073 C 
BRANCH  11  12
HETATM   12  C8  UNL     1      86.419  98.827 -44.809  1.00  0.00    -0.007 C 
HETATM   13  C9  UNL     1      85.993  98.966 -46.273  1.00  0.00     0.019 C 
HETATM   14  C10 UNL     1      84.511  99.208 -46.297  1.00  0.00    -0.013 C 
HETATM   15  C11 UNL     1      84.225 100.531 -45.613  1.00  0.00     0.009 C 
HETATM   16  C15 UNL     1      83.721  98.103 -45.671  1.00  0.00     0.009 C 
HETATM   17  C12 UNL     1      84.609 100.381 -44.177  1.00  0.00    -0.013 C 
HETATM   18  C13 UNL     1      83.922  99.228 -43.478  1.00  0.00     0.009 C 
HETATM   19  C17 UNL     1      86.071 100.158 -44.085  1.00  0.00     0.019 C 
HETATM   20  C14 UNL     1      84.160  97.971 -44.229  1.00  0.00    -0.013 C 
HETATM   21  C16 UNL     1      85.671  97.680 -44.245  1.00  0.00     0.019 C 
ENDBRANCH  11  12
ENDBRANCH   9  11
ENDBRANCH   6   7
ENDBRANCH   5   6
ENDBRANCH   3   5
BRANCH   1  22
HETATM   22  C2  UNL     1      92.628  99.441 -44.624  1.00  0.00     0.351 C 
BRANCH  22  23
HETATM   23  N1  UNL     1      91.766 100.599 -44.496  1.00  0.00     0.018 N 
HETATM   24  C1  UNL     1      90.809 100.775 -45.576  1.00  0.00     0.286 C 
HETATM   25  C18 UNL     1      92.552 101.732 -44.169  1.00  0.00     0.280 C 
HETATM   26  N4  UNL     1      93.263 102.584 -44.870  1.00  0.00    -0.365 N 
HETATM   27  N5  UNL     1      92.239 101.555 -42.816  1.00  0.00    -0.318 N 
ATOM     28  H42 UNL     1      93.491 102.712 -45.856  1.00  0.00     0.159 HD
ATOM     29  H41 UNL     1      93.829 103.400 -44.635  1.00  0.00     0.159 HD
HETATM   30  C19 UNL     1      92.368 101.793 -41.413  1.00  0.00     0.128 C 
HETATM   31  C23 UNL     1      91.201 100.613 -43.189  1.00  0.00     0.303 C 
HETATM   32  C20 UNL     1      91.058 101.626 -40.683  1.00  0.00     0.020 C 
HETATM   33  C21 UNL     1      89.829 101.685 -41.496  1.00  0.00     0.006 C 
HETATM   34  C22 UNL     1      89.923 101.382 -42.950  1.00  0.00     0.056 C 
ENDBRANCH  22  23
ENDBRANCH   1  22
TORSDOF 7
ENDMDL
