MODEL 1
REMARK VINA RESULT: -6.155084268      0.000      0.000
REMARK  8 active torsions:
REMARK  status: ('A' for Active; 'I' for Inactive)
REMARK    1  A    between atoms: C2_2  and  C3_3 
REMARK    2  A    between atoms: C6_6  and  C7_7 
REMARK    3  A    between atoms: C7_7  and  C8_8 
REMARK       I    between atoms: C8_8  and  N1_10 
REMARK    4  A    between atoms: N1_10  and  C9_11 
REMARK    5  A    between atoms: N1_10  and  C11_13 
REMARK    6  A    between atoms: C11_13  and  C12_14 
REMARK    7  A    between atoms: C17_22  and  C18_23 
REMARK    8  A    between atoms: C19_24  and  C20_25 
REMARK       I    between atoms: C20_25  and  N3_27 
ROOT
HETATM    1  C3  UNL     1      89.267  98.420 -43.858  1.00  0.00    -0.013 A 
HETATM    2  C4  UNL     1      90.326  97.569 -43.922  1.00  0.00    -0.028 A 
HETATM    3  C5  UNL     1      91.213  97.351 -42.756  1.00  0.00     0.051 C 
HETATM    4  C6  UNL     1      90.607  96.878 -45.129  1.00  0.00     0.028 A 
HETATM    5  N2  UNL     1      89.824  97.070 -46.206  1.00  0.00    -0.326 N 
ATOM      6  H2  UNL     1      90.040  96.565 -47.065  1.00  0.00     0.169 HD
HETATM    7  C15 UNL     1      88.771  97.898 -46.195  1.00  0.00     0.256 A 
HETATM    8  O2  UNL     1      88.054  98.054 -47.249  1.00  0.00    -0.267 OA
HETATM    9  C16 UNL     1      88.486  98.573 -45.035  1.00  0.00     0.044 A 
HETATM   10  C17 UNL     1      87.387  99.488 -44.963  1.00  0.00     0.032 C 
ENDROOT
BRANCH   1  11
HETATM   11  C2  UNL     1      88.869  99.143 -42.673  1.00  0.00     0.003 C 
HETATM   12  C1  UNL     1      89.195 100.338 -42.269  1.00  0.00     0.012 C 
ENDBRANCH   1  11
BRANCH  10  13
HETATM   13  C18 UNL     1      86.142  99.322 -44.641  1.00  0.00     0.008 A 
HETATM   14  C19 UNL     1      85.302 100.373 -44.257  1.00  0.00     0.059 A 
HETATM   15  C22 UNL     1      84.047  99.883 -44.011  1.00  0.00     0.106 A 
HETATM   16  N4  UNL     1      84.085  98.568 -44.231  1.00  0.00    -0.365 N 
HETATM   17  C23 UNL     1      85.364  98.221 -44.614  1.00  0.00     0.033 A 
ATOM     18  H4  UNL     1      83.299  97.926 -44.132  1.00  0.00     0.165 HD
HETATM   19  C24 UNL     1      85.653  96.983 -44.889  1.00  0.00     0.044 C 
BRANCH  14  20
HETATM   20  C20 UNL     1      85.651 101.751 -44.097  1.00  0.00     0.253 C 
HETATM   21  O3  UNL     1      85.512 102.545 -45.059  1.00  0.00    -0.268 OA
HETATM   22  N3  UNL     1      86.148 102.248 -42.878  1.00  0.00    -0.361 N 
HETATM   23  C21 UNL     1      86.533 103.586 -42.563  1.00  0.00     0.149 C 
ATOM     24  H3  UNL     1      86.246 101.567 -42.125  1.00  0.00     0.162 HD
ENDBRANCH  14  20
ENDBRANCH  10  13
BRANCH   4  25
HETATM   25  C7  UNL     1      91.756  95.975 -45.198  1.00  0.00     0.160 C 
BRANCH  25  26
HETATM   26  C8  UNL     1      91.383  94.716 -45.895  1.00  0.00     0.225 C 
HETATM   27  O1  UNL     1      90.703  94.786 -46.954  1.00  0.00    -0.273 OA
HETATM   28  N1  UNL     1      91.751  93.427 -45.428  1.00  0.00    -0.352 N 
BRANCH  28  29
HETATM   29  C9  UNL     1      92.582  93.406 -44.261  1.00  0.00     0.121 C 
HETATM   30  C10 UNL     1      91.914  93.052 -42.970  1.00  0.00     0.026 C 
ENDBRANCH  28  29
BRANCH  28  31
HETATM   31  C11 UNL     1      91.318  92.277 -46.131  1.00  0.00     0.129 C 
BRANCH  31  32
HETATM   32  C12 UNL     1      91.971  91.841 -47.371  1.00  0.00    -0.005 C 
HETATM   33  C13 UNL     1      92.921  90.670 -47.274  1.00  0.00     0.011 C 
HETATM   34  C14 UNL     1      91.029  91.647 -48.563  1.00  0.00     0.011 C 
ENDBRANCH  31  32
ENDBRANCH  28  31
ENDBRANCH  25  26
ENDBRANCH   4  25
TORSDOF 8
ENDMDL
MODEL 2
REMARK VINA RESULT: -5.796084785      3.923      9.013
REMARK  8 active torsions:
REMARK  status: ('A' for Active; 'I' for Inactive)
REMARK    1  A    between atoms: C2_2  and  C3_3 
REMARK    2  A    between atoms: C6_6  and  C7_7 
REMARK    3  A    between atoms: C7_7  and  C8_8 
REMARK       I    between atoms: C8_8  and  N1_10 
REMARK    4  A    between atoms: N1_10  and  C9_11 
REMARK    5  A    between atoms: N1_10  and  C11_13 
REMARK    6  A    between atoms: C11_13  and  C12_14 
REMARK    7  A    between atoms: C17_22  and  C18_23 
REMARK    8  A    between atoms: C19_24  and  C20_25 
REMARK       I    between atoms: C20_25  and  N3_27 
ROOT
HETATM    1  C3  UNL     1      91.526  99.787 -43.635  1.00  0.00    -0.013 A 
HETATM    2  C4  UNL     1      91.686 100.987 -43.015  1.00  0.00    -0.028 A 
HETATM    3  C5  UNL     1      92.908 101.800 -43.210  1.00  0.00     0.051 C 
HETATM    4  C6  UNL     1      90.675 101.477 -42.149  1.00  0.00     0.028 A 
HETATM    5  N2  UNL     1      89.561 100.750 -41.944  1.00  0.00    -0.326 N 
ATOM      6  H2  UNL     1      88.844 101.117 -41.318  1.00  0.00     0.169 HD
HETATM    7  C15 UNL     1      89.357  99.563 -42.529  1.00  0.00     0.256 A 
HETATM    8  O2  UNL     1      88.279  98.901 -42.301  1.00  0.00    -0.267 OA
HETATM    9  C16 UNL     1      90.325  99.076 -43.371  1.00  0.00     0.044 A 
HETATM   10  C17 UNL     1      90.176  97.804 -44.012  1.00  0.00     0.032 C 
ENDROOT
BRANCH   1  11
HETATM   11  C2  UNL     1      92.471  99.213 -44.563  1.00  0.00     0.003 C 
HETATM   12  C1  UNL     1      92.640  99.435 -45.836  1.00  0.00     0.012 C 
ENDBRANCH   1  11
BRANCH  10  13
HETATM   13  C18 UNL     1      89.654  97.463 -45.149  1.00  0.00     0.008 A 
HETATM   14  C19 UNL     1      90.071  96.346 -45.880  1.00  0.00     0.059 A 
HETATM   15  C22 UNL     1      89.310  96.237 -47.014  1.00  0.00     0.106 A 
HETATM   16  N4  UNL     1      88.440  97.248 -47.005  1.00  0.00    -0.365 N 
HETATM   17  C23 UNL     1      88.648  98.001 -45.867  1.00  0.00     0.033 A 
ATOM     18  H4  UNL     1      87.737  97.434 -47.720  1.00  0.00     0.165 HD
HETATM   19  C24 UNL     1      87.914  99.049 -45.631  1.00  0.00     0.044 C 
BRANCH  14  20
HETATM   20  C20 UNL     1      91.135  95.445 -45.561  1.00  0.00     0.253 C 
HETATM   21  O3  UNL     1      92.322  95.770 -45.807  1.00  0.00    -0.268 OA
HETATM   22  N3  UNL     1      90.886  94.193 -44.968  1.00  0.00    -0.361 N 
HETATM   23  C21 UNL     1      91.833  93.194 -44.589  1.00  0.00     0.149 C 
ATOM     24  H3  UNL     1      89.907  93.971 -44.787  1.00  0.00     0.162 HD
ENDBRANCH  14  20
ENDBRANCH  10  13
BRANCH   4  25
HETATM   25  C7  UNL     1      90.858 102.760 -41.471  1.00  0.00     0.160 C 
BRANCH  25  26
HETATM   26  C8  UNL     1      91.007 102.554 -40.006  1.00  0.00     0.225 C 
HETATM   27  O1  UNL     1      91.471 101.458 -39.591  1.00  0.00    -0.273 OA
HETATM   28  N1  UNL     1      90.651 103.531 -39.040  1.00  0.00    -0.352 N 
BRANCH  28  29
HETATM   29  C9  UNL     1      90.197 104.784 -39.566  1.00  0.00     0.121 C 
HETATM   30  C10 UNL     1      88.756 105.121 -39.341  1.00  0.00     0.026 C 
ENDBRANCH  28  29
BRANCH  28  31
HETATM   31  C11 UNL     1      90.788 103.236 -37.662  1.00  0.00     0.129 C 
BRANCH  31  32
HETATM   32  C12 UNL     1      91.872 103.809 -36.856  1.00  0.00    -0.005 C 
HETATM   33  C13 UNL     1      91.759 103.673 -35.355  1.00  0.00     0.011 C 
HETATM   34  C14 UNL     1      93.285 103.424 -37.306  1.00  0.00     0.011 C 
ENDBRANCH  31  32
ENDBRANCH  28  31
ENDBRANCH  25  26
ENDBRANCH   4  25
TORSDOF 8
ENDMDL
MODEL 3
REMARK VINA RESULT: -5.688439065      3.107      8.702
REMARK  8 active torsions:
REMARK  status: ('A' for Active; 'I' for Inactive)
REMARK    1  A    between atoms: C2_2  and  C3_3 
REMARK    2  A    between atoms: C6_6  and  C7_7 
REMARK    3  A    between atoms: C7_7  and  C8_8 
REMARK       I    between atoms: C8_8  and  N1_10 
REMARK    4  A    between atoms: N1_10  and  C9_11 
REMARK    5  A    between atoms: N1_10  and  C11_13 
REMARK    6  A    between atoms: C11_13  and  C12_14 
REMARK    7  A    between atoms: C17_22  and  C18_23 
REMARK    8  A    between atoms: C19_24  and  C20_25 
REMARK       I    between atoms: C20_25  and  N3_27 
ROOT
HETATM    1  C3  UNL     1      89.753  98.901 -44.605  1.00  0.00    -0.013 A 
HETATM    2  C4  UNL     1      89.645 100.248 -44.451  1.00  0.00    -0.028 A 
HETATM    3  C5  UNL     1      88.325 100.908 -44.336  1.00  0.00     0.051 C 
HETATM    4  C6  UNL     1      90.813 101.052 -44.412  1.00  0.00     0.028 A 
HETATM    5  N2  UNL     1      92.025 100.477 -44.529  1.00  0.00    -0.326 N 
ATOM      6  H2  UNL     1      92.853 101.071 -44.498  1.00  0.00     0.169 HD
HETATM    7  C15 UNL     1      92.184  99.157 -44.684  1.00  0.00     0.256 A 
HETATM    8  O2  UNL     1      93.360  98.652 -44.796  1.00  0.00    -0.267 OA
HETATM    9  C16 UNL     1      91.064  98.365 -44.723  1.00  0.00     0.044 A 
HETATM   10  C17 UNL     1      91.166  96.949 -44.907  1.00  0.00     0.032 C 
ENDROOT
BRANCH   1  11
HETATM   11  C2  UNL     1      88.636  97.986 -44.621  1.00  0.00     0.003 C 
HETATM   12  C1  UNL     1      87.845  97.643 -45.598  1.00  0.00     0.012 C 
ENDBRANCH   1  11
BRANCH  10  13
HETATM   13  C18 UNL     1      91.276  95.971 -44.062  1.00  0.00     0.008 A 
HETATM   14  C19 UNL     1      91.324  94.627 -44.445  1.00  0.00     0.059 A 
HETATM   15  C22 UNL     1      91.473  93.843 -43.331  1.00  0.00     0.106 A 
HETATM   16  N4  UNL     1      91.517  94.659 -42.277  1.00  0.00    -0.365 N 
HETATM   17  C23 UNL     1      91.395  95.961 -42.719  1.00  0.00     0.033 A 
ATOM     18  H4  UNL     1      91.624  94.369 -41.305  1.00  0.00     0.165 HD
HETATM   19  C24 UNL     1      91.413  96.946 -41.869  1.00  0.00     0.044 C 
BRANCH  14  20
HETATM   20  C20 UNL     1      91.210  94.096 -45.768  1.00  0.00     0.253 C 
HETATM   21  O3  UNL     1      90.761  94.816 -46.693  1.00  0.00    -0.268 OA
HETATM   22  N3  UNL     1      91.594  92.775 -46.066  1.00  0.00    -0.361 N 
HETATM   23  C21 UNL     1      91.545  92.106 -47.327  1.00  0.00     0.149 C 
ATOM     24  H3  UNL     1      91.952  92.227 -45.284  1.00  0.00     0.162 HD
ENDBRANCH  14  20
ENDBRANCH  10  13
BRANCH   4  25
HETATM   25  C7  UNL     1      90.692 102.502 -44.262  1.00  0.00     0.160 C 
BRANCH  25  26
HETATM   26  C8  UNL     1      91.514 102.974 -43.116  1.00  0.00     0.225 C 
HETATM   27  O1  UNL     1      92.763 103.061 -43.260  1.00  0.00    -0.273 OA
HETATM   28  N1  UNL     1      90.964 103.334 -41.858  1.00  0.00    -0.352 N 
BRANCH  28  29
HETATM   29  C9  UNL     1      89.536 103.285 -41.770  1.00  0.00     0.121 C 
HETATM   30  C10 UNL     1      88.862 104.480 -41.171  1.00  0.00     0.026 C 
ENDBRANCH  28  29
BRANCH  28  31
HETATM   31  C11 UNL     1      91.824 103.734 -40.807  1.00  0.00     0.129 C 
BRANCH  31  32
HETATM   32  C12 UNL     1      92.043 102.890 -39.626  1.00  0.00    -0.005 C 
HETATM   33  C13 UNL     1      91.094 103.073 -38.464  1.00  0.00     0.011 C 
HETATM   34  C14 UNL     1      92.218 101.397 -39.923  1.00  0.00     0.011 C 
ENDBRANCH  31  32
ENDBRANCH  28  31
ENDBRANCH  25  26
ENDBRANCH   4  25
TORSDOF 8
ENDMDL
MODEL 4
REMARK VINA RESULT: -5.653389347      4.284      7.089
REMARK  8 active torsions:
REMARK  status: ('A' for Active; 'I' for Inactive)
REMARK    1  A    between atoms: C2_2  and  C3_3 
REMARK    2  A    between atoms: C6_6  and  C7_7 
REMARK    3  A    between atoms: C7_7  and  C8_8 
REMARK       I    between atoms: C8_8  and  N1_10 
REMARK    4  A    between atoms: N1_10  and  C9_11 
REMARK    5  A    between atoms: N1_10  and  C11_13 
REMARK    6  A    between atoms: C11_13  and  C12_14 
REMARK    7  A    between atoms: C17_22  and  C18_23 
REMARK    8  A    between atoms: C19_24  and  C20_25 
REMARK       I    between atoms: C20_25  and  N3_27 
ROOT
HETATM    1  C3  UNL     1      89.398 101.040 -42.254  1.00  0.00    -0.013 A 
HETATM    2  C4  UNL     1      88.317 100.439 -42.821  1.00  0.00    -0.028 A 
HETATM    3  C5  UNL     1      87.009 101.127 -42.909  1.00  0.00     0.051 C 
HETATM    4  C6  UNL     1      88.427  99.120 -43.331  1.00  0.00     0.028 A 
HETATM    5  N2  UNL     1      89.602  98.468 -43.250  1.00  0.00    -0.326 N 
ATOM      6  H2  UNL     1      89.663  97.521 -43.622  1.00  0.00     0.169 HD
HETATM    7  C15 UNL     1      90.694  99.015 -42.700  1.00  0.00     0.256 A 
HETATM    8  O2  UNL     1      91.794  98.354 -42.640  1.00  0.00    -0.267 OA
HETATM    9  C16 UNL     1      90.604 100.291 -42.204  1.00  0.00     0.044 A 
HETATM   10  C17 UNL     1      91.729 100.925 -41.586  1.00  0.00     0.032 C 
ENDROOT
BRANCH   1  11
HETATM   11  C2  UNL     1      89.408 102.389 -41.739  1.00  0.00     0.003 C 
HETATM   12  C1  UNL     1      89.466 103.529 -42.368  1.00  0.00     0.012 C 
ENDBRANCH   1  11
BRANCH  10  13
HETATM   13  C18 UNL     1      92.680 101.664 -42.067  1.00  0.00     0.008 A 
HETATM   14  C19 UNL     1      93.714 102.190 -41.286  1.00  0.00     0.059 A 
HETATM   15  C22 UNL     1      94.572 102.896 -42.087  1.00  0.00     0.106 A 
HETATM   16  N4  UNL     1      94.102 102.822 -43.333  1.00  0.00    -0.365 N 
HETATM   17  C23 UNL     1      92.944 102.071 -43.325  1.00  0.00     0.033 A 
ATOM     18  H4  UNL     1      94.527 103.250 -44.155  1.00  0.00     0.165 HD
HETATM   19  C24 UNL     1      92.297 101.853 -44.432  1.00  0.00     0.044 C 
BRANCH  14  20
HETATM   20  C20 UNL     1      93.881 102.070 -39.870  1.00  0.00     0.253 C 
HETATM   21  O3  UNL     1      94.513 101.094 -39.397  1.00  0.00    -0.268 OA
HETATM   22  N3  UNL     1      93.356 103.029 -38.984  1.00  0.00    -0.361 N 
HETATM   23  C21 UNL     1      93.443 103.051 -37.559  1.00  0.00     0.149 C 
ATOM     24  H3  UNL     1      92.850 103.804 -39.413  1.00  0.00     0.162 HD
ENDBRANCH  14  20
ENDBRANCH  10  13
BRANCH   4  25
HETATM   25  C7  UNL     1      87.258  98.471 -43.925  1.00  0.00     0.160 C 
BRANCH  25  26
HETATM   26  C8  UNL     1      87.440  98.322 -45.393  1.00  0.00     0.225 C 
HETATM   27  O1  UNL     1      88.515  98.723 -45.915  1.00  0.00    -0.273 OA
HETATM   28  N1  UNL     1      86.460  97.751 -46.246  1.00  0.00    -0.352 N 
BRANCH  28  29
HETATM   29  C9  UNL     1      85.289  97.248 -45.594  1.00  0.00     0.121 C 
HETATM   30  C10 UNL     1      84.011  97.313 -46.370  1.00  0.00     0.026 C 
ENDBRANCH  28  29
BRANCH  28  31
HETATM   31  C11 UNL     1      86.699  97.686 -47.641  1.00  0.00     0.129 C 
BRANCH  31  32
HETATM   32  C12 UNL     1      87.090  96.433 -48.297  1.00  0.00    -0.005 C 
HETATM   33  C13 UNL     1      86.113  95.839 -49.285  1.00  0.00     0.011 C 
HETATM   34  C14 UNL     1      88.500  96.431 -48.897  1.00  0.00     0.011 C 
ENDBRANCH  31  32
ENDBRANCH  28  31
ENDBRANCH  25  26
ENDBRANCH   4  25
TORSDOF 8
ENDMDL
MODEL 5
REMARK VINA RESULT: -5.584404912      2.677      4.281
REMARK  8 active torsions:
REMARK  status: ('A' for Active; 'I' for Inactive)
REMARK    1  A    between atoms: C2_2  and  C3_3 
REMARK    2  A    between atoms: C6_6  and  C7_7 
REMARK    3  A    between atoms: C7_7  and  C8_8 
REMARK       I    between atoms: C8_8  and  N1_10 
REMARK    4  A    between atoms: N1_10  and  C9_11 
REMARK    5  A    between atoms: N1_10  and  C11_13 
REMARK    6  A    between atoms: C11_13  and  C12_14 
REMARK    7  A    between atoms: C17_22  and  C18_23 
REMARK    8  A    between atoms: C19_24  and  C20_25 
REMARK       I    between atoms: C20_25  and  N3_27 
ROOT
HETATM    1  C3  UNL     1      91.348  96.062 -42.889  1.00  0.00    -0.013 A 
HETATM    2  C4  UNL     1      91.411  94.783 -43.345  1.00  0.00    -0.028 A 
HETATM    3  C5  UNL     1      91.462  93.633 -42.414  1.00  0.00     0.051 C 
HETATM    4  C6  UNL     1      91.441  94.529 -44.741  1.00  0.00     0.028 A 
HETATM    5  N2  UNL     1      91.410  95.558 -45.607  1.00  0.00    -0.326 N 
ATOM      6  H2  UNL     1      91.432  95.357 -46.607  1.00  0.00     0.169 HD
HETATM    7  C15 UNL     1      91.350  96.835 -45.209  1.00  0.00     0.256 A 
HETATM    8  O2  UNL     1      91.327  97.786 -46.072  1.00  0.00    -0.267 OA
HETATM    9  C16 UNL     1      91.319  97.097 -43.862  1.00  0.00     0.044 A 
HETATM   10  C17 UNL     1      91.275  98.441 -43.371  1.00  0.00     0.032 C 
ENDROOT
BRANCH   1  11
HETATM   11  C2  UNL     1      91.275  96.432 -41.495  1.00  0.00     0.003 C 
HETATM   12  C1  UNL     1      92.215  96.518 -40.598  1.00  0.00     0.012 C 
ENDBRANCH   1  11
BRANCH  10  13
HETATM   13  C18 UNL     1      90.285  99.228 -43.088  1.00  0.00     0.008 A 
HETATM   14  C19 UNL     1      90.432 100.419 -42.369  1.00  0.00     0.059 A 
HETATM   15  C22 UNL     1      89.213 101.037 -42.262  1.00  0.00     0.106 A 
HETATM   16  N4  UNL     1      88.323 100.267 -42.891  1.00  0.00    -0.365 N 
HETATM   17  C23 UNL     1      88.974  99.160 -43.396  1.00  0.00     0.033 A 
ATOM     18  H4  UNL     1      87.327 100.465 -42.983  1.00  0.00     0.165 HD
HETATM   19  C24 UNL     1      88.312  98.257 -44.058  1.00  0.00     0.044 C 
BRANCH  14  20
HETATM   20  C20 UNL     1      91.629 100.941 -41.786  1.00  0.00     0.253 C 
HETATM   21  O3  UNL     1      92.508 101.454 -42.521  1.00  0.00    -0.268 OA
HETATM   22  N3  UNL     1      91.851 100.898 -40.397  1.00  0.00    -0.361 N 
HETATM   23  C21 UNL     1      92.983 101.377 -39.671  1.00  0.00     0.149 C 
ATOM     24  H3  UNL     1      91.111 100.471 -39.840  1.00  0.00     0.162 HD
ENDBRANCH  14  20
ENDBRANCH  10  13
BRANCH   4  25
HETATM   25  C7  UNL     1      91.525  93.152 -45.227  1.00  0.00     0.160 C 
BRANCH  25  26
HETATM   26  C8  UNL     1      91.234  93.100 -46.684  1.00  0.00     0.225 C 
HETATM   27  O1  UNL     1      90.655  94.082 -47.223  1.00  0.00    -0.273 OA
HETATM   28  N1  UNL     1      91.574  91.996 -47.509  1.00  0.00    -0.352 N 
BRANCH  28  29
HETATM   29  C9  UNL     1      92.293  90.939 -46.863  1.00  0.00     0.121 C 
HETATM   30  C10 UNL     1      93.327  90.235 -47.684  1.00  0.00     0.026 C 
ENDBRANCH  28  29
BRANCH  28  31
HETATM   31  C11 UNL     1      91.223  92.012 -48.881  1.00  0.00     0.129 C 
BRANCH  31  32
HETATM   32  C12 UNL     1      90.092  91.233 -49.396  1.00  0.00    -0.005 C 
HETATM   33  C13 UNL     1      89.467  91.699 -50.690  1.00  0.00     0.011 C 
HETATM   34  C14 UNL     1      90.321  89.719 -49.447  1.00  0.00     0.011 C 
ENDBRANCH  31  32
ENDBRANCH  28  31
ENDBRANCH  25  26
ENDBRANCH   4  25
TORSDOF 8
ENDMDL
