MODEL 1
REMARK VINA RESULT: -5.872428551      0.000      0.000
REMARK  8 active torsions:
REMARK  status: ('A' for Active; 'I' for Inactive)
REMARK    1  A    between atoms: C2_2  and  C3_3 
REMARK    2  A    between atoms: C3_3  and  C5_5 
REMARK    3  A    between atoms: C3_3  and  N1_7 
REMARK       I    between atoms: N1_7  and  C7_9 
REMARK    4  A    between atoms: C7_9  and  C8_11 
REMARK    5  A    between atoms: C8_11  and  N4_30 
REMARK       I    between atoms: N2_12  and  C9_14 
REMARK    6  A    between atoms: C9_14  and  C10_16 
REMARK    7  A    between atoms: C10_16  and  N3_17 
REMARK    8  A    between atoms: N4_30  and  N5_32 
ROOT
HETATM    1  C8  UNL     1      84.936  87.765 -37.074  1.00  0.00     0.193 C 
HETATM    2  N2  UNL     1      85.673  87.723 -38.091  1.00  0.00    -0.305 N 
ATOM      3  H2  UNL     1      85.910  88.614 -38.528  1.00  0.00     0.170 HD
HETATM    4  C9  UNL     1      86.211  86.543 -38.692  1.00  0.00     0.264 C 
HETATM    5  O2  UNL     1      86.035  85.536 -37.973  1.00  0.00    -0.270 OA
ENDROOT
BRANCH   1   6
HETATM    6  C7  UNL     1      84.462  89.051 -36.579  1.00  0.00     0.287 C 
HETATM    7  N1  UNL     1      84.742  90.289 -37.182  1.00  0.00    -0.342 N 
ATOM      8  H1  UNL     1      85.320  90.259 -38.022  1.00  0.00     0.164 HD
HETATM    9  O1  UNL     1      83.739  89.056 -35.522  1.00  0.00    -0.264 OA
BRANCH   7  10
HETATM   10  C3  UNL     1      84.314  91.581 -36.762  1.00  0.00     0.046 C 
HETATM   11  C4  UNL     1      84.800  92.601 -37.803  1.00  0.00     0.043 C 
BRANCH  10  12
HETATM   12  C2  UNL     1      82.835  91.706 -36.710  1.00  0.00    -0.007 C 
HETATM   13  C1  UNL     1      82.135  92.803 -36.616  1.00  0.00     0.009 C 
ENDBRANCH  10  12
BRANCH  10  14
HETATM   14  C5  UNL     1      84.845  91.992 -35.391  1.00  0.00     0.030 C 
HETATM   15  C6  UNL     1      85.334  93.408 -35.390  1.00  0.00     0.008 C 
ENDBRANCH  10  14
ENDBRANCH   7  10
ENDBRANCH   1   6
BRANCH   1  16
HETATM   16  N4  UNL     1      84.517  86.617 -36.342  1.00  0.00    -0.267 N 
ATOM     17  H4  UNL     1      85.125  86.197 -35.639  1.00  0.00     0.190 HD
BRANCH  16  18
HETATM   18  N5  UNL     1      83.264  86.083 -36.604  1.00  0.00    -0.248 N 
HETATM   19  N6  UNL     1      82.931  85.585 -37.732  1.00  0.00    -0.331 N 
ATOM     20  H62 UNL     1      83.637  85.588 -38.469  1.00  0.00     0.178 HD
ATOM     21  H61 UNL     1      82.010  85.192 -37.925  1.00  0.00     0.178 HD
ATOM     22  H5  UNL     1      82.571  86.089 -35.856  1.00  0.00     0.207 HD
ENDBRANCH  16  18
ENDBRANCH   1  16
BRANCH   4  23
HETATM   23  C10 UNL     1      86.884  86.588 -40.024  1.00  0.00     0.226 C 
HETATM   24  C17 UNL     1      87.195  87.997 -40.321  1.00  0.00     0.018 C 
HETATM   25  C18 UNL     1      88.266  88.472 -41.162  1.00  0.00    -0.028 C 
HETATM   26  C19 UNL     1      89.542  87.781 -41.357  1.00  0.00     0.027 C 
HETATM   27  C20 UNL     1      90.171  87.087 -40.216  1.00  0.00     0.004 C 
HETATM   28  C21 UNL     1      89.181  86.606 -39.179  1.00  0.00     0.004 C 
HETATM   29  C22 UNL     1      88.124  85.742 -39.813  1.00  0.00     0.054 C 
BRANCH  23  30
HETATM   30  N3  UNL     1      85.980  85.960 -40.985  1.00  0.00    -0.050 N 
HETATM   31  C11 UNL     1      86.852  85.332 -41.998  1.00  0.00     0.274 C 
HETATM   32  C12 UNL     1      85.147  86.871 -41.654  1.00  0.00     0.239 C 
HETATM   33  C13 UNL     1      83.744  86.539 -41.985  1.00  0.00     0.028 C 
HETATM   34  C14 UNL     1      83.130  85.324 -41.410  1.00  0.00     0.003 C 
HETATM   35  C15 UNL     1      84.244  84.299 -41.326  1.00  0.00     0.028 C 
HETATM   36  C16 UNL     1      85.311  84.821 -40.366  1.00  0.00     0.239 C 
ENDBRANCH  23  30
ENDBRANCH   4  23
TORSDOF 8
ENDMDL
MODEL 2
REMARK VINA RESULT: -5.681941040     10.644     13.840
REMARK  8 active torsions:
REMARK  status: ('A' for Active; 'I' for Inactive)
REMARK    1  A    between atoms: C2_2  and  C3_3 
REMARK    2  A    between atoms: C3_3  and  C5_5 
REMARK    3  A    between atoms: C3_3  and  N1_7 
REMARK       I    between atoms: N1_7  and  C7_9 
REMARK    4  A    between atoms: C7_9  and  C8_11 
REMARK    5  A    between atoms: C8_11  and  N4_30 
REMARK       I    between atoms: N2_12  and  C9_14 
REMARK    6  A    between atoms: C9_14  and  C10_16 
REMARK    7  A    between atoms: C10_16  and  N3_17 
REMARK    8  A    between atoms: N4_30  and  N5_32 
ROOT
HETATM    1  C8  UNL     1      91.190  97.478 -42.814  1.00  0.00     0.193 C 
HETATM    2  N2  UNL     1      90.106  97.812 -43.355  1.00  0.00    -0.305 N 
ATOM      3  H2  UNL     1      89.455  97.062 -43.589  1.00  0.00     0.170 HD
HETATM    4  C9  UNL     1      89.700  99.145 -43.672  1.00  0.00     0.264 C 
HETATM    5  O2  UNL     1      90.465  99.994 -43.167  1.00  0.00    -0.270 OA
ENDROOT
BRANCH   1   6
HETATM    6  C7  UNL     1      91.463  96.070 -42.554  1.00  0.00     0.287 C 
HETATM    7  N1  UNL     1      91.536  95.076 -43.546  1.00  0.00    -0.342 N 
ATOM      8  H1  UNL     1      91.381  95.387 -44.505  1.00  0.00     0.164 HD
HETATM    9  O1  UNL     1      91.652  95.710 -41.340  1.00  0.00    -0.264 OA
BRANCH   7  10
HETATM   10  C3  UNL     1      91.801  93.688 -43.372  1.00  0.00     0.046 C 
HETATM   11  C4  UNL     1      90.820  93.149 -42.320  1.00  0.00     0.043 C 
BRANCH  10  12
HETATM   12  C2  UNL     1      91.566  92.900 -44.609  1.00  0.00    -0.007 C 
HETATM   13  C1  UNL     1      91.531  93.344 -45.836  1.00  0.00     0.009 C 
ENDBRANCH  10  12
BRANCH  10  14
HETATM   14  C5  UNL     1      93.224  93.384 -42.913  1.00  0.00     0.030 C 
HETATM   15  C6  UNL     1      93.239  92.693 -41.584  1.00  0.00     0.008 C 
ENDBRANCH  10  14
ENDBRANCH   7  10
ENDBRANCH   1   6
BRANCH   1  16
HETATM   16  N4  UNL     1      92.204  98.397 -42.419  1.00  0.00    -0.267 N 
ATOM     17  H4  UNL     1      92.854  98.780 -43.105  1.00  0.00     0.190 HD
BRANCH  16  18
HETATM   18  N5  UNL     1      92.288  98.759 -41.083  1.00  0.00    -0.248 N 
HETATM   19  N6  UNL     1      92.298  99.971 -40.680  1.00  0.00    -0.331 N 
ATOM     20  H62 UNL     1      92.241 100.699 -41.393  1.00  0.00     0.178 HD
ATOM     21  H61 UNL     1      92.360 100.238 -39.698  1.00  0.00     0.178 HD
ATOM     22  H5  UNL     1      92.344  98.018 -40.384  1.00  0.00     0.207 HD
ENDBRANCH  16  18
ENDBRANCH   1  16
BRANCH   4  23
HETATM   23  C10 UNL     1      88.497  99.410 -44.516  1.00  0.00     0.226 C 
HETATM   24  C17 UNL     1      87.470  98.419 -44.154  1.00  0.00     0.018 C 
HETATM   25  C18 UNL     1      86.043  98.592 -44.273  1.00  0.00    -0.028 C 
HETATM   26  C19 UNL     1      85.347  99.876 -44.166  1.00  0.00     0.027 C 
HETATM   27  C20 UNL     1      85.818 100.876 -43.188  1.00  0.00     0.004 C 
HETATM   28  C21 UNL     1      87.293 100.766 -42.872  1.00  0.00     0.004 C 
HETATM   29  C22 UNL     1      88.112 100.826 -44.133  1.00  0.00     0.054 C 
BRANCH  23  30
HETATM   30  N3  UNL     1      88.927  99.345 -45.911  1.00  0.00    -0.050 N 
HETATM   31  C11 UNL     1      88.684  97.953 -46.337  1.00  0.00     0.274 C 
HETATM   32  C12 UNL     1      90.295  99.607 -46.091  1.00  0.00     0.239 C 
HETATM   33  C13 UNL     1      90.791 100.366 -47.260  1.00  0.00     0.028 C 
HETATM   34  C14 UNL     1      89.826 101.058 -48.139  1.00  0.00     0.003 C 
HETATM   35  C15 UNL     1      88.588 100.184 -48.163  1.00  0.00     0.028 C 
HETATM   36  C16 UNL     1      88.016 100.117 -46.748  1.00  0.00     0.239 C 
ENDBRANCH  23  30
ENDBRANCH   4  23
TORSDOF 8
ENDMDL
MODEL 3
REMARK VINA RESULT: -5.619793530     10.291     13.394
REMARK  8 active torsions:
REMARK  status: ('A' for Active; 'I' for Inactive)
REMARK    1  A    between atoms: C2_2  and  C3_3 
REMARK    2  A    between atoms: C3_3  and  C5_5 
REMARK    3  A    between atoms: C3_3  and  N1_7 
REMARK       I    between atoms: N1_7  and  C7_9 
REMARK    4  A    between atoms: C7_9  and  C8_11 
REMARK    5  A    between atoms: C8_11  and  N4_30 
REMARK       I    between atoms: N2_12  and  C9_14 
REMARK    6  A    between atoms: C9_14  and  C10_16 
REMARK    7  A    between atoms: C10_16  and  N3_17 
REMARK    8  A    between atoms: N4_30  and  N5_32 
ROOT
HETATM    1  C8  UNL     1      91.137  97.709 -42.575  1.00  0.00     0.193 C 
HETATM    2  N2  UNL     1      90.022  97.923 -43.114  1.00  0.00    -0.305 N 
ATOM      3  H2  UNL     1      89.400  97.123 -43.225  1.00  0.00     0.170 HD
HETATM    4  C9  UNL     1      89.546  99.185 -43.588  1.00  0.00     0.264 C 
HETATM    5  O2  UNL     1      90.286 100.125 -43.226  1.00  0.00    -0.270 OA
ENDROOT
BRANCH   1   6
HETATM    6  C7  UNL     1      91.482  96.360 -42.145  1.00  0.00     0.287 C 
HETATM    7  N1  UNL     1      91.610  95.256 -43.006  1.00  0.00    -0.342 N 
ATOM      8  H1  UNL     1      91.441  95.438 -43.995  1.00  0.00     0.164 HD
HETATM    9  O1  UNL     1      91.687  96.164 -40.896  1.00  0.00    -0.264 OA
BRANCH   7  10
HETATM   10  C3  UNL     1      91.946  93.916 -42.663  1.00  0.00     0.046 C 
HETATM   11  C4  UNL     1      90.660  93.208 -42.210  1.00  0.00     0.043 C 
BRANCH  10  12
HETATM   12  C2  UNL     1      92.468  93.142 -43.818  1.00  0.00    -0.007 C 
HETATM   13  C1  UNL     1      91.861  92.898 -44.947  1.00  0.00     0.009 C 
ENDBRANCH  10  12
BRANCH  10  14
HETATM   14  C5  UNL     1      92.982  93.806 -41.547  1.00  0.00     0.030 C 
HETATM   15  C6  UNL     1      93.534  92.418 -41.441  1.00  0.00     0.008 C 
ENDBRANCH  10  14
ENDBRANCH   7  10
ENDBRANCH   1   6
BRANCH   1  16
HETATM   16  N4  UNL     1      92.119  98.713 -42.341  1.00  0.00    -0.267 N 
ATOM     17  H4  UNL     1      92.667  99.095 -43.111  1.00  0.00     0.190 HD
BRANCH  16  18
HETATM   18  N5  UNL     1      92.314  99.161 -41.043  1.00  0.00    -0.248 N 
HETATM   19  N6  UNL     1      92.249 100.391 -40.703  1.00  0.00    -0.331 N 
ATOM     20  H62 UNL     1      92.042 101.066 -41.439  1.00  0.00     0.178 HD
ATOM     21  H61 UNL     1      92.393 100.720 -39.749  1.00  0.00     0.178 HD
ATOM     22  H5  UNL     1      92.521  98.472 -40.320  1.00  0.00     0.207 HD
ENDBRANCH  16  18
ENDBRANCH   1  16
BRANCH   4  23
HETATM   23  C10 UNL     1      88.307  99.286 -44.415  1.00  0.00     0.226 C 
HETATM   24  C17 UNL     1      87.266  98.475 -43.761  1.00  0.00     0.018 C 
HETATM   25  C18 UNL     1      85.842  98.684 -43.854  1.00  0.00    -0.028 C 
HETATM   26  C19 UNL     1      85.201  99.987 -44.051  1.00  0.00     0.027 C 
HETATM   27  C20 UNL     1      85.766 101.178 -43.387  1.00  0.00     0.004 C 
HETATM   28  C21 UNL     1      87.251 101.078 -43.123  1.00  0.00     0.004 C 
HETATM   29  C22 UNL     1      87.998 100.770 -44.393  1.00  0.00     0.054 C 
BRANCH  23  30
HETATM   30  N3  UNL     1      88.652  98.844 -45.764  1.00  0.00    -0.050 N 
HETATM   31  C11 UNL     1      90.063  99.230 -45.959  1.00  0.00     0.274 C 
HETATM   32  C12 UNL     1      87.901  99.472 -46.771  1.00  0.00     0.239 C 
HETATM   33  C13 UNL     1      87.453  98.738 -47.975  1.00  0.00     0.028 C 
HETATM   34  C14 UNL     1      87.597  97.268 -48.025  1.00  0.00     0.003 C 
HETATM   35  C15 UNL     1      88.871  96.952 -47.267  1.00  0.00     0.028 C 
HETATM   36  C16 UNL     1      88.692  97.387 -45.814  1.00  0.00     0.239 C 
ENDBRANCH  23  30
ENDBRANCH   4  23
TORSDOF 8
ENDMDL
MODEL 4
REMARK VINA RESULT: -5.365084297     10.929     13.593
REMARK  8 active torsions:
REMARK  status: ('A' for Active; 'I' for Inactive)
REMARK    1  A    between atoms: C2_2  and  C3_3 
REMARK    2  A    between atoms: C3_3  and  C5_5 
REMARK    3  A    between atoms: C3_3  and  N1_7 
REMARK       I    between atoms: N1_7  and  C7_9 
REMARK    4  A    between atoms: C7_9  and  C8_11 
REMARK    5  A    between atoms: C8_11  and  N4_30 
REMARK       I    between atoms: N2_12  and  C9_14 
REMARK    6  A    between atoms: C9_14  and  C10_16 
REMARK    7  A    between atoms: C10_16  and  N3_17 
REMARK    8  A    between atoms: N4_30  and  N5_32 
ROOT
HETATM    1  C8  UNL     1      85.444  97.606 -44.705  1.00  0.00     0.193 C 
HETATM    2  N2  UNL     1      86.590  97.966 -45.075  1.00  0.00    -0.305 N 
ATOM      3  H2  UNL     1      86.811  97.865 -46.065  1.00  0.00     0.170 HD
HETATM    4  C9  UNL     1      87.614  98.505 -44.234  1.00  0.00     0.264 C 
HETATM    5  O2  UNL     1      87.181  98.777 -43.094  1.00  0.00    -0.270 OA
ENDROOT
BRANCH   1   6
HETATM    6  C7  UNL     1      84.506  97.071 -45.683  1.00  0.00     0.287 C 
HETATM    7  N1  UNL     1      84.879  96.386 -46.854  1.00  0.00    -0.342 N 
ATOM      8  H1  UNL     1      85.881  96.272 -47.007  1.00  0.00     0.164 HD
HETATM    9  O1  UNL     1      83.255  97.231 -45.464  1.00  0.00    -0.264 OA
BRANCH   7  10
HETATM   10  C3  UNL     1      84.026  95.833 -47.851  1.00  0.00     0.046 C 
HETATM   11  C4  UNL     1      83.283  96.993 -48.532  1.00  0.00     0.043 C 
BRANCH  10  12
HETATM   12  C2  UNL     1      84.776  95.128 -48.921  1.00  0.00    -0.007 C 
HETATM   13  C1  UNL     1      85.986  95.382 -49.338  1.00  0.00     0.009 C 
ENDBRANCH  10  12
BRANCH  10  14
HETATM   14  C5  UNL     1      82.996  94.849 -47.304  1.00  0.00     0.030 C 
HETATM   15  C6  UNL     1      83.627  93.546 -46.920  1.00  0.00     0.008 C 
ENDBRANCH  10  14
ENDBRANCH   7  10
ENDBRANCH   1   6
BRANCH   1  16
HETATM   16  N4  UNL     1      84.974  97.686 -43.363  1.00  0.00    -0.267 N 
ATOM     17  H4  UNL     1      85.283  97.012 -42.662  1.00  0.00     0.190 HD
BRANCH  16  18
HETATM   18  N5  UNL     1      84.088  98.699 -43.029  1.00  0.00    -0.248 N 
HETATM   19  N6  UNL     1      84.394  99.939 -43.047  1.00  0.00    -0.331 N 
ATOM     20  H62 UNL     1      85.346 100.179 -43.323  1.00  0.00     0.178 HD
ATOM     21  H61 UNL     1      83.742 100.684 -42.801  1.00  0.00     0.178 HD
ATOM     22  H5  UNL     1      83.140  98.441 -42.755  1.00  0.00     0.207 HD
ENDBRANCH  16  18
ENDBRANCH   1  16
BRANCH   4  23
HETATM   23  C10 UNL     1      89.010  98.687 -44.732  1.00  0.00     0.226 C 
HETATM   24  C17 UNL     1      89.924  98.177 -43.696  1.00  0.00     0.018 C 
HETATM   25  C18 UNL     1      91.249  97.650 -43.915  1.00  0.00    -0.028 C 
HETATM   26  C19 UNL     1      91.682  96.965 -45.135  1.00  0.00     0.027 C 
HETATM   27  C20 UNL     1      90.743  96.064 -45.831  1.00  0.00     0.004 C 
HETATM   28  C21 UNL     1      89.290  96.423 -45.620  1.00  0.00     0.004 C 
HETATM   29  C22 UNL     1      89.035  97.856 -46.001  1.00  0.00     0.054 C 
BRANCH  23  30
HETATM   30  N3  UNL     1      89.178 100.106 -45.034  1.00  0.00    -0.050 N 
HETATM   31  C11 UNL     1      90.169 100.165 -46.126  1.00  0.00     0.274 C 
HETATM   32  C12 UNL     1      89.691 100.853 -43.960  1.00  0.00     0.239 C 
HETATM   33  C13 UNL     1      89.228 102.231 -43.684  1.00  0.00     0.028 C 
HETATM   34  C14 UNL     1      88.049 102.758 -44.401  1.00  0.00     0.003 C 
HETATM   35  C15 UNL     1      88.100 102.146 -45.787  1.00  0.00     0.028 C 
HETATM   36  C16 UNL     1      87.966 100.630 -45.652  1.00  0.00     0.239 C 
ENDBRANCH  23  30
ENDBRANCH   4  23
TORSDOF 8
ENDMDL
MODEL 5
REMARK VINA RESULT: -5.294915284     10.225     13.273
REMARK  8 active torsions:
REMARK  status: ('A' for Active; 'I' for Inactive)
REMARK    1  A    between atoms: C2_2  and  C3_3 
REMARK    2  A    between atoms: C3_3  and  C5_5 
REMARK    3  A    between atoms: C3_3  and  N1_7 
REMARK       I    between atoms: N1_7  and  C7_9 
REMARK    4  A    between atoms: C7_9  and  C8_11 
REMARK    5  A    between atoms: C8_11  and  N4_30 
REMARK       I    between atoms: N2_12  and  C9_14 
REMARK    6  A    between atoms: C9_14  and  C10_16 
REMARK    7  A    between atoms: C10_16  and  N3_17 
REMARK    8  A    between atoms: N4_30  and  N5_32 
ROOT
HETATM    1  C8  UNL     1      91.121  97.802 -42.843  1.00  0.00     0.193 C 
HETATM    2  N2  UNL     1      90.019  97.889 -43.441  1.00  0.00    -0.305 N 
ATOM      3  H2  UNL     1      89.461  97.038 -43.510  1.00  0.00     0.170 HD
HETATM    4  C9  UNL     1      89.475  99.071 -44.033  1.00  0.00     0.264 C 
HETATM    5  O2  UNL     1      90.129 100.089 -43.720  1.00  0.00    -0.270 OA
ENDROOT
BRANCH   1   6
HETATM    6  C7  UNL     1      91.543  96.520 -42.292  1.00  0.00     0.287 C 
HETATM    7  N1  UNL     1      91.520  95.303 -42.996  1.00  0.00    -0.342 N 
ATOM      8  H1  UNL     1      91.177  95.347 -43.956  1.00  0.00     0.164 HD
HETATM    9  O1  UNL     1      91.968  96.498 -41.084  1.00  0.00    -0.264 OA
BRANCH   7  10
HETATM   10  C3  UNL     1      91.918  94.018 -42.530  1.00  0.00     0.046 C 
HETATM   11  C4  UNL     1      90.684  93.334 -41.921  1.00  0.00     0.043 C 
BRANCH  10  12
HETATM   12  C2  UNL     1      92.393  93.133 -43.624  1.00  0.00    -0.007 C 
HETATM   13  C1  UNL     1      91.888  93.013 -44.821  1.00  0.00     0.009 C 
ENDBRANCH  10  12
BRANCH  10  14
HETATM   14  C5  UNL     1      93.022  94.058 -41.476  1.00  0.00     0.030 C 
HETATM   15  C6  UNL     1      93.636  92.708 -41.269  1.00  0.00     0.008 C 
ENDBRANCH  10  14
ENDBRANCH   7  10
ENDBRANCH   1   6
BRANCH   1  16
HETATM   16  N4  UNL     1      92.017  98.892 -42.653  1.00  0.00    -0.267 N 
ATOM     17  H4  UNL     1      92.712  99.125 -43.363  1.00  0.00     0.190 HD
BRANCH  16  18
HETATM   18  N5  UNL     1      91.925  99.631 -41.483  1.00  0.00    -0.248 N 
HETATM   19  N6  UNL     1      92.619  99.389 -40.439  1.00  0.00    -0.331 N 
ATOM     20  H62 UNL     1      93.271  98.606 -40.485  1.00  0.00     0.178 HD
ATOM     21  H61 UNL     1      92.551  99.932 -39.578  1.00  0.00     0.178 HD
ATOM     22  H5  UNL     1      91.268 100.410 -41.455  1.00  0.00     0.207 HD
ENDBRANCH  16  18
ENDBRANCH   1  16
BRANCH   4  23
HETATM   23  C10 UNL     1      88.270  99.014 -44.912  1.00  0.00     0.226 C 
HETATM   24  C17 UNL     1      88.416 100.057 -45.941  1.00  0.00     0.018 C 
HETATM   25  C18 UNL     1      87.834 100.037 -47.261  1.00  0.00    -0.028 C 
HETATM   26  C19 UNL     1      87.550  98.823 -48.028  1.00  0.00     0.027 C 
HETATM   27  C20 UNL     1      88.488  97.686 -47.958  1.00  0.00     0.004 C 
HETATM   28  C21 UNL     1      89.261  97.617 -46.661  1.00  0.00     0.004 C 
HETATM   29  C22 UNL     1      88.325  97.610 -45.483  1.00  0.00     0.054 C 
BRANCH  23  30
HETATM   30  N3  UNL     1      87.101  99.182 -44.052  1.00  0.00    -0.050 N 
HETATM   31  C11 UNL     1      87.636  99.404 -42.694  1.00  0.00     0.274 C 
HETATM   32  C12 UNL     1      86.275  98.047 -43.997  1.00  0.00     0.239 C 
HETATM   33  C13 UNL     1      84.801  98.165 -43.936  1.00  0.00     0.028 C 
HETATM   34  C14 UNL     1      84.167  99.480 -44.163  1.00  0.00     0.003 C 
HETATM   35  C15 UNL     1      85.122 100.504 -43.580  1.00  0.00     0.028 C 
HETATM   36  C16 UNL     1      86.434 100.441 -44.360  1.00  0.00     0.239 C 
ENDBRANCH  23  30
ENDBRANCH   4  23
TORSDOF 8
ENDMDL
