MODEL 1
REMARK VINA RESULT: -8.105509183      0.000      0.000
REMARK  5 active torsions:
REMARK  status: ('A' for Active; 'I' for Inactive)
REMARK    1  A    between atoms: N1_2  and  S1_4 
REMARK    2  A    between atoms: S1_4  and  C3_7 
REMARK    3  A    between atoms: C6_10  and  N2_11 
REMARK       I    between atoms: N2_11  and  C7_13 
REMARK       I    between atoms: C7_13  and  N3_15 
REMARK       I    between atoms: N3_15  and  C8_17 
REMARK       I    between atoms: C8_17  and  N4_19 
REMARK    4  A    between atoms: N4_19  and  C9_21 
REMARK    5  A    between atoms: C9_21  and  C10_22 
ROOT
HETATM    1  N2  UNL     1     -27.134  47.160  10.850  1.00  0.00    -0.309 N 
ATOM      2  H2  UNL     1     -27.829  47.282  11.587  1.00  0.00     0.170 HD
HETATM    3  C7  UNL     1     -26.161  46.027  10.977  1.00  0.00     0.328 C 
HETATM    4  O3  UNL     1     -25.446  45.945  10.013  1.00  0.00    -0.247 OA
HETATM    5  N3  UNL     1     -26.308  45.348  12.176  1.00  0.00    -0.261 N 
ATOM      6  H3  UNL     1     -26.969  45.480  12.941  1.00  0.00     0.175 HD
HETATM    7  C8  UNL     1     -25.053  44.230  11.982  1.00  0.00     0.324 C 
HETATM    8  O4  UNL     1     -25.044  43.515  12.996  1.00  0.00    -0.247 OA
HETATM    9  N4  UNL     1     -24.244  44.133  10.969  1.00  0.00    -0.339 N 
ATOM     10  H4  UNL     1     -24.302  44.754  10.162  1.00  0.00     0.164 HD
ENDROOT
BRANCH   1  11
HETATM   11  C6  UNL     1     -27.146  48.056   9.787  1.00  0.00     0.036 A 
HETATM   12  C5  UNL     1     -26.434  49.239   9.927  1.00  0.00     0.031 A 
HETATM   13  C4  UNL     1     -26.328  50.151   8.905  1.00  0.00     0.027 A 
HETATM   14  C3  UNL     1     -26.929  49.933   7.685  1.00  0.00     0.079 A 
HETATM   15  C17 UNL     1     -27.639  48.766   7.529  1.00  0.00     0.027 A 
HETATM   16  C16 UNL     1     -27.743  47.839   8.573  1.00  0.00     0.031 A 
BRANCH  14  17
HETATM   17  S1  UNL     1     -26.803  51.091   6.386  1.00  0.00     0.260 S 
HETATM   18  O1  UNL     1     -27.383  52.403   6.866  1.00  0.00    -0.200 OA
HETATM   19  O2  UNL     1     -27.700  50.621   5.255  1.00  0.00    -0.200 OA
BRANCH  17  20
HETATM   20  N1  UNL     1     -25.195  51.284   5.889  1.00  0.00    -0.315 N 
HETATM   21  C1  UNL     1     -24.447  50.091   5.703  1.00  0.00     0.162 C 
HETATM   22  C2  UNL     1     -24.943  52.345   4.972  1.00  0.00     0.162 C 
ENDBRANCH  17  20
ENDBRANCH  14  17
ENDBRANCH   1  11
BRANCH   9  23
HETATM   23  C9  UNL     1     -23.189  43.009  11.073  1.00  0.00     0.162 C 
BRANCH  23  24
HETATM   24  C10 UNL     1     -22.075  43.446  10.220  1.00  0.00    -0.040 A 
HETATM   25  C11 UNL     1     -20.872  42.759  10.216  1.00  0.00     0.009 A 
HETATM   26  C12 UNL     1     -19.819  43.145   9.422  1.00  0.00     0.001 A 
HETATM   27  C13 UNL     1     -19.975  44.244   8.613  1.00  0.00     0.000 A 
HETATM   28  C14 UNL     1     -21.139  44.970   8.566  1.00  0.00     0.001 A 
HETATM   29  C15 UNL     1     -22.170  44.553   9.376  1.00  0.00     0.009 A 
ENDBRANCH  23  24
ENDBRANCH   9  23
TORSDOF 5
ENDMDL
MODEL 2
REMARK VINA RESULT: -7.759308608      1.169      1.502
REMARK  5 active torsions:
REMARK  status: ('A' for Active; 'I' for Inactive)
REMARK    1  A    between atoms: N1_2  and  S1_4 
REMARK    2  A    between atoms: S1_4  and  C3_7 
REMARK    3  A    between atoms: C6_10  and  N2_11 
REMARK       I    between atoms: N2_11  and  C7_13 
REMARK       I    between atoms: C7_13  and  N3_15 
REMARK       I    between atoms: N3_15  and  C8_17 
REMARK       I    between atoms: C8_17  and  N4_19 
REMARK    4  A    between atoms: N4_19  and  C9_21 
REMARK    5  A    between atoms: C9_21  and  C10_22 
ROOT
HETATM    1  N2  UNL     1     -27.060  47.176  10.819  1.00  0.00    -0.309 N 
ATOM      2  H2  UNL     1     -27.803  47.232  11.517  1.00  0.00     0.170 HD
HETATM    3  C7  UNL     1     -26.071  46.055  10.929  1.00  0.00     0.328 C 
HETATM    4  O3  UNL     1     -25.295  46.054  10.010  1.00  0.00    -0.247 OA
HETATM    5  N3  UNL     1     -26.277  45.290  12.066  1.00  0.00    -0.261 N 
ATOM      6  H3  UNL     1     -26.987  45.356  12.795  1.00  0.00     0.175 HD
HETATM    7  C8  UNL     1     -24.986  44.212  11.876  1.00  0.00     0.324 C 
HETATM    8  O4  UNL     1     -25.025  43.428  12.836  1.00  0.00    -0.247 OA
HETATM    9  N4  UNL     1     -24.114  44.202  10.912  1.00  0.00    -0.339 N 
ATOM     10  H4  UNL     1     -24.135  44.877  10.148  1.00  0.00     0.164 HD
ENDROOT
BRANCH   1  11
HETATM   11  C6  UNL     1     -27.025  48.144   9.822  1.00  0.00     0.036 A 
HETATM   12  C5  UNL     1     -26.434  49.364  10.121  1.00  0.00     0.031 A 
HETATM   13  C4  UNL     1     -26.290  50.354   9.180  1.00  0.00     0.027 A 
HETATM   14  C3  UNL     1     -26.729  50.182   7.886  1.00  0.00     0.079 A 
HETATM   15  C17 UNL     1     -27.317  48.980   7.572  1.00  0.00     0.027 A 
HETATM   16  C16 UNL     1     -27.461  47.973   8.534  1.00  0.00     0.031 A 
BRANCH  14  17
HETATM   17  S1  UNL     1     -26.553  51.438   6.688  1.00  0.00     0.260 S 
HETATM   18  O1  UNL     1     -25.233  51.232   5.979  1.00  0.00    -0.200 OA
HETATM   19  O2  UNL     1     -26.439  52.765   7.418  1.00  0.00    -0.200 OA
BRANCH  17  20
HETATM   20  N1  UNL     1     -27.841  51.422   5.587  1.00  0.00    -0.315 N 
HETATM   21  C1  UNL     1     -29.065  51.980   6.045  1.00  0.00     0.162 C 
HETATM   22  C2  UNL     1     -27.505  51.652   4.222  1.00  0.00     0.162 C 
ENDBRANCH  17  20
ENDBRANCH  14  17
ENDBRANCH   1  11
BRANCH   9  23
HETATM   23  C9  UNL     1     -23.042  43.094  11.006  1.00  0.00     0.162 C 
BRANCH  23  24
HETATM   24  C10 UNL     1     -21.955  43.531  10.119  1.00  0.00    -0.040 A 
HETATM   25  C11 UNL     1     -20.764  42.829  10.054  1.00  0.00     0.009 A 
HETATM   26  C12 UNL     1     -19.736  43.216   9.227  1.00  0.00     0.001 A 
HETATM   27  C13 UNL     1     -19.908  44.333   8.447  1.00  0.00     0.000 A 
HETATM   28  C14 UNL     1     -21.063  45.076   8.459  1.00  0.00     0.001 A 
HETATM   29  C15 UNL     1     -22.067  44.657   9.300  1.00  0.00     0.009 A 
ENDBRANCH  23  24
ENDBRANCH   9  23
TORSDOF 5
ENDMDL
MODEL 3
REMARK VINA RESULT: -7.747166668      0.893      1.722
REMARK  5 active torsions:
REMARK  status: ('A' for Active; 'I' for Inactive)
REMARK    1  A    between atoms: N1_2  and  S1_4 
REMARK    2  A    between atoms: S1_4  and  C3_7 
REMARK    3  A    between atoms: C6_10  and  N2_11 
REMARK       I    between atoms: N2_11  and  C7_13 
REMARK       I    between atoms: C7_13  and  N3_15 
REMARK       I    between atoms: N3_15  and  C8_17 
REMARK       I    between atoms: C8_17  and  N4_19 
REMARK    4  A    between atoms: N4_19  and  C9_21 
REMARK    5  A    between atoms: C9_21  and  C10_22 
ROOT
HETATM    1  N2  UNL     1     -27.077  47.736  10.277  1.00  0.00    -0.309 N 
ATOM      2  H2  UNL     1     -27.890  47.903  10.870  1.00  0.00     0.170 HD
HETATM    3  C7  UNL     1     -26.226  46.536  10.566  1.00  0.00     0.328 C 
HETATM    4  O3  UNL     1     -25.347  46.408   9.754  1.00  0.00    -0.247 OA
HETATM    5  N3  UNL     1     -26.644  45.864  11.703  1.00  0.00    -0.261 N 
ATOM      6  H3  UNL     1     -27.428  46.039  12.331  1.00  0.00     0.175 HD
HETATM    7  C8  UNL     1     -25.455  44.661  11.730  1.00  0.00     0.324 C 
HETATM    8  O4  UNL     1     -25.689  43.943  12.715  1.00  0.00    -0.247 OA
HETATM    9  N4  UNL     1     -24.477  44.511  10.888  1.00  0.00    -0.339 N 
ATOM     10  H4  UNL     1     -24.337  45.139  10.095  1.00  0.00     0.164 HD
ENDROOT
BRANCH   1  11
HETATM   11  C6  UNL     1     -26.824  48.635   9.247  1.00  0.00     0.036 A 
HETATM   12  C5  UNL     1     -27.463  48.428   8.032  1.00  0.00     0.031 A 
HETATM   13  C4  UNL     1     -27.331  49.302   6.981  1.00  0.00     0.027 A 
HETATM   14  C3  UNL     1     -26.551  50.433   7.083  1.00  0.00     0.079 A 
HETATM   15  C17 UNL     1     -25.910  50.654   8.279  1.00  0.00     0.027 A 
HETATM   16  C16 UNL     1     -26.049  49.761   9.348  1.00  0.00     0.031 A 
BRANCH  14  17
HETATM   17  S1  UNL     1     -26.375  51.543   5.749  1.00  0.00     0.260 S 
HETATM   18  O1  UNL     1     -25.633  52.764   6.247  1.00  0.00    -0.200 OA
HETATM   19  O2  UNL     1     -27.761  52.022   5.355  1.00  0.00    -0.200 OA
BRANCH  17  20
HETATM   20  N1  UNL     1     -25.555  50.822   4.453  1.00  0.00    -0.315 N 
HETATM   21  C1  UNL     1     -25.247  51.670   3.356  1.00  0.00     0.162 C 
HETATM   22  C2  UNL     1     -24.583  49.838   4.794  1.00  0.00     0.162 C 
ENDBRANCH  17  20
ENDBRANCH  14  17
ENDBRANCH   1  11
BRANCH   9  23
HETATM   23  C9  UNL     1     -23.541  43.316  11.170  1.00  0.00     0.162 C 
BRANCH  23  24
HETATM   24  C10 UNL     1     -22.338  43.568  10.363  1.00  0.00    -0.040 A 
HETATM   25  C11 UNL     1     -22.282  44.639   9.486  1.00  0.00     0.009 A 
HETATM   26  C12 UNL     1     -21.166  44.897   8.726  1.00  0.00     0.001 A 
HETATM   27  C13 UNL     1     -20.082  44.062   8.848  1.00  0.00     0.000 A 
HETATM   28  C14 UNL     1     -20.069  42.983   9.697  1.00  0.00     0.001 A 
HETATM   29  C15 UNL     1     -21.204  42.758  10.440  1.00  0.00     0.009 A 
ENDBRANCH  23  24
ENDBRANCH   9  23
TORSDOF 5
ENDMDL
MODEL 4
REMARK VINA RESULT: -7.732393797      1.451      2.171
REMARK  5 active torsions:
REMARK  status: ('A' for Active; 'I' for Inactive)
REMARK    1  A    between atoms: N1_2  and  S1_4 
REMARK    2  A    between atoms: S1_4  and  C3_7 
REMARK    3  A    between atoms: C6_10  and  N2_11 
REMARK       I    between atoms: N2_11  and  C7_13 
REMARK       I    between atoms: C7_13  and  N3_15 
REMARK       I    between atoms: N3_15  and  C8_17 
REMARK       I    between atoms: C8_17  and  N4_19 
REMARK    4  A    between atoms: N4_19  and  C9_21 
REMARK    5  A    between atoms: C9_21  and  C10_22 
ROOT
HETATM    1  N2  UNL     1     -26.973  47.750  10.135  1.00  0.00    -0.309 N 
ATOM      2  H2  UNL     1     -27.783  47.940  10.726  1.00  0.00     0.170 HD
HETATM    3  C7  UNL     1     -26.121  46.562  10.466  1.00  0.00     0.328 C 
HETATM    4  O3  UNL     1     -25.247  46.402   9.655  1.00  0.00    -0.247 OA
HETATM    5  N3  UNL     1     -26.535  45.933  11.629  1.00  0.00    -0.261 N 
ATOM      6  H3  UNL     1     -27.316  46.133  12.254  1.00  0.00     0.175 HD
HETATM    7  C8  UNL     1     -25.346  44.732  11.697  1.00  0.00     0.324 C 
HETATM    8  O4  UNL     1     -25.576  44.051  12.709  1.00  0.00    -0.247 OA
HETATM    9  N4  UNL     1     -24.372  44.549  10.856  1.00  0.00    -0.339 N 
ATOM     10  H4  UNL     1     -24.236  45.146  10.040  1.00  0.00     0.164 HD
ENDROOT
BRANCH   1  11
HETATM   11  C6  UNL     1     -26.725  48.609   9.071  1.00  0.00     0.036 A 
HETATM   12  C5  UNL     1     -27.281  48.294   7.839  1.00  0.00     0.031 A 
HETATM   13  C4  UNL     1     -27.149  49.119   6.748  1.00  0.00     0.027 A 
HETATM   14  C3  UNL     1     -26.454  50.306   6.826  1.00  0.00     0.079 A 
HETATM   15  C17 UNL     1     -25.896  50.633   8.039  1.00  0.00     0.027 A 
HETATM   16  C16 UNL     1     -26.034  49.790   9.148  1.00  0.00     0.031 A 
BRANCH  14  17
HETATM   17  S1  UNL     1     -26.279  51.354   5.443  1.00  0.00     0.260 S 
HETATM   18  O1  UNL     1     -25.851  50.509   4.263  1.00  0.00    -0.200 OA
HETATM   19  O2  UNL     1     -25.129  52.305   5.722  1.00  0.00    -0.200 OA
BRANCH  17  20
HETATM   20  N1  UNL     1     -27.723  52.175   5.108  1.00  0.00    -0.315 N 
HETATM   21  C1  UNL     1     -28.469  51.705   3.994  1.00  0.00     0.162 C 
HETATM   22  C2  UNL     1     -28.470  52.620   6.236  1.00  0.00     0.162 C 
ENDBRANCH  17  20
ENDBRANCH  14  17
ENDBRANCH   1  11
BRANCH   9  23
HETATM   23  C9  UNL     1     -23.435  43.364  11.179  1.00  0.00     0.162 C 
BRANCH  23  24
HETATM   24  C10 UNL     1     -22.240  43.580  10.351  1.00  0.00    -0.040 A 
HETATM   25  C11 UNL     1     -22.153  44.668   9.499  1.00  0.00     0.009 A 
HETATM   26  C12 UNL     1     -21.043  44.893   8.720  1.00  0.00     0.001 A 
HETATM   27  C13 UNL     1     -19.997  44.006   8.797  1.00  0.00     0.000 A 
HETATM   28  C14 UNL     1     -20.016  42.907   9.619  1.00  0.00     0.001 A 
HETATM   29  C15 UNL     1     -21.144  42.716  10.383  1.00  0.00     0.009 A 
ENDBRANCH  23  24
ENDBRANCH   9  23
TORSDOF 5
ENDMDL
MODEL 5
REMARK VINA RESULT: -7.714774237      1.396      1.905
REMARK  5 active torsions:
REMARK  status: ('A' for Active; 'I' for Inactive)
REMARK    1  A    between atoms: N1_2  and  S1_4 
REMARK    2  A    between atoms: S1_4  and  C3_7 
REMARK    3  A    between atoms: C6_10  and  N2_11 
REMARK       I    between atoms: N2_11  and  C7_13 
REMARK       I    between atoms: C7_13  and  N3_15 
REMARK       I    between atoms: N3_15  and  C8_17 
REMARK       I    between atoms: C8_17  and  N4_19 
REMARK    4  A    between atoms: N4_19  and  C9_21 
REMARK    5  A    between atoms: C9_21  and  C10_22 
ROOT
HETATM    1  N2  UNL     1     -27.077  47.710  10.157  1.00  0.00    -0.309 N 
ATOM      2  H2  UNL     1     -27.896  47.891  10.738  1.00  0.00     0.170 HD
HETATM    3  C7  UNL     1     -26.221  46.525  10.493  1.00  0.00     0.328 C 
HETATM    4  O3  UNL     1     -25.335  46.376   9.693  1.00  0.00    -0.247 OA
HETATM    5  N3  UNL     1     -26.646  45.888  11.648  1.00  0.00    -0.261 N 
ATOM      6  H3  UNL     1     -27.436  46.079  12.263  1.00  0.00     0.175 HD
HETATM    7  C8  UNL     1     -25.450  44.694  11.725  1.00  0.00     0.324 C 
HETATM    8  O4  UNL     1     -25.688  44.007  12.730  1.00  0.00    -0.247 OA
HETATM    9  N4  UNL     1     -24.463  44.522  10.896  1.00  0.00    -0.339 N 
ATOM     10  H4  UNL     1     -24.320  45.124  10.085  1.00  0.00     0.164 HD
ENDROOT
BRANCH   1  11
HETATM   11  C6  UNL     1     -26.820  48.576   9.100  1.00  0.00     0.036 A 
HETATM   12  C5  UNL     1     -26.072  49.715   9.362  1.00  0.00     0.031 A 
HETATM   13  C4  UNL     1     -25.708  50.592   8.368  1.00  0.00     0.027 A 
HETATM   14  C3  UNL     1     -26.071  50.380   7.057  1.00  0.00     0.079 A 
HETATM   15  C17 UNL     1     -26.813  49.256   6.780  1.00  0.00     0.027 A 
HETATM   16  C16 UNL     1     -27.181  48.365   7.796  1.00  0.00     0.031 A 
BRANCH  14  17
HETATM   17  S1  UNL     1     -25.617  51.492   5.792  1.00  0.00     0.260 S 
HETATM   18  O1  UNL     1     -24.948  50.703   4.689  1.00  0.00    -0.200 OA
HETATM   19  O2  UNL     1     -24.555  52.423   6.350  1.00  0.00    -0.200 OA
BRANCH  17  20
HETATM   20  N1  UNL     1     -26.963  52.337   5.204  1.00  0.00    -0.315 N 
HETATM   21  C1  UNL     1     -27.423  51.963   3.913  1.00  0.00     0.162 C 
HETATM   22  C2  UNL     1     -27.958  52.681   6.163  1.00  0.00     0.162 C 
ENDBRANCH  17  20
ENDBRANCH  14  17
ENDBRANCH   1  11
BRANCH   9  23
HETATM   23  C9  UNL     1     -23.523  43.343  11.226  1.00  0.00     0.162 C 
BRANCH  23  24
HETATM   24  C10 UNL     1     -22.318  43.571  10.416  1.00  0.00    -0.040 A 
HETATM   25  C11 UNL     1     -22.235  44.653   9.556  1.00  0.00     0.009 A 
HETATM   26  C12 UNL     1     -21.115  44.891   8.794  1.00  0.00     0.001 A 
HETATM   27  C13 UNL     1     -20.056  44.023   8.897  1.00  0.00     0.000 A 
HETATM   28  C14 UNL     1     -20.070  42.931   9.729  1.00  0.00     0.001 A 
HETATM   29  C15 UNL     1     -21.207  42.728  10.475  1.00  0.00     0.009 A 
ENDBRANCH  23  24
ENDBRANCH   9  23
TORSDOF 5
ENDMDL
