MODEL 1
REMARK VINA RESULT: -7.395173531      0.000      0.000
REMARK  5 active torsions:
REMARK  status: ('A' for Active; 'I' for Inactive)
REMARK    1  A    between atoms: S1_2  and  C2_3 
REMARK    2  A    between atoms: C7_8  and  C8_9 
REMARK       I    between atoms: C8_9  and  N1_11 
REMARK    3  A    between atoms: N1_11  and  C9_13 
REMARK    4  A    between atoms: C12_16  and  S2_17 
REMARK    5  A    between atoms: S2_17  and  N2_20 
ROOT
HETATM    1  C9  UNL     1     -24.937  44.527  10.971  1.00  0.00     0.035 A 
HETATM    2  C10 UNL     1     -24.500  45.331   9.904  1.00  0.00     0.031 A 
HETATM    3  C11 UNL     1     -23.212  45.288   9.430  1.00  0.00     0.027 A 
HETATM    4  C12 UNL     1     -22.271  44.447   9.979  1.00  0.00     0.080 A 
HETATM    5  C14 UNL     1     -22.686  43.657  11.022  1.00  0.00     0.027 A 
HETATM    6  C15 UNL     1     -24.002  43.695  11.512  1.00  0.00     0.031 A 
ENDROOT
BRANCH   1   7
HETATM    7  N1  UNL     1     -26.278  44.624  11.422  1.00  0.00    -0.323 N 
HETATM    8  C8  UNL     1     -26.765  45.443  12.442  1.00  0.00     0.257 C 
HETATM    9  O1  UNL     1     -26.105  46.217  13.126  1.00  0.00    -0.267 OA
ATOM     10  H1  UNL     1     -26.960  44.031  10.950  1.00  0.00     0.169 HD
BRANCH   8  11
HETATM   11  C7  UNL     1     -28.222  45.363  12.724  1.00  0.00     0.049 A 
HETATM   12  C2  UNL     1     -29.127  46.101  12.040  1.00  0.00     0.015 A 
HETATM   13  C3  UNL     1     -30.481  45.977  12.349  1.00  0.00     0.019 A 
HETATM   14  C4  UNL     1     -30.929  45.127  13.332  1.00  0.00     0.001 A 
HETATM   15  C5  UNL     1     -29.994  44.385  14.018  1.00  0.00     0.001 A 
HETATM   16  C6  UNL     1     -28.650  44.496  13.723  1.00  0.00     0.018 A 
BRANCH  12  17
HETATM   17  S1  UNL     1     -28.566  47.208  10.757  1.00  0.00    -0.133 SA
HETATM   18  C1  UNL     1     -28.606  46.291   9.171  1.00  0.00     0.095 C 
ENDBRANCH  12  17
ENDBRANCH   8  11
ENDBRANCH   1   7
BRANCH   4  19
HETATM   19  S2  UNL     1     -20.633  44.399   9.370  1.00  0.00     0.264 S 
HETATM   20  O2  UNL     1     -20.574  44.823   7.944  1.00  0.00    -0.200 OA
HETATM   21  O3  UNL     1     -20.078  42.991   9.502  1.00  0.00    -0.200 OA
BRANCH  19  22
HETATM   22  N2  UNL     1     -19.676  45.413  10.382  1.00  0.00    -0.256 N 
HETATM   23  C13 UNL     1     -19.612  46.689  10.186  1.00  0.00     0.210 C 
HETATM   24  N3  UNL     1     -20.349  47.251   9.112  1.00  0.00    -0.066 NA
HETATM   25  N4  UNL     1     -18.836  47.538  11.001  1.00  0.00    -0.066 NA
ATOM     26  H2  UNL     1     -19.150  44.999  11.151  1.00  0.00     0.181 HD
ENDBRANCH  19  22
ENDBRANCH   4  19
TORSDOF 5
ENDMDL
MODEL 2
REMARK VINA RESULT: -7.201567278      1.314      1.363
REMARK  5 active torsions:
REMARK  status: ('A' for Active; 'I' for Inactive)
REMARK    1  A    between atoms: S1_2  and  C2_3 
REMARK    2  A    between atoms: C7_8  and  C8_9 
REMARK       I    between atoms: C8_9  and  N1_11 
REMARK    3  A    between atoms: N1_11  and  C9_13 
REMARK    4  A    between atoms: C12_16  and  S2_17 
REMARK    5  A    between atoms: S2_17  and  N2_20 
ROOT
HETATM    1  C9  UNL     1     -24.847  44.094  11.367  1.00  0.00     0.035 A 
HETATM    2  C10 UNL     1     -24.580  44.951  10.285  1.00  0.00     0.031 A 
HETATM    3  C11 UNL     1     -23.341  45.027   9.695  1.00  0.00     0.027 A 
HETATM    4  C12 UNL     1     -22.286  44.261  10.136  1.00  0.00     0.080 A 
HETATM    5  C14 UNL     1     -22.535  43.421  11.192  1.00  0.00     0.027 A 
HETATM    6  C15 UNL     1     -23.798  43.337  11.801  1.00  0.00     0.031 A 
ENDROOT
BRANCH   1   7
HETATM    7  N1  UNL     1     -26.143  44.067  11.940  1.00  0.00    -0.323 N 
HETATM    8  C8  UNL     1     -27.002  45.152  12.127  1.00  0.00     0.257 C 
HETATM    9  O1  UNL     1     -26.772  46.318  11.827  1.00  0.00    -0.267 OA
ATOM     10  H1  UNL     1     -26.485  43.157  12.249  1.00  0.00     0.169 HD
BRANCH   8  11
HETATM   11  C7  UNL     1     -28.320  44.860  12.750  1.00  0.00     0.049 A 
HETATM   12  C2  UNL     1     -29.334  44.296  12.054  1.00  0.00     0.015 A 
HETATM   13  C3  UNL     1     -30.545  44.044  12.698  1.00  0.00     0.019 A 
HETATM   14  C4  UNL     1     -30.743  44.351  14.023  1.00  0.00     0.001 A 
HETATM   15  C5  UNL     1     -29.700  44.925  14.715  1.00  0.00     0.001 A 
HETATM   16  C6  UNL     1     -28.496  45.181  14.091  1.00  0.00     0.018 A 
BRANCH  12  17
HETATM   17  S1  UNL     1     -29.096  43.886  10.334  1.00  0.00    -0.133 SA
HETATM   18  C1  UNL     1     -29.835  42.234  10.045  1.00  0.00     0.095 C 
ENDBRANCH  12  17
ENDBRANCH   8  11
ENDBRANCH   1   7
BRANCH   4  19
HETATM   19  S2  UNL     1     -20.713  44.365   9.379  1.00  0.00     0.264 S 
HETATM   20  O2  UNL     1     -20.819  44.856   7.978  1.00  0.00    -0.200 OA
HETATM   21  O3  UNL     1     -20.050  42.999   9.387  1.00  0.00    -0.200 OA
BRANCH  19  22
HETATM   22  N2  UNL     1     -19.741  45.402  10.352  1.00  0.00    -0.256 N 
HETATM   23  C13 UNL     1     -19.717  46.679  10.155  1.00  0.00     0.210 C 
HETATM   24  N3  UNL     1     -20.512  47.222   9.114  1.00  0.00    -0.066 NA
HETATM   25  N4  UNL     1     -18.928  47.547  10.939  1.00  0.00    -0.066 NA
ATOM     26  H2  UNL     1     -19.172  45.000  11.097  1.00  0.00     0.181 HD
ENDBRANCH  19  22
ENDBRANCH   4  19
TORSDOF 5
ENDMDL
MODEL 3
REMARK VINA RESULT: -6.479279187      1.216      2.164
REMARK  5 active torsions:
REMARK  status: ('A' for Active; 'I' for Inactive)
REMARK    1  A    between atoms: S1_2  and  C2_3 
REMARK    2  A    between atoms: C7_8  and  C8_9 
REMARK       I    between atoms: C8_9  and  N1_11 
REMARK    3  A    between atoms: N1_11  and  C9_13 
REMARK    4  A    between atoms: C12_16  and  S2_17 
REMARK    5  A    between atoms: S2_17  and  N2_20 
ROOT
HETATM    1  C9  UNL     1     -25.016  44.892  10.380  1.00  0.00     0.035 A 
HETATM    2  C10 UNL     1     -24.318  45.494   9.319  1.00  0.00     0.031 A 
HETATM    3  C11 UNL     1     -22.967  45.320   9.133  1.00  0.00     0.027 A 
HETATM    4  C12 UNL     1     -22.220  44.538   9.985  1.00  0.00     0.080 A 
HETATM    5  C14 UNL     1     -22.892  43.946  11.025  1.00  0.00     0.027 A 
HETATM    6  C15 UNL     1     -24.271  44.119  11.221  1.00  0.00     0.031 A 
ENDROOT
BRANCH   1   7
HETATM    7  N1  UNL     1     -26.408  45.118  10.523  1.00  0.00    -0.323 N 
HETATM    8  C8  UNL     1     -27.030  46.297  10.939  1.00  0.00     0.257 C 
HETATM    9  O1  UNL     1     -26.468  47.339  11.256  1.00  0.00    -0.267 OA
ATOM     10  H1  UNL     1     -27.021  44.335  10.299  1.00  0.00     0.169 HD
BRANCH   8  11
HETATM   11  C7  UNL     1     -28.515  46.281  11.005  1.00  0.00     0.049 A 
HETATM   12  C2  UNL     1     -29.181  45.799  12.080  1.00  0.00     0.015 A 
HETATM   13  C3  UNL     1     -30.576  45.815  12.082  1.00  0.00     0.019 A 
HETATM   14  C4  UNL     1     -31.299  46.306  11.021  1.00  0.00     0.001 A 
HETATM   15  C5  UNL     1     -30.605  46.791   9.936  1.00  0.00     0.001 A 
HETATM   16  C6  UNL     1     -29.225  46.782   9.919  1.00  0.00     0.018 A 
BRANCH  12  17
HETATM   17  S1  UNL     1     -28.260  45.160  13.469  1.00  0.00    -0.133 SA
HETATM   18  C1  UNL     1     -29.444  44.318  14.585  1.00  0.00     0.095 C 
ENDBRANCH  12  17
ENDBRANCH   8  11
ENDBRANCH   1   7
BRANCH   4  19
HETATM   19  S2  UNL     1     -20.502  44.322   9.742  1.00  0.00     0.264 S 
HETATM   20  O2  UNL     1     -20.169  44.225   8.295  1.00  0.00    -0.200 OA
HETATM   21  O3  UNL     1     -20.039  43.062  10.453  1.00  0.00    -0.200 OA
BRANCH  19  22
HETATM   22  N2  UNL     1     -19.703  45.648  10.498  1.00  0.00    -0.256 N 
HETATM   23  C13 UNL     1     -19.695  46.823   9.959  1.00  0.00     0.210 C 
HETATM   24  N3  UNL     1     -20.362  47.008   8.721  1.00  0.00    -0.066 NA
HETATM   25  N4  UNL     1     -19.049  47.922  10.559  1.00  0.00    -0.066 NA
ATOM     26  H2  UNL     1     -19.227  45.504  11.388  1.00  0.00     0.181 HD
ENDBRANCH  19  22
ENDBRANCH   4  19
TORSDOF 5
ENDMDL
MODEL 4
REMARK VINA RESULT: -6.376545593      1.126      1.126
REMARK  5 active torsions:
REMARK  status: ('A' for Active; 'I' for Inactive)
REMARK    1  A    between atoms: S1_2  and  C2_3 
REMARK    2  A    between atoms: C7_8  and  C8_9 
REMARK       I    between atoms: C8_9  and  N1_11 
REMARK    3  A    between atoms: N1_11  and  C9_13 
REMARK    4  A    between atoms: C12_16  and  S2_17 
REMARK    5  A    between atoms: S2_17  and  N2_20 
ROOT
HETATM    1  C9  UNL     1     -25.105  44.636  11.160  1.00  0.00     0.035 A 
HETATM    2  C10 UNL     1     -24.672  45.475  10.117  1.00  0.00     0.031 A 
HETATM    3  C11 UNL     1     -23.405  45.403   9.593  1.00  0.00     0.027 A 
HETATM    4  C12 UNL     1     -22.482  44.497  10.064  1.00  0.00     0.080 A 
HETATM    5  C14 UNL     1     -22.893  43.673  11.082  1.00  0.00     0.027 A 
HETATM    6  C15 UNL     1     -24.187  43.741  11.623  1.00  0.00     0.031 A 
ENDROOT
BRANCH   1   7
HETATM    7  N1  UNL     1     -26.423  44.765  11.665  1.00  0.00    -0.323 N 
HETATM    8  C8  UNL     1     -27.612  44.710  10.936  1.00  0.00     0.257 C 
HETATM    9  O1  UNL     1     -27.712  44.544   9.726  1.00  0.00    -0.267 OA
ATOM     10  H1  UNL     1     -26.511  44.914  12.670  1.00  0.00     0.169 HD
BRANCH   8  11
HETATM   11  C7  UNL     1     -28.874  44.870  11.704  1.00  0.00     0.049 A 
HETATM   12  C2  UNL     1     -29.539  46.048  11.754  1.00  0.00     0.015 A 
HETATM   13  C3  UNL     1     -30.721  46.133  12.490  1.00  0.00     0.019 A 
HETATM   14  C4  UNL     1     -31.234  45.054  13.170  1.00  0.00     0.001 A 
HETATM   15  C5  UNL     1     -30.544  43.865  13.108  1.00  0.00     0.001 A 
HETATM   16  C6  UNL     1     -29.373  43.765  12.384  1.00  0.00     0.018 A 
BRANCH  12  17
HETATM   17  S1  UNL     1     -28.891  47.460  10.875  1.00  0.00    -0.133 SA
HETATM   18  C1  UNL     1     -29.672  47.493   9.218  1.00  0.00     0.095 C 
ENDBRANCH  12  17
ENDBRANCH   8  11
ENDBRANCH   1   7
BRANCH   4  19
HETATM   19  S2  UNL     1     -20.870  44.413   9.391  1.00  0.00     0.264 S 
HETATM   20  O2  UNL     1     -20.857  44.844   7.967  1.00  0.00    -0.200 OA
HETATM   21  O3  UNL     1     -20.346  42.991   9.493  1.00  0.00    -0.200 OA
BRANCH  19  22
HETATM   22  N2  UNL     1     -19.850  45.397  10.370  1.00  0.00    -0.256 N 
HETATM   23  C13 UNL     1     -19.731  46.665  10.153  1.00  0.00     0.210 C 
HETATM   24  N3  UNL     1     -20.460  47.244   9.083  1.00  0.00    -0.066 NA
HETATM   25  N4  UNL     1     -18.902  47.490  10.941  1.00  0.00    -0.066 NA
ATOM     26  H2  UNL     1     -19.330  44.970  11.136  1.00  0.00     0.181 HD
ENDBRANCH  19  22
ENDBRANCH   4  19
TORSDOF 5
ENDMDL
MODEL 5
REMARK VINA RESULT: -6.295741344      2.942      8.494
REMARK  5 active torsions:
REMARK  status: ('A' for Active; 'I' for Inactive)
REMARK    1  A    between atoms: S1_2  and  C2_3 
REMARK    2  A    between atoms: C7_8  and  C8_9 
REMARK       I    between atoms: C8_9  and  N1_11 
REMARK    3  A    between atoms: N1_11  and  C9_13 
REMARK    4  A    between atoms: C12_16  and  S2_17 
REMARK    5  A    between atoms: S2_17  and  N2_20 
ROOT
HETATM    1  C9  UNL     1     -25.477  44.737  11.854  1.00  0.00     0.035 A 
HETATM    2  C10 UNL     1     -26.622  44.093  11.353  1.00  0.00     0.031 A 
HETATM    3  C11 UNL     1     -27.894  44.461  11.722  1.00  0.00     0.027 A 
HETATM    4  C12 UNL     1     -28.116  45.489  12.609  1.00  0.00     0.080 A 
HETATM    5  C14 UNL     1     -27.004  46.125  13.105  1.00  0.00     0.027 A 
HETATM    6  C15 UNL     1     -25.702  45.755  12.733  1.00  0.00     0.031 A 
ENDROOT
BRANCH   1   7
HETATM    7  N1  UNL     1     -24.191  44.306  11.442  1.00  0.00    -0.323 N 
HETATM    8  C8  UNL     1     -23.528  44.646  10.261  1.00  0.00     0.257 C 
HETATM    9  O1  UNL     1     -23.956  45.377   9.376  1.00  0.00    -0.267 OA
ATOM     10  H1  UNL     1     -23.697  43.679  12.077  1.00  0.00     0.169 HD
BRANCH   8  11
HETATM   11  C7  UNL     1     -22.176  44.061  10.062  1.00  0.00     0.049 A 
HETATM   12  C2  UNL     1     -21.161  44.770   9.517  1.00  0.00     0.015 A 
HETATM   13  C3  UNL     1     -19.914  44.165   9.361  1.00  0.00     0.019 A 
HETATM   14  C4  UNL     1     -19.682  42.866   9.744  1.00  0.00     0.001 A 
HETATM   15  C5  UNL     1     -20.727  42.160  10.295  1.00  0.00     0.001 A 
HETATM   16  C6  UNL     1     -21.967  42.745  10.456  1.00  0.00     0.018 A 
BRANCH  12  17
HETATM   17  S1  UNL     1     -21.440  46.461   9.018  1.00  0.00    -0.133 SA
HETATM   18  C1  UNL     1     -19.891  47.394   9.312  1.00  0.00     0.095 C 
ENDBRANCH  12  17
ENDBRANCH   8  11
ENDBRANCH   1   7
BRANCH   4  19
HETATM   19  S2  UNL     1     -29.737  45.950  13.074  1.00  0.00     0.264 S 
HETATM   20  O2  UNL     1     -30.717  44.878  12.750  1.00  0.00    -0.200 OA
HETATM   21  O3  UNL     1     -30.131  47.229  12.357  1.00  0.00    -0.200 OA
BRANCH  19  22
HETATM   22  N2  UNL     1     -29.709  46.307  14.760  1.00  0.00    -0.256 N 
HETATM   23  C13 UNL     1     -29.650  45.366  15.644  1.00  0.00     0.210 C 
HETATM   24  N3  UNL     1     -29.609  44.019  15.203  1.00  0.00    -0.066 NA
HETATM   25  N4  UNL     1     -29.626  45.635  17.028  1.00  0.00    -0.066 NA
ATOM     26  H2  UNL     1     -29.739  47.279  15.065  1.00  0.00     0.181 HD
ENDBRANCH  19  22
ENDBRANCH   4  19
TORSDOF 5
ENDMDL
