MODEL 1
REMARK VINA RESULT: -7.530817104      0.000      0.000
REMARK  8 active torsions:
REMARK  status: ('A' for Active; 'I' for Inactive)
REMARK    1  A    between atoms: C1_2  and  C2_4 
REMARK    2  A    between atoms: C2_4  and  C3_5 
REMARK    3  A    between atoms: C3_5  and  C4_6 
REMARK    4  A    between atoms: C4_6  and  C20_27 
REMARK       I    between atoms: N1_7  and  C5_9 
REMARK    5  A    between atoms: C5_9  and  C6_11 
REMARK    6  A    between atoms: C9_14  and  C10_15 
REMARK    7  A    between atoms: C11_16  and  C12_17 
REMARK    8  A    between atoms: C15_20  and  O4_21 
ROOT
HETATM    1  C6  UNL     1     -29.073  45.114  13.145  1.00  0.00     0.032 A 
HETATM    2  C7  UNL     1     -27.954  45.778  13.593  1.00  0.00     0.018 A 
HETATM    3  C8  UNL     1     -26.698  45.563  13.068  1.00  0.00     0.022 A 
HETATM    4  C9  UNL     1     -26.550  44.638  12.041  1.00  0.00     0.018 A 
HETATM    5  C18 UNL     1     -27.685  43.987  11.611  1.00  0.00     0.022 A 
HETATM    6  C19 UNL     1     -28.929  44.201  12.133  1.00  0.00     0.018 A 
ENDROOT
BRANCH   1   7
HETATM    7  C5  UNL     1     -30.393  45.370  13.739  1.00  0.00     0.256 C 
HETATM    8  N1  UNL     1     -30.607  45.755  15.073  1.00  0.00    -0.321 N 
HETATM    9  C4  UNL     1     -30.773  44.894  16.065  1.00  0.00     0.089 C 
ATOM     10  H1  UNL     1     -30.637  46.751  15.289  1.00  0.00     0.169 HD
HETATM   11  O3  UNL     1     -31.392  45.233  12.996  1.00  0.00    -0.267 OA
BRANCH   9  12
HETATM   12  C3  UNL     1     -30.722  43.487  15.697  1.00  0.00     0.075 C 
BRANCH  12  13
HETATM   13  C2  UNL     1     -29.517  42.707  16.039  1.00  0.00     0.119 C 
BRANCH  13  14
HETATM   14  C1  UNL     1     -29.385  42.138  17.376  1.00  0.00     0.172 C 
HETATM   15  O1  UNL     1     -28.673  42.686  18.249  1.00  0.00    -0.648 OA
HETATM   16  O2  UNL     1     -30.047  40.950  17.743  1.00  0.00    -0.648 OA
ENDBRANCH  13  14
ENDBRANCH  12  13
ENDBRANCH   9  12
BRANCH   9  17
HETATM   17  C20 UNL     1     -31.000  45.451  17.355  1.00  0.00     0.222 C 
HETATM   18  O5  UNL     1     -32.114  45.617  17.867  1.00  0.00    -0.643 OA
HETATM   19  O6  UNL     1     -29.885  45.851  18.123  1.00  0.00    -0.643 OA
ENDBRANCH   9  17
ENDBRANCH   1   7
BRANCH   4  20
HETATM   20  C10 UNL     1     -25.241  44.414  11.504  1.00  0.00    -0.061 C 
HETATM   21  C11 UNL     1     -24.139  44.214  11.056  1.00  0.00    -0.061 C 
BRANCH  21  22
HETATM   22  C12 UNL     1     -22.824  43.960  10.543  1.00  0.00     0.018 A 
HETATM   23  C13 UNL     1     -22.140  44.841   9.727  1.00  0.00     0.023 A 
HETATM   24  C14 UNL     1     -20.875  44.576   9.245  1.00  0.00     0.038 A 
HETATM   25  C15 UNL     1     -20.244  43.397   9.573  1.00  0.00     0.065 A 
HETATM   26  C16 UNL     1     -20.921  42.509  10.389  1.00  0.00     0.038 A 
HETATM   27  C17 UNL     1     -22.191  42.783  10.869  1.00  0.00     0.023 A 
BRANCH  25  28
HETATM   28  O4  UNL     1     -18.974  43.157   9.073  1.00  0.00    -0.361 OA
ATOM     29  H4  UNL     1     -18.881  42.895   8.165  1.00  0.00     0.217 HD
ENDBRANCH  25  28
ENDBRANCH  21  22
ENDBRANCH   4  20
TORSDOF 8
ENDMDL
MODEL 2
REMARK VINA RESULT: -7.462380007      0.099      1.101
REMARK  8 active torsions:
REMARK  status: ('A' for Active; 'I' for Inactive)
REMARK    1  A    between atoms: C1_2  and  C2_4 
REMARK    2  A    between atoms: C2_4  and  C3_5 
REMARK    3  A    between atoms: C3_5  and  C4_6 
REMARK    4  A    between atoms: C4_6  and  C20_27 
REMARK       I    between atoms: N1_7  and  C5_9 
REMARK    5  A    between atoms: C5_9  and  C6_11 
REMARK    6  A    between atoms: C9_14  and  C10_15 
REMARK    7  A    between atoms: C11_16  and  C12_17 
REMARK    8  A    between atoms: C15_20  and  O4_21 
ROOT
HETATM    1  C6  UNL     1     -29.023  45.200  13.137  1.00  0.00     0.032 A 
HETATM    2  C7  UNL     1     -27.894  45.851  13.580  1.00  0.00     0.018 A 
HETATM    3  C8  UNL     1     -26.641  45.616  13.055  1.00  0.00     0.022 A 
HETATM    4  C9  UNL     1     -26.507  44.683  12.033  1.00  0.00     0.018 A 
HETATM    5  C18 UNL     1     -27.652  44.046  11.607  1.00  0.00     0.022 A 
HETATM    6  C19 UNL     1     -28.892  44.279  12.129  1.00  0.00     0.018 A 
ENDROOT
BRANCH   1   7
HETATM    7  C5  UNL     1     -30.338  45.476  13.730  1.00  0.00     0.256 C 
HETATM    8  N1  UNL     1     -30.550  45.830  15.074  1.00  0.00    -0.321 N 
HETATM    9  C4  UNL     1     -30.746  44.947  16.040  1.00  0.00     0.089 C 
ATOM     10  H1  UNL     1     -30.552  46.820  15.318  1.00  0.00     0.169 HD
HETATM   11  O3  UNL     1     -31.337  45.389  12.978  1.00  0.00    -0.267 OA
BRANCH   9  12
HETATM   12  C3  UNL     1     -30.733  43.550  15.633  1.00  0.00     0.075 C 
BRANCH  12  13
HETATM   13  C2  UNL     1     -29.554  42.725  15.962  1.00  0.00     0.119 C 
BRANCH  13  14
HETATM   14  C1  UNL     1     -29.439  42.133  17.290  1.00  0.00     0.172 C 
HETATM   15  O1  UNL     1     -30.093  41.112  17.606  1.00  0.00    -0.648 OA
HETATM   16  O2  UNL     1     -28.593  42.681  18.274  1.00  0.00    -0.648 OA
ENDBRANCH  13  14
ENDBRANCH  12  13
ENDBRANCH   9  12
BRANCH   9  17
HETATM   17  C20 UNL     1     -30.966  45.474  17.344  1.00  0.00     0.222 C 
HETATM   18  O5  UNL     1     -32.076  45.628  17.867  1.00  0.00    -0.643 OA
HETATM   19  O6  UNL     1     -29.846  45.856  18.114  1.00  0.00    -0.643 OA
ENDBRANCH   9  17
ENDBRANCH   1   7
BRANCH   4  20
HETATM   20  C10 UNL     1     -25.202  44.438  11.495  1.00  0.00    -0.061 C 
HETATM   21  C11 UNL     1     -24.105  44.220  11.045  1.00  0.00    -0.061 C 
BRANCH  21  22
HETATM   22  C12 UNL     1     -22.799  43.939  10.522  1.00  0.00     0.018 A 
HETATM   23  C13 UNL     1     -22.094  42.787  10.810  1.00  0.00     0.023 A 
HETATM   24  C14 UNL     1     -20.838  42.537  10.295  1.00  0.00     0.038 A 
HETATM   25  C15 UNL     1     -20.240  43.454   9.460  1.00  0.00     0.065 A 
HETATM   26  C16 UNL     1     -20.939  44.611   9.167  1.00  0.00     0.038 A 
HETATM   27  C17 UNL     1     -22.199  44.854   9.687  1.00  0.00     0.023 A 
BRANCH  25  28
HETATM   28  O4  UNL     1     -18.978  43.178   8.959  1.00  0.00    -0.361 OA
ATOM     29  H4  UNL     1     -18.708  43.588   8.145  1.00  0.00     0.217 HD
ENDBRANCH  25  28
ENDBRANCH  21  22
ENDBRANCH   4  20
TORSDOF 8
ENDMDL
MODEL 3
REMARK VINA RESULT: -7.456227156      0.923      1.182
REMARK  8 active torsions:
REMARK  status: ('A' for Active; 'I' for Inactive)
REMARK    1  A    between atoms: C1_2  and  C2_4 
REMARK    2  A    between atoms: C2_4  and  C3_5 
REMARK    3  A    between atoms: C3_5  and  C4_6 
REMARK    4  A    between atoms: C4_6  and  C20_27 
REMARK       I    between atoms: N1_7  and  C5_9 
REMARK    5  A    between atoms: C5_9  and  C6_11 
REMARK    6  A    between atoms: C9_14  and  C10_15 
REMARK    7  A    between atoms: C11_16  and  C12_17 
REMARK    8  A    between atoms: C15_20  and  O4_21 
ROOT
HETATM    1  C6  UNL     1     -28.950  45.259  13.189  1.00  0.00     0.032 A 
HETATM    2  C7  UNL     1     -27.818  45.928  13.598  1.00  0.00     0.018 A 
HETATM    3  C8  UNL     1     -26.573  45.690  13.056  1.00  0.00     0.022 A 
HETATM    4  C9  UNL     1     -26.450  44.736  12.053  1.00  0.00     0.018 A 
HETATM    5  C18 UNL     1     -27.596  44.081  11.661  1.00  0.00     0.022 A 
HETATM    6  C19 UNL     1     -28.829  44.317  12.200  1.00  0.00     0.018 A 
ENDROOT
BRANCH   1   7
HETATM    7  C5  UNL     1     -30.257  45.539  13.799  1.00  0.00     0.256 C 
HETATM    8  N1  UNL     1     -30.457  46.377  14.909  1.00  0.00    -0.321 N 
HETATM    9  C4  UNL     1     -30.412  45.954  16.162  1.00  0.00     0.089 C 
ATOM     10  H1  UNL     1     -30.646  47.365  14.740  1.00  0.00     0.169 HD
HETATM   11  O3  UNL     1     -31.259  44.988  13.287  1.00  0.00    -0.267 OA
BRANCH   9  12
HETATM   12  C3  UNL     1     -30.138  44.536  16.343  1.00  0.00     0.075 C 
BRANCH  12  13
HETATM   13  C2  UNL     1     -30.432  43.917  17.650  1.00  0.00     0.119 C 
BRANCH  13  14
HETATM   14  C1  UNL     1     -29.333  43.552  18.536  1.00  0.00     0.172 C 
HETATM   15  O1  UNL     1     -28.813  42.412  18.493  1.00  0.00    -0.648 OA
HETATM   16  O2  UNL     1     -28.807  44.460  19.476  1.00  0.00    -0.648 OA
ENDBRANCH  13  14
ENDBRANCH  12  13
ENDBRANCH   9  12
BRANCH   9  17
HETATM   17  C20 UNL     1     -30.657  46.930  17.169  1.00  0.00     0.222 C 
HETATM   18  O5  UNL     1     -31.756  47.448  17.399  1.00  0.00    -0.643 OA
HETATM   19  O6  UNL     1     -29.578  47.352  17.976  1.00  0.00    -0.643 OA
ENDBRANCH   9  17
ENDBRANCH   1   7
BRANCH   4  20
HETATM   20  C10 UNL     1     -25.152  44.489  11.498  1.00  0.00    -0.061 C 
HETATM   21  C11 UNL     1     -24.059  44.270  11.037  1.00  0.00    -0.061 C 
BRANCH  21  22
HETATM   22  C12 UNL     1     -22.754  43.995  10.509  1.00  0.00     0.018 A 
HETATM   23  C13 UNL     1     -22.091  44.838   9.638  1.00  0.00     0.023 A 
HETATM   24  C14 UNL     1     -20.835  44.554   9.142  1.00  0.00     0.038 A 
HETATM   25  C15 UNL     1     -20.194  43.393   9.512  1.00  0.00     0.065 A 
HETATM   26  C16 UNL     1     -20.851  42.543  10.383  1.00  0.00     0.038 A 
HETATM   27  C17 UNL     1     -22.112  42.836  10.876  1.00  0.00     0.023 A 
BRANCH  25  28
HETATM   28  O4  UNL     1     -18.934  43.132   8.997  1.00  0.00    -0.361 OA
ATOM     29  H4  UNL     1     -18.189  43.136   9.586  1.00  0.00     0.217 HD
ENDBRANCH  25  28
ENDBRANCH  21  22
ENDBRANCH   4  20
TORSDOF 8
ENDMDL
MODEL 4
REMARK VINA RESULT: -7.437432073      2.592      3.228
REMARK  8 active torsions:
REMARK  status: ('A' for Active; 'I' for Inactive)
REMARK    1  A    between atoms: C1_2  and  C2_4 
REMARK    2  A    between atoms: C2_4  and  C3_5 
REMARK    3  A    between atoms: C3_5  and  C4_6 
REMARK    4  A    between atoms: C4_6  and  C20_27 
REMARK       I    between atoms: N1_7  and  C5_9 
REMARK    5  A    between atoms: C5_9  and  C6_11 
REMARK    6  A    between atoms: C9_14  and  C10_15 
REMARK    7  A    between atoms: C11_16  and  C12_17 
REMARK    8  A    between atoms: C15_20  and  O4_21 
ROOT
HETATM    1  C6  UNL     1     -29.240  45.664  12.200  1.00  0.00     0.032 A 
HETATM    2  C7  UNL     1     -28.340  45.095  13.073  1.00  0.00     0.018 A 
HETATM    3  C8  UNL     1     -27.040  44.803  12.721  1.00  0.00     0.022 A 
HETATM    4  C9  UNL     1     -26.614  45.094  11.430  1.00  0.00     0.018 A 
HETATM    5  C18 UNL     1     -27.533  45.663  10.576  1.00  0.00     0.022 A 
HETATM    6  C19 UNL     1     -28.821  45.951  10.926  1.00  0.00     0.018 A 
ENDROOT
BRANCH   1   7
HETATM    7  C5  UNL     1     -30.619  45.952  12.616  1.00  0.00     0.256 C 
HETATM    8  N1  UNL     1     -31.388  45.131  13.458  1.00  0.00    -0.321 N 
HETATM    9  C4  UNL     1     -32.152  44.144  13.019  1.00  0.00     0.089 C 
ATOM     10  H1  UNL     1     -31.354  45.304  14.463  1.00  0.00     0.169 HD
HETATM   11  O3  UNL     1     -31.140  47.007  12.185  1.00  0.00    -0.267 OA
BRANCH   9  12
HETATM   12  C3  UNL     1     -32.161  43.945  11.577  1.00  0.00     0.075 C 
BRANCH  12  13
HETATM   13  C2  UNL     1     -31.804  42.616  11.042  1.00  0.00     0.119 C 
BRANCH  13  14
HETATM   14  C1  UNL     1     -30.513  42.029  11.382  1.00  0.00     0.172 C 
HETATM   15  O1  UNL     1     -30.415  41.134  12.254  1.00  0.00    -0.648 OA
HETATM   16  O2  UNL     1     -29.324  42.439  10.749  1.00  0.00    -0.648 OA
ENDBRANCH  13  14
ENDBRANCH  12  13
ENDBRANCH   9  12
BRANCH   9  17
HETATM   17  C20 UNL     1     -32.882  43.422  14.004  1.00  0.00     0.222 C 
HETATM   18  O5  UNL     1     -34.099  43.526  14.201  1.00  0.00    -0.643 OA
HETATM   19  O6  UNL     1     -32.184  42.514  14.829  1.00  0.00    -0.643 OA
ENDBRANCH   9  17
ENDBRANCH   1   7
BRANCH   4  20
HETATM   20  C10 UNL     1     -25.263  44.782  11.067  1.00  0.00    -0.061 C 
HETATM   21  C11 UNL     1     -24.129  44.508  10.761  1.00  0.00    -0.061 C 
BRANCH  21  22
HETATM   22  C12 UNL     1     -22.785  44.158  10.404  1.00  0.00     0.018 A 
HETATM   23  C13 UNL     1     -21.919  45.018   9.757  1.00  0.00     0.023 A 
HETATM   24  C14 UNL     1     -20.629  44.660   9.424  1.00  0.00     0.038 A 
HETATM   25  C15 UNL     1     -20.158  43.405   9.736  1.00  0.00     0.065 A 
HETATM   26  C16 UNL     1     -21.018  42.537  10.384  1.00  0.00     0.038 A 
HETATM   27  C17 UNL     1     -22.312  42.904  10.715  1.00  0.00     0.023 A 
BRANCH  25  28
HETATM   28  O4  UNL     1     -18.859  43.073   9.388  1.00  0.00    -0.361 OA
ATOM     29  H4  UNL     1     -18.156  43.278   9.994  1.00  0.00     0.217 HD
ENDBRANCH  25  28
ENDBRANCH  21  22
ENDBRANCH   4  20
TORSDOF 8
ENDMDL
MODEL 5
REMARK VINA RESULT: -7.359712104      2.822      3.431
REMARK  8 active torsions:
REMARK  status: ('A' for Active; 'I' for Inactive)
REMARK    1  A    between atoms: C1_2  and  C2_4 
REMARK    2  A    between atoms: C2_4  and  C3_5 
REMARK    3  A    between atoms: C3_5  and  C4_6 
REMARK    4  A    between atoms: C4_6  and  C20_27 
REMARK       I    between atoms: N1_7  and  C5_9 
REMARK    5  A    between atoms: C5_9  and  C6_11 
REMARK    6  A    between atoms: C9_14  and  C10_15 
REMARK    7  A    between atoms: C11_16  and  C12_17 
REMARK    8  A    between atoms: C15_20  and  O4_21 
ROOT
HETATM    1  C6  UNL     1     -29.262  45.599  12.112  1.00  0.00     0.032 A 
HETATM    2  C7  UNL     1     -28.768  45.804  10.844  1.00  0.00     0.018 A 
HETATM    3  C8  UNL     1     -27.466  45.517  10.494  1.00  0.00     0.022 A 
HETATM    4  C9  UNL     1     -26.611  44.998  11.459  1.00  0.00     0.018 A 
HETATM    5  C18 UNL     1     -27.130  44.801  12.719  1.00  0.00     0.022 A 
HETATM    6  C19 UNL     1     -28.420  45.086  13.065  1.00  0.00     0.018 A 
ENDROOT
BRANCH   1   7
HETATM    7  C5  UNL     1     -30.656  45.925  12.444  1.00  0.00     0.256 C 
HETATM    8  N1  UNL     1     -31.499  45.121  13.230  1.00  0.00    -0.321 N 
HETATM    9  C4  UNL     1     -32.263  44.161  12.734  1.00  0.00     0.089 C 
ATOM     10  H1  UNL     1     -31.523  45.286  14.236  1.00  0.00     0.169 HD
HETATM   11  O3  UNL     1     -31.117  46.998  11.992  1.00  0.00    -0.267 OA
BRANCH   9  12
HETATM   12  C3  UNL     1     -32.189  43.972  11.293  1.00  0.00     0.075 C 
BRANCH  12  13
HETATM   13  C2  UNL     1     -31.781  42.653  10.770  1.00  0.00     0.119 C 
BRANCH  13  14
HETATM   14  C1  UNL     1     -30.506  42.079  11.185  1.00  0.00     0.172 C 
HETATM   15  O1  UNL     1     -29.436  42.386  10.608  1.00  0.00    -0.648 OA
HETATM   16  O2  UNL     1     -30.419  41.157  12.246  1.00  0.00    -0.648 OA
ENDBRANCH  13  14
ENDBRANCH  12  13
ENDBRANCH   9  12
BRANCH   9  17
HETATM   17  C20 UNL     1     -33.075  43.453  13.666  1.00  0.00     0.222 C 
HETATM   18  O5  UNL     1     -32.693  42.501  14.356  1.00  0.00    -0.643 OA
HETATM   19  O6  UNL     1     -34.419  43.853  13.828  1.00  0.00    -0.643 OA
ENDBRANCH   9  17
ENDBRANCH   1   7
BRANCH   4  20
HETATM   20  C10 UNL     1     -25.258  44.708  11.090  1.00  0.00    -0.061 C 
HETATM   21  C11 UNL     1     -24.121  44.451  10.779  1.00  0.00    -0.061 C 
BRANCH  21  22
HETATM   22  C12 UNL     1     -22.772  44.123  10.417  1.00  0.00     0.018 A 
HETATM   23  C13 UNL     1     -21.921  44.999   9.773  1.00  0.00     0.023 A 
HETATM   24  C14 UNL     1     -20.626  44.662   9.435  1.00  0.00     0.038 A 
HETATM   25  C15 UNL     1     -20.137  43.412   9.738  1.00  0.00     0.065 A 
HETATM   26  C16 UNL     1     -20.983  42.528  10.383  1.00  0.00     0.038 A 
HETATM   27  C17 UNL     1     -22.281  42.874  10.720  1.00  0.00     0.023 A 
BRANCH  25  28
HETATM   28  O4  UNL     1     -18.834  43.100   9.385  1.00  0.00    -0.361 OA
ATOM     29  H4  UNL     1     -18.129  43.347   9.973  1.00  0.00     0.217 HD
ENDBRANCH  25  28
ENDBRANCH  21  22
ENDBRANCH   4  20
TORSDOF 8
ENDMDL
