MODEL 1
REMARK VINA RESULT: -6.130978614      0.000      0.000
REMARK  9 active torsions:
REMARK  status: ('A' for Active; 'I' for Inactive)
REMARK    1  A    between atoms: C2_2  and  O1_3 
REMARK    2  A    between atoms: C2_2  and  N1_5 
REMARK    3  A    between atoms: N1_5  and  C3_6 
REMARK    4  A    between atoms: N1_5  and  C16_28 
REMARK    5  A    between atoms: C3_6  and  C5_8 
REMARK       I    between atoms: C5_8  and  N2_10 
REMARK    6  A    between atoms: N2_10  and  N3_12 
REMARK       I    between atoms: N3_12  and  C6_14 
REMARK       I    between atoms: C6_14  and  N4_16 
REMARK    7  A    between atoms: N4_16  and  C7_18 
REMARK    8  A    between atoms: C10_21  and  C11_22 
REMARK    9  A    between atoms: C11_22  and  N5_23 
ROOT
HETATM    1  N3  UNL     1     -29.144  46.024  14.405  1.00  0.00    -0.249 N 
ATOM      2  H3  UNL     1     -28.969  47.002  14.637  1.00  0.00     0.192 HD
HETATM    3  C6  UNL     1     -28.259  45.321  13.501  1.00  0.00     0.339 C 
HETATM    4  O3  UNL     1     -28.512  44.120  13.245  1.00  0.00    -0.245 OA
HETATM    5  N4  UNL     1     -27.165  46.006  12.953  1.00  0.00    -0.308 N 
ATOM      6  H4  UNL     1     -27.065  46.982  13.235  1.00  0.00     0.170 HD
ENDROOT
BRANCH   1   7
HETATM    7  N2  UNL     1     -30.231  45.363  14.952  1.00  0.00    -0.264 N 
HETATM    8  C5  UNL     1     -30.404  45.085  16.330  1.00  0.00     0.258 C 
HETATM    9  O2  UNL     1     -29.514  45.458  17.115  1.00  0.00    -0.269 OA
ATOM     10  H2  UNL     1     -30.963  45.053  14.313  1.00  0.00     0.190 HD
BRANCH   8  11
HETATM   11  C3  UNL     1     -31.613  44.372  16.798  1.00  0.00     0.176 C 
HETATM   12  C4  UNL     1     -32.872  45.041  16.335  1.00  0.00     0.042 C 
BRANCH  11  13
HETATM   13  N1  UNL     1     -31.573  42.942  16.610  1.00  0.00    -0.344 N 
BRANCH  13  14
HETATM   14  C2  UNL     1     -32.000  42.435  15.358  1.00  0.00     0.110 C 
HETATM   15  C1  UNL     1     -33.324  41.943  14.979  1.00  0.00     0.097 C 
BRANCH  14  16
HETATM   16  O1  UNL     1     -31.067  42.415  14.444  1.00  0.00    -0.350 OA
ATOM     17  H1  UNL     1     -30.589  43.221  14.289  1.00  0.00     0.219 HD
ENDBRANCH  14  16
ENDBRANCH  13  14
BRANCH  13  18
HETATM   18  C16 UNL     1     -31.123  42.010  17.599  1.00  0.00     0.024 C 
HETATM   19  C17 UNL     1     -29.716  41.530  17.339  1.00  0.00     0.037 C 
HETATM   20  C18 UNL     1     -31.118  42.703  18.975  1.00  0.00     0.037 C 
HETATM   21  C19 UNL     1     -31.973  40.785  17.789  1.00  0.00     0.037 C 
ENDBRANCH  13  18
ENDBRANCH  11  13
ENDBRANCH   8  11
ENDBRANCH   1   7
BRANCH   5  22
HETATM   22  C7  UNL     1     -26.190  45.525  12.066  1.00  0.00     0.036 A 
HETATM   23  C8  UNL     1     -25.988  46.024  10.823  1.00  0.00     0.030 A 
HETATM   24  C9  UNL     1     -24.976  45.506   9.985  1.00  0.00     0.011 A 
HETATM   25  C10 UNL     1     -24.172  44.494  10.393  1.00  0.00    -0.030 A 
HETATM   26  C14 UNL     1     -24.367  43.975  11.660  1.00  0.00     0.011 A 
HETATM   27  C15 UNL     1     -25.351  44.473  12.481  1.00  0.00     0.030 A 
BRANCH  25  28
HETATM   28  C11 UNL     1     -23.097  43.911   9.564  1.00  0.00     0.309 C 
BRANCH  28  29
HETATM   29  N5  UNL     1     -21.773  44.095  10.096  1.00  0.00     0.084 N 
HETATM   30  C12 UNL     1     -21.180  42.756  10.172  1.00  0.00     0.309 C 
HETATM   31  C13 UNL     1     -20.953  44.805   9.113  1.00  0.00     0.309 C 
ENDBRANCH  28  29
ENDBRANCH  25  28
ENDBRANCH   5  22
TORSDOF 9
ENDMDL
MODEL 2
REMARK VINA RESULT: -5.989542470      2.722      3.625
REMARK  9 active torsions:
REMARK  status: ('A' for Active; 'I' for Inactive)
REMARK    1  A    between atoms: C2_2  and  O1_3 
REMARK    2  A    between atoms: C2_2  and  N1_5 
REMARK    3  A    between atoms: N1_5  and  C3_6 
REMARK    4  A    between atoms: N1_5  and  C16_28 
REMARK    5  A    between atoms: C3_6  and  C5_8 
REMARK       I    between atoms: C5_8  and  N2_10 
REMARK    6  A    between atoms: N2_10  and  N3_12 
REMARK       I    between atoms: N3_12  and  C6_14 
REMARK       I    between atoms: C6_14  and  N4_16 
REMARK    7  A    between atoms: N4_16  and  C7_18 
REMARK    8  A    between atoms: C10_21  and  C11_22 
REMARK    9  A    between atoms: C11_22  and  N5_23 
ROOT
HETATM    1  N3  UNL     1     -28.793  43.994  13.002  1.00  0.00    -0.249 N 
ATOM      2  H3  UNL     1     -28.560  43.799  13.976  1.00  0.00     0.192 HD
HETATM    3  C6  UNL     1     -27.741  44.146  12.019  1.00  0.00     0.339 C 
HETATM    4  O3  UNL     1     -28.073  44.385  10.834  1.00  0.00    -0.245 OA
HETATM    5  N4  UNL     1     -26.406  44.024  12.430  1.00  0.00    -0.308 N 
ATOM      6  H4  UNL     1     -26.262  43.832  13.421  1.00  0.00     0.170 HD
ENDROOT
BRANCH   1   7
HETATM    7  N2  UNL     1     -30.117  44.116  12.614  1.00  0.00    -0.264 N 
HETATM    8  C5  UNL     1     -30.976  43.034  12.301  1.00  0.00     0.258 C 
HETATM    9  O2  UNL     1     -30.511  41.882  12.377  1.00  0.00    -0.269 OA
ATOM     10  H2  UNL     1     -30.503  45.057  12.548  1.00  0.00     0.190 HD
BRANCH   8  11
HETATM   11  C3  UNL     1     -32.376  43.288  11.900  1.00  0.00     0.176 C 
HETATM   12  C4  UNL     1     -32.724  42.602  10.613  1.00  0.00     0.042 C 
BRANCH  11  13
HETATM   13  N1  UNL     1     -33.340  43.123  12.962  1.00  0.00    -0.344 N 
BRANCH  13  14
HETATM   14  C2  UNL     1     -33.916  41.840  13.129  1.00  0.00     0.110 C 
HETATM   15  C1  UNL     1     -35.245  41.380  12.729  1.00  0.00     0.097 C 
BRANCH  14  16
HETATM   16  O1  UNL     1     -33.136  40.977  13.723  1.00  0.00    -0.350 OA
ATOM     17  H1  UNL     1     -32.202  41.051  13.565  1.00  0.00     0.219 HD
ENDBRANCH  14  16
ENDBRANCH  13  14
BRANCH  13  18
HETATM   18  C16 UNL     1     -33.741  44.166  13.857  1.00  0.00     0.024 C 
HETATM   19  C17 UNL     1     -32.959  44.148  15.148  1.00  0.00     0.037 C 
HETATM   20  C18 UNL     1     -33.477  45.529  13.188  1.00  0.00     0.037 C 
HETATM   21  C19 UNL     1     -35.196  44.195  14.230  1.00  0.00     0.037 C 
ENDBRANCH  13  18
ENDBRANCH  11  13
ENDBRANCH   8  11
ENDBRANCH   1   7
BRANCH   5  22
HETATM   22  C7  UNL     1     -25.242  44.132  11.654  1.00  0.00     0.036 A 
HETATM   23  C8  UNL     1     -25.091  45.014  10.638  1.00  0.00     0.030 A 
HETATM   24  C9  UNL     1     -23.885  45.084   9.907  1.00  0.00     0.011 A 
HETATM   25  C10 UNL     1     -22.837  44.274  10.195  1.00  0.00    -0.030 A 
HETATM   26  C14 UNL     1     -22.977  43.368  11.230  1.00  0.00     0.011 A 
HETATM   27  C15 UNL     1     -24.148  43.294  11.946  1.00  0.00     0.030 A 
BRANCH  25  28
HETATM   28  C11 UNL     1     -21.551  44.301   9.467  1.00  0.00     0.309 C 
BRANCH  28  29
HETATM   29  N5  UNL     1     -21.142  45.611   9.037  1.00  0.00     0.084 N 
HETATM   30  C12 UNL     1     -20.126  46.052   9.999  1.00  0.00     0.309 C 
HETATM   31  C13 UNL     1     -20.423  45.500   7.768  1.00  0.00     0.309 C 
ENDBRANCH  28  29
ENDBRANCH  25  28
ENDBRANCH   5  22
TORSDOF 9
ENDMDL
MODEL 3
REMARK VINA RESULT: -5.918174040      0.979      1.422
REMARK  9 active torsions:
REMARK  status: ('A' for Active; 'I' for Inactive)
REMARK    1  A    between atoms: C2_2  and  O1_3 
REMARK    2  A    between atoms: C2_2  and  N1_5 
REMARK    3  A    between atoms: N1_5  and  C3_6 
REMARK    4  A    between atoms: N1_5  and  C16_28 
REMARK    5  A    between atoms: C3_6  and  C5_8 
REMARK       I    between atoms: C5_8  and  N2_10 
REMARK    6  A    between atoms: N2_10  and  N3_12 
REMARK       I    between atoms: N3_12  and  C6_14 
REMARK       I    between atoms: C6_14  and  N4_16 
REMARK    7  A    between atoms: N4_16  and  C7_18 
REMARK    8  A    between atoms: C10_21  and  C11_22 
REMARK    9  A    between atoms: C11_22  and  N5_23 
ROOT
HETATM    1  N3  UNL     1     -29.177  45.992  14.381  1.00  0.00    -0.249 N 
ATOM      2  H3  UNL     1     -29.102  46.999  14.522  1.00  0.00     0.192 HD
HETATM    3  C6  UNL     1     -28.243  45.307  13.513  1.00  0.00     0.339 C 
HETATM    4  O3  UNL     1     -28.371  44.068  13.370  1.00  0.00    -0.245 OA
HETATM    5  N4  UNL     1     -27.241  46.051  12.872  1.00  0.00    -0.308 N 
ATOM      6  H4  UNL     1     -27.240  47.053  13.066  1.00  0.00     0.170 HD
ENDROOT
BRANCH   1   7
HETATM    7  N2  UNL     1     -30.174  45.272  15.018  1.00  0.00    -0.264 N 
HETATM    8  C5  UNL     1     -30.342  45.181  16.422  1.00  0.00     0.258 C 
HETATM    9  O2  UNL     1     -29.534  45.791  17.144  1.00  0.00    -0.269 OA
ATOM     10  H2  UNL     1     -30.839  44.768  14.431  1.00  0.00     0.190 HD
BRANCH   8  11
HETATM   11  C3  UNL     1     -31.450  44.382  16.988  1.00  0.00     0.176 C 
HETATM   12  C4  UNL     1     -32.540  44.146  15.986  1.00  0.00     0.042 C 
BRANCH  11  13
HETATM   13  N1  UNL     1     -31.029  43.213  17.721  1.00  0.00    -0.344 N 
BRANCH  13  14
HETATM   14  C2  UNL     1     -30.614  42.085  16.972  1.00  0.00     0.110 C 
HETATM   15  C1  UNL     1     -29.274  41.754  16.491  1.00  0.00     0.097 C 
BRANCH  14  16
HETATM   16  O1  UNL     1     -31.578  41.250  16.685  1.00  0.00    -0.350 OA
ATOM     17  H1  UNL     1     -31.331  40.378  16.402  1.00  0.00     0.219 HD
ENDBRANCH  14  16
ENDBRANCH  13  14
BRANCH  13  18
HETATM   18  C16 UNL     1     -30.994  43.125  19.150  1.00  0.00     0.024 C 
HETATM   19  C17 UNL     1     -29.624  43.416  19.711  1.00  0.00     0.037 C 
HETATM   20  C18 UNL     1     -31.956  44.175  19.739  1.00  0.00     0.037 C 
HETATM   21  C19 UNL     1     -31.441  41.819  19.744  1.00  0.00     0.037 C 
ENDBRANCH  13  18
ENDBRANCH  11  13
ENDBRANCH   8  11
ENDBRANCH   1   7
BRANCH   5  22
HETATM   22  C7  UNL     1     -26.241  45.597  12.000  1.00  0.00     0.036 A 
HETATM   23  C8  UNL     1     -26.008  46.130  10.776  1.00  0.00     0.030 A 
HETATM   24  C9  UNL     1     -24.972  45.638   9.952  1.00  0.00     0.011 A 
HETATM   25  C10 UNL     1     -24.175  44.619  10.355  1.00  0.00    -0.030 A 
HETATM   26  C14 UNL     1     -24.402  44.065  11.601  1.00  0.00     0.011 A 
HETATM   27  C15 UNL     1     -25.409  44.538  12.408  1.00  0.00     0.030 A 
BRANCH  25  28
HETATM   28  C11 UNL     1     -23.076  44.062   9.539  1.00  0.00     0.309 C 
BRANCH  28  29
HETATM   29  N5  UNL     1     -21.784  44.120  10.168  1.00  0.00     0.084 N 
HETATM   30  C12 UNL     1     -21.282  42.741  10.185  1.00  0.00     0.309 C 
HETATM   31  C13 UNL     1     -20.854  44.839   9.297  1.00  0.00     0.309 C 
ENDBRANCH  28  29
ENDBRANCH  25  28
ENDBRANCH   5  22
TORSDOF 9
ENDMDL
MODEL 4
REMARK VINA RESULT: -5.914126770      2.635      3.410
REMARK  9 active torsions:
REMARK  status: ('A' for Active; 'I' for Inactive)
REMARK    1  A    between atoms: C2_2  and  O1_3 
REMARK    2  A    between atoms: C2_2  and  N1_5 
REMARK    3  A    between atoms: N1_5  and  C3_6 
REMARK    4  A    between atoms: N1_5  and  C16_28 
REMARK    5  A    between atoms: C3_6  and  C5_8 
REMARK       I    between atoms: C5_8  and  N2_10 
REMARK    6  A    between atoms: N2_10  and  N3_12 
REMARK       I    between atoms: N3_12  and  C6_14 
REMARK       I    between atoms: C6_14  and  N4_16 
REMARK    7  A    between atoms: N4_16  and  C7_18 
REMARK    8  A    between atoms: C10_21  and  C11_22 
REMARK    9  A    between atoms: C11_22  and  N5_23 
ROOT
HETATM    1  N3  UNL     1     -28.404  44.802  13.452  1.00  0.00    -0.249 N 
ATOM      2  H3  UNL     1     -28.782  43.855  13.481  1.00  0.00     0.192 HD
HETATM    3  C6  UNL     1     -27.118  45.053  12.838  1.00  0.00     0.339 C 
HETATM    4  O3  UNL     1     -26.692  46.232  12.824  1.00  0.00    -0.245 OA
HETATM    5  N4  UNL     1     -26.406  43.976  12.289  1.00  0.00    -0.308 N 
ATOM      6  H4  UNL     1     -26.855  43.063  12.364  1.00  0.00     0.170 HD
ENDROOT
BRANCH   1   7
HETATM    7  N2  UNL     1     -29.118  45.854  14.001  1.00  0.00    -0.264 N 
HETATM    8  C5  UNL     1     -29.627  45.891  15.323  1.00  0.00     0.258 C 
HETATM    9  O2  UNL     1     -29.423  44.903  16.052  1.00  0.00    -0.269 OA
ATOM     10  H2  UNL     1     -29.291  46.665  13.408  1.00  0.00     0.190 HD
BRANCH   8  11
HETATM   11  C3  UNL     1     -30.374  47.074  15.800  1.00  0.00     0.176 C 
HETATM   12  C4  UNL     1     -31.049  47.801  14.675  1.00  0.00     0.042 C 
BRANCH  11  13
HETATM   13  N1  UNL     1     -31.202  46.832  16.956  1.00  0.00    -0.344 N 
BRANCH  13  14
HETATM   14  C2  UNL     1     -32.391  46.086  16.765  1.00  0.00     0.110 C 
HETATM   15  C1  UNL     1     -33.703  46.560  16.330  1.00  0.00     0.097 C 
BRANCH  14  16
HETATM   16  O1  UNL     1     -32.268  44.810  17.022  1.00  0.00    -0.350 OA
ATOM     17  H1  UNL     1     -32.051  44.562  17.913  1.00  0.00     0.219 HD
ENDBRANCH  14  16
ENDBRANCH  13  14
BRANCH  13  18
HETATM   18  C16 UNL     1     -30.894  47.286  18.279  1.00  0.00     0.024 C 
HETATM   19  C17 UNL     1     -30.149  46.251  19.084  1.00  0.00     0.037 C 
HETATM   20  C18 UNL     1     -29.985  48.527  18.182  1.00  0.00     0.037 C 
HETATM   21  C19 UNL     1     -32.062  47.731  19.114  1.00  0.00     0.037 C 
ENDBRANCH  13  18
ENDBRANCH  11  13
ENDBRANCH   8  11
ENDBRANCH   1   7
BRANCH   5  22
HETATM   22  C7  UNL     1     -25.157  43.991  11.652  1.00  0.00     0.036 A 
HETATM   23  C8  UNL     1     -24.104  43.231  12.036  1.00  0.00     0.030 A 
HETATM   24  C9  UNL     1     -22.876  43.279  11.340  1.00  0.00     0.011 A 
HETATM   25  C10 UNL     1     -22.708  44.086  10.264  1.00  0.00    -0.030 A 
HETATM   26  C14 UNL     1     -23.774  44.868   9.860  1.00  0.00     0.011 A 
HETATM   27  C15 UNL     1     -24.972  44.827  10.533  1.00  0.00     0.030 A 
BRANCH  25  28
HETATM   28  C11 UNL     1     -21.450  44.180   9.495  1.00  0.00     0.309 C 
BRANCH  28  29
HETATM   29  N5  UNL     1     -21.113  45.513   9.072  1.00  0.00     0.084 N 
HETATM   30  C12 UNL     1     -20.099  45.991  10.019  1.00  0.00     0.309 C 
HETATM   31  C13 UNL     1     -20.415  45.450   7.787  1.00  0.00     0.309 C 
ENDBRANCH  28  29
ENDBRANCH  25  28
ENDBRANCH   5  22
TORSDOF 9
ENDMDL
MODEL 5
REMARK VINA RESULT: -5.866012968      0.765      1.716
REMARK  9 active torsions:
REMARK  status: ('A' for Active; 'I' for Inactive)
REMARK    1  A    between atoms: C2_2  and  O1_3 
REMARK    2  A    between atoms: C2_2  and  N1_5 
REMARK    3  A    between atoms: N1_5  and  C3_6 
REMARK    4  A    between atoms: N1_5  and  C16_28 
REMARK    5  A    between atoms: C3_6  and  C5_8 
REMARK       I    between atoms: C5_8  and  N2_10 
REMARK    6  A    between atoms: N2_10  and  N3_12 
REMARK       I    between atoms: N3_12  and  C6_14 
REMARK       I    between atoms: C6_14  and  N4_16 
REMARK    7  A    between atoms: N4_16  and  C7_18 
REMARK    8  A    between atoms: C10_21  and  C11_22 
REMARK    9  A    between atoms: C11_22  and  N5_23 
ROOT
HETATM    1  N3  UNL     1     -29.065  45.979  14.146  1.00  0.00    -0.249 N 
ATOM      2  H3  UNL     1     -28.921  46.968  14.350  1.00  0.00     0.192 HD
HETATM    3  C6  UNL     1     -28.110  45.258  13.331  1.00  0.00     0.339 C 
HETATM    4  O3  UNL     1     -28.326  44.044  13.107  1.00  0.00    -0.245 OA
HETATM    5  N4  UNL     1     -26.994  45.942  12.829  1.00  0.00    -0.308 N 
ATOM      6  H4  UNL     1     -26.929  46.930  13.078  1.00  0.00     0.170 HD
ENDROOT
BRANCH   1   7
HETATM    7  N2  UNL     1     -30.174  45.319  14.648  1.00  0.00    -0.264 N 
HETATM    8  C5  UNL     1     -30.403  45.035  16.016  1.00  0.00     0.258 C 
HETATM    9  O2  UNL     1     -29.544  45.403  16.837  1.00  0.00    -0.269 OA
ATOM     10  H2  UNL     1     -30.881  45.013  13.979  1.00  0.00     0.190 HD
BRANCH   8  11
HETATM   11  C3  UNL     1     -31.631  44.325  16.434  1.00  0.00     0.176 C 
HETATM   12  C4  UNL     1     -32.830  44.773  15.653  1.00  0.00     0.042 C 
BRANCH  11  13
HETATM   13  N1  UNL     1     -31.480  42.895  16.558  1.00  0.00    -0.344 N 
BRANCH  13  14
HETATM   14  C2  UNL     1     -30.339  42.303  15.964  1.00  0.00     0.110 C 
HETATM   15  C1  UNL     1     -29.117  41.830  16.614  1.00  0.00     0.097 C 
BRANCH  14  16
HETATM   16  O1  UNL     1     -30.415  42.180  14.666  1.00  0.00    -0.350 OA
ATOM     17  H1  UNL     1     -31.097  42.668  14.220  1.00  0.00     0.219 HD
ENDBRANCH  14  16
ENDBRANCH  13  14
BRANCH  13  18
HETATM   18  C16 UNL     1     -32.402  42.044  17.248  1.00  0.00     0.024 C 
HETATM   19  C17 UNL     1     -33.085  42.746  18.395  1.00  0.00     0.037 C 
HETATM   20  C18 UNL     1     -33.505  41.600  16.267  1.00  0.00     0.037 C 
HETATM   21  C19 UNL     1     -31.837  40.763  17.795  1.00  0.00     0.037 C 
ENDBRANCH  13  18
ENDBRANCH  11  13
ENDBRANCH   8  11
ENDBRANCH   1   7
BRANCH   5  22
HETATM   22  C7  UNL     1     -25.955  45.446  12.028  1.00  0.00     0.036 A 
HETATM   23  C8  UNL     1     -25.149  44.419  12.387  1.00  0.00     0.030 A 
HETATM   24  C9  UNL     1     -24.131  43.954  11.526  1.00  0.00     0.011 A 
HETATM   25  C10 UNL     1     -23.924  44.518  10.311  1.00  0.00    -0.030 A 
HETATM   26  C14 UNL     1     -24.739  45.568   9.931  1.00  0.00     0.011 A 
HETATM   27  C15 UNL     1     -25.731  46.026  10.764  1.00  0.00     0.030 A 
BRANCH  25  28
HETATM   28  C11 UNL     1     -22.876  44.077   9.367  1.00  0.00     0.309 C 
BRANCH  28  29
HETATM   29  N5  UNL     1     -21.554  44.542   9.690  1.00  0.00     0.084 N 
HETATM   30  C12 UNL     1     -20.719  43.340   9.798  1.00  0.00     0.309 C 
HETATM   31  C13 UNL     1     -21.005  45.269   8.545  1.00  0.00     0.309 C 
ENDBRANCH  28  29
ENDBRANCH  25  28
ENDBRANCH   5  22
TORSDOF 9
ENDMDL
