MODEL 1
REMARK VINA RESULT: -6.084169922      0.000      0.000
REMARK  9 active torsions:
REMARK  status: ('A' for Active; 'I' for Inactive)
REMARK    1  A    between atoms: C2_2  and  N1_5 
REMARK    2  A    between atoms: N1_5  and  S1_7 
REMARK    3  A    between atoms: S1_7  and  N2_9 
REMARK    4  A    between atoms: S1_7  and  C8_18 
REMARK    5  A    between atoms: N2_9  and  C5_11 
REMARK    6  A    between atoms: C5_11  and  C6_12 
REMARK    7  A    between atoms: C6_12  and  N3_13 
REMARK    8  A    between atoms: N3_13  and  C7_15 
REMARK    9  A    between atoms: C11_21  and  C12_22 
ROOT
HETATM    1  S1  UNL     1     -28.926  45.036  12.636  1.00  0.00     0.135 S 
HETATM    2  O1  UNL     1     -30.104  45.968  12.938  1.00  0.00    -0.223 OA
ENDROOT
BRANCH   1   3
HETATM    3  N1  UNL     1     -27.715  45.942  12.421  1.00  0.00    -0.323 N 
ATOM      4  H1  UNL     1     -27.893  46.940  12.528  1.00  0.00     0.171 HD
BRANCH   3   5
HETATM    5  C2  UNL     1     -26.400  45.601  12.099  1.00  0.00     0.028 C 
HETATM    6  C1  UNL     1     -25.933  46.216  10.774  1.00  0.00     0.038 C 
HETATM    7  C3  UNL     1     -25.523  46.250  13.176  1.00  0.00     0.038 C 
HETATM    8  C4  UNL     1     -26.056  44.152  12.086  1.00  0.00     0.038 C 
ENDBRANCH   3   5
ENDBRANCH   1   3
BRANCH   1   9
HETATM    9  N2  UNL     1     -28.840  43.939  13.910  1.00  0.00    -0.331 N 
ATOM     10  H2  UNL     1     -28.097  43.241  13.952  1.00  0.00     0.170 HD
BRANCH   9  11
HETATM   11  C5  UNL     1     -29.832  44.013  14.929  1.00  0.00     0.150 C 
BRANCH  11  12
HETATM   12  C6  UNL     1     -30.383  42.604  15.129  1.00  0.00     0.142 C 
BRANCH  12  13
HETATM   13  N3  UNL     1     -29.530  41.727  15.857  1.00  0.00    -0.368 N 
ATOM     14  H3  UNL     1     -28.862  41.122  15.380  1.00  0.00     0.161 HD
BRANCH  13  15
HETATM   15  C7  UNL     1     -29.643  41.727  17.279  1.00  0.00     0.181 C 
HETATM   16  N4  UNL     1     -28.768  42.523  18.089  1.00  0.00    -0.070 NA
HETATM   17  S2  UNL     1     -30.773  40.852  18.025  1.00  0.00    -0.044 SA
ENDBRANCH  13  15
ENDBRANCH  12  13
ENDBRANCH  11  12
ENDBRANCH   9  11
ENDBRANCH   1   9
BRANCH   1  18
HETATM   18  C8  UNL     1     -29.249  44.183  11.116  1.00  0.00     0.058 A 
HETATM   19  C9  UNL     1     -29.182  44.811   9.905  1.00  0.00     0.024 A 
HETATM   20  C10 UNL     1     -29.433  44.179   8.705  1.00  0.00     0.009 A 
HETATM   21  C11 UNL     1     -29.771  42.834   8.753  1.00  0.00    -0.051 A 
HETATM   22  C16 UNL     1     -29.848  42.150   9.944  1.00  0.00     0.009 A 
HETATM   23  C17 UNL     1     -29.584  42.844  11.134  1.00  0.00     0.024 A 
BRANCH  21  24
HETATM   24  C12 UNL     1     -30.108  42.212   7.466  1.00  0.00    -0.024 C 
HETATM   25  C13 UNL     1     -30.640  40.807   7.560  1.00  0.00     0.019 C 
HETATM   26  C14 UNL     1     -31.050  43.054   6.630  1.00  0.00     0.019 C 
HETATM   27  C15 UNL     1     -28.804  42.129   6.649  1.00  0.00     0.019 C 
ENDBRANCH  21  24
ENDBRANCH   1  18
TORSDOF 9
ENDMDL
MODEL 2
REMARK VINA RESULT: -5.857596991      0.951      1.594
REMARK  9 active torsions:
REMARK  status: ('A' for Active; 'I' for Inactive)
REMARK    1  A    between atoms: C2_2  and  N1_5 
REMARK    2  A    between atoms: N1_5  and  S1_7 
REMARK    3  A    between atoms: S1_7  and  N2_9 
REMARK    4  A    between atoms: S1_7  and  C8_18 
REMARK    5  A    between atoms: N2_9  and  C5_11 
REMARK    6  A    between atoms: C5_11  and  C6_12 
REMARK    7  A    between atoms: C6_12  and  N3_13 
REMARK    8  A    between atoms: N3_13  and  C7_15 
REMARK    9  A    between atoms: C11_21  and  C12_22 
ROOT
HETATM    1  S1  UNL     1     -28.334  44.404  12.543  1.00  0.00     0.135 S 
HETATM    2  O1  UNL     1     -28.516  45.925  12.561  1.00  0.00    -0.223 OA
ENDROOT
BRANCH   1   3
HETATM    3  N1  UNL     1     -26.842  44.159  12.328  1.00  0.00    -0.323 N 
ATOM      4  H1  UNL     1     -26.522  43.213  12.533  1.00  0.00     0.171 HD
BRANCH   3   5
HETATM    5  C2  UNL     1     -25.854  45.043  11.890  1.00  0.00     0.028 C 
HETATM    6  C1  UNL     1     -25.559  46.155  12.904  1.00  0.00     0.038 C 
HETATM    7  C3  UNL     1     -24.563  44.220  11.808  1.00  0.00     0.038 C 
HETATM    8  C4  UNL     1     -26.046  45.671  10.554  1.00  0.00     0.038 C 
ENDBRANCH   3   5
ENDBRANCH   1   3
BRANCH   1   9
HETATM    9  N2  UNL     1     -29.002  43.821  13.975  1.00  0.00    -0.331 N 
ATOM     10  H2  UNL     1     -28.429  43.329  14.659  1.00  0.00     0.170 HD
BRANCH   9  11
HETATM   11  C5  UNL     1     -30.392  44.036  14.204  1.00  0.00     0.150 C 
BRANCH  11  12
HETATM   12  C6  UNL     1     -30.953  42.755  14.817  1.00  0.00     0.142 C 
BRANCH  12  13
HETATM   13  N3  UNL     1     -29.988  41.928  15.459  1.00  0.00    -0.368 N 
ATOM     14  H3  UNL     1     -29.322  41.376  14.919  1.00  0.00     0.161 HD
BRANCH  13  15
HETATM   15  C7  UNL     1     -29.987  41.901  16.885  1.00  0.00     0.181 C 
HETATM   16  N4  UNL     1     -28.947  42.544  17.635  1.00  0.00    -0.070 NA
HETATM   17  S2  UNL     1     -31.164  41.167  17.705  1.00  0.00    -0.044 SA
ENDBRANCH  13  15
ENDBRANCH  12  13
ENDBRANCH  11  12
ENDBRANCH   9  11
ENDBRANCH   1   9
BRANCH   1  18
HETATM   18  C8  UNL     1     -29.206  43.742  11.149  1.00  0.00     0.058 A 
HETATM   19  C9  UNL     1     -29.503  42.413  11.046  1.00  0.00     0.024 A 
HETATM   20  C10 UNL     1     -30.175  41.865   9.973  1.00  0.00     0.009 A 
HETATM   21  C11 UNL     1     -30.558  42.726   8.955  1.00  0.00    -0.051 A 
HETATM   22  C16 UNL     1     -30.290  44.073   9.008  1.00  0.00     0.009 A 
HETATM   23  C17 UNL     1     -29.603  44.577  10.123  1.00  0.00     0.024 A 
BRANCH  21  24
HETATM   24  C12 UNL     1     -31.201  42.097   7.793  1.00  0.00    -0.024 C 
HETATM   25  C13 UNL     1     -32.541  41.471   8.072  1.00  0.00     0.019 C 
HETATM   26  C14 UNL     1     -31.317  43.029   6.604  1.00  0.00     0.019 C 
HETATM   27  C15 UNL     1     -30.276  40.957   7.327  1.00  0.00     0.019 C 
ENDBRANCH  21  24
ENDBRANCH   1  18
TORSDOF 9
ENDMDL
MODEL 3
REMARK VINA RESULT: -5.848974810      4.257      6.632
REMARK  9 active torsions:
REMARK  status: ('A' for Active; 'I' for Inactive)
REMARK    1  A    between atoms: C2_2  and  N1_5 
REMARK    2  A    between atoms: N1_5  and  S1_7 
REMARK    3  A    between atoms: S1_7  and  N2_9 
REMARK    4  A    between atoms: S1_7  and  C8_18 
REMARK    5  A    between atoms: N2_9  and  C5_11 
REMARK    6  A    between atoms: C5_11  and  C6_12 
REMARK    7  A    between atoms: C6_12  and  N3_13 
REMARK    8  A    between atoms: N3_13  and  C7_15 
REMARK    9  A    between atoms: C11_21  and  C12_22 
ROOT
HETATM    1  S1  UNL     1     -26.003  46.121  11.160  1.00  0.00     0.135 S 
HETATM    2  O1  UNL     1     -25.414  46.179  12.573  1.00  0.00    -0.223 OA
ENDROOT
BRANCH   1   3
HETATM    3  N1  UNL     1     -26.385  47.556  10.803  1.00  0.00    -0.323 N 
ATOM      4  H1  UNL     1     -26.735  48.119  11.577  1.00  0.00     0.171 HD
BRANCH   3   5
HETATM    5  C2  UNL     1     -26.325  48.207   9.569  1.00  0.00     0.028 C 
HETATM    6  C1  UNL     1     -27.507  47.861   8.655  1.00  0.00     0.038 C 
HETATM    7  C3  UNL     1     -26.477  49.702   9.877  1.00  0.00     0.038 C 
HETATM    8  C4  UNL     1     -25.070  48.059   8.782  1.00  0.00     0.038 C 
ENDBRANCH   3   5
ENDBRANCH   1   3
BRANCH   1   9
HETATM    9  N2  UNL     1     -24.849  45.375  10.186  1.00  0.00    -0.331 N 
ATOM     10  H2  UNL     1     -24.844  45.517   9.177  1.00  0.00     0.170 HD
BRANCH   9  11
HETATM   11  C5  UNL     1     -23.879  44.541  10.813  1.00  0.00     0.150 C 
BRANCH  11  12
HETATM   12  C6  UNL     1     -22.758  44.312   9.802  1.00  0.00     0.142 C 
BRANCH  12  13
HETATM   13  N3  UNL     1     -21.443  44.459  10.327  1.00  0.00    -0.368 N 
ATOM     14  H3  UNL     1     -21.110  43.873  11.092  1.00  0.00     0.161 HD
BRANCH  13  15
HETATM   15  C7  UNL     1     -20.608  45.458   9.743  1.00  0.00     0.181 C 
HETATM   16  N4  UNL     1     -19.700  46.223  10.548  1.00  0.00    -0.070 NA
HETATM   17  S2  UNL     1     -20.637  45.746   8.158  1.00  0.00    -0.044 SA
ENDBRANCH  13  15
ENDBRANCH  12  13
ENDBRANCH  11  12
ENDBRANCH   9  11
ENDBRANCH   1   9
BRANCH   1  18
HETATM   18  C8  UNL     1     -27.486  45.152  11.200  1.00  0.00     0.058 A 
HETATM   19  C9  UNL     1     -28.138  44.874  12.368  1.00  0.00     0.024 A 
HETATM   20  C10 UNL     1     -29.291  44.120  12.435  1.00  0.00     0.009 A 
HETATM   21  C11 UNL     1     -29.798  43.625  11.242  1.00  0.00    -0.051 A 
HETATM   22  C16 UNL     1     -29.186  43.877  10.037  1.00  0.00     0.009 A 
HETATM   23  C17 UNL     1     -28.015  44.650  10.028  1.00  0.00     0.024 A 
BRANCH  21  24
HETATM   24  C12 UNL     1     -30.980  42.761  11.359  1.00  0.00    -0.024 C 
HETATM   25  C13 UNL     1     -32.143  43.374  12.093  1.00  0.00     0.019 C 
HETATM   26  C14 UNL     1     -31.453  42.222  10.024  1.00  0.00     0.019 C 
HETATM   27  C15 UNL     1     -30.558  41.522  12.171  1.00  0.00     0.019 C 
ENDBRANCH  21  24
ENDBRANCH   1  18
TORSDOF 9
ENDMDL
MODEL 4
REMARK VINA RESULT: -5.848582350      3.707      6.311
REMARK  9 active torsions:
REMARK  status: ('A' for Active; 'I' for Inactive)
REMARK    1  A    between atoms: C2_2  and  N1_5 
REMARK    2  A    between atoms: N1_5  and  S1_7 
REMARK    3  A    between atoms: S1_7  and  N2_9 
REMARK    4  A    between atoms: S1_7  and  C8_18 
REMARK    5  A    between atoms: N2_9  and  C5_11 
REMARK    6  A    between atoms: C5_11  and  C6_12 
REMARK    7  A    between atoms: C6_12  and  N3_13 
REMARK    8  A    between atoms: N3_13  and  C7_15 
REMARK    9  A    between atoms: C11_21  and  C12_22 
ROOT
HETATM    1  S1  UNL     1     -26.640  45.300  11.009  1.00  0.00     0.135 S 
HETATM    2  O1  UNL     1     -27.556  44.748   9.913  1.00  0.00    -0.223 OA
ENDROOT
BRANCH   1   3
HETATM    3  N1  UNL     1     -26.912  46.802  11.070  1.00  0.00    -0.323 N 
ATOM      4  H1  UNL     1     -26.405  47.307  11.796  1.00  0.00     0.171 HD
BRANCH   3   5
HETATM    5  C2  UNL     1     -27.754  47.582  10.276  1.00  0.00     0.028 C 
HETATM    6  C1  UNL     1     -29.208  47.574  10.764  1.00  0.00     0.038 C 
HETATM    7  C3  UNL     1     -27.277  49.028  10.455  1.00  0.00     0.038 C 
HETATM    8  C4  UNL     1     -27.754  47.310   8.812  1.00  0.00     0.038 C 
ENDBRANCH   3   5
ENDBRANCH   1   3
BRANCH   1   9
HETATM    9  N2  UNL     1     -26.964  44.410  12.402  1.00  0.00    -0.331 N 
ATOM     10  H2  UNL     1     -26.406  43.591  12.642  1.00  0.00     0.170 HD
BRANCH   9  11
HETATM   11  C5  UNL     1     -28.038  44.834  13.235  1.00  0.00     0.150 C 
BRANCH  11  12
HETATM   12  C6  UNL     1     -29.292  44.102  12.765  1.00  0.00     0.142 C 
BRANCH  12  13
HETATM   13  N3  UNL     1     -29.046  42.939  11.982  1.00  0.00    -0.368 N 
ATOM     14  H3  UNL     1     -28.101  42.577  11.855  1.00  0.00     0.161 HD
BRANCH  13  15
HETATM   15  C7  UNL     1     -30.170  42.297  11.382  1.00  0.00     0.181 C 
HETATM   16  N4  UNL     1     -31.236  41.774  12.185  1.00  0.00    -0.070 NA
HETATM   17  S2  UNL     1     -30.294  42.159   9.781  1.00  0.00    -0.044 SA
ENDBRANCH  13  15
ENDBRANCH  12  13
ENDBRANCH  11  12
ENDBRANCH   9  11
ENDBRANCH   1   9
BRANCH   1  18
HETATM   18  C8  UNL     1     -24.954  45.068  10.514  1.00  0.00     0.058 A 
HETATM   19  C9  UNL     1     -24.129  44.183  11.148  1.00  0.00     0.024 A 
HETATM   20  C10 UNL     1     -22.812  43.981  10.792  1.00  0.00     0.009 A 
HETATM   21  C11 UNL     1     -22.318  44.728   9.732  1.00  0.00    -0.051 A 
HETATM   22  C16 UNL     1     -23.104  45.630   9.055  1.00  0.00     0.009 A 
HETATM   23  C17 UNL     1     -24.437  45.795   9.460  1.00  0.00     0.024 A 
BRANCH  21  24
HETATM   24  C12 UNL     1     -20.892  44.547   9.431  1.00  0.00    -0.024 C 
HETATM   25  C13 UNL     1     -20.322  43.214   9.839  1.00  0.00     0.019 C 
HETATM   26  C14 UNL     1     -20.554  44.815   7.979  1.00  0.00     0.019 C 
HETATM   27  C15 UNL     1     -20.120  45.612  10.232  1.00  0.00     0.019 C 
ENDBRANCH  21  24
ENDBRANCH   1  18
TORSDOF 9
ENDMDL
MODEL 5
REMARK VINA RESULT: -5.829973558      4.284      6.769
REMARK  9 active torsions:
REMARK  status: ('A' for Active; 'I' for Inactive)
REMARK    1  A    between atoms: C2_2  and  N1_5 
REMARK    2  A    between atoms: N1_5  and  S1_7 
REMARK    3  A    between atoms: S1_7  and  N2_9 
REMARK    4  A    between atoms: S1_7  and  C8_18 
REMARK    5  A    between atoms: N2_9  and  C5_11 
REMARK    6  A    between atoms: C5_11  and  C6_12 
REMARK    7  A    between atoms: C6_12  and  N3_13 
REMARK    8  A    between atoms: N3_13  and  C7_15 
REMARK    9  A    between atoms: C11_21  and  C12_22 
ROOT
HETATM    1  S1  UNL     1     -26.088  45.841  11.496  1.00  0.00     0.135 S 
HETATM    2  O1  UNL     1     -25.167  45.948  12.716  1.00  0.00    -0.223 OA
ENDROOT
BRANCH   1   3
HETATM    3  N1  UNL     1     -26.430  47.276  11.098  1.00  0.00    -0.323 N 
ATOM      4  H1  UNL     1     -26.599  47.915  11.874  1.00  0.00     0.171 HD
BRANCH   3   5
HETATM    5  C2  UNL     1     -26.545  47.838   9.825  1.00  0.00     0.028 C 
HETATM    6  C1  UNL     1     -27.700  47.240   9.012  1.00  0.00     0.038 C 
HETATM    7  C3  UNL     1     -26.927  49.306  10.049  1.00  0.00     0.038 C 
HETATM    8  C4  UNL     1     -25.327  47.841   8.969  1.00  0.00     0.038 C 
ENDBRANCH   3   5
ENDBRANCH   1   3
BRANCH   1   9
HETATM    9  N2  UNL     1     -25.271  44.909  10.356  1.00  0.00    -0.331 N 
ATOM     10  H2  UNL     1     -25.726  44.624   9.488  1.00  0.00     0.170 HD
BRANCH   9  11
HETATM   11  C5  UNL     1     -23.927  44.530  10.636  1.00  0.00     0.150 C 
BRANCH  11  12
HETATM   12  C6  UNL     1     -23.251  44.237   9.299  1.00  0.00     0.142 C 
BRANCH  12  13
HETATM   13  N3  UNL     1     -22.169  45.103   8.975  1.00  0.00    -0.368 N 
ATOM     14  H3  UNL     1     -22.289  45.878   8.323  1.00  0.00     0.161 HD
BRANCH  13  15
HETATM   15  C7  UNL     1     -20.910  44.847   9.596  1.00  0.00     0.181 C 
HETATM   16  N4  UNL     1     -20.154  45.908  10.195  1.00  0.00    -0.070 NA
HETATM   17  S2  UNL     1     -20.304  43.355   9.668  1.00  0.00    -0.044 SA
ENDBRANCH  13  15
ENDBRANCH  12  13
ENDBRANCH  11  12
ENDBRANCH   9  11
ENDBRANCH   1   9
BRANCH   1  18
HETATM   18  C8  UNL     1     -27.589  45.034  11.983  1.00  0.00     0.058 A 
HETATM   19  C9  UNL     1     -28.217  44.127  11.178  1.00  0.00     0.024 A 
HETATM   20  C10 UNL     1     -29.387  43.485  11.523  1.00  0.00     0.009 A 
HETATM   21  C11 UNL     1     -29.942  43.793  12.758  1.00  0.00    -0.051 A 
HETATM   22  C16 UNL     1     -29.350  44.695  13.610  1.00  0.00     0.009 A 
HETATM   23  C17 UNL     1     -28.160  45.319  13.207  1.00  0.00     0.024 A 
BRANCH  21  24
HETATM   24  C12 UNL     1     -31.228  43.152  13.060  1.00  0.00    -0.024 C 
HETATM   25  C13 UNL     1     -31.505  41.891  12.286  1.00  0.00     0.019 C 
HETATM   26  C14 UNL     1     -31.426  42.890  14.539  1.00  0.00     0.019 C 
HETATM   27  C15 UNL     1     -32.334  44.152  12.672  1.00  0.00     0.019 C 
ENDBRANCH  21  24
ENDBRANCH   1  18
TORSDOF 9
ENDMDL
