MODEL 1
REMARK VINA RESULT: -9.148992722      0.000      0.000
REMARK  8 active torsions:
REMARK  status: ('A' for Active; 'I' for Inactive)
REMARK    1  A    between atoms: O1_1  and  C1_3 
REMARK    2  A    between atoms: C1_3  and  N1_4 
REMARK    3  A    between atoms: C1_3  and  N4_18 
REMARK    4  A    between atoms: N1_4  and  N2_5 
REMARK    5  A    between atoms: C2_7  and  C3_8 
REMARK    6  A    between atoms: C2_7  and  C8_15 
REMARK    7  A    between atoms: N4_18  and  N5_20 
REMARK    8  A    between atoms: N5_20  and  C11_22 
ROOT
HETATM    1  N1  UNL     1      23.048  52.970  19.967  1.00  0.00    -0.278 NA
ENDROOT
BRANCH   1   2
HETATM    2  C1  UNL     1      22.530  53.187  18.756  1.00  0.00     0.333 C 
BRANCH   2   3
HETATM    3  O1  UNL     1      21.315  52.968  18.349  1.00  0.00    -0.319 OA
ATOM      4  H1  UNL     1      20.855  52.139  18.290  1.00  0.00     0.222 HD
ENDBRANCH   2   3
BRANCH   2   5
HETATM    5  N4  UNL     1      23.343  53.732  17.672  1.00  0.00    -0.251 N 
ATOM      6  H4  UNL     1      23.561  53.158  16.858  1.00  0.00     0.191 HD
BRANCH   5   7
HETATM    7  N5  UNL     1      23.817  55.025  17.753  1.00  0.00    -0.297 N 
ATOM      8  H5  UNL     1      24.047  55.424  18.663  1.00  0.00     0.187 HD
BRANCH   7   9
HETATM    9  C11 UNL     1      23.987  55.802  16.588  1.00  0.00     0.048 A 
HETATM   10  C12 UNL     1      24.453  57.089  16.636  1.00  0.00     0.031 A 
HETATM   11  C13 UNL     1      24.626  57.835  15.481  1.00  0.00     0.002 A 
HETATM   12  C14 UNL     1      24.321  57.264  14.260  1.00  0.00     0.000 A 
HETATM   13  C15 UNL     1      23.844  55.947  14.181  1.00  0.00     0.002 A 
HETATM   14  C16 UNL     1      23.695  55.267  15.354  1.00  0.00     0.031 A 
ENDBRANCH   7   9
ENDBRANCH   5   7
ENDBRANCH   2   5
ENDBRANCH   1   2
BRANCH   1  15
HETATM   15  N2  UNL     1      23.555  52.759  21.147  1.00  0.00    -0.233 N 
HETATM   16  C2  UNL     1      24.141  51.884  21.811  1.00  0.00     0.069 C 
ATOM     17  H2  UNL     1      23.431  53.592  21.722  1.00  0.00     0.202 HD
BRANCH  16  18
HETATM   18  C3  UNL     1      24.471  50.574  21.281  1.00  0.00     0.057 A 
HETATM   19  C4  UNL     1      25.781  50.142  21.053  1.00  0.00     0.031 A 
HETATM   20  C5  UNL     1      26.063  48.898  20.553  1.00  0.00     0.004 A 
HETATM   21  C6  UNL     1      25.052  48.032  20.257  1.00  0.00     0.017 A 
HETATM   22  C7  UNL     1      23.737  48.456  20.481  1.00  0.00     0.088 A 
HETATM   23  N3  UNL     1      23.528  49.668  20.966  1.00  0.00    -0.364 N 
ATOM     24  H3  UNL     1      22.557  49.943  21.116  1.00  0.00     0.165 HD
ENDBRANCH  16  18
BRANCH  16  25
HETATM   25  C8  UNL     1      24.487  52.235  23.233  1.00  0.00     0.040 A 
HETATM   26  C9  UNL     1      23.449  52.888  24.082  1.00  0.00     0.011 A 
HETATM   27  C10 UNL     1      23.793  51.424  24.315  1.00  0.00     0.011 A 
ENDBRANCH  16  25
ENDBRANCH   1  15
TORSDOF 8
ENDMDL
MODEL 2
REMARK VINA RESULT: -9.140528874      0.046      1.019
REMARK  8 active torsions:
REMARK  status: ('A' for Active; 'I' for Inactive)
REMARK    1  A    between atoms: O1_1  and  C1_3 
REMARK    2  A    between atoms: C1_3  and  N1_4 
REMARK    3  A    between atoms: C1_3  and  N4_18 
REMARK    4  A    between atoms: N1_4  and  N2_5 
REMARK    5  A    between atoms: C2_7  and  C3_8 
REMARK    6  A    between atoms: C2_7  and  C8_15 
REMARK    7  A    between atoms: N4_18  and  N5_20 
REMARK    8  A    between atoms: N5_20  and  C11_22 
ROOT
HETATM    1  N1  UNL     1      23.041  52.962  20.011  1.00  0.00    -0.278 NA
ENDROOT
BRANCH   1   2
HETATM    2  C1  UNL     1      22.508  53.182  18.807  1.00  0.00     0.333 C 
BRANCH   2   3
HETATM    3  O1  UNL     1      21.282  52.988  18.422  1.00  0.00    -0.319 OA
ATOM      4  H1  UNL     1      20.555  53.598  18.444  1.00  0.00     0.222 HD
ENDBRANCH   2   3
BRANCH   2   5
HETATM    5  N4  UNL     1      23.316  53.701  17.706  1.00  0.00    -0.251 N 
ATOM      6  H4  UNL     1      23.527  53.107  16.904  1.00  0.00     0.191 HD
BRANCH   5   7
HETATM    7  N5  UNL     1      23.794  54.994  17.754  1.00  0.00    -0.297 N 
ATOM      8  H5  UNL     1      24.022  55.415  18.654  1.00  0.00     0.187 HD
BRANCH   7   9
HETATM    9  C11 UNL     1      23.970  55.739  16.571  1.00  0.00     0.048 A 
HETATM   10  C12 UNL     1      23.668  55.225  15.338  1.00  0.00     0.031 A 
HETATM   11  C13 UNL     1      23.836  55.975  14.184  1.00  0.00     0.002 A 
HETATM   12  C14 UNL     1      24.316  57.266  14.287  1.00  0.00     0.000 A 
HETATM   13  C15 UNL     1      24.632  57.820  15.536  1.00  0.00     0.002 A 
HETATM   14  C16 UNL     1      24.446  57.030  16.632  1.00  0.00     0.031 A 
ENDBRANCH   7   9
ENDBRANCH   5   7
ENDBRANCH   2   5
ENDBRANCH   1   2
BRANCH   1  15
HETATM   15  N2  UNL     1      23.562  52.746  21.184  1.00  0.00    -0.233 N 
HETATM   16  C2  UNL     1      24.156  51.869  21.838  1.00  0.00     0.069 C 
ATOM     17  H2  UNL     1      23.445  53.577  21.764  1.00  0.00     0.202 HD
BRANCH  16  18
HETATM   18  C3  UNL     1      24.479  50.561  21.299  1.00  0.00     0.057 A 
HETATM   19  C4  UNL     1      25.786  50.134  21.043  1.00  0.00     0.031 A 
HETATM   20  C5  UNL     1      26.062  48.892  20.535  1.00  0.00     0.004 A 
HETATM   21  C6  UNL     1      25.049  48.023  20.258  1.00  0.00     0.017 A 
HETATM   22  C7  UNL     1      23.737  48.441  20.509  1.00  0.00     0.088 A 
HETATM   23  N3  UNL     1      23.533  49.652  21.001  1.00  0.00    -0.364 N 
ATOM     24  H3  UNL     1      22.565  49.923  21.171  1.00  0.00     0.165 HD
ENDBRANCH  16  18
BRANCH  16  25
HETATM   25  C8  UNL     1      24.518  52.214  23.257  1.00  0.00     0.040 A 
HETATM   26  C9  UNL     1      23.502  52.895  24.110  1.00  0.00     0.011 A 
HETATM   27  C10 UNL     1      23.810  51.423  24.345  1.00  0.00     0.011 A 
ENDBRANCH  16  25
ENDBRANCH   1  15
TORSDOF 8
ENDMDL
MODEL 3
REMARK VINA RESULT: -8.751195075      0.921      3.241
REMARK  8 active torsions:
REMARK  status: ('A' for Active; 'I' for Inactive)
REMARK    1  A    between atoms: O1_1  and  C1_3 
REMARK    2  A    between atoms: C1_3  and  N1_4 
REMARK    3  A    between atoms: C1_3  and  N4_18 
REMARK    4  A    between atoms: N1_4  and  N2_5 
REMARK    5  A    between atoms: C2_7  and  C3_8 
REMARK    6  A    between atoms: C2_7  and  C8_15 
REMARK    7  A    between atoms: N4_18  and  N5_20 
REMARK    8  A    between atoms: N5_20  and  C11_22 
ROOT
HETATM    1  N1  UNL     1      23.799  51.688  19.155  1.00  0.00    -0.278 NA
ENDROOT
BRANCH   1   2
HETATM    2  C1  UNL     1      23.030  52.643  18.628  1.00  0.00     0.333 C 
BRANCH   2   3
HETATM    3  O1  UNL     1      21.829  52.995  18.979  1.00  0.00    -0.319 OA
ATOM      4  H1  UNL     1      21.039  52.468  18.981  1.00  0.00     0.222 HD
ENDBRANCH   2   3
BRANCH   2   5
HETATM    5  N4  UNL     1      23.495  53.454  17.506  1.00  0.00    -0.251 N 
ATOM      6  H4  UNL     1      23.630  53.028  16.588  1.00  0.00     0.191 HD
BRANCH   5   7
HETATM    7  N5  UNL     1      23.752  54.797  17.689  1.00  0.00    -0.297 N 
ATOM      8  H5  UNL     1      23.794  55.179  18.633  1.00  0.00     0.187 HD
BRANCH   7   9
HETATM    9  C11 UNL     1      23.957  55.647  16.582  1.00  0.00     0.048 A 
HETATM   10  C12 UNL     1      23.688  55.246  15.301  1.00  0.00     0.031 A 
HETATM   11  C13 UNL     1      23.883  56.098  14.225  1.00  0.00     0.002 A 
HETATM   12  C14 UNL     1      24.358  57.375  14.456  1.00  0.00     0.000 A 
HETATM   13  C15 UNL     1      24.641  57.813  15.759  1.00  0.00     0.002 A 
HETATM   14  C16 UNL     1      24.429  56.926  16.773  1.00  0.00     0.031 A 
ENDBRANCH   7   9
ENDBRANCH   5   7
ENDBRANCH   2   5
ENDBRANCH   1   2
BRANCH   1  15
HETATM   15  N2  UNL     1      24.546  50.754  19.669  1.00  0.00    -0.233 N 
HETATM   16  C2  UNL     1      24.919  50.301  20.767  1.00  0.00     0.069 C 
ATOM     17  H2  UNL     1      24.970  50.209  18.918  1.00  0.00     0.202 HD
BRANCH  16  18
HETATM   18  C3  UNL     1      24.494  50.855  22.039  1.00  0.00     0.057 A 
HETATM   19  C4  UNL     1      24.492  50.129  23.234  1.00  0.00     0.031 A 
HETATM   20  C5  UNL     1      24.087  50.679  24.422  1.00  0.00     0.004 A 
HETATM   21  C6  UNL     1      23.665  51.975  24.470  1.00  0.00     0.017 A 
HETATM   22  C7  UNL     1      23.661  52.709  23.278  1.00  0.00     0.088 A 
HETATM   23  N3  UNL     1      24.065  52.124  22.163  1.00  0.00    -0.364 N 
ATOM     24  H3  UNL     1      24.049  52.689  21.315  1.00  0.00     0.165 HD
ENDBRANCH  16  18
BRANCH  16  25
HETATM   25  C8  UNL     1      25.872  49.137  20.728  1.00  0.00     0.040 A 
HETATM   26  C9  UNL     1      25.332  47.763  20.938  1.00  0.00     0.011 A 
HETATM   27  C10 UNL     1      25.742  48.199  19.539  1.00  0.00     0.011 A 
ENDBRANCH  16  25
ENDBRANCH   1  15
TORSDOF 8
ENDMDL
MODEL 4
REMARK VINA RESULT: -8.686867600      1.030      1.184
REMARK  8 active torsions:
REMARK  status: ('A' for Active; 'I' for Inactive)
REMARK    1  A    between atoms: O1_1  and  C1_3 
REMARK    2  A    between atoms: C1_3  and  N1_4 
REMARK    3  A    between atoms: C1_3  and  N4_18 
REMARK    4  A    between atoms: N1_4  and  N2_5 
REMARK    5  A    between atoms: C2_7  and  C3_8 
REMARK    6  A    between atoms: C2_7  and  C8_15 
REMARK    7  A    between atoms: N4_18  and  N5_20 
REMARK    8  A    between atoms: N5_20  and  C11_22 
ROOT
HETATM    1  N1  UNL     1      23.044  52.349  19.421  1.00  0.00    -0.278 NA
ENDROOT
BRANCH   1   2
HETATM    2  C1  UNL     1      22.261  52.536  18.357  1.00  0.00     0.333 C 
BRANCH   2   3
HETATM    3  O1  UNL     1      21.317  51.763  17.907  1.00  0.00    -0.319 OA
ATOM      4  H1  UNL     1      20.700  51.936  17.206  1.00  0.00     0.222 HD
ENDBRANCH   2   3
BRANCH   2   5
HETATM    5  N4  UNL     1      22.398  53.721  17.516  1.00  0.00    -0.251 N 
ATOM      6  H4  UNL     1      21.645  53.988  16.881  1.00  0.00     0.191 HD
BRANCH   5   7
HETATM    7  N5  UNL     1      23.548  54.480  17.580  1.00  0.00    -0.297 N 
ATOM      8  H5  UNL     1      24.200  54.344  18.352  1.00  0.00     0.187 HD
BRANCH   7   9
HETATM    9  C11 UNL     1      23.831  55.442  16.589  1.00  0.00     0.048 A 
HETATM   10  C12 UNL     1      24.329  56.680  16.900  1.00  0.00     0.031 A 
HETATM   11  C13 UNL     1      24.613  57.610  15.912  1.00  0.00     0.002 A 
HETATM   12  C14 UNL     1      24.388  57.276  14.590  1.00  0.00     0.000 A 
HETATM   13  C15 UNL     1      23.880  56.015  14.242  1.00  0.00     0.002 A 
HETATM   14  C16 UNL     1      23.620  55.147  15.261  1.00  0.00     0.031 A 
ENDBRANCH   7   9
ENDBRANCH   5   7
ENDBRANCH   2   5
ENDBRANCH   1   2
BRANCH   1  15
HETATM   15  N2  UNL     1      23.810  52.168  20.458  1.00  0.00    -0.233 N 
HETATM   16  C2  UNL     1      24.621  51.354  20.938  1.00  0.00     0.069 C 
ATOM     17  H2  UNL     1      23.715  52.962  21.091  1.00  0.00     0.202 HD
BRANCH  16  18
HETATM   18  C3  UNL     1      24.981  50.112  20.280  1.00  0.00     0.057 A 
HETATM   19  C4  UNL     1      25.725  49.100  20.895  1.00  0.00     0.031 A 
HETATM   20  C5  UNL     1      26.049  47.936  20.250  1.00  0.00     0.004 A 
HETATM   21  C6  UNL     1      25.647  47.730  18.963  1.00  0.00     0.017 A 
HETATM   22  C7  UNL     1      24.903  48.737  18.338  1.00  0.00     0.088 A 
HETATM   23  N3  UNL     1      24.621  49.839  19.013  1.00  0.00    -0.364 N 
ATOM     24  H3  UNL     1      24.077  50.551  18.526  1.00  0.00     0.165 HD
ENDBRANCH  16  18
BRANCH  16  25
HETATM   25  C8  UNL     1      25.216  51.703  22.275  1.00  0.00     0.040 A 
HETATM   26  C9  UNL     1      24.961  53.059  22.840  1.00  0.00     0.011 A 
HETATM   27  C10 UNL     1      24.238  51.856  23.429  1.00  0.00     0.011 A 
ENDBRANCH  16  25
ENDBRANCH   1  15
TORSDOF 8
ENDMDL
MODEL 5
REMARK VINA RESULT: -8.672756145      0.969      3.145
REMARK  8 active torsions:
REMARK  status: ('A' for Active; 'I' for Inactive)
REMARK    1  A    between atoms: O1_1  and  C1_3 
REMARK    2  A    between atoms: C1_3  and  N1_4 
REMARK    3  A    between atoms: C1_3  and  N4_18 
REMARK    4  A    between atoms: N1_4  and  N2_5 
REMARK    5  A    between atoms: C2_7  and  C3_8 
REMARK    6  A    between atoms: C2_7  and  C8_15 
REMARK    7  A    between atoms: N4_18  and  N5_20 
REMARK    8  A    between atoms: N5_20  and  C11_22 
ROOT
HETATM    1  N1  UNL     1      23.505  51.568  18.601  1.00  0.00    -0.278 NA
ENDROOT
BRANCH   1   2
HETATM    2  C1  UNL     1      23.071  52.708  18.059  1.00  0.00     0.333 C 
BRANCH   2   3
HETATM    3  O1  UNL     1      21.854  53.161  18.005  1.00  0.00    -0.319 OA
ATOM      4  H1  UNL     1      21.062  52.693  17.769  1.00  0.00     0.222 HD
ENDBRANCH   2   3
BRANCH   2   5
HETATM    5  N4  UNL     1      23.994  53.637  17.412  1.00  0.00    -0.251 N 
ATOM      6  H4  UNL     1      24.777  53.281  16.863  1.00  0.00     0.191 HD
BRANCH   5   7
HETATM    7  N5  UNL     1      23.805  54.997  17.545  1.00  0.00    -0.297 N 
ATOM      8  H5  UNL     1      23.560  55.387  18.455  1.00  0.00     0.187 HD
BRANCH   7   9
HETATM    9  C11 UNL     1      23.948  55.854  16.435  1.00  0.00     0.048 A 
HETATM   10  C12 UNL     1      24.455  57.121  16.556  1.00  0.00     0.031 A 
HETATM   11  C13 UNL     1      24.601  57.946  15.452  1.00  0.00     0.002 A 
HETATM   12  C14 UNL     1      24.226  57.477  14.208  1.00  0.00     0.000 A 
HETATM   13  C15 UNL     1      23.705  56.184  14.053  1.00  0.00     0.002 A 
HETATM   14  C16 UNL     1      23.586  55.422  15.178  1.00  0.00     0.031 A 
ENDBRANCH   7   9
ENDBRANCH   5   7
ENDBRANCH   2   5
ENDBRANCH   1   2
BRANCH   1  15
HETATM   15  N2  UNL     1      23.930  50.458  19.131  1.00  0.00    -0.233 N 
HETATM   16  C2  UNL     1      24.299  49.979  20.219  1.00  0.00     0.069 C 
ATOM     17  H2  UNL     1      23.977  49.736  18.412  1.00  0.00     0.202 HD
BRANCH  16  18
HETATM   18  C3  UNL     1      24.349  50.748  21.448  1.00  0.00     0.057 A 
HETATM   19  C4  UNL     1      24.086  50.205  22.710  1.00  0.00     0.031 A 
HETATM   20  C5  UNL     1      24.143  50.955  23.855  1.00  0.00     0.004 A 
HETATM   21  C6  UNL     1      24.462  52.279  23.792  1.00  0.00     0.017 A 
HETATM   22  C7  UNL     1      24.725  52.833  22.534  1.00  0.00     0.088 A 
HETATM   23  N3  UNL     1      24.655  52.057  21.465  1.00  0.00    -0.364 N 
ATOM     24  H3  UNL     1      24.853  52.495  20.565  1.00  0.00     0.165 HD
ENDBRANCH  16  18
BRANCH  16  25
HETATM   25  C8  UNL     1      24.725  48.535  20.211  1.00  0.00     0.040 A 
HETATM   26  C9  UNL     1      25.423  48.002  19.006  1.00  0.00     0.011 A 
HETATM   27  C10 UNL     1      26.221  48.274  20.272  1.00  0.00     0.011 A 
ENDBRANCH  16  25
ENDBRANCH   1  15
TORSDOF 8
ENDMDL
