MODEL 1
REMARK VINA RESULT: -8.637206425      0.000      0.000
REMARK  5 active torsions:
REMARK  status: ('A' for Active; 'I' for Inactive)
REMARK    1  A    between atoms: C1_4  and  C2_6 
REMARK    2  A    between atoms: C3_9  and  C4_10 
REMARK    3  A    between atoms: C4_10  and  C5_11 
REMARK    4  A    between atoms: C10_16  and  C11_17 
REMARK    5  A    between atoms: C11_17  and  C12_18 
ROOT
HETATM    1  C4  UNL     1      23.735  54.712  15.204  1.00  0.00     0.006 C 
HETATM    2  C8  UNL     1      24.603  53.653  15.877  1.00  0.00     0.016 C 
HETATM    3  C9  UNL     1      23.857  52.645  16.674  1.00  0.00     0.006 C 
HETATM    4  C10 UNL     1      22.761  53.264  17.461  1.00  0.00    -0.005 C 
HETATM    5  C13 UNL     1      21.754  53.782  16.508  1.00  0.00     0.006 C 
HETATM    6  C14 UNL     1      22.287  54.505  15.319  1.00  0.00     0.016 C 
ENDROOT
BRANCH   1   7
HETATM    7  C3  UNL     1      24.131  54.566  13.716  1.00  0.00     0.025 A 
HETATM    8  N3  UNL     1      23.612  55.379  12.831  1.00  0.00    -0.350 N 
HETATM    9  C2  UNL     1      23.940  55.298  11.569  1.00  0.00     0.115 A 
ATOM     10  H3  UNL     1      22.941  56.087  13.131  1.00  0.00     0.166 HD
HETATM   11  S1  UNL     1      25.052  53.999  11.572  1.00  0.00    -0.079 SA
HETATM   12  C15 UNL     1      25.023  53.636  13.238  1.00  0.00     0.077 A 
BRANCH   9  13
HETATM   13  C1  UNL     1      23.520  56.088  10.390  1.00  0.00     0.144 C 
HETATM   14  N1  UNL     1      22.310  56.153  10.037  1.00  0.00    -0.385 N 
ATOM     15  H12 UNL     1      22.020  56.698   9.225  1.00  0.00     0.157 HD
ATOM     16  H11 UNL     1      21.580  55.658  10.550  1.00  0.00     0.157 HD
HETATM   17  N2  UNL     1      24.545  56.784   9.671  1.00  0.00    -0.080 NA
ENDBRANCH   9  13
ENDBRANCH   1   7
BRANCH   1  18
HETATM   18  C5  UNL     1      24.301  56.020  15.624  1.00  0.00     0.000 A 
HETATM   19  C6  UNL     1      24.288  56.537  17.006  1.00  0.00     0.006 A 
HETATM   20  C7  UNL     1      23.470  57.235  15.978  1.00  0.00     0.006 A 
ENDBRANCH   1  18
BRANCH   4  21
HETATM   21  C11 UNL     1      22.099  52.307  18.428  1.00  0.00     0.117 C 
BRANCH  21  22
HETATM   22  C12 UNL     1      22.846  52.022  19.648  1.00  0.00     0.172 C 
HETATM   23  O1  UNL     1      23.130  52.949  20.449  1.00  0.00    -0.648 OA
HETATM   24  O2  UNL     1      23.254  50.737  19.953  1.00  0.00    -0.648 OA
ENDBRANCH  21  22
ENDBRANCH   4  21
TORSDOF 5
ENDMDL
MODEL 2
REMARK VINA RESULT: -8.476608299      1.182      1.437
REMARK  5 active torsions:
REMARK  status: ('A' for Active; 'I' for Inactive)
REMARK    1  A    between atoms: C1_4  and  C2_6 
REMARK    2  A    between atoms: C3_9  and  C4_10 
REMARK    3  A    between atoms: C4_10  and  C5_11 
REMARK    4  A    between atoms: C10_16  and  C11_17 
REMARK    5  A    between atoms: C11_17  and  C12_18 
ROOT
HETATM    1  C4  UNL     1      23.775  54.787  15.108  1.00  0.00     0.006 C 
HETATM    2  C8  UNL     1      24.684  53.726  15.722  1.00  0.00     0.016 C 
HETATM    3  C9  UNL     1      23.984  52.688  16.521  1.00  0.00     0.006 C 
HETATM    4  C10 UNL     1      22.909  53.270  17.364  1.00  0.00    -0.005 C 
HETATM    5  C13 UNL     1      21.859  53.793  16.463  1.00  0.00     0.006 C 
HETATM    6  C14 UNL     1      22.335  54.553  15.272  1.00  0.00     0.016 C 
ENDROOT
BRANCH   1   7
HETATM    7  C3  UNL     1      24.116  54.683  13.603  1.00  0.00     0.025 A 
HETATM    8  N3  UNL     1      23.531  55.491  12.755  1.00  0.00    -0.350 N 
HETATM    9  C2  UNL     1      23.812  55.445  11.480  1.00  0.00     0.115 A 
ATOM     10  H3  UNL     1      22.847  56.166  13.095  1.00  0.00     0.166 HD
HETATM   11  S1  UNL     1      24.972  54.190  11.414  1.00  0.00    -0.079 SA
HETATM   12  C15 UNL     1      25.023  53.797  13.072  1.00  0.00     0.077 A 
BRANCH   9  13
HETATM   13  C1  UNL     1      23.315  56.239  10.334  1.00  0.00     0.144 C 
HETATM   14  N1  UNL     1      22.116  56.160   9.947  1.00  0.00    -0.385 N 
ATOM     15  H12 UNL     1      21.774  56.707   9.157  1.00  0.00     0.157 HD
ATOM     16  H11 UNL     1      21.449  55.541  10.408  1.00  0.00     0.157 HD
HETATM   17  N2  UNL     1      24.252  57.108   9.687  1.00  0.00    -0.080 NA
ENDBRANCH   9  13
ENDBRANCH   1   7
BRANCH   1  18
HETATM   18  C5  UNL     1      24.336  56.094  15.538  1.00  0.00     0.000 A 
HETATM   19  C6  UNL     1      24.364  56.579  16.932  1.00  0.00     0.006 A 
HETATM   20  C7  UNL     1      23.500  57.287  15.949  1.00  0.00     0.006 A 
ENDBRANCH   1  18
BRANCH   4  21
HETATM   21  C11 UNL     1      22.299  52.280  18.331  1.00  0.00     0.117 C 
BRANCH  21  22
HETATM   22  C12 UNL     1      20.859  52.080  18.211  1.00  0.00     0.172 C 
HETATM   23  O1  UNL     1      20.404  50.988  17.784  1.00  0.00    -0.648 OA
HETATM   24  O2  UNL     1      19.967  53.076  18.562  1.00  0.00    -0.648 OA
ENDBRANCH  21  22
ENDBRANCH   4  21
TORSDOF 5
ENDMDL
MODEL 3
REMARK VINA RESULT: -8.389967771      1.531      1.875
REMARK  5 active torsions:
REMARK  status: ('A' for Active; 'I' for Inactive)
REMARK    1  A    between atoms: C1_4  and  C2_6 
REMARK    2  A    between atoms: C3_9  and  C4_10 
REMARK    3  A    between atoms: C4_10  and  C5_11 
REMARK    4  A    between atoms: C10_16  and  C11_17 
REMARK    5  A    between atoms: C11_17  and  C12_18 
ROOT
HETATM    1  C4  UNL     1      23.631  55.287  14.885  1.00  0.00     0.006 C 
HETATM    2  C8  UNL     1      24.567  54.128  15.217  1.00  0.00     0.016 C 
HETATM    3  C9  UNL     1      23.927  52.987  15.921  1.00  0.00     0.006 C 
HETATM    4  C10 UNL     1      22.973  53.445  16.963  1.00  0.00    -0.005 C 
HETATM    5  C13 UNL     1      21.846  54.121  16.282  1.00  0.00     0.006 C 
HETATM    6  C14 UNL     1      22.212  55.052  15.177  1.00  0.00     0.016 C 
ENDROOT
BRANCH   1   7
HETATM    7  C3  UNL     1      23.797  55.417  13.353  1.00  0.00     0.025 A 
HETATM    8  N3  UNL     1      24.335  54.431  12.680  1.00  0.00    -0.350 N 
HETATM    9  C2  UNL     1      24.471  54.498  11.382  1.00  0.00     0.115 A 
ATOM     10  H3  UNL     1      24.653  53.598  13.176  1.00  0.00     0.166 HD
HETATM   11  S1  UNL     1      23.814  56.038  11.033  1.00  0.00    -0.079 SA
HETATM   12  C15 UNL     1      23.396  56.507  12.619  1.00  0.00     0.077 A 
BRANCH   9  13
HETATM   13  C1  UNL     1      25.022  53.538  10.400  1.00  0.00     0.144 C 
HETATM   14  N1  UNL     1      25.663  53.928   9.385  1.00  0.00    -0.385 N 
ATOM     15  H12 UNL     1      26.042  53.266   8.708  1.00  0.00     0.157 HD
ATOM     16  H11 UNL     1      25.818  54.920   9.204  1.00  0.00     0.157 HD
HETATM   17  N2  UNL     1      24.803  52.145  10.654  1.00  0.00    -0.080 NA
ENDBRANCH   9  13
ENDBRANCH   1   7
BRANCH   1  18
HETATM   18  C5  UNL     1      24.281  56.500  15.445  1.00  0.00     0.000 A 
HETATM   19  C6  UNL     1      24.465  56.766  16.885  1.00  0.00     0.006 A 
HETATM   20  C7  UNL     1      23.534  57.635  16.115  1.00  0.00     0.006 A 
ENDBRANCH   1  18
BRANCH   4  21
HETATM   21  C11 UNL     1      22.443  52.324  17.829  1.00  0.00     0.117 C 
BRANCH  21  22
HETATM   22  C12 UNL     1      23.095  52.160  19.124  1.00  0.00     0.172 C 
HETATM   23  O1  UNL     1      22.849  52.960  20.063  1.00  0.00    -0.648 OA
HETATM   24  O2  UNL     1      23.989  51.130  19.349  1.00  0.00    -0.648 OA
ENDBRANCH  21  22
ENDBRANCH   4  21
TORSDOF 5
ENDMDL
MODEL 4
REMARK VINA RESULT: -8.208021198      1.889      2.336
REMARK  5 active torsions:
REMARK  status: ('A' for Active; 'I' for Inactive)
REMARK    1  A    between atoms: C1_4  and  C2_6 
REMARK    2  A    between atoms: C3_9  and  C4_10 
REMARK    3  A    between atoms: C4_10  and  C5_11 
REMARK    4  A    between atoms: C10_16  and  C11_17 
REMARK    5  A    between atoms: C11_17  and  C12_18 
ROOT
HETATM    1  C4  UNL     1      23.596  55.086  14.883  1.00  0.00     0.006 C 
HETATM    2  C8  UNL     1      24.561  53.953  15.220  1.00  0.00     0.016 C 
HETATM    3  C9  UNL     1      23.956  52.814  15.958  1.00  0.00     0.006 C 
HETATM    4  C10 UNL     1      23.013  53.274  17.008  1.00  0.00    -0.005 C 
HETATM    5  C13 UNL     1      21.861  53.914  16.335  1.00  0.00     0.006 C 
HETATM    6  C14 UNL     1      22.187  54.830  15.205  1.00  0.00     0.016 C 
ENDROOT
BRANCH   1   7
HETATM    7  C3  UNL     1      23.732  55.189  13.346  1.00  0.00     0.025 A 
HETATM    8  N3  UNL     1      24.358  54.243  12.692  1.00  0.00    -0.350 N 
HETATM    9  C2  UNL     1      24.472  54.286  11.391  1.00  0.00     0.115 A 
ATOM     10  H3  UNL     1      24.762  53.460  13.206  1.00  0.00     0.166 HD
HETATM   11  S1  UNL     1      23.662  55.743  11.010  1.00  0.00    -0.079 SA
HETATM   12  C15 UNL     1      23.217  56.213  12.588  1.00  0.00     0.077 A 
BRANCH   9  13
HETATM   13  C1  UNL     1      25.104  53.358  10.428  1.00  0.00     0.144 C 
HETATM   14  N1  UNL     1      25.736  53.783   9.420  1.00  0.00    -0.385 N 
ATOM     15  H12 UNL     1      26.172  53.143   8.757  1.00  0.00     0.157 HD
ATOM     16  H11 UNL     1      25.827  54.781   9.233  1.00  0.00     0.157 HD
HETATM   17  N2  UNL     1      24.976  51.956  10.691  1.00  0.00    -0.080 NA
ENDBRANCH   9  13
ENDBRANCH   1   7
BRANCH   1  18
HETATM   18  C5  UNL     1      24.232  56.323  15.407  1.00  0.00     0.000 A 
HETATM   19  C6  UNL     1      24.399  56.640  16.839  1.00  0.00     0.006 A 
HETATM   20  C7  UNL     1      23.470  57.475  16.029  1.00  0.00     0.006 A 
ENDBRANCH   1  18
BRANCH   4  21
HETATM   21  C11 UNL     1      22.521  52.160  17.906  1.00  0.00     0.117 C 
BRANCH  21  22
HETATM   22  C12 UNL     1      21.072  52.042  18.033  1.00  0.00     0.172 C 
HETATM   23  O1  UNL     1      20.487  50.991  17.665  1.00  0.00    -0.648 OA
HETATM   24  O2  UNL     1      20.314  53.071  18.560  1.00  0.00    -0.648 OA
ENDBRANCH  21  22
ENDBRANCH   4  21
TORSDOF 5
ENDMDL
MODEL 5
REMARK VINA RESULT: -7.475984593      4.758      7.045
REMARK  5 active torsions:
REMARK  status: ('A' for Active; 'I' for Inactive)
REMARK    1  A    between atoms: C1_4  and  C2_6 
REMARK    2  A    between atoms: C3_9  and  C4_10 
REMARK    3  A    between atoms: C4_10  and  C5_11 
REMARK    4  A    between atoms: C10_16  and  C11_17 
REMARK    5  A    between atoms: C11_17  and  C12_18 
ROOT
HETATM    1  C4  UNL     1      23.751  54.840  15.403  1.00  0.00     0.006 C 
HETATM    2  C8  UNL     1      22.715  55.313  14.388  1.00  0.00     0.016 C 
HETATM    3  C9  UNL     1      22.995  54.929  12.980  1.00  0.00     0.006 C 
HETATM    4  C10 UNL     1      24.433  55.078  12.643  1.00  0.00    -0.005 C 
HETATM    5  C13 UNL     1      25.192  54.088  13.440  1.00  0.00     0.006 C 
HETATM    6  C14 UNL     1      24.795  53.956  14.870  1.00  0.00     0.016 C 
ENDROOT
BRANCH   1   7
HETATM    7  C3  UNL     1      22.890  54.029  16.400  1.00  0.00     0.025 A 
HETATM    8  N3  UNL     1      23.452  53.519  17.467  1.00  0.00    -0.350 N 
HETATM    9  C2  UNL     1      22.751  52.848  18.341  1.00  0.00     0.115 A 
ATOM     10  H3  UNL     1      24.453  53.649  17.618  1.00  0.00     0.166 HD
HETATM   11  S1  UNL     1      21.184  52.903  17.660  1.00  0.00    -0.079 SA
HETATM   12  C15 UNL     1      21.541  53.810  16.260  1.00  0.00     0.077 A 
BRANCH   9  13
HETATM   13  C1  UNL     1      23.130  52.194  19.613  1.00  0.00     0.144 C 
HETATM   14  N1  UNL     1      23.522  52.863  20.609  1.00  0.00    -0.385 N 
ATOM     15  H12 UNL     1      23.783  52.412  21.485  1.00  0.00     0.157 HD
ATOM     16  H11 UNL     1      23.597  53.880  20.568  1.00  0.00     0.157 HD
HETATM   17  N2  UNL     1      23.025  50.766  19.670  1.00  0.00    -0.080 NA
ENDBRANCH   9  13
ENDBRANCH   1   7
BRANCH   1  18
HETATM   18  C5  UNL     1      24.162  56.055  16.152  1.00  0.00     0.000 A 
HETATM   19  C6  UNL     1      23.485  57.364  16.069  1.00  0.00     0.006 A 
HETATM   20  C7  UNL     1      24.867  57.242  15.530  1.00  0.00     0.006 A 
ENDBRANCH   1  18
BRANCH   4  21
HETATM   21  C11 UNL     1      24.731  54.880  11.173  1.00  0.00     0.117 C 
BRANCH  21  22
HETATM   22  C12 UNL     1      24.085  55.819  10.263  1.00  0.00     0.172 C 
HETATM   23  O1  UNL     1      24.766  56.689   9.660  1.00  0.00    -0.648 OA
HETATM   24  O2  UNL     1      22.721  55.777  10.040  1.00  0.00    -0.648 OA
ENDBRANCH  21  22
ENDBRANCH   4  21
TORSDOF 5
ENDMDL
