MODEL 1
REMARK VINA RESULT: -7.934518616      0.000      0.000
REMARK  6 active torsions:
REMARK  status: ('A' for Active; 'I' for Inactive)
REMARK    1  A    between atoms: C2_2  and  C3_3 
REMARK    2  A    between atoms: C3_3  and  N1_4 
REMARK    3  A    between atoms: N1_4  and  C4_7 
REMARK    4  A    between atoms: C12_19  and  C13_20 
REMARK    5  A    between atoms: C13_20  and  N3_21 
REMARK    6  A    between atoms: C13_20  and  C14_25 
ROOT
HETATM    1  C1  UNL     1      22.001  54.501  15.302  1.00  0.00     0.017 C 
HETATM    2  C2  UNL     1      23.466  54.531  15.685  1.00  0.00    -0.011 C 
HETATM    3  C10 UNL     1      23.681  55.841  16.417  1.00  0.00     0.094 C 
HETATM    4  C11 UNL     1      23.325  56.953  15.524  1.00  0.00     0.112 C 
HETATM    5  N2  UNL     1      22.828  58.077  15.966  1.00  0.00    -0.384 N 
ATOM      6  H21 UNL     1      22.581  58.849  15.346  1.00  0.00     0.157 HD
ATOM      7  H22 UNL     1      22.669  58.224  16.963  1.00  0.00     0.157 HD
HETATM    8  O1  UNL     1      23.544  56.750  14.153  1.00  0.00    -0.332 OA
HETATM    9  C12 UNL     1      24.535  55.800  13.802  1.00  0.00     0.161 C 
HETATM   10  C17 UNL     1      24.274  54.453  14.417  1.00  0.00     0.045 C 
ENDROOT
BRANCH   2  11
HETATM   11  C3  UNL     1      23.821  53.436  16.666  1.00  0.00     0.242 C 
BRANCH  11  12
HETATM   12  N1  UNL     1      23.596  53.819  18.039  1.00  0.00    -0.070 N 
ATOM     13  H12 UNL     1      24.430  54.255  18.433  1.00  0.00     0.277 HD
ATOM     14  H11 UNL     1      22.951  54.608  18.092  1.00  0.00     0.277 HD
BRANCH  12  15
HETATM   15  C4  UNL     1      23.149  52.747  18.865  1.00  0.00     0.186 C 
HETATM   16  C5  UNL     1      23.315  51.382  18.278  1.00  0.00     0.033 C 
HETATM   17  C6  UNL     1      22.124  50.485  18.568  1.00  0.00     0.002 C 
HETATM   18  C7  UNL     1      20.915  51.017  17.846  1.00  0.00     0.000 C 
HETATM   19  C8  UNL     1      20.745  52.463  18.163  1.00  0.00     0.002 C 
HETATM   20  C9  UNL     1      21.691  52.970  19.205  1.00  0.00     0.033 C 
ENDBRANCH  12  15
ENDBRANCH  11  12
ENDBRANCH   2  11
BRANCH   9  21
HETATM   21  C13 UNL     1      24.475  55.655  12.294  1.00  0.00     0.216 C 
BRANCH  21  22
HETATM   22  N3  UNL     1      24.382  54.204  12.056  1.00  0.00    -0.072 N 
ATOM     23  H33 UNL     1      25.020  53.649  12.626  1.00  0.00     0.274 HD
ATOM     24  H32 UNL     1      23.521  53.783  12.403  1.00  0.00     0.274 HD
ATOM     25  H31 UNL     1      24.523  54.094  11.052  1.00  0.00     0.274 HD
ENDBRANCH  21  22
BRANCH  21  26
HETATM   26  C14 UNL     1      23.207  56.270  11.746  1.00  0.00     0.018 A 
HETATM   27  C15 UNL     1      22.691  55.832  10.424  1.00  0.00     0.007 A 
HETATM   28  C16 UNL     1      23.361  57.201  10.593  1.00  0.00     0.007 A 
ENDBRANCH  21  26
ENDBRANCH   9  21
TORSDOF 6
ENDMDL
MODEL 2
REMARK VINA RESULT: -7.881857518      3.291      7.900
REMARK  6 active torsions:
REMARK  status: ('A' for Active; 'I' for Inactive)
REMARK    1  A    between atoms: C2_2  and  C3_3 
REMARK    2  A    between atoms: C3_3  and  N1_4 
REMARK    3  A    between atoms: N1_4  and  C4_7 
REMARK    4  A    between atoms: C12_19  and  C13_20 
REMARK    5  A    between atoms: C13_20  and  N3_21 
REMARK    6  A    between atoms: C13_20  and  C14_25 
ROOT
HETATM    1  C1  UNL     1      21.803  50.986  18.253  1.00  0.00     0.017 C 
HETATM    2  C2  UNL     1      22.971  51.952  18.237  1.00  0.00    -0.011 C 
HETATM    3  C10 UNL     1      24.125  51.204  17.601  1.00  0.00     0.094 C 
HETATM    4  C11 UNL     1      24.416  50.004  18.400  1.00  0.00     0.112 C 
HETATM    5  N2  UNL     1      24.872  48.902  17.868  1.00  0.00    -0.384 N 
ATOM      6  H21 UNL     1      25.075  48.069  18.422  1.00  0.00     0.157 HD
ATOM      7  H22 UNL     1      25.045  48.834  16.865  1.00  0.00     0.157 HD
HETATM    8  O1  UNL     1      24.179  50.097  19.778  1.00  0.00    -0.332 OA
HETATM    9  C12 UNL     1      24.215  51.396  20.344  1.00  0.00     0.161 C 
HETATM   10  C17 UNL     1      23.265  52.339  19.662  1.00  0.00     0.045 C 
ENDROOT
BRANCH   2  11
HETATM   11  C3  UNL     1      22.706  53.150  17.354  1.00  0.00     0.242 C 
BRANCH  11  12
HETATM   12  N1  UNL     1      23.348  54.352  17.832  1.00  0.00    -0.070 N 
ATOM     13  H12 UNL     1      22.661  54.992  18.233  1.00  0.00     0.277 HD
ATOM     14  H11 UNL     1      23.904  54.156  18.664  1.00  0.00     0.277 HD
BRANCH  12  15
HETATM   15  C4  UNL     1      24.134  55.011  16.844  1.00  0.00     0.186 C 
HETATM   16  C5  UNL     1      24.487  56.430  17.158  1.00  0.00     0.033 C 
HETATM   17  C6  UNL     1      24.402  57.326  15.934  1.00  0.00     0.002 C 
HETATM   18  C7  UNL     1      22.965  57.426  15.493  1.00  0.00     0.000 C 
HETATM   19  C8  UNL     1      22.394  56.058  15.351  1.00  0.00     0.002 C 
HETATM   20  C9  UNL     1      23.397  54.962  15.523  1.00  0.00     0.033 C 
ENDBRANCH  12  15
ENDBRANCH  11  12
ENDBRANCH   2  11
BRANCH   9  21
HETATM   21  C13 UNL     1      23.785  51.246  21.790  1.00  0.00     0.216 C 
BRANCH  21  22
HETATM   22  N3  UNL     1      24.846  50.440  22.419  1.00  0.00    -0.072 N 
ATOM     23  H33 UNL     1      25.712  50.404  21.882  1.00  0.00     0.274 HD
ATOM     24  H32 UNL     1      25.246  50.865  23.256  1.00  0.00     0.274 HD
ATOM     25  H31 UNL     1      24.420  49.528  22.581  1.00  0.00     0.274 HD
ENDBRANCH  21  22
BRANCH  21  26
HETATM   26  C14 UNL     1      23.781  52.586  22.490  1.00  0.00     0.018 A 
HETATM   27  C15 UNL     1      25.014  53.067  23.164  1.00  0.00     0.007 A 
HETATM   28  C16 UNL     1      23.818  52.561  23.979  1.00  0.00     0.007 A 
ENDBRANCH  21  26
ENDBRANCH   9  21
TORSDOF 6
ENDMDL
MODEL 3
REMARK VINA RESULT: -7.802945360      2.444      7.266
REMARK  6 active torsions:
REMARK  status: ('A' for Active; 'I' for Inactive)
REMARK    1  A    between atoms: C2_2  and  C3_3 
REMARK    2  A    between atoms: C3_3  and  N1_4 
REMARK    3  A    between atoms: N1_4  and  C4_7 
REMARK    4  A    between atoms: C12_19  and  C13_20 
REMARK    5  A    between atoms: C13_20  and  N3_21 
REMARK    6  A    between atoms: C13_20  and  C14_25 
ROOT
HETATM    1  C1  UNL     1      23.794  54.651  17.502  1.00  0.00     0.017 C 
HETATM    2  C2  UNL     1      23.659  53.466  16.567  1.00  0.00    -0.011 C 
HETATM    3  C10 UNL     1      22.180  53.145  16.508  1.00  0.00     0.094 C 
HETATM    4  C11 UNL     1      21.704  52.830  17.864  1.00  0.00     0.112 C 
HETATM    5  N2  UNL     1      20.489  53.097  18.260  1.00  0.00    -0.384 N 
ATOM      6  H21 UNL     1      20.158  52.879  19.201  1.00  0.00     0.157 HD
ATOM      7  H22 UNL     1      19.817  53.540  17.633  1.00  0.00     0.157 HD
HETATM    8  O1  UNL     1      22.628  52.221  18.726  1.00  0.00    -0.332 OA
HETATM    9  C12 UNL     1      23.681  51.494  18.118  1.00  0.00     0.161 C 
HETATM   10  C17 UNL     1      24.462  52.332  17.145  1.00  0.00     0.045 C 
ENDROOT
BRANCH   2  11
HETATM   11  C3  UNL     1      24.074  53.807  15.154  1.00  0.00     0.242 C 
BRANCH  11  12
HETATM   12  N1  UNL     1      23.277  54.863  14.575  1.00  0.00    -0.070 N 
ATOM     13  H12 UNL     1      22.878  54.566  13.684  1.00  0.00     0.277 HD
ATOM     14  H11 UNL     1      22.419  55.000  15.109  1.00  0.00     0.277 HD
BRANCH  12  15
HETATM   15  C4  UNL     1      23.980  56.093  14.427  1.00  0.00     0.186 C 
HETATM   16  C5  UNL     1      23.160  57.323  14.655  1.00  0.00     0.033 C 
HETATM   17  C6  UNL     1      23.489  58.424  13.661  1.00  0.00     0.002 C 
HETATM   18  C7  UNL     1      23.065  57.989  12.283  1.00  0.00     0.000 C 
HETATM   19  C8  UNL     1      23.635  56.644  11.991  1.00  0.00     0.002 C 
HETATM   20  C9  UNL     1      24.580  56.146  13.038  1.00  0.00     0.033 C 
ENDBRANCH  12  15
ENDBRANCH  11  12
ENDBRANCH   2  11
BRANCH   9  21
HETATM   21  C13 UNL     1      24.611  51.069  19.237  1.00  0.00     0.216 C 
BRANCH  21  22
HETATM   22  N3  UNL     1      24.214  51.893  20.393  1.00  0.00    -0.072 N 
ATOM     23  H33 UNL     1      23.406  52.490  20.217  1.00  0.00     0.274 HD
ATOM     24  H32 UNL     1      23.800  51.361  21.158  1.00  0.00     0.274 HD
ATOM     25  H31 UNL     1      25.057  52.404  20.652  1.00  0.00     0.274 HD
ENDBRANCH  21  22
BRANCH  21  26
HETATM   26  C14 UNL     1      24.364  49.628  19.624  1.00  0.00     0.018 A 
HETATM   27  C15 UNL     1      25.474  48.817  20.185  1.00  0.00     0.007 A 
HETATM   28  C16 UNL     1      24.979  48.589  18.752  1.00  0.00     0.007 A 
ENDBRANCH  21  26
ENDBRANCH   9  21
TORSDOF 6
ENDMDL
MODEL 4
REMARK VINA RESULT: -7.748451000      3.424      5.737
REMARK  6 active torsions:
REMARK  status: ('A' for Active; 'I' for Inactive)
REMARK    1  A    between atoms: C2_2  and  C3_3 
REMARK    2  A    between atoms: C3_3  and  N1_4 
REMARK    3  A    between atoms: N1_4  and  C4_7 
REMARK    4  A    between atoms: C12_19  and  C13_20 
REMARK    5  A    between atoms: C13_20  and  N3_21 
REMARK    6  A    between atoms: C13_20  and  C14_25 
ROOT
HETATM    1  C1  UNL     1      24.200  50.281  17.772  1.00  0.00     0.017 C 
HETATM    2  C2  UNL     1      23.760  50.969  19.048  1.00  0.00    -0.011 C 
HETATM    3  C10 UNL     1      22.393  50.405  19.378  1.00  0.00     0.094 C 
HETATM    4  C11 UNL     1      21.478  50.684  18.262  1.00  0.00     0.112 C 
HETATM    5  N2  UNL     1      20.495  49.885  17.944  1.00  0.00    -0.384 N 
ATOM      6  H21 UNL     1      19.860  50.078  17.169  1.00  0.00     0.157 HD
ATOM      7  H22 UNL     1      20.326  49.026  18.468  1.00  0.00     0.157 HD
HETATM    8  O1  UNL     1      21.710  51.865  17.542  1.00  0.00    -0.332 OA
HETATM    9  C12 UNL     1      22.390  52.904  18.226  1.00  0.00     0.161 C 
HETATM   10  C17 UNL     1      23.711  52.449  18.779  1.00  0.00     0.045 C 
ENDROOT
BRANCH   2  11
HETATM   11  C3  UNL     1      24.654  50.623  20.218  1.00  0.00     0.242 C 
BRANCH  11  12
HETATM   12  N1  UNL     1      25.218  51.788  20.856  1.00  0.00    -0.070 N 
ATOM     13  H12 UNL     1      26.038  52.117  20.345  1.00  0.00     0.277 HD
ATOM     14  H11 UNL     1      24.607  52.596  20.736  1.00  0.00     0.277 HD
BRANCH  12  15
HETATM   15  C4  UNL     1      25.528  51.592  22.233  1.00  0.00     0.186 C 
HETATM   16  C5  UNL     1      24.945  50.358  22.845  1.00  0.00     0.033 C 
HETATM   17  C6  UNL     1      24.434  50.604  24.254  1.00  0.00     0.002 C 
HETATM   18  C7  UNL     1      23.256  51.541  24.197  1.00  0.00     0.000 C 
HETATM   19  C8  UNL     1      23.622  52.750  23.407  1.00  0.00     0.002 C 
HETATM   20  C9  UNL     1      25.064  52.802  23.014  1.00  0.00     0.033 C 
ENDBRANCH  12  15
ENDBRANCH  11  12
ENDBRANCH   2  11
BRANCH   9  21
HETATM   21  C13 UNL     1      22.648  53.993  17.204  1.00  0.00     0.216 C 
BRANCH  21  22
HETATM   22  N3  UNL     1      23.790  54.753  17.741  1.00  0.00    -0.072 N 
ATOM     23  H33 UNL     1      23.530  55.635  18.182  1.00  0.00     0.274 HD
ATOM     24  H32 UNL     1      24.216  54.332  18.566  1.00  0.00     0.274 HD
ATOM     25  H31 UNL     1      24.430  54.857  16.953  1.00  0.00     0.274 HD
ENDBRANCH  21  22
BRANCH  21  26
HETATM   26  C14 UNL     1      23.099  53.399  15.888  1.00  0.00     0.018 A 
HETATM   27  C15 UNL     1      24.550  53.235  15.614  1.00  0.00     0.007 A 
HETATM   28  C16 UNL     1      23.736  54.333  14.918  1.00  0.00     0.007 A 
ENDBRANCH  21  26
ENDBRANCH   9  21
TORSDOF 6
ENDMDL
MODEL 5
REMARK VINA RESULT: -7.741424075      3.439      5.511
REMARK  6 active torsions:
REMARK  status: ('A' for Active; 'I' for Inactive)
REMARK    1  A    between atoms: C2_2  and  C3_3 
REMARK    2  A    between atoms: C3_3  and  N1_4 
REMARK    3  A    between atoms: N1_4  and  C4_7 
REMARK    4  A    between atoms: C12_19  and  C13_20 
REMARK    5  A    between atoms: C13_20  and  N3_21 
REMARK    6  A    between atoms: C13_20  and  C14_25 
ROOT
HETATM    1  C1  UNL     1      24.170  50.243  17.581  1.00  0.00     0.017 C 
HETATM    2  C2  UNL     1      23.855  51.249  18.669  1.00  0.00    -0.011 C 
HETATM    3  C10 UNL     1      22.535  50.815  19.273  1.00  0.00     0.094 C 
HETATM    4  C11 UNL     1      21.507  50.806  18.221  1.00  0.00     0.112 C 
HETATM    5  N2  UNL     1      20.506  49.967  18.226  1.00  0.00    -0.384 N 
ATOM      6  H21 UNL     1      19.793  49.961  17.496  1.00  0.00     0.157 HD
ATOM      7  H22 UNL     1      20.401  49.279  18.971  1.00  0.00     0.157 HD
HETATM    8  O1  UNL     1      21.652  51.752  17.196  1.00  0.00    -0.332 OA
HETATM    9  C12 UNL     1      22.387  52.922  17.510  1.00  0.00     0.161 C 
HETATM   10  C17 UNL     1      23.764  52.607  18.026  1.00  0.00     0.045 C 
ENDROOT
BRANCH   2  11
HETATM   11  C3  UNL     1      24.867  51.207  19.792  1.00  0.00     0.242 C 
BRANCH  11  12
HETATM   12  N1  UNL     1      24.567  52.141  20.851  1.00  0.00    -0.070 N 
ATOM     13  H12 UNL     1      24.837  53.088  20.584  1.00  0.00     0.277 HD
ATOM     14  H11 UNL     1      23.560  52.270  20.943  1.00  0.00     0.277 HD
BRANCH  12  15
HETATM   15  C4  UNL     1      25.146  51.788  22.105  1.00  0.00     0.186 C 
HETATM   16  C5  UNL     1      24.698  50.476  22.663  1.00  0.00     0.033 C 
HETATM   17  C6  UNL     1      24.478  50.536  24.165  1.00  0.00     0.002 C 
HETATM   18  C7  UNL     1      23.312  51.443  24.458  1.00  0.00     0.000 C 
HETATM   19  C8  UNL     1      23.511  52.747  23.766  1.00  0.00     0.002 C 
HETATM   20  C9  UNL     1      24.846  52.884  23.105  1.00  0.00     0.033 C 
ENDBRANCH  12  15
ENDBRANCH  11  12
ENDBRANCH   2  11
BRANCH   9  21
HETATM   21  C13 UNL     1      22.529  53.700  16.217  1.00  0.00     0.216 C 
BRANCH  21  22
HETATM   22  N3  UNL     1      21.415  54.666  16.232  1.00  0.00    -0.072 N 
ATOM     23  H33 UNL     1      20.630  54.400  15.639  1.00  0.00     0.274 HD
ATOM     24  H32 UNL     1      20.897  54.685  17.110  1.00  0.00     0.274 HD
ATOM     25  H31 UNL     1      21.840  55.559  15.981  1.00  0.00     0.274 HD
ENDBRANCH  21  22
BRANCH  21  26
HETATM   26  C14 UNL     1      23.807  54.508  16.213  1.00  0.00     0.018 A 
HETATM   27  C15 UNL     1      23.750  55.975  16.439  1.00  0.00     0.007 A 
HETATM   28  C16 UNL     1      24.027  55.404  15.043  1.00  0.00     0.007 A 
ENDBRANCH  21  26
ENDBRANCH   9  21
TORSDOF 6
ENDMDL
