MODEL 1
REMARK VINA RESULT: -9.777436033      0.000      0.000
REMARK  1 active torsions:
REMARK  status: ('A' for Active; 'I' for Inactive)
REMARK    1  A    between atoms: C12_15  and  O4_16 
ROOT
HETATM    1  C1  UNL     1      38.352  43.628   6.445  1.00  0.00     0.049 C 
HETATM    2  C2  UNL     1      37.053  44.146   5.884  1.00  0.00     0.086 A 
HETATM    3  C3  UNL     1      36.684  43.669   4.531  1.00  0.00     0.075 A 
HETATM    4  C4  UNL     1      37.103  45.074   4.731  1.00  0.00     0.162 A 
HETATM    5  O1  UNL     1      36.205  46.099   4.924  1.00  0.00    -0.350 OA
HETATM    6  C5  UNL     1      34.884  45.629   5.096  1.00  0.00     0.293 C 
HETATM    7  O2  UNL     1      34.098  46.723   5.315  1.00  0.00    -0.328 OA
HETATM    8  C6  UNL     1      33.188  46.389   6.348  1.00  0.00     0.274 C 
HETATM    9  O3  UNL     1      32.745  47.609   6.825  1.00  0.00    -0.352 OA
HETATM   10  C7  UNL     1      32.005  47.577   7.953  1.00  0.00     0.164 C 
HETATM   11  C8  UNL     1      30.951  48.700   7.927  1.00  0.00     0.045 C 
HETATM   12  C9  UNL     1      30.051  47.721   8.639  1.00  0.00     0.061 C 
HETATM   13  C10 UNL     1      28.725  47.455   7.999  1.00  0.00     0.170 C 
HETATM   14  C11 UNL     1      27.935  46.483   8.779  1.00  0.00     0.070 C 
HETATM   15  C12 UNL     1      28.710  45.607   9.712  1.00  0.00     0.160 C 
HETATM   16  C13 UNL     1      29.716  44.725   9.036  1.00  0.00     0.132 C 
HETATM   17  C14 UNL     1      29.923  43.488   9.909  1.00  0.00     0.055 C 
HETATM   18  F1  UNL     1      29.260  44.268   7.821  1.00  0.00    -0.240 F 
HETATM   19  C15 UNL     1      31.060  45.443   8.886  1.00  0.00     0.068 C 
HETATM   20  C16 UNL     1      31.992  44.482   8.134  1.00  0.00     0.012 C 
HETATM   21  C17 UNL     1      33.398  44.878   8.353  1.00  0.00     0.017 C 
HETATM   22  C18 UNL     1      34.064  45.637   7.286  1.00  0.00     0.037 C 
HETATM   23  C19 UNL     1      35.058  46.602   7.888  1.00  0.00     0.023 C 
HETATM   24  C20 UNL     1      34.864  44.756   6.315  1.00  0.00     0.190 C 
HETATM   25  O5  UNL     1      36.097  44.458   6.828  1.00  0.00    -0.367 OA
HETATM   26  C21 UNL     1      30.873  46.626   7.994  1.00  0.00     0.135 C 
HETATM   27  O6  UNL     1      30.202  46.327   6.857  1.00  0.00    -0.226 OA
HETATM   28  O7  UNL     1      29.106  46.975   6.752  1.00  0.00    -0.234 OA
ENDROOT
BRANCH  15  29
HETATM   29  O4  UNL     1      27.747  44.828  10.402  1.00  0.00    -0.392 OA
ATOM     30  H4  UNL     1      27.658  44.024   9.903  1.00  0.00     0.210 HD
ENDBRANCH  15  29
TORSDOF 1
ENDMDL
MODEL 2
REMARK VINA RESULT: -8.261874159      2.168      3.915
REMARK  1 active torsions:
REMARK  status: ('A' for Active; 'I' for Inactive)
REMARK    1  A    between atoms: C12_15  and  O4_16 
ROOT
HETATM    1  C1  UNL     1      39.201  47.158   3.609  1.00  0.00     0.049 C 
HETATM    2  C2  UNL     1      38.670  46.771   4.966  1.00  0.00     0.086 A 
HETATM    3  C3  UNL     1      39.263  47.473   6.129  1.00  0.00     0.075 A 
HETATM    4  C4  UNL     1      39.568  46.044   5.893  1.00  0.00     0.162 A 
HETATM    5  O1  UNL     1      38.874  45.024   6.502  1.00  0.00    -0.350 OA
HETATM    6  C5  UNL     1      37.743  45.492   7.208  1.00  0.00     0.293 C 
HETATM    7  O2  UNL     1      37.120  44.396   7.732  1.00  0.00    -0.328 OA
HETATM    8  C6  UNL     1      35.726  44.578   7.555  1.00  0.00     0.274 C 
HETATM    9  O3  UNL     1      35.194  43.308   7.678  1.00  0.00    -0.352 OA
HETATM   10  C7  UNL     1      33.890  43.172   7.360  1.00  0.00     0.164 C 
HETATM   11  C8  UNL     1      33.237  42.095   8.246  1.00  0.00     0.045 C 
HETATM   12  C9  UNL     1      32.006  42.966   8.206  1.00  0.00     0.061 C 
HETATM   13  C10 UNL     1      31.436  43.366   9.530  1.00  0.00     0.170 C 
HETATM   14  C11 UNL     1      30.241  44.216   9.368  1.00  0.00     0.070 C 
HETATM   15  C12 UNL     1      30.102  44.908   8.049  1.00  0.00     0.160 C 
HETATM   16  C13 UNL     1      31.214  45.864   7.736  1.00  0.00     0.132 C 
HETATM   17  C14 UNL     1      30.664  46.935   6.794  1.00  0.00     0.055 C 
HETATM   18  F1  UNL     1      31.651  46.525   8.859  1.00  0.00    -0.240 F 
HETATM   19  C15 UNL     1      32.370  45.147   7.033  1.00  0.00     0.068 C 
HETATM   20  C16 UNL     1      33.471  46.196   6.813  1.00  0.00     0.012 C 
HETATM   21  C17 UNL     1      34.394  45.735   5.756  1.00  0.00     0.017 C 
HETATM   22  C18 UNL     1      35.671  45.145   6.181  1.00  0.00     0.037 C 
HETATM   23  C19 UNL     1      36.088  44.070   5.205  1.00  0.00     0.023 C 
HETATM   24  C20 UNL     1      36.829  46.153   6.220  1.00  0.00     0.190 C 
HETATM   25  O5  UNL     1      37.363  46.332   4.974  1.00  0.00    -0.367 OA
HETATM   26  C21 UNL     1      32.941  44.131   7.966  1.00  0.00     0.135 C 
HETATM   27  O6  UNL     1      33.183  44.629   9.201  1.00  0.00    -0.226 OA
HETATM   28  O7  UNL     1      32.509  44.035  10.108  1.00  0.00    -0.234 OA
ENDROOT
BRANCH  15  29
HETATM   29  O4  UNL     1      28.859  45.586   8.095  1.00  0.00    -0.392 OA
ATOM     30  H4  UNL     1      28.248  45.043   7.611  1.00  0.00     0.210 HD
ENDBRANCH  15  29
TORSDOF 1
ENDMDL
MODEL 3
REMARK VINA RESULT: -8.146906770      2.377      3.834
REMARK  1 active torsions:
REMARK  status: ('A' for Active; 'I' for Inactive)
REMARK    1  A    between atoms: C12_15  and  O4_16 
ROOT
HETATM    1  C1  UNL     1      37.233  48.779   5.290  1.00  0.00     0.049 C 
HETATM    2  C2  UNL     1      36.342  48.508   6.475  1.00  0.00     0.086 A 
HETATM    3  C3  UNL     1      36.686  49.214   7.732  1.00  0.00     0.075 A 
HETATM    4  C4  UNL     1      36.902  47.754   7.621  1.00  0.00     0.162 A 
HETATM    5  O1  UNL     1      35.981  46.829   8.059  1.00  0.00    -0.350 OA
HETATM    6  C5  UNL     1      34.759  47.429   8.438  1.00  0.00     0.293 C 
HETATM    7  O2  UNL     1      33.921  46.419   8.814  1.00  0.00    -0.328 OA
HETATM    8  C6  UNL     1      32.642  46.711   8.281  1.00  0.00     0.274 C 
HETATM    9  O3  UNL     1      31.976  45.500   8.297  1.00  0.00    -0.352 OA
HETATM   10  C7  UNL     1      30.788  45.461   7.659  1.00  0.00     0.164 C 
HETATM   11  C8  UNL     1      29.832  44.490   8.377  1.00  0.00     0.045 C 
HETATM   12  C9  UNL     1      28.740  45.461   7.999  1.00  0.00     0.061 C 
HETATM   13  C10 UNL     1      27.895  45.976   9.122  1.00  0.00     0.170 C 
HETATM   14  C11 UNL     1      26.868  46.917   8.636  1.00  0.00     0.070 C 
HETATM   15  C12 UNL     1      27.134  47.550   7.307  1.00  0.00     0.160 C 
HETATM   16  C13 UNL     1      28.376  48.390   7.264  1.00  0.00     0.132 C 
HETATM   17  C14 UNL     1      28.188  49.455   6.185  1.00  0.00     0.055 C 
HETATM   18  F1  UNL     1      28.577  49.066   8.444  1.00  0.00    -0.240 F 
HETATM   19  C15 UNL     1      29.598  47.541   6.900  1.00  0.00     0.068 C 
HETATM   20  C16 UNL     1      30.814  48.478   6.942  1.00  0.00     0.012 C 
HETATM   21  C17 UNL     1      31.926  47.886   6.170  1.00  0.00     0.017 C 
HETATM   22  C18 UNL     1      32.990  47.211   6.924  1.00  0.00     0.037 C 
HETATM   23  C19 UNL     1      33.535  46.056   6.116  1.00  0.00     0.023 C 
HETATM   24  C20 UNL     1      34.192  48.116   7.231  1.00  0.00     0.190 C 
HETATM   25  O5  UNL     1      35.039  48.185   6.160  1.00  0.00    -0.367 OA
HETATM   26  C21 UNL     1      29.814  46.528   7.976  1.00  0.00     0.135 C 
HETATM   27  O6  UNL     1      29.782  47.065   9.218  1.00  0.00    -0.226 OA
HETATM   28  O7  UNL     1      28.847  46.578   9.937  1.00  0.00    -0.234 OA
ENDROOT
BRANCH  15  29
HETATM   29  O4  UNL     1      25.991  48.335   7.015  1.00  0.00    -0.392 OA
ATOM     30  H4  UNL     1      25.243  47.815   7.285  1.00  0.00     0.210 HD
ENDBRANCH  15  29
TORSDOF 1
ENDMDL
MODEL 4
REMARK VINA RESULT: -8.061548372      1.405      1.682
REMARK  1 active torsions:
REMARK  status: ('A' for Active; 'I' for Inactive)
REMARK    1  A    between atoms: C12_15  and  O4_16 
ROOT
HETATM    1  C1  UNL     1      40.100  44.634   7.956  1.00  0.00     0.049 C 
HETATM    2  C2  UNL     1      38.878  44.874   7.108  1.00  0.00     0.086 A 
HETATM    3  C3  UNL     1      38.843  44.191   5.794  1.00  0.00     0.075 A 
HETATM    4  C4  UNL     1      39.028  45.657   5.860  1.00  0.00     0.162 A 
HETATM    5  O1  UNL     1      37.982  46.546   5.745  1.00  0.00    -0.350 OA
HETATM    6  C5  UNL     1      36.727  45.898   5.750  1.00  0.00     0.293 C 
HETATM    7  O2  UNL     1      35.776  46.875   5.669  1.00  0.00    -0.328 OA
HETATM    8  C6  UNL     1      34.736  46.526   6.564  1.00  0.00     0.274 C 
HETATM    9  O3  UNL     1      34.052  47.709   6.777  1.00  0.00    -0.352 OA
HETATM   10  C7  UNL     1      33.119  47.694   7.751  1.00  0.00     0.164 C 
HETATM   11  C8  UNL     1      31.951  48.629   7.381  1.00  0.00     0.045 C 
HETATM   12  C9  UNL     1      31.067  47.611   8.058  1.00  0.00     0.061 C 
HETATM   13  C10 UNL     1      29.937  47.069   7.241  1.00  0.00     0.170 C 
HETATM   14  C11 UNL     1      29.146  46.083   8.002  1.00  0.00     0.070 C 
HETATM   15  C12 UNL     1      29.833  45.453   9.173  1.00  0.00     0.160 C 
HETATM   16  C13 UNL     1      31.058  44.665   8.815  1.00  0.00     0.132 C 
HETATM   17  C14 UNL     1      31.253  43.587   9.880  1.00  0.00     0.055 C 
HETATM   18  F1  UNL     1      30.911  44.005   7.618  1.00  0.00    -0.240 F 
HETATM   19  C15 UNL     1      32.300  45.562   8.800  1.00  0.00     0.068 C 
HETATM   20  C16 UNL     1      33.478  44.677   8.369  1.00  0.00     0.012 C 
HETATM   21  C17 UNL     1      34.751  45.310   8.771  1.00  0.00     0.017 C 
HETATM   22  C18 UNL     1      35.504  46.034   7.738  1.00  0.00     0.037 C 
HETATM   23  C19 UNL     1      36.228  47.206   8.360  1.00  0.00     0.023 C 
HETATM   24  C20 UNL     1      36.586  45.181   7.059  1.00  0.00     0.190 C 
HETATM   25  O5  UNL     1      37.724  45.141   7.816  1.00  0.00    -0.367 OA
HETATM   26  C21 UNL     1      32.135  46.590   7.730  1.00  0.00     0.135 C 
HETATM   27  O6  UNL     1      31.742  46.060   6.548  1.00  0.00    -0.226 OA
HETATM   28  O7  UNL     1      30.612  46.512   6.161  1.00  0.00    -0.234 OA
ENDROOT
BRANCH  15  29
HETATM   29  O4  UNL     1      28.867  44.619   9.788  1.00  0.00    -0.392 OA
ATOM     30  H4  UNL     1      29.146  44.520  10.691  1.00  0.00     0.210 HD
ENDBRANCH  15  29
TORSDOF 1
ENDMDL
MODEL 5
REMARK VINA RESULT: -8.044670052      1.910      2.186
REMARK  1 active torsions:
REMARK  status: ('A' for Active; 'I' for Inactive)
REMARK    1  A    between atoms: C12_15  and  O4_16 
ROOT
HETATM    1  C1  UNL     1      40.000  47.324   7.387  1.00  0.00     0.049 C 
HETATM    2  C2  UNL     1      38.706  47.215   6.622  1.00  0.00     0.086 A 
HETATM    3  C3  UNL     1      38.783  46.574   5.289  1.00  0.00     0.075 A 
HETATM    4  C4  UNL     1      38.541  48.029   5.396  1.00  0.00     0.162 A 
HETATM    5  O1  UNL     1      37.280  48.579   5.374  1.00  0.00    -0.350 OA
HETATM    6  C5  UNL     1      36.266  47.596   5.430  1.00  0.00     0.293 C 
HETATM    7  O2  UNL     1      35.072  48.257   5.440  1.00  0.00    -0.328 OA
HETATM    8  C6  UNL     1      34.238  47.608   6.382  1.00  0.00     0.274 C 
HETATM    9  O3  UNL     1      33.259  48.538   6.676  1.00  0.00    -0.352 OA
HETATM   10  C7  UNL     1      32.436  48.238   7.702  1.00  0.00     0.164 C 
HETATM   11  C8  UNL     1      31.027  48.801   7.434  1.00  0.00     0.045 C 
HETATM   12  C9  UNL     1      30.520  47.560   8.126  1.00  0.00     0.061 C 
HETATM   13  C10 UNL     1      29.542  46.728   7.359  1.00  0.00     0.170 C 
HETATM   14  C11 UNL     1      29.120  45.542   8.130  1.00  0.00     0.070 C 
HETATM   15  C12 UNL     1      30.036  45.119   9.235  1.00  0.00     0.160 C 
HETATM   16  C13 UNL     1      31.409  44.725   8.778  1.00  0.00     0.132 C 
HETATM   17  C14 UNL     1      31.976  43.731   9.791  1.00  0.00     0.055 C 
HETATM   18  F1  UNL     1      31.378  44.071   7.569  1.00  0.00    -0.240 F 
HETATM   19  C15 UNL     1      32.336  45.943   8.722  1.00  0.00     0.068 C 
HETATM   20  C16 UNL     1      33.688  45.444   8.191  1.00  0.00     0.012 C 
HETATM   21  C17 UNL     1      34.749  46.411   8.539  1.00  0.00     0.017 C 
HETATM   22  C18 UNL     1      35.192  47.339   7.491  1.00  0.00     0.037 C 
HETATM   23  C19 UNL     1      35.588  48.659   8.110  1.00  0.00     0.023 C 
HETATM   24  C20 UNL     1      36.425  46.847   6.719  1.00  0.00     0.190 C 
HETATM   25  O5  UNL     1      37.575  47.125   7.405  1.00  0.00    -0.367 OA
HETATM   26  C21 UNL     1      31.812  46.897   7.700  1.00  0.00     0.135 C 
HETATM   27  O6  UNL     1      31.510  46.296   6.525  1.00  0.00    -0.226 OA
HETATM   28  O7  UNL     1      30.275  46.408   6.222  1.00  0.00    -0.234 OA
ENDROOT
BRANCH  15  29
HETATM   29  O4  UNL     1      29.393  44.031   9.876  1.00  0.00    -0.392 OA
ATOM     30  H4  UNL     1      30.087  43.515  10.270  1.00  0.00     0.210 HD
ENDBRANCH  15  29
TORSDOF 1
ENDMDL
