MODEL 1
REMARK VINA RESULT: -8.769033116      0.000      0.000
REMARK  0 active torsions:
REMARK  status: ('A' for Active; 'I' for Inactive)
ROOT
HETATM    1  O1  UNL     1      27.884  50.996   3.579  1.00  0.00    -0.273 OA
HETATM    2  C1  UNL     1      27.766  50.773   4.832  1.00  0.00     0.227 C 
HETATM    3  C2  UNL     1      26.322  50.933   5.192  1.00  0.00     0.178 C 
HETATM    4  S1  UNL     1      26.211  50.998   7.004  1.00  0.00    -0.134 SA
HETATM    5  C3  UNL     1      26.798  49.407   7.638  1.00  0.00     0.242 C 
HETATM    6  O2  UNL     1      27.369  48.632   6.657  1.00  0.00    -0.374 OA
HETATM    7  C4  UNL     1      28.757  48.503   6.817  1.00  0.00     0.147 C 
HETATM    8  C5  UNL     1      29.043  47.812   8.114  1.00  0.00     0.060 C 
HETATM    9  C6  UNL     1      27.986  46.784   8.470  1.00  0.00     0.170 C 
HETATM   10  O3  UNL     1      28.502  45.498   8.544  1.00  0.00    -0.389 OA
HETATM   11  C7  UNL     1      28.896  45.148   9.834  1.00  0.00     0.193 C 
HETATM   12  C8  UNL     1      29.740  43.897   9.715  1.00  0.00     0.193 C 
HETATM   13  O4  UNL     1      30.309  43.854   8.453  1.00  0.00    -0.389 OA
HETATM   14  C9  UNL     1      31.591  44.450   8.439  1.00  0.00     0.177 C 
HETATM   15  C10 UNL     1      32.586  43.336   8.554  1.00  0.00     0.137 C 
HETATM   16  C11 UNL     1      33.761  43.493   7.667  1.00  0.00     0.260 C 
HETATM   17  O5  UNL     1      34.473  42.466   7.541  1.00  0.00    -0.265 OA
HETATM   18  O6  UNL     1      34.001  44.678   7.063  1.00  0.00    -0.321 OA
HETATM   19  C12 UNL     1      34.188  45.949   7.583  1.00  0.00     0.178 C 
HETATM   20  C13 UNL     1      33.907  46.938   6.442  1.00  0.00     0.027 C 
HETATM   21  C14 UNL     1      33.706  48.287   7.094  1.00  0.00     0.002 C 
HETATM   22  C15 UNL     1      33.047  49.269   6.182  1.00  0.00     0.000 C 
HETATM   23  C16 UNL     1      31.571  49.008   5.997  1.00  0.00     0.002 C 
HETATM   24  C17 UNL     1      30.833  49.898   6.959  1.00  0.00     0.028 C 
HETATM   25  C18 UNL     1      29.344  49.883   6.738  1.00  0.00     0.113 C 
HETATM   26  N1  UNL     1      28.994  50.458   5.457  1.00  0.00    -0.353 N 
ATOM     27  H1  UNL     1      29.806  50.685   4.883  1.00  0.00     0.163 HD
ENDROOT
TORSDOF 0
ENDMDL
MODEL 2
REMARK VINA RESULT: -8.450879849      3.763      6.926
REMARK  0 active torsions:
REMARK  status: ('A' for Active; 'I' for Inactive)
ROOT
HETATM    1  O1  UNL     1      37.331  50.934   8.125  1.00  0.00    -0.273 OA
HETATM    2  C1  UNL     1      37.227  49.847   7.461  1.00  0.00     0.227 C 
HETATM    3  C2  UNL     1      38.593  49.244   7.354  1.00  0.00     0.178 C 
HETATM    4  S1  UNL     1      38.515  47.927   6.104  1.00  0.00    -0.134 SA
HETATM    5  C3  UNL     1      37.368  46.668   6.719  1.00  0.00     0.242 C 
HETATM    6  O2  UNL     1      36.686  47.083   7.838  1.00  0.00    -0.374 OA
HETATM    7  C4  UNL     1      35.325  47.308   7.582  1.00  0.00     0.147 C 
HETATM    8  C5  UNL     1      34.683  46.025   7.155  1.00  0.00     0.060 C 
HETATM    9  C6  UNL     1      35.294  44.815   7.837  1.00  0.00     0.170 C 
HETATM   10  O3  UNL     1      34.377  44.130   8.621  1.00  0.00    -0.389 OA
HETATM   11  C7  UNL     1      33.747  43.094   7.935  1.00  0.00     0.193 C 
HETATM   12  C8  UNL     1      32.556  42.671   8.767  1.00  0.00     0.193 C 
HETATM   13  O4  UNL     1      32.150  43.738   9.550  1.00  0.00    -0.389 OA
HETATM   14  C9  UNL     1      31.147  44.503   8.910  1.00  0.00     0.177 C 
HETATM   15  C10 UNL     1      29.834  44.039   9.461  1.00  0.00     0.137 C 
HETATM   16  C11 UNL     1      28.884  45.139   9.742  1.00  0.00     0.260 C 
HETATM   17  O5  UNL     1      27.891  44.817  10.442  1.00  0.00    -0.265 OA
HETATM   18  O6  UNL     1      29.118  46.378   9.257  1.00  0.00    -0.321 OA
HETATM   19  C12 UNL     1      29.305  46.833   7.961  1.00  0.00     0.178 C 
HETATM   20  C13 UNL     1      30.024  48.187   8.068  1.00  0.00     0.027 C 
HETATM   21  C14 UNL     1      30.585  48.475   6.695  1.00  0.00     0.002 C 
HETATM   22  C15 UNL     1      31.629  49.542   6.718  1.00  0.00     0.000 C 
HETATM   23  C16 UNL     1      32.947  49.070   7.285  1.00  0.00     0.002 C 
HETATM   24  C17 UNL     1      33.825  48.689   6.125  1.00  0.00     0.028 C 
HETATM   25  C18 UNL     1      35.240  48.389   6.543  1.00  0.00     0.113 C 
HETATM   26  N1  UNL     1      35.902  49.570   7.054  1.00  0.00    -0.353 N 
ATOM     27  H1  UNL     1      35.280  50.375   7.137  1.00  0.00     0.163 HD
ENDROOT
TORSDOF 0
ENDMDL
MODEL 3
REMARK VINA RESULT: -8.239503827      3.948      7.896
REMARK  0 active torsions:
REMARK  status: ('A' for Active; 'I' for Inactive)
ROOT
HETATM    1  O1  UNL     1      36.974  42.738   4.379  1.00  0.00    -0.273 OA
HETATM    2  C1  UNL     1      37.003  43.823   5.056  1.00  0.00     0.227 C 
HETATM    3  C2  UNL     1      37.931  44.770   4.362  1.00  0.00     0.178 C 
HETATM    4  S1  UNL     1      38.271  46.141   5.505  1.00  0.00    -0.134 SA
HETATM    5  C3  UNL     1      36.701  46.986   5.816  1.00  0.00     0.242 C 
HETATM    6  O2  UNL     1      35.625  46.294   5.310  1.00  0.00    -0.374 OA
HETATM    7  C4  UNL     1      34.818  45.748   6.319  1.00  0.00     0.147 C 
HETATM    8  C5  UNL     1      34.248  46.855   7.150  1.00  0.00     0.060 C 
HETATM    9  C6  UNL     1      33.970  48.106   6.339  1.00  0.00     0.170 C 
HETATM   10  O3  UNL     1      32.624  48.442   6.329  1.00  0.00    -0.389 OA
HETATM   11  C7  UNL     1      32.285  49.342   7.338  1.00  0.00     0.193 C 
HETATM   12  C8  UNL     1      30.775  49.350   7.436  1.00  0.00     0.193 C 
HETATM   13  O4  UNL     1      30.285  48.140   6.976  1.00  0.00    -0.389 OA
HETATM   14  C9  UNL     1      30.124  47.209   8.028  1.00  0.00     0.177 C 
HETATM   15  C10 UNL     1      28.681  47.254   8.426  1.00  0.00     0.137 C 
HETATM   16  C11 UNL     1      28.094  45.920   8.689  1.00  0.00     0.260 C 
HETATM   17  O5  UNL     1      26.840  45.897   8.764  1.00  0.00    -0.265 OA
HETATM   18  O6  UNL     1      28.896  44.842   8.831  1.00  0.00    -0.321 OA
HETATM   19  C12 UNL     1      29.941  44.587   9.706  1.00  0.00     0.178 C 
HETATM   20  C13 UNL     1      30.780  43.465   9.076  1.00  0.00     0.027 C 
HETATM   21  C14 UNL     1      32.108  43.476   9.799  1.00  0.00     0.002 C 
HETATM   22  C15 UNL     1      33.165  42.724   9.061  1.00  0.00     0.000 C 
HETATM   23  C16 UNL     1      33.686  43.464   7.852  1.00  0.00     0.002 C 
HETATM   24  C17 UNL     1      34.942  44.179   8.268  1.00  0.00     0.028 C 
HETATM   25  C18 UNL     1      35.672  44.795   7.104  1.00  0.00     0.113 C 
HETATM   26  N1  UNL     1      36.179  43.782   6.204  1.00  0.00    -0.353 N 
ATOM     27  H1  UNL     1      35.878  42.838   6.449  1.00  0.00     0.163 HD
ENDROOT
TORSDOF 0
ENDMDL
MODEL 4
REMARK VINA RESULT: -7.881006564      2.800      4.861
REMARK  0 active torsions:
REMARK  status: ('A' for Active; 'I' for Inactive)
ROOT
HETATM    1  O1  UNL     1      30.670  52.707   7.736  1.00  0.00    -0.273 OA
HETATM    2  C1  UNL     1      30.977  52.026   6.698  1.00  0.00     0.227 C 
HETATM    3  C2  UNL     1      31.730  52.924   5.767  1.00  0.00     0.178 C 
HETATM    4  S1  UNL     1      31.828  52.088   4.157  1.00  0.00    -0.134 SA
HETATM    5  C3  UNL     1      32.779  50.567   4.397  1.00  0.00     0.242 C 
HETATM    6  O2  UNL     1      33.012  50.299   5.725  1.00  0.00    -0.374 OA
HETATM    7  C4  UNL     1      32.293  49.184   6.180  1.00  0.00     0.147 C 
HETATM    8  C5  UNL     1      32.735  47.969   5.426  1.00  0.00     0.060 C 
HETATM    9  C6  UNL     1      34.206  48.016   5.060  1.00  0.00     0.170 C 
HETATM   10  O3  UNL     1      34.929  46.985   5.643  1.00  0.00    -0.389 OA
HETATM   11  C7  UNL     1      35.033  45.865   4.821  1.00  0.00     0.193 C 
HETATM   12  C8  UNL     1      35.524  44.724   5.686  1.00  0.00     0.193 C 
HETATM   13  O4  UNL     1      35.160  44.964   7.000  1.00  0.00    -0.389 OA
HETATM   14  C9  UNL     1      33.915  44.370   7.313  1.00  0.00     0.177 C 
HETATM   15  C10 UNL     1      34.217  43.070   7.991  1.00  0.00     0.137 C 
HETATM   16  C11 UNL     1      33.348  42.790   9.156  1.00  0.00     0.260 C 
HETATM   17  O5  UNL     1      33.738  41.854   9.898  1.00  0.00    -0.265 OA
HETATM   18  O6  UNL     1      32.228  43.519   9.358  1.00  0.00    -0.321 OA
HETATM   19  C12 UNL     1      31.123  43.742   8.551  1.00  0.00     0.178 C 
HETATM   20  C13 UNL     1      30.447  45.019   9.072  1.00  0.00     0.027 C 
HETATM   21  C14 UNL     1      29.518  45.482   7.972  1.00  0.00     0.002 C 
HETATM   22  C15 UNL     1      29.085  46.899   8.151  1.00  0.00     0.000 C 
HETATM   23  C16 UNL     1      30.167  47.898   7.816  1.00  0.00     0.002 C 
HETATM   24  C17 UNL     1      29.941  48.348   6.399  1.00  0.00     0.028 C 
HETATM   25  C18 UNL     1      30.834  49.494   6.005  1.00  0.00     0.113 C 
HETATM   26  N1  UNL     1      30.523  50.689   6.760  1.00  0.00    -0.353 N 
ATOM     27  H1  UNL     1      29.830  50.533   7.492  1.00  0.00     0.163 HD
ENDROOT
TORSDOF 0
ENDMDL
MODEL 5
REMARK VINA RESULT: -7.740018425      3.335      7.815
REMARK  0 active torsions:
REMARK  status: ('A' for Active; 'I' for Inactive)
ROOT
HETATM    1  O1  UNL     1      35.127  43.025   5.964  1.00  0.00    -0.273 OA
HETATM    2  C1  UNL     1      35.243  44.165   6.531  1.00  0.00     0.227 C 
HETATM    3  C2  UNL     1      36.536  44.770   6.081  1.00  0.00     0.178 C 
HETATM    4  S1  UNL     1      36.884  46.188   7.163  1.00  0.00    -0.134 SA
HETATM    5  C3  UNL     1      35.558  47.394   6.914  1.00  0.00     0.242 C 
HETATM    6  O2  UNL     1      34.525  46.889   6.160  1.00  0.00    -0.374 OA
HETATM    7  C4  UNL     1      33.359  46.691   6.914  1.00  0.00     0.147 C 
HETATM    8  C5  UNL     1      32.882  48.008   7.442  1.00  0.00     0.060 C 
HETATM    9  C6  UNL     1      33.168  49.153   6.491  1.00  0.00     0.170 C 
HETATM   10  O3  UNL     1      32.009  49.773   6.045  1.00  0.00    -0.389 OA
HETATM   11  C7  UNL     1      31.645  50.865   6.830  1.00  0.00     0.193 C 
HETATM   12  C8  UNL     1      30.220  51.220   6.461  1.00  0.00     0.193 C 
HETATM   13  O4  UNL     1      29.586  50.092   5.970  1.00  0.00    -0.389 OA
HETATM   14  C9  UNL     1      28.909  49.388   6.992  1.00  0.00     0.177 C 
HETATM   15  C10 UNL     1      27.473  49.809   6.926  1.00  0.00     0.137 C 
HETATM   16  C11 UNL     1      26.517  48.692   7.101  1.00  0.00     0.260 C 
HETATM   17  O5  UNL     1      25.328  48.956   6.791  1.00  0.00    -0.265 OA
HETATM   18  O6  UNL     1      26.946  47.497   7.563  1.00  0.00    -0.321 OA
HETATM   19  C12 UNL     1      27.607  47.152   8.732  1.00  0.00     0.178 C 
HETATM   20  C13 UNL     1      28.274  45.792   8.477  1.00  0.00     0.027 C 
HETATM   21  C14 UNL     1      29.306  45.618   9.568  1.00  0.00     0.002 C 
HETATM   22  C15 UNL     1      30.299  44.550   9.248  1.00  0.00     0.000 C 
HETATM   23  C16 UNL     1      31.304  44.968   8.201  1.00  0.00     0.002 C 
HETATM   24  C17 UNL     1      32.535  45.443   8.924  1.00  0.00     0.028 C 
HETATM   25  C18 UNL     1      33.690  45.701   7.994  1.00  0.00     0.113 C 
HETATM   26  N1  UNL     1      34.152  44.479   7.372  1.00  0.00    -0.353 N 
ATOM     27  H1  UNL     1      33.565  43.672   7.587  1.00  0.00     0.163 HD
ENDROOT
TORSDOF 0
ENDMDL
