MODEL 1
REMARK VINA RESULT: -7.573434282      0.000      0.000
REMARK  4 active torsions:
REMARK  status: ('A' for Active; 'I' for Inactive)
REMARK    1  A    between atoms: C7_7  and  N1_8 
REMARK    2  A    between atoms: N1_8  and  C8_10 
REMARK    3  A    between atoms: C8_10  and  C9_11 
REMARK    4  A    between atoms: C9_11  and  N2_12 
ROOT
HETATM    1  C1  UNL     1      -3.617  -4.479   7.753  1.00  0.00     0.048 C 
HETATM    2  C2  UNL     1      -3.998  -5.094   9.073  1.00  0.00    -0.059 A 
HETATM    3  C3  UNL     1      -5.078  -4.643   9.761  1.00  0.00     0.014 A 
HETATM    4  C4  UNL     1      -5.518  -5.138  10.986  1.00  0.00    -0.045 A 
HETATM    5  C5  UNL     1      -6.697  -4.583  11.654  1.00  0.00     0.049 C 
HETATM    6  C6  UNL     1      -4.756  -6.175  11.502  1.00  0.00     0.040 A 
HETATM    7  C7  UNL     1      -5.090  -6.750  12.708  1.00  0.00     0.116 A 
HETATM    8  N3  UNL     1      -4.304  -7.762  13.161  1.00  0.00    -0.319 N 
ATOM      9  H3  UNL     1      -4.537  -8.198  14.053  1.00  0.00     0.170 HD
HETATM   10  C15 UNL     1      -3.233  -8.213  12.487  1.00  0.00     0.177 A 
HETATM   11  S1  UNL     1      -2.309  -9.434  13.065  1.00  0.00    -0.040 SA
HETATM   12  N4  UNL     1      -2.880  -7.675  11.306  1.00  0.00    -0.332 N 
ATOM     13  H4  UNL     1      -2.067  -8.019  10.796  1.00  0.00     0.168 HD
HETATM   14  C16 UNL     1      -3.633  -6.666  10.815  1.00  0.00     0.049 A 
HETATM   15  C17 UNL     1      -3.258  -6.122   9.601  1.00  0.00     0.037 A 
ENDROOT
BRANCH   7  16
HETATM   16  N1  UNL     1      -6.096  -6.332  13.342  1.00  0.00    -0.374 N 
ATOM     17  H1  UNL     1      -6.797  -5.844  12.785  1.00  0.00     0.161 HD
BRANCH  16  18
HETATM   18  C8  UNL     1      -6.385  -6.449  14.726  1.00  0.00     0.141 C 
BRANCH  18  19
HETATM   19  C9  UNL     1      -7.642  -7.157  15.091  1.00  0.00     0.154 C 
BRANCH  19  20
HETATM   20  N2  UNL     1      -8.305  -7.852  14.034  1.00  0.00    -0.286 N 
HETATM   21  C10 UNL     1      -9.466  -7.387  13.340  1.00  0.00     0.227 C 
HETATM   22  O1  UNL     1     -10.160  -6.345  13.566  1.00  0.00    -0.273 OA
HETATM   23  C11 UNL     1      -9.731  -8.378  12.259  1.00  0.00     0.117 C 
HETATM   24  C12 UNL     1      -9.127  -9.639  12.806  1.00  0.00     0.083 C 
HETATM   25  C13 UNL     1      -8.761 -10.569  11.657  1.00  0.00     0.020 C 
HETATM   26  C14 UNL     1      -7.921  -9.123  13.499  1.00  0.00     0.230 C 
HETATM   27  O2  UNL     1      -6.803  -9.678  13.596  1.00  0.00    -0.273 OA
ENDBRANCH  19  20
ENDBRANCH  18  19
ENDBRANCH  16  18
ENDBRANCH   7  16
TORSDOF 4
ENDMDL
MODEL 2
REMARK VINA RESULT: -7.569042855      2.286      3.152
REMARK  4 active torsions:
REMARK  status: ('A' for Active; 'I' for Inactive)
REMARK    1  A    between atoms: C7_7  and  N1_8 
REMARK    2  A    between atoms: N1_8  and  C8_10 
REMARK    3  A    between atoms: C8_10  and  C9_11 
REMARK    4  A    between atoms: C9_11  and  N2_12 
ROOT
HETATM    1  C1  UNL     1      -3.447  -4.776   7.755  1.00  0.00     0.048 C 
HETATM    2  C2  UNL     1      -4.254  -4.919   9.018  1.00  0.00    -0.059 A 
HETATM    3  C3  UNL     1      -3.920  -5.844   9.952  1.00  0.00     0.014 A 
HETATM    4  C4  UNL     1      -4.595  -6.061  11.151  1.00  0.00    -0.045 A 
HETATM    5  C5  UNL     1      -4.158  -7.089  12.098  1.00  0.00     0.049 C 
HETATM    6  C6  UNL     1      -5.690  -5.237  11.358  1.00  0.00     0.040 A 
HETATM    7  C7  UNL     1      -6.440  -5.354  12.507  1.00  0.00     0.116 A 
HETATM    8  N3  UNL     1      -7.502  -4.519  12.652  1.00  0.00    -0.319 N 
ATOM      9  H3  UNL     1      -8.068  -4.592  13.498  1.00  0.00     0.170 HD
HETATM   10  C15 UNL     1      -7.840  -3.599  11.732  1.00  0.00     0.177 A 
HETATM   11  S1  UNL     1      -9.128  -2.611  11.941  1.00  0.00    -0.040 SA
HETATM   12  N4  UNL     1      -7.130  -3.459  10.600  1.00  0.00    -0.332 N 
ATOM     13  H4  UNL     1      -7.387  -2.761   9.903  1.00  0.00     0.168 HD
HETATM   14  C16 UNL     1      -6.063  -4.268  10.412  1.00  0.00     0.049 A 
HETATM   15  C17 UNL     1      -5.342  -4.113   9.243  1.00  0.00     0.037 A 
ENDROOT
BRANCH   7  16
HETATM   16  N1  UNL     1      -6.125  -6.212  13.375  1.00  0.00    -0.374 N 
ATOM     17  H1  UNL     1      -5.536  -6.977  13.045  1.00  0.00     0.161 HD
BRANCH  16  18
HETATM   18  C8  UNL     1      -6.477  -6.257  14.749  1.00  0.00     0.141 C 
BRANCH  18  19
HETATM   19  C9  UNL     1      -7.566  -7.197  15.130  1.00  0.00     0.154 C 
BRANCH  19  20
HETATM   20  N2  UNL     1      -8.245  -7.847  14.056  1.00  0.00    -0.286 N 
HETATM   21  C10 UNL     1      -9.382  -7.327  13.360  1.00  0.00     0.227 C 
HETATM   22  O1  UNL     1     -10.038  -6.264  13.599  1.00  0.00    -0.273 OA
HETATM   23  C11 UNL     1      -9.674  -8.288  12.260  1.00  0.00     0.117 C 
HETATM   24  C12 UNL     1      -9.121  -9.581  12.788  1.00  0.00     0.083 C 
HETATM   25  C13 UNL     1      -8.781 -10.503  11.626  1.00  0.00     0.020 C 
HETATM   26  C14 UNL     1      -7.904  -9.122  13.501  1.00  0.00     0.230 C 
HETATM   27  O2  UNL     1      -6.808  -9.720  13.597  1.00  0.00    -0.273 OA
ENDBRANCH  19  20
ENDBRANCH  18  19
ENDBRANCH  16  18
ENDBRANCH   7  16
TORSDOF 4
ENDMDL
MODEL 3
REMARK VINA RESULT: -7.554920046      2.635      3.383
REMARK  4 active torsions:
REMARK  status: ('A' for Active; 'I' for Inactive)
REMARK    1  A    between atoms: C7_7  and  N1_8 
REMARK    2  A    between atoms: N1_8  and  C8_10 
REMARK    3  A    between atoms: C8_10  and  C9_11 
REMARK    4  A    between atoms: C9_11  and  N2_12 
ROOT
HETATM    1  C1  UNL     1      -8.919  -1.391   7.584  1.00  0.00     0.048 C 
HETATM    2  C2  UNL     1      -8.294  -2.261   8.641  1.00  0.00    -0.059 A 
HETATM    3  C3  UNL     1      -8.878  -2.397   9.859  1.00  0.00     0.014 A 
HETATM    4  C4  UNL     1      -8.388  -3.174  10.906  1.00  0.00    -0.045 A 
HETATM    5  C5  UNL     1      -9.090  -3.256  12.189  1.00  0.00     0.049 C 
HETATM    6  C6  UNL     1      -7.205  -3.841  10.631  1.00  0.00     0.040 A 
HETATM    7  C7  UNL     1      -6.619  -4.641  11.587  1.00  0.00     0.116 A 
HETATM    8  N3  UNL     1      -5.460  -5.269  11.257  1.00  0.00    -0.319 N 
ATOM      9  H3  UNL     1      -5.013  -5.865  11.953  1.00  0.00     0.170 HD
HETATM   10  C15 UNL     1      -4.875  -5.139  10.054  1.00  0.00     0.177 A 
HETATM   11  S1  UNL     1      -3.477  -5.910   9.693  1.00  0.00    -0.040 SA
HETATM   12  N4  UNL     1      -5.420  -4.366   9.098  1.00  0.00    -0.332 N 
ATOM     13  H4  UNL     1      -4.975  -4.269   8.186  1.00  0.00     0.168 HD
HETATM   14  C16 UNL     1      -6.575  -3.723   9.380  1.00  0.00     0.049 A 
HETATM   15  C17 UNL     1      -7.124  -2.931   8.389  1.00  0.00     0.037 A 
ENDROOT
BRANCH   7  16
HETATM   16  N1  UNL     1      -7.166  -4.770  12.715  1.00  0.00    -0.374 N 
ATOM     17  H1  UNL     1      -7.830  -4.038  12.969  1.00  0.00     0.161 HD
BRANCH  16  18
HETATM   18  C8  UNL     1      -6.984  -5.794  13.679  1.00  0.00     0.141 C 
BRANCH  18  19
HETATM   19  C9  UNL     1      -8.209  -6.492  14.155  1.00  0.00     0.154 C 
BRANCH  19  20
HETATM   20  N2  UNL     1      -8.518  -7.731  13.516  1.00  0.00    -0.286 N 
HETATM   21  C10 UNL     1      -8.830  -7.892  12.129  1.00  0.00     0.227 C 
HETATM   22  O1  UNL     1      -8.966  -6.993  11.239  1.00  0.00    -0.273 OA
HETATM   23  C11 UNL     1      -8.971  -9.357  11.899  1.00  0.00     0.117 C 
HETATM   24  C12 UNL     1      -9.374  -9.871  13.252  1.00  0.00     0.083 C 
HETATM   25  C13 UNL     1      -8.986 -11.338  13.376  1.00  0.00     0.020 C 
HETATM   26  C14 UNL     1      -8.571  -9.012  14.155  1.00  0.00     0.230 C 
HETATM   27  O2  UNL     1      -8.047  -9.335  15.246  1.00  0.00    -0.273 OA
ENDBRANCH  19  20
ENDBRANCH  18  19
ENDBRANCH  16  18
ENDBRANCH   7  16
TORSDOF 4
ENDMDL
MODEL 4
REMARK VINA RESULT: -7.523563447      3.574      5.924
REMARK  4 active torsions:
REMARK  status: ('A' for Active; 'I' for Inactive)
REMARK    1  A    between atoms: C7_7  and  N1_8 
REMARK    2  A    between atoms: N1_8  and  C8_10 
REMARK    3  A    between atoms: C8_10  and  C9_11 
REMARK    4  A    between atoms: C9_11  and  N2_12 
ROOT
HETATM    1  C1  UNL     1      -9.272 -11.957  12.049  1.00  0.00     0.048 C 
HETATM    2  C2  UNL     1      -8.941 -10.624  12.665  1.00  0.00    -0.059 A 
HETATM    3  C3  UNL     1      -9.153  -9.473  11.977  1.00  0.00     0.014 A 
HETATM    4  C4  UNL     1      -8.884  -8.191  12.449  1.00  0.00    -0.045 A 
HETATM    5  C5  UNL     1      -9.144  -7.005  11.629  1.00  0.00     0.049 C 
HETATM    6  C6  UNL     1      -8.358  -8.141  13.731  1.00  0.00     0.040 A 
HETATM    7  C7  UNL     1      -8.049  -6.930  14.309  1.00  0.00     0.116 A 
HETATM    8  N3  UNL     1      -7.536  -6.947  15.568  1.00  0.00    -0.319 N 
ATOM      9  H3  UNL     1      -7.302  -6.059  16.011  1.00  0.00     0.170 HD
HETATM   10  C15 UNL     1      -7.323  -8.082  16.255  1.00  0.00     0.177 A 
HETATM   11  S1  UNL     1      -6.702  -8.064  17.769  1.00  0.00    -0.040 SA
HETATM   12  N4  UNL     1      -7.614  -9.281  15.720  1.00  0.00    -0.332 N 
ATOM     13  H4  UNL     1      -7.452 -10.141  16.243  1.00  0.00     0.168 HD
HETATM   14  C16 UNL     1      -8.127  -9.314  14.470  1.00  0.00     0.049 A 
HETATM   15  C17 UNL     1      -8.421 -10.552  13.932  1.00  0.00     0.037 A 
ENDROOT
BRANCH   7  16
HETATM   16  N1  UNL     1      -8.251  -5.863  13.670  1.00  0.00    -0.374 N 
ATOM     17  H1  UNL     1      -8.608  -5.977  12.722  1.00  0.00     0.161 HD
BRANCH  16  18
HETATM   18  C8  UNL     1      -8.048  -4.523  14.092  1.00  0.00     0.141 C 
BRANCH  18  19
HETATM   19  C9  UNL     1      -7.228  -3.657  13.201  1.00  0.00     0.154 C 
BRANCH  19  20
HETATM   20  N2  UNL     1      -7.722  -3.469  11.875  1.00  0.00    -0.286 N 
HETATM   21  C10 UNL     1      -8.992  -2.903  11.537  1.00  0.00     0.227 C 
HETATM   22  O1  UNL     1      -9.930  -2.542  12.317  1.00  0.00    -0.273 OA
HETATM   23  C11 UNL     1      -9.024  -2.804  10.051  1.00  0.00     0.117 C 
HETATM   24  C12 UNL     1      -8.082  -3.893   9.623  1.00  0.00     0.083 C 
HETATM   25  C13 UNL     1      -7.526  -3.572   8.242  1.00  0.00     0.020 C 
HETATM   26  C14 UNL     1      -7.033  -3.815  10.669  1.00  0.00     0.230 C 
HETATM   27  O2  UNL     1      -5.803  -4.010  10.529  1.00  0.00    -0.273 OA
ENDBRANCH  19  20
ENDBRANCH  18  19
ENDBRANCH  16  18
ENDBRANCH   7  16
TORSDOF 4
ENDMDL
MODEL 5
REMARK VINA RESULT: -7.445641801      6.212      8.408
REMARK  4 active torsions:
REMARK  status: ('A' for Active; 'I' for Inactive)
REMARK    1  A    between atoms: C7_7  and  N1_8 
REMARK    2  A    between atoms: N1_8  and  C8_10 
REMARK    3  A    between atoms: C8_10  and  C9_11 
REMARK    4  A    between atoms: C9_11  and  N2_12 
ROOT
HETATM    1  C1  UNL     1      -3.328  -5.499   8.364  1.00  0.00     0.048 C 
HETATM    2  C2  UNL     1      -4.164  -4.476   9.085  1.00  0.00    -0.059 A 
HETATM    3  C3  UNL     1      -3.903  -3.151   8.952  1.00  0.00     0.014 A 
HETATM    4  C4  UNL     1      -4.610  -2.123   9.571  1.00  0.00    -0.045 A 
HETATM    5  C5  UNL     1      -4.250  -0.718   9.368  1.00  0.00     0.049 C 
HETATM    6  C6  UNL     1      -5.656  -2.542  10.379  1.00  0.00     0.040 A 
HETATM    7  C7  UNL     1      -6.431  -1.620  11.046  1.00  0.00     0.116 A 
HETATM    8  N3  UNL     1      -7.441  -2.092  11.823  1.00  0.00    -0.319 N 
ATOM      9  H3  UNL     1      -8.025  -1.423  12.324  1.00  0.00     0.170 HD
HETATM   10  C15 UNL     1      -7.706  -3.403  11.960  1.00  0.00     0.177 A 
HETATM   11  S1  UNL     1      -8.931  -3.935  12.907  1.00  0.00    -0.040 SA
HETATM   12  N4  UNL     1      -6.970  -4.329  11.323  1.00  0.00    -0.332 N 
ATOM     13  H4  UNL     1      -7.172  -5.323  11.428  1.00  0.00     0.168 HD
HETATM   14  C16 UNL     1      -5.954  -3.906  10.538  1.00  0.00     0.049 A 
HETATM   15  C17 UNL     1      -5.204  -4.869   9.889  1.00  0.00     0.037 A 
ENDROOT
BRANCH   7  16
HETATM   16  N1  UNL     1      -6.189  -0.389  10.918  1.00  0.00    -0.374 N 
ATOM     17  H1  UNL     1      -5.377  -0.157  10.346  1.00  0.00     0.161 HD
BRANCH  16  18
HETATM   18  C8  UNL     1      -6.894   0.716  11.460  1.00  0.00     0.141 C 
BRANCH  18  19
HETATM   19  C9  UNL     1      -6.604   2.051  10.869  1.00  0.00     0.154 C 
BRANCH  19  20
HETATM   20  N2  UNL     1      -7.464   2.474   9.811  1.00  0.00    -0.286 N 
HETATM   21  C10 UNL     1      -8.143   3.732   9.749  1.00  0.00     0.227 C 
HETATM   22  O1  UNL     1      -8.179   4.655  10.623  1.00  0.00    -0.273 OA
HETATM   23  C11 UNL     1      -8.827   3.773   8.426  1.00  0.00     0.117 C 
HETATM   24  C12 UNL     1      -9.035   2.319   8.111  1.00  0.00     0.083 C 
HETATM   25  C13 UNL     1      -9.152   2.136   6.604  1.00  0.00     0.020 C 
HETATM   26  C14 UNL     1      -7.791   1.712   8.643  1.00  0.00     0.230 C 
HETATM   27  O2  UNL     1      -7.157   0.740   8.173  1.00  0.00    -0.273 OA
ENDBRANCH  19  20
ENDBRANCH  18  19
ENDBRANCH  16  18
ENDBRANCH   7  16
TORSDOF 4
ENDMDL
