MODEL 1
REMARK VINA RESULT: -7.109108779      0.000      0.000
REMARK  5 active torsions:
REMARK  status: ('A' for Active; 'I' for Inactive)
REMARK    1  A    between atoms: N1_2  and  C2_4 
REMARK    2  A    between atoms: C3_7  and  N3_8 
REMARK    3  A    between atoms: N3_8  and  C4_10 
REMARK    4  A    between atoms: C7_13  and  N4_14 
REMARK    5  A    between atoms: C16_25  and  C17_26 
ROOT
HETATM    1  C2  UNL     1      -7.400  -7.549  12.460  1.00  0.00     0.124 A 
HETATM    2  N2  UNL     1      -7.401  -6.186  12.399  1.00  0.00    -0.176 N 
ATOM      3  H2  UNL     1      -6.586  -5.684  12.048  1.00  0.00     0.186 HD
HETATM    4  C3  UNL     1      -8.489  -5.515  12.809  1.00  0.00     0.679 A 
HETATM    5  N5  UNL     1      -9.559  -6.177  13.271  1.00  0.00    -0.201 N 
ATOM      6  H5  UNL     1     -10.376  -5.648  13.577  1.00  0.00     0.183 HD
HETATM    7  C15 UNL     1      -9.587  -7.536  13.343  1.00  0.00     0.117 A 
HETATM    8  C16 UNL     1      -8.482  -8.246  12.927  1.00  0.00     0.005 A 
ENDROOT
BRANCH   4   9
HETATM    9  N3  UNL     1      -8.502  -4.255  12.763  1.00  0.00    -0.221 N 
ATOM     10  H3  UNL     1      -8.946  -3.810  13.565  1.00  0.00     0.178 HD
BRANCH   9  11
HETATM   11  C4  UNL     1      -8.008  -3.354  11.794  1.00  0.00     0.099 C 
HETATM   12  C5  UNL     1      -8.005  -1.916  12.187  1.00  0.00     0.027 C 
HETATM   13  C6  UNL     1      -7.174  -1.228  11.098  1.00  0.00     0.038 C 
HETATM   14  C7  UNL     1      -7.951  -1.232   9.804  1.00  0.00     0.223 C 
HETATM   15  C13 UNL     1      -8.642  -2.492   9.489  1.00  0.00     0.038 C 
HETATM   16  C14 UNL     1      -8.857  -3.481  10.553  1.00  0.00     0.027 C 
BRANCH  14  17
HETATM   17  N4  UNL     1      -7.120  -0.749   8.717  1.00  0.00     0.093 N 
HETATM   18  C8  UNL     1      -6.389   0.452   9.031  1.00  0.00     0.273 C 
HETATM   19  C9  UNL     1      -7.368   1.600   8.949  1.00  0.00     0.036 C 
HETATM   20  C10 UNL     1      -8.559   1.052   8.194  1.00  0.00     0.011 C 
HETATM   21  C11 UNL     1      -8.866   1.980   7.039  1.00  0.00     0.011 C 
HETATM   22  C12 UNL     1      -8.027  -0.253   7.668  1.00  0.00     0.277 C 
ENDBRANCH  14  17
ENDBRANCH   9  11
ENDBRANCH   4   9
BRANCH   1  23
HETATM   23  N1  UNL     1      -6.366  -8.167  12.069  1.00  0.00    -0.380 N 
HETATM   24  C1  UNL     1      -5.179  -7.450  11.683  1.00  0.00     0.147 C 
ATOM     25  H1  UNL     1      -6.375  -9.186  12.027  1.00  0.00     0.160 HD
ENDBRANCH   1  23
BRANCH   8  26
HETATM   26  C17 UNL     1      -8.421  -9.730  12.971  1.00  0.00     0.016 C 
HETATM   27  C18 UNL     1      -9.232 -10.272  11.788  1.00  0.00     0.015 C 
HETATM   28  C19 UNL     1      -9.073 -10.310  14.206  1.00  0.00     0.015 C 
ENDBRANCH   8  26
TORSDOF 5
ENDMDL
MODEL 2
REMARK VINA RESULT: -6.999693213      1.717      2.371
REMARK  5 active torsions:
REMARK  status: ('A' for Active; 'I' for Inactive)
REMARK    1  A    between atoms: N1_2  and  C2_4 
REMARK    2  A    between atoms: C3_7  and  N3_8 
REMARK    3  A    between atoms: N3_8  and  C4_10 
REMARK    4  A    between atoms: C7_13  and  N4_14 
REMARK    5  A    between atoms: C16_25  and  C17_26 
ROOT
HETATM    1  C2  UNL     1      -8.534  -8.984  13.991  1.00  0.00     0.124 A 
HETATM    2  N2  UNL     1      -8.750  -7.637  13.960  1.00  0.00    -0.176 N 
ATOM      3  H2  UNL     1      -8.656  -7.079  14.809  1.00  0.00     0.186 HD
HETATM    4  C3  UNL     1      -9.089  -7.057  12.799  1.00  0.00     0.679 A 
HETATM    5  N5  UNL     1      -9.212  -7.793  11.684  1.00  0.00    -0.201 N 
ATOM      6  H5  UNL     1      -9.469  -7.332  10.812  1.00  0.00     0.183 HD
HETATM    7  C15 UNL     1      -9.002  -9.137  11.685  1.00  0.00     0.117 A 
HETATM    8  C16 UNL     1      -8.653  -9.755  12.866  1.00  0.00     0.005 A 
ENDROOT
BRANCH   4   9
HETATM    9  N3  UNL     1      -9.295  -5.814  12.757  1.00  0.00    -0.221 N 
ATOM     10  H3  UNL     1     -10.225  -5.532  13.068  1.00  0.00     0.178 HD
BRANCH   9  11
HETATM   11  C4  UNL     1      -8.465  -4.745  12.355  1.00  0.00     0.099 C 
HETATM   12  C5  UNL     1      -8.947  -3.380  12.711  1.00  0.00     0.027 C 
HETATM   13  C6  UNL     1      -7.748  -2.469  12.423  1.00  0.00     0.038 C 
HETATM   14  C7  UNL     1      -7.535  -2.383  10.932  1.00  0.00     0.223 C 
HETATM   15  C13 UNL     1      -7.659  -3.657  10.205  1.00  0.00     0.038 C 
HETATM   16  C14 UNL     1      -8.321  -4.795  10.854  1.00  0.00     0.027 C 
BRANCH  14  17
HETATM   17  N4  UNL     1      -6.304  -1.674  10.638  1.00  0.00     0.093 N 
HETATM   18  C8  UNL     1      -6.193  -0.400  11.302  1.00  0.00     0.273 C 
HETATM   19  C9  UNL     1      -7.070   0.570  10.545  1.00  0.00     0.036 C 
HETATM   20  C10 UNL     1      -7.351  -0.101   9.219  1.00  0.00     0.011 C 
HETATM   21  C11 UNL     1      -6.992   0.861   8.107  1.00  0.00     0.011 C 
HETATM   22  C12 UNL     1      -6.377  -1.247   9.231  1.00  0.00     0.277 C 
ENDBRANCH  14  17
ENDBRANCH   9  11
ENDBRANCH   4   9
BRANCH   1  23
HETATM   23  N1  UNL     1      -8.215  -9.516  15.095  1.00  0.00    -0.380 N 
HETATM   24  C1  UNL     1      -7.260  -8.887  15.970  1.00  0.00     0.147 C 
ATOM     25  H1  UNL     1      -8.639 -10.403  15.368  1.00  0.00     0.160 HD
ENDBRANCH   1  23
BRANCH   8  26
HETATM   26  C17 UNL     1      -8.407 -11.218  12.962  1.00  0.00     0.016 C 
HETATM   27  C18 UNL     1      -6.978 -11.490  12.479  1.00  0.00     0.015 C 
HETATM   28  C19 UNL     1      -9.301 -12.027  12.050  1.00  0.00     0.015 C 
ENDBRANCH   8  26
TORSDOF 5
ENDMDL
MODEL 3
REMARK VINA RESULT: -6.730003515      1.737      9.101
REMARK  5 active torsions:
REMARK  status: ('A' for Active; 'I' for Inactive)
REMARK    1  A    between atoms: N1_2  and  C2_4 
REMARK    2  A    between atoms: C3_7  and  N3_8 
REMARK    3  A    between atoms: N3_8  and  C4_10 
REMARK    4  A    between atoms: C7_13  and  N4_14 
REMARK    5  A    between atoms: C16_25  and  C17_26 
ROOT
HETATM    1  C2  UNL     1      -7.661   1.563   8.536  1.00  0.00     0.124 A 
HETATM    2  N2  UNL     1      -7.719   0.208   8.383  1.00  0.00    -0.176 N 
ATOM      3  H2  UNL     1      -8.007  -0.200   7.494  1.00  0.00     0.186 HD
HETATM    4  C3  UNL     1      -7.390  -0.580   9.419  1.00  0.00     0.679 A 
HETATM    5  N5  UNL     1      -7.011  -0.041  10.587  1.00  0.00    -0.201 N 
ATOM      6  H5  UNL     1      -6.765  -0.658  11.361  1.00  0.00     0.183 HD
HETATM    7  C15 UNL     1      -6.944   1.306  10.768  1.00  0.00     0.117 A 
HETATM    8  C16 UNL     1      -7.276   2.135   9.719  1.00  0.00     0.005 A 
ENDROOT
BRANCH   4   9
HETATM    9  N3  UNL     1      -7.443  -1.833   9.293  1.00  0.00    -0.221 N 
ATOM     10  H3  UNL     1      -7.636  -2.152   8.343  1.00  0.00     0.178 HD
BRANCH   9  11
HETATM   11  C4  UNL     1      -7.280  -2.872  10.235  1.00  0.00     0.099 C 
HETATM   12  C5  UNL     1      -6.946  -4.212   9.674  1.00  0.00     0.027 C 
HETATM   13  C6  UNL     1      -6.552  -5.047  10.897  1.00  0.00     0.038 C 
HETATM   14  C7  UNL     1      -7.781  -5.317  11.731  1.00  0.00     0.223 C 
HETATM   15  C13 UNL     1      -8.685  -4.170  11.907  1.00  0.00     0.038 C 
HETATM   16  C14 UNL     1      -8.568  -3.015  11.009  1.00  0.00     0.027 C 
BRANCH  14  17
HETATM   17  N4  UNL     1      -7.411  -5.951  12.982  1.00  0.00     0.093 N 
HETATM   18  C8  UNL     1      -6.564  -7.106  12.823  1.00  0.00     0.273 C 
HETATM   19  C9  UNL     1      -7.450  -8.244  12.373  1.00  0.00     0.036 C 
HETATM   20  C10 UNL     1      -8.861  -7.791  12.674  1.00  0.00     0.011 C 
HETATM   21  C11 UNL     1      -9.547  -8.864  13.492  1.00  0.00     0.011 C 
HETATM   22  C12 UNL     1      -8.628  -6.575  13.527  1.00  0.00     0.277 C 
ENDBRANCH  14  17
ENDBRANCH   9  11
ENDBRANCH   4   9
BRANCH   1  23
HETATM   23  N1  UNL     1      -7.974   2.292   7.549  1.00  0.00    -0.380 N 
HETATM   24  C1  UNL     1      -9.315   2.292   7.026  1.00  0.00     0.147 C 
ATOM     25  H1  UNL     1      -7.266   2.888   7.119  1.00  0.00     0.160 HD
ENDBRANCH   1  23
BRANCH   8  26
HETATM   26  C17 UNL     1      -7.235   3.617   9.826  1.00  0.00     0.016 C 
HETATM   27  C18 UNL     1      -6.124   3.989  10.814  1.00  0.00     0.015 C 
HETATM   28  C19 UNL     1      -8.503   4.201  10.405  1.00  0.00     0.015 C 
ENDBRANCH   8  26
TORSDOF 5
ENDMDL
MODEL 4
REMARK VINA RESULT: -6.646361767      2.264      2.898
REMARK  5 active torsions:
REMARK  status: ('A' for Active; 'I' for Inactive)
REMARK    1  A    between atoms: N1_2  and  C2_4 
REMARK    2  A    between atoms: C3_7  and  N3_8 
REMARK    3  A    between atoms: N3_8  and  C4_10 
REMARK    4  A    between atoms: C7_13  and  N4_14 
REMARK    5  A    between atoms: C16_25  and  C17_26 
ROOT
HETATM    1  C2  UNL     1      -8.376  -8.720  14.233  1.00  0.00     0.124 A 
HETATM    2  N2  UNL     1      -8.702  -7.408  14.415  1.00  0.00    -0.176 N 
ATOM      3  H2  UNL     1      -8.481  -6.939  15.293  1.00  0.00     0.186 HD
HETATM    4  C3  UNL     1      -9.316  -6.743  13.424  1.00  0.00     0.679 A 
HETATM    5  N5  UNL     1      -9.604  -7.363  12.271  1.00  0.00    -0.201 N 
ATOM      6  H5  UNL     1     -10.071  -6.840  11.530  1.00  0.00     0.183 HD
HETATM    7  C15 UNL     1      -9.292  -8.671  12.060  1.00  0.00     0.117 A 
HETATM    8  C16 UNL     1      -8.660  -9.373  13.063  1.00  0.00     0.005 A 
ENDROOT
BRANCH   4   9
HETATM    9  N3  UNL     1      -9.626  -5.532  13.581  1.00  0.00    -0.221 N 
ATOM     10  H3  UNL     1     -10.568  -5.383  13.942  1.00  0.00     0.178 HD
BRANCH   9  11
HETATM   11  C4  UNL     1      -8.897  -4.346  13.346  1.00  0.00     0.099 C 
HETATM   12  C5  UNL     1      -9.557  -3.342  12.463  1.00  0.00     0.027 C 
HETATM   13  C6  UNL     1      -8.700  -2.081  12.618  1.00  0.00     0.038 C 
HETATM   14  C7  UNL     1      -7.364  -2.303  11.952  1.00  0.00     0.223 C 
HETATM   15  C13 UNL     1      -6.752  -3.619  12.193  1.00  0.00     0.038 C 
HETATM   16  C14 UNL     1      -7.583  -4.717  12.704  1.00  0.00     0.027 C 
BRANCH  14  17
HETATM   17  N4  UNL     1      -6.470  -1.196  12.235  1.00  0.00     0.093 N 
HETATM   18  C8  UNL     1      -7.053   0.099  11.997  1.00  0.00     0.273 C 
HETATM   19  C9  UNL     1      -7.042   0.321  10.502  1.00  0.00     0.036 C 
HETATM   20  C10 UNL     1      -6.079  -0.709   9.956  1.00  0.00     0.011 C 
HETATM   21  C11 UNL     1      -5.058  -0.003   9.090  1.00  0.00     0.011 C 
HETATM   22  C12 UNL     1      -5.417  -1.219  11.207  1.00  0.00     0.277 C 
ENDBRANCH  14  17
ENDBRANCH   9  11
ENDBRANCH   4   9
BRANCH   1  23
HETATM   23  N1  UNL     1      -7.796  -9.333  15.178  1.00  0.00    -0.380 N 
HETATM   24  C1  UNL     1      -7.352  -8.628  16.352  1.00  0.00     0.147 C 
ATOM     25  H1  UNL     1      -7.641 -10.338  15.105  1.00  0.00     0.160 HD
ENDBRANCH   1  23
BRANCH   8  26
HETATM   26  C17 UNL     1      -8.283 -10.804  12.923  1.00  0.00     0.016 C 
HETATM   27  C18 UNL     1      -6.945 -10.870  12.177  1.00  0.00     0.015 C 
HETATM   28  C19 UNL     1      -9.257 -11.590  12.075  1.00  0.00     0.015 C 
ENDBRANCH   8  26
TORSDOF 5
ENDMDL
MODEL 5
REMARK VINA RESULT: -6.628372981      1.335      1.670
REMARK  5 active torsions:
REMARK  status: ('A' for Active; 'I' for Inactive)
REMARK    1  A    between atoms: N1_2  and  C2_4 
REMARK    2  A    between atoms: C3_7  and  N3_8 
REMARK    3  A    between atoms: N3_8  and  C4_10 
REMARK    4  A    between atoms: C7_13  and  N4_14 
REMARK    5  A    between atoms: C16_25  and  C17_26 
ROOT
HETATM    1  C2  UNL     1      -8.119  -7.288  14.474  1.00  0.00     0.124 A 
HETATM    2  N2  UNL     1      -8.376  -5.970  14.235  1.00  0.00    -0.176 N 
ATOM      3  H2  UNL     1      -8.276  -5.281  14.979  1.00  0.00     0.186 HD
HETATM    4  C3  UNL     1      -8.762  -5.592  13.006  1.00  0.00     0.679 A 
HETATM    5  N5  UNL     1      -8.893  -6.501  12.028  1.00  0.00    -0.201 N 
ATOM      6  H5  UNL     1      -9.188  -6.193  11.102  1.00  0.00     0.183 HD
HETATM    7  C15 UNL     1      -8.644  -7.822  12.238  1.00  0.00     0.117 A 
HETATM    8  C16 UNL     1      -8.246  -8.233  13.491  1.00  0.00     0.005 A 
ENDROOT
BRANCH   4   9
HETATM    9  N3  UNL     1      -9.007  -4.378  12.772  1.00  0.00    -0.221 N 
ATOM     10  H3  UNL     1      -9.845  -4.022  13.232  1.00  0.00     0.178 HD
BRANCH   9  11
HETATM   11  C4  UNL     1      -8.323  -3.425  11.986  1.00  0.00     0.099 C 
HETATM   12  C5  UNL     1      -8.384  -2.017  12.474  1.00  0.00     0.027 C 
HETATM   13  C6  UNL     1      -7.347  -1.277  11.621  1.00  0.00     0.038 C 
HETATM   14  C7  UNL     1      -7.852  -1.175  10.202  1.00  0.00     0.223 C 
HETATM   15  C13 UNL     1      -8.480  -2.394   9.669  1.00  0.00     0.038 C 
HETATM   16  C14 UNL     1      -8.911  -3.447  10.597  1.00  0.00     0.027 C 
BRANCH  14  17
HETATM   17  N4  UNL     1      -6.819  -0.638   9.338  1.00  0.00     0.093 N 
HETATM   18  C8  UNL     1      -6.267   0.612   9.794  1.00  0.00     0.273 C 
HETATM   19  C9  UNL     1      -7.272   1.688   9.456  1.00  0.00     0.036 C 
HETATM   20  C10 UNL     1      -8.206   1.056   8.449  1.00  0.00     0.011 C 
HETATM   21  C11 UNL     1      -8.287   1.956   7.235  1.00  0.00     0.011 C 
HETATM   22  C12 UNL     1      -7.477  -0.211   8.092  1.00  0.00     0.277 C 
ENDBRANCH  14  17
ENDBRANCH   9  11
ENDBRANCH   4   9
BRANCH   1  23
HETATM   23  N1  UNL     1      -7.755  -7.628  15.639  1.00  0.00    -0.380 N 
HETATM   24  C1  UNL     1      -7.334  -6.640  16.598  1.00  0.00     0.147 C 
ATOM     25  H1  UNL     1      -7.760  -8.614  15.900  1.00  0.00     0.160 HD
ENDBRANCH   1  23
BRANCH   8  26
HETATM   26  C17 UNL     1      -7.954  -9.654  13.812  1.00  0.00     0.016 C 
HETATM   27  C18 UNL     1      -7.349 -10.307  12.564  1.00  0.00     0.015 C 
HETATM   28  C19 UNL     1      -9.198 -10.455  14.123  1.00  0.00     0.015 C 
ENDBRANCH   8  26
TORSDOF 5
ENDMDL
