MODEL 1
REMARK VINA RESULT: -8.221515338      0.000      0.000
REMARK  7 active torsions:
REMARK  status: ('A' for Active; 'I' for Inactive)
REMARK    1  A    between atoms: C3_3  and  O1_4 
REMARK    2  A    between atoms: C11_13  and  C12_14 
REMARK    3  A    between atoms: C12_14  and  C15_17 
REMARK    4  A    between atoms: C15_17  and  C16_18 
REMARK    5  A    between atoms: C16_18  and  C17_19 
REMARK    6  A    between atoms: C17_19  and  C18_20 
REMARK    7  A    between atoms: C18_20  and  C19_21 
ROOT
HETATM    1  C1  UNL     1      63.170   1.308  19.861  1.00  0.00     0.015 C 
HETATM    2  C2  UNL     1      62.122   0.948  19.391  1.00  0.00    -0.078 C 
HETATM    3  C3  UNL     1      60.853   0.488  18.832  1.00  0.00     0.128 C 
HETATM    4  C4  UNL     1      59.902   0.035  19.921  1.00  0.00     0.052 C 
HETATM    5  C5  UNL     1      58.893   1.179  20.108  1.00  0.00     0.010 C 
HETATM    6  C6  UNL     1      59.538   2.279  19.403  1.00  0.00     0.006 C 
HETATM    7  C7  UNL     1      58.764   3.532  19.122  1.00  0.00    -0.035 C 
HETATM    8  C8  UNL     1      57.452   3.328  18.523  1.00  0.00     0.016 C 
HETATM    9  C9  UNL     1      58.608   4.388  20.361  1.00  0.00     0.010 C 
HETATM   10  C10 UNL     1      58.402   5.743  19.749  1.00  0.00     0.006 C 
HETATM   11  C11 UNL     1      59.297   5.812  18.490  1.00  0.00    -0.002 C 
HETATM   12  C21 UNL     1      59.734   4.446  18.376  1.00  0.00    -0.001 C 
HETATM   13  C22 UNL     1      60.295   3.874  17.134  1.00  0.00     0.007 C 
HETATM   14  C23 UNL     1      61.009   2.566  17.429  1.00  0.00     0.014 C 
HETATM   15  C24 UNL     1      60.109   1.646  18.171  1.00  0.00     0.003 C 
HETATM   16  C25 UNL     1      59.123   1.033  17.249  1.00  0.00     0.020 C 
ENDROOT
BRANCH   3  17
HETATM   17  O1  UNL     1      61.049  -0.570  17.950  1.00  0.00    -0.377 OA
ATOM     18  H1  UNL     1      60.685  -0.373  17.095  1.00  0.00     0.211 HD
ENDBRANCH   3  17
BRANCH  11  19
HETATM   19  C12 UNL     1      58.738   6.670  17.464  1.00  0.00    -0.044 C 
HETATM   20  C13 UNL     1      57.457   7.416  17.700  1.00  0.00     0.015 C 
HETATM   21  C14 UNL     1      59.758   7.827  17.264  1.00  0.00     0.015 C 
BRANCH  19  22
HETATM   22  C15 UNL     1      58.599   6.073  16.083  1.00  0.00     0.009 C 
BRANCH  22  23
HETATM   23  C16 UNL     1      57.238   5.551  15.781  1.00  0.00     0.001 C 
BRANCH  23  24
HETATM   24  C17 UNL     1      57.405   4.246  15.029  1.00  0.00     0.000 C 
BRANCH  24  25
HETATM   25  C18 UNL     1      58.806   4.073  14.490  1.00  0.00    -0.000 C 
BRANCH  25  26
HETATM   26  C19 UNL     1      58.893   2.650  13.955  1.00  0.00    -0.005 C 
HETATM   27  C20 UNL     1      59.761   2.542  12.743  1.00  0.00     0.005 C 
ENDBRANCH  25  26
ENDBRANCH  24  25
ENDBRANCH  23  24
ENDBRANCH  22  23
ENDBRANCH  19  22
ENDBRANCH  11  19
TORSDOF 7
ENDMDL
MODEL 2
REMARK VINA RESULT: -8.149426539      1.174      1.523
REMARK  7 active torsions:
REMARK  status: ('A' for Active; 'I' for Inactive)
REMARK    1  A    between atoms: C3_3  and  O1_4 
REMARK    2  A    between atoms: C11_13  and  C12_14 
REMARK    3  A    between atoms: C12_14  and  C15_17 
REMARK    4  A    between atoms: C15_17  and  C16_18 
REMARK    5  A    between atoms: C16_18  and  C17_19 
REMARK    6  A    between atoms: C17_19  and  C18_20 
REMARK    7  A    between atoms: C18_20  and  C19_21 
ROOT
HETATM    1  C1  UNL     1      63.035   1.467  18.505  1.00  0.00     0.015 C 
HETATM    2  C2  UNL     1      61.933   1.058  18.769  1.00  0.00    -0.078 C 
HETATM    3  C3  UNL     1      60.608   0.543  19.108  1.00  0.00     0.128 C 
HETATM    4  C4  UNL     1      60.362   0.591  20.601  1.00  0.00     0.052 C 
HETATM    5  C5  UNL     1      59.460   1.812  20.844  1.00  0.00     0.010 C 
HETATM    6  C6  UNL     1      59.562   2.529  19.580  1.00  0.00     0.006 C 
HETATM    7  C7  UNL     1      58.624   3.664  19.296  1.00  0.00    -0.035 C 
HETATM    8  C8  UNL     1      57.215   3.377  19.533  1.00  0.00     0.016 C 
HETATM    9  C9  UNL     1      59.004   4.915  20.061  1.00  0.00     0.010 C 
HETATM   10  C10 UNL     1      58.387   5.976  19.198  1.00  0.00     0.006 C 
HETATM   11  C11 UNL     1      58.542   5.516  17.732  1.00  0.00    -0.002 C 
HETATM   12  C21 UNL     1      59.007   4.164  17.904  1.00  0.00    -0.001 C 
HETATM   13  C22 UNL     1      58.947   3.143  16.839  1.00  0.00     0.007 C 
HETATM   14  C23 UNL     1      59.844   1.966  17.183  1.00  0.00     0.014 C 
HETATM   15  C24 UNL     1      59.521   1.452  18.539  1.00  0.00     0.003 C 
HETATM   16  C25 UNL     1      58.280   0.642  18.502  1.00  0.00     0.020 C 
ENDROOT
BRANCH   3  17
HETATM   17  O1  UNL     1      60.457  -0.772  18.678  1.00  0.00    -0.377 OA
ATOM     18  H1  UNL     1      59.543  -0.979  18.530  1.00  0.00     0.211 HD
ENDBRANCH   3  17
BRANCH  11  19
HETATM   19  C12 UNL     1      57.469   6.000  16.886  1.00  0.00    -0.044 C 
HETATM   20  C13 UNL     1      56.212   5.200  16.705  1.00  0.00     0.015 C 
HETATM   21  C14 UNL     1      56.937   7.296  17.560  1.00  0.00     0.015 C 
BRANCH  19  22
HETATM   22  C15 UNL     1      57.852   6.451  15.496  1.00  0.00     0.009 C 
BRANCH  22  23
HETATM   23  C16 UNL     1      59.321   6.505  15.257  1.00  0.00     0.001 C 
BRANCH  23  24
HETATM   24  C17 UNL     1      59.675   5.367  14.323  1.00  0.00     0.000 C 
BRANCH  24  25
HETATM   25  C18 UNL     1      61.042   4.793  14.614  1.00  0.00    -0.000 C 
BRANCH  25  26
HETATM   26  C19 UNL     1      61.120   3.461  13.880  1.00  0.00    -0.005 C 
HETATM   27  C20 UNL     1      59.868   3.141  13.130  1.00  0.00     0.005 C 
ENDBRANCH  25  26
ENDBRANCH  24  25
ENDBRANCH  23  24
ENDBRANCH  22  23
ENDBRANCH  19  22
ENDBRANCH  11  19
TORSDOF 7
ENDMDL
MODEL 3
REMARK VINA RESULT: -6.878123468      2.272      4.589
REMARK  7 active torsions:
REMARK  status: ('A' for Active; 'I' for Inactive)
REMARK    1  A    between atoms: C3_3  and  O1_4 
REMARK    2  A    between atoms: C11_13  and  C12_14 
REMARK    3  A    between atoms: C12_14  and  C15_17 
REMARK    4  A    between atoms: C15_17  and  C16_18 
REMARK    5  A    between atoms: C16_18  and  C17_19 
REMARK    6  A    between atoms: C17_19  and  C18_20 
REMARK    7  A    between atoms: C18_20  and  C19_21 
ROOT
HETATM    1  C1  UNL     1      61.061   1.007  20.015  1.00  0.00     0.015 C 
HETATM    2  C2  UNL     1      60.093   1.685  19.784  1.00  0.00    -0.078 C 
HETATM    3  C3  UNL     1      58.916   2.514  19.530  1.00  0.00     0.128 C 
HETATM    4  C4  UNL     1      59.101   3.916  20.072  1.00  0.00     0.052 C 
HETATM    5  C5  UNL     1      59.433   4.800  18.860  1.00  0.00     0.010 C 
HETATM    6  C6  UNL     1      59.752   3.814  17.836  1.00  0.00     0.006 C 
HETATM    7  C7  UNL     1      59.888   4.250  16.407  1.00  0.00    -0.035 C 
HETATM    8  C8  UNL     1      58.799   5.078  15.905  1.00  0.00     0.016 C 
HETATM    9  C9  UNL     1      61.200   4.965  16.159  1.00  0.00     0.010 C 
HETATM   10  C10 UNL     1      61.375   4.737  14.685  1.00  0.00     0.006 C 
HETATM   11  C11 UNL     1      60.839   3.321  14.378  1.00  0.00    -0.002 C 
HETATM   12  C21 UNL     1      60.210   2.977  15.627  1.00  0.00    -0.001 C 
HETATM   13  C22 UNL     1      59.212   1.896  15.763  1.00  0.00     0.007 C 
HETATM   14  C23 UNL     1      59.032   1.523  17.225  1.00  0.00     0.014 C 
HETATM   15  C24 UNL     1      58.732   2.734  18.030  1.00  0.00     0.003 C 
HETATM   16  C25 UNL     1      57.319   3.143  17.842  1.00  0.00     0.020 C 
ENDROOT
BRANCH   3  17
HETATM   17  O1  UNL     1      57.781   1.961  20.113  1.00  0.00    -0.377 OA
ATOM     18  H1  UNL     1      57.006   2.466  19.898  1.00  0.00     0.211 HD
ENDBRANCH   3  17
BRANCH  11  19
HETATM   19  C12 UNL     1      60.300   3.215  13.037  1.00  0.00    -0.044 C 
HETATM   20  C13 UNL     1      58.841   2.945  12.814  1.00  0.00     0.015 C 
HETATM   21  C14 UNL     1      60.476   4.616  12.387  1.00  0.00     0.015 C 
BRANCH  19  22
HETATM   22  C15 UNL     1      61.022   2.287  12.088  1.00  0.00     0.009 C 
BRANCH  22  23
HETATM   23  C16 UNL     1      60.214   1.874  10.908  1.00  0.00     0.001 C 
BRANCH  23  24
HETATM   24  C17 UNL     1      60.487   0.405  10.657  1.00  0.00     0.000 C 
BRANCH  24  25
HETATM   25  C18 UNL     1      59.411  -0.241   9.816  1.00  0.00    -0.000 C 
BRANCH  25  26
HETATM   26  C19 UNL     1      59.154  -1.616  10.419  1.00  0.00    -0.005 C 
HETATM   27  C20 UNL     1      60.037  -1.906  11.589  1.00  0.00     0.005 C 
ENDBRANCH  25  26
ENDBRANCH  24  25
ENDBRANCH  23  24
ENDBRANCH  22  23
ENDBRANCH  19  22
ENDBRANCH  11  19
TORSDOF 7
ENDMDL
MODEL 4
REMARK VINA RESULT: -6.681916299      2.576      6.636
REMARK  7 active torsions:
REMARK  status: ('A' for Active; 'I' for Inactive)
REMARK    1  A    between atoms: C3_3  and  O1_4 
REMARK    2  A    between atoms: C11_13  and  C12_14 
REMARK    3  A    between atoms: C12_14  and  C15_17 
REMARK    4  A    between atoms: C15_17  and  C16_18 
REMARK    5  A    between atoms: C16_18  and  C17_19 
REMARK    6  A    between atoms: C17_19  and  C18_20 
REMARK    7  A    between atoms: C18_20  and  C19_21 
ROOT
HETATM    1  C1  UNL     1      59.411   9.207  14.220  1.00  0.00     0.015 C 
HETATM    2  C2  UNL     1      58.580   8.887  15.031  1.00  0.00    -0.078 C 
HETATM    3  C3  UNL     1      57.555   8.515  16.004  1.00  0.00     0.128 C 
HETATM    4  C4  UNL     1      56.277   8.077  15.319  1.00  0.00     0.052 C 
HETATM    5  C5  UNL     1      56.264   6.541  15.386  1.00  0.00     0.010 C 
HETATM    6  C6  UNL     1      57.638   6.236  15.761  1.00  0.00     0.006 C 
HETATM    7  C7  UNL     1      57.997   4.843  16.185  1.00  0.00    -0.035 C 
HETATM    8  C8  UNL     1      57.120   4.258  17.192  1.00  0.00     0.016 C 
HETATM    9  C9  UNL     1      58.085   3.899  15.005  1.00  0.00     0.010 C 
HETATM   10  C10 UNL     1      59.004   2.845  15.550  1.00  0.00     0.006 C 
HETATM   11  C11 UNL     1      60.042   3.564  16.441  1.00  0.00    -0.002 C 
HETATM   12  C21 UNL     1      59.490   4.892  16.507  1.00  0.00    -0.001 C 
HETATM   13  C22 UNL     1      59.870   5.879  17.537  1.00  0.00     0.007 C 
HETATM   14  C23 UNL     1      59.429   7.273  17.124  1.00  0.00     0.014 C 
HETATM   15  C24 UNL     1      57.983   7.274  16.784  1.00  0.00     0.003 C 
HETATM   16  C25 UNL     1      57.162   7.257  18.018  1.00  0.00     0.020 C 
ENDROOT
BRANCH   3  17
HETATM   17  O1  UNL     1      57.259   9.579  16.850  1.00  0.00    -0.377 OA
ATOM     18  H1  UNL     1      57.311  10.408  16.387  1.00  0.00     0.211 HD
ENDBRANCH   3  17
BRANCH  11  19
HETATM   19  C12 UNL     1      60.510   2.726  17.527  1.00  0.00    -0.044 C 
HETATM   20  C13 UNL     1      61.835   2.026  17.440  1.00  0.00     0.015 C 
HETATM   21  C14 UNL     1      60.719   3.671  18.744  1.00  0.00     0.015 C 
BRANCH  19  22
HETATM   22  C15 UNL     1      59.546   1.684  18.044  1.00  0.00     0.009 C 
BRANCH  22  23
HETATM   23  C16 UNL     1      58.807   2.094  19.270  1.00  0.00     0.001 C 
BRANCH  23  24
HETATM   24  C17 UNL     1      58.695   0.877  20.164  1.00  0.00     0.000 C 
BRANCH  24  25
HETATM   25  C18 UNL     1      59.821  -0.104  19.938  1.00  0.00    -0.000 C 
BRANCH  25  26
HETATM   26  C19 UNL     1      60.849   0.153  21.033  1.00  0.00    -0.005 C 
HETATM   27  C20 UNL     1      62.247   0.214  20.508  1.00  0.00     0.005 C 
ENDBRANCH  25  26
ENDBRANCH  24  25
ENDBRANCH  23  24
ENDBRANCH  22  23
ENDBRANCH  19  22
ENDBRANCH  11  19
TORSDOF 7
ENDMDL
MODEL 5
REMARK VINA RESULT: -6.554070958      2.142      4.538
REMARK  7 active torsions:
REMARK  status: ('A' for Active; 'I' for Inactive)
REMARK    1  A    between atoms: C3_3  and  O1_4 
REMARK    2  A    between atoms: C11_13  and  C12_14 
REMARK    3  A    between atoms: C12_14  and  C15_17 
REMARK    4  A    between atoms: C15_17  and  C16_18 
REMARK    5  A    between atoms: C16_18  and  C17_19 
REMARK    6  A    between atoms: C17_19  and  C18_20 
REMARK    7  A    between atoms: C18_20  and  C19_21 
ROOT
HETATM    1  C1  UNL     1      61.069   1.023  20.011  1.00  0.00     0.015 C 
HETATM    2  C2  UNL     1      60.105   1.703  19.773  1.00  0.00    -0.078 C 
HETATM    3  C3  UNL     1      58.932   2.535  19.510  1.00  0.00     0.128 C 
HETATM    4  C4  UNL     1      59.124   3.942  20.036  1.00  0.00     0.052 C 
HETATM    5  C5  UNL     1      59.461   4.811  18.814  1.00  0.00     0.010 C 
HETATM    6  C6  UNL     1      59.775   3.812  17.801  1.00  0.00     0.006 C 
HETATM    7  C7  UNL     1      59.914   4.231  16.367  1.00  0.00    -0.035 C 
HETATM    8  C8  UNL     1      58.829   5.059  15.856  1.00  0.00     0.016 C 
HETATM    9  C9  UNL     1      61.229   4.936  16.111  1.00  0.00     0.010 C 
HETATM   10  C10 UNL     1      61.403   4.691  14.640  1.00  0.00     0.006 C 
HETATM   11  C11 UNL     1      60.859   3.274  14.349  1.00  0.00    -0.002 C 
HETATM   12  C21 UNL     1      60.229   2.947  15.601  1.00  0.00    -0.001 C 
HETATM   13  C22 UNL     1      59.225   1.874  15.749  1.00  0.00     0.007 C 
HETATM   14  C23 UNL     1      59.042   1.518  17.215  1.00  0.00     0.014 C 
HETATM   15  C24 UNL     1      58.749   2.740  18.007  1.00  0.00     0.003 C 
HETATM   16  C25 UNL     1      57.339   3.154  17.815  1.00  0.00     0.020 C 
ENDROOT
BRANCH   3  17
HETATM   17  O1  UNL     1      57.794   1.995  20.099  1.00  0.00    -0.377 OA
ATOM     18  H1  UNL     1      57.049   2.576  19.997  1.00  0.00     0.211 HD
ENDBRANCH   3  17
BRANCH  11  19
HETATM   19  C12 UNL     1      60.319   3.156  13.009  1.00  0.00    -0.044 C 
HETATM   20  C13 UNL     1      58.859   2.887  12.789  1.00  0.00     0.015 C 
HETATM   21  C14 UNL     1      60.498   4.550  12.345  1.00  0.00     0.015 C 
BRANCH  19  22
HETATM   22  C15 UNL     1      61.039   2.217  12.069  1.00  0.00     0.009 C 
BRANCH  22  23
HETATM   23  C16 UNL     1      60.145   1.261  11.360  1.00  0.00     0.001 C 
BRANCH  23  24
HETATM   24  C17 UNL     1      60.311   1.495   9.873  1.00  0.00     0.000 C 
BRANCH  24  25
HETATM   25  C18 UNL     1      59.023   1.279   9.112  1.00  0.00    -0.000 C 
BRANCH  25  26
HETATM   26  C19 UNL     1      58.180   2.530   9.320  1.00  0.00    -0.005 C 
HETATM   27  C20 UNL     1      58.927   3.787   9.009  1.00  0.00     0.005 C 
ENDBRANCH  25  26
ENDBRANCH  24  25
ENDBRANCH  23  24
ENDBRANCH  22  23
ENDBRANCH  19  22
ENDBRANCH  11  19
TORSDOF 7
ENDMDL
