MODEL 1
REMARK VINA RESULT: -8.071974428      0.000      0.000
REMARK  7 active torsions:
REMARK  status: ('A' for Active; 'I' for Inactive)
REMARK    1  A    between atoms: C2_2  and  C3_3 
REMARK    2  A    between atoms: C3_3  and  C4_4 
REMARK    3  A    between atoms: C4_4  and  C5_5 
REMARK    4  A    between atoms: C5_5  and  C6_6 
REMARK    5  A    between atoms: C6_6  and  N1_7 
REMARK    6  A    between atoms: C12_13  and  C13_14 
REMARK    7  A    between atoms: C18_19  and  O1_20 
ROOT
HETATM    1  N1  UNL     1      58.252   4.333  15.380  1.00  0.00    -0.067 N 
HETATM    2  C7  UNL     1      58.285   3.318  14.384  1.00  0.00     0.238 C 
HETATM    3  C8  UNL     1      59.341   2.254  14.602  1.00  0.00     0.033 C 
HETATM    4  C9  UNL     1      60.212   2.765  15.770  1.00  0.00    -0.005 C 
HETATM    5  C10 UNL     1      60.612   4.153  15.330  1.00  0.00     0.033 C 
HETATM    6  C11 UNL     1      59.461   5.138  15.364  1.00  0.00     0.238 C 
HETATM    7  C12 UNL     1      59.309   2.730  16.954  1.00  0.00     0.025 C 
HETATM    8  C23 UNL     1      58.224   3.683  16.732  1.00  0.00     0.243 C 
ENDROOT
BRANCH   7   9
HETATM    9  C13 UNL     1      59.985   2.630  18.286  1.00  0.00    -0.028 C 
HETATM   10  C14 UNL     1      60.626   3.956  18.723  1.00  0.00     0.016 C 
HETATM   11  C15 UNL     1      61.204   1.749  18.050  1.00  0.00    -0.007 C 
HETATM   12  C16 UNL     1      60.960   0.494  17.335  1.00  0.00     0.011 C 
HETATM   13  C17 UNL     1      61.874   1.389  19.386  1.00  0.00     0.037 C 
HETATM   14  C18 UNL     1      60.866   0.450  20.014  1.00  0.00     0.119 C 
HETATM   15  C19 UNL     1      59.758   1.322  20.460  1.00  0.00     0.041 C 
HETATM   16  C20 UNL     1      59.133   2.223  19.421  1.00  0.00    -0.037 C 
HETATM   17  C21 UNL     1      57.822   1.532  19.025  1.00  0.00     0.015 C 
HETATM   18  C22 UNL     1      58.661   3.402  20.292  1.00  0.00     0.015 C 
BRANCH  14  19
HETATM   19  O1  UNL     1      61.491  -0.051  21.179  1.00  0.00    -0.396 OA
ATOM     20  H1  UNL     1      60.797  -0.138  21.822  1.00  0.00     0.210 HD
ENDBRANCH  14  19
ENDBRANCH   7   9
BRANCH   1  21
HETATM   21  C6  UNL     1      57.062   5.128  15.353  1.00  0.00     0.237 C 
BRANCH  21  22
HETATM   22  C5  UNL     1      56.316   5.353  16.577  1.00  0.00     0.028 C 
BRANCH  22  23
HETATM   23  C4  UNL     1      56.269   6.604  17.355  1.00  0.00     0.002 C 
BRANCH  23  24
HETATM   24  C3  UNL     1      57.388   7.544  17.331  1.00  0.00    -0.000 C 
BRANCH  24  25
HETATM   25  C2  UNL     1      57.513   8.740  16.524  1.00  0.00    -0.005 C 
HETATM   26  C1  UNL     1      58.211   8.660  15.212  1.00  0.00     0.005 C 
ENDBRANCH  24  25
ENDBRANCH  23  24
ENDBRANCH  22  23
ENDBRANCH  21  22
ENDBRANCH   1  21
TORSDOF 7
ENDMDL
MODEL 2
REMARK VINA RESULT: -7.213011971      2.110      4.609
REMARK  7 active torsions:
REMARK  status: ('A' for Active; 'I' for Inactive)
REMARK    1  A    between atoms: C2_2  and  C3_3 
REMARK    2  A    between atoms: C3_3  and  C4_4 
REMARK    3  A    between atoms: C4_4  and  C5_5 
REMARK    4  A    between atoms: C5_5  and  C6_6 
REMARK    5  A    between atoms: C6_6  and  N1_7 
REMARK    6  A    between atoms: C12_13  and  C13_14 
REMARK    7  A    between atoms: C18_19  and  O1_20 
ROOT
HETATM    1  N1  UNL     1      59.524   3.505  14.743  1.00  0.00    -0.067 N 
HETATM    2  C7  UNL     1      60.563   4.442  14.481  1.00  0.00     0.238 C 
HETATM    3  C8  UNL     1      61.142   5.103  15.714  1.00  0.00     0.033 C 
HETATM    4  C9  UNL     1      60.224   4.682  16.882  1.00  0.00    -0.005 C 
HETATM    5  C10 UNL     1      58.844   5.055  16.399  1.00  0.00     0.033 C 
HETATM    6  C11 UNL     1      58.344   4.154  15.288  1.00  0.00     0.238 C 
HETATM    7  C12 UNL     1      60.453   3.217  17.028  1.00  0.00     0.025 C 
HETATM    8  C23 UNL     1      59.987   2.558  15.810  1.00  0.00     0.243 C 
ENDROOT
BRANCH   7   9
HETATM    9  C13 UNL     1      60.153   2.642  18.378  1.00  0.00    -0.028 C 
HETATM   10  C14 UNL     1      59.971   3.724  19.452  1.00  0.00     0.016 C 
HETATM   11  C15 UNL     1      61.444   1.968  18.820  1.00  0.00    -0.007 C 
HETATM   12  C16 UNL     1      62.069   1.073  17.843  1.00  0.00     0.011 C 
HETATM   13  C17 UNL     1      61.212   1.150  20.102  1.00  0.00     0.037 C 
HETATM   14  C18 UNL     1      60.357   0.003  19.607  1.00  0.00     0.119 C 
HETATM   15  C19 UNL     1      59.020   0.594  19.381  1.00  0.00     0.041 C 
HETATM   16  C20 UNL     1      58.945   1.799  18.473  1.00  0.00    -0.037 C 
HETATM   17  C21 UNL     1      58.430   1.259  17.132  1.00  0.00     0.015 C 
HETATM   18  C22 UNL     1      57.722   2.535  19.051  1.00  0.00     0.015 C 
BRANCH  14  19
HETATM   19  O1  UNL     1      60.238  -0.880  20.704  1.00  0.00    -0.396 OA
ATOM     20  H1  UNL     1      60.542  -1.722  20.386  1.00  0.00     0.210 HD
ENDBRANCH  14  19
ENDBRANCH   7   9
BRANCH   1  21
HETATM   21  C6  UNL     1      59.221   2.655  13.632  1.00  0.00     0.237 C 
BRANCH  21  22
HETATM   22  C5  UNL     1      59.927   2.830  12.376  1.00  0.00     0.028 C 
BRANCH  22  23
HETATM   23  C4  UNL     1      59.820   1.967  11.186  1.00  0.00     0.002 C 
BRANCH  23  24
HETATM   24  C3  UNL     1      60.475   0.661  11.147  1.00  0.00    -0.000 C 
BRANCH  24  25
HETATM   25  C2  UNL     1      59.911  -0.591  10.686  1.00  0.00    -0.005 C 
HETATM   26  C1  UNL     1      60.098  -1.817  11.508  1.00  0.00     0.005 C 
ENDBRANCH  24  25
ENDBRANCH  23  24
ENDBRANCH  22  23
ENDBRANCH  21  22
ENDBRANCH   1  21
TORSDOF 7
ENDMDL
MODEL 3
REMARK VINA RESULT: -7.150578463      2.751      6.419
REMARK  7 active torsions:
REMARK  status: ('A' for Active; 'I' for Inactive)
REMARK    1  A    between atoms: C2_2  and  C3_3 
REMARK    2  A    between atoms: C3_3  and  C4_4 
REMARK    3  A    between atoms: C4_4  and  C5_5 
REMARK    4  A    between atoms: C5_5  and  C6_6 
REMARK    5  A    between atoms: C6_6  and  N1_7 
REMARK    6  A    between atoms: C12_13  and  C13_14 
REMARK    7  A    between atoms: C18_19  and  O1_20 
ROOT
HETATM    1  N1  UNL     1      60.120   2.699  16.107  1.00  0.00    -0.067 N 
HETATM    2  C7  UNL     1      61.130   3.095  15.186  1.00  0.00     0.238 C 
HETATM    3  C8  UNL     1      60.753   4.262  14.299  1.00  0.00     0.033 C 
HETATM    4  C9  UNL     1      59.250   4.510  14.552  1.00  0.00    -0.005 C 
HETATM    5  C10 UNL     1      58.627   3.154  14.326  1.00  0.00     0.033 C 
HETATM    6  C11 UNL     1      58.954   2.163  15.425  1.00  0.00     0.238 C 
HETATM    7  C12 UNL     1      59.182   4.994  15.959  1.00  0.00     0.025 C 
HETATM    8  C23 UNL     1      59.629   3.915  16.837  1.00  0.00     0.243 C 
ENDROOT
BRANCH   7   9
HETATM    9  C13 UNL     1      57.983   5.821  16.306  1.00  0.00    -0.028 C 
HETATM   10  C14 UNL     1      56.670   5.035  16.186  1.00  0.00     0.016 C 
HETATM   11  C15 UNL     1      57.855   6.831  15.174  1.00  0.00    -0.007 C 
HETATM   12  C16 UNL     1      59.078   7.554  14.817  1.00  0.00     0.011 C 
HETATM   13  C17 UNL     1      56.787   7.885  15.512  1.00  0.00     0.037 C 
HETATM   14  C18 UNL     1      57.445   8.672  16.626  1.00  0.00     0.119 C 
HETATM   15  C19 UNL     1      57.379   7.787  17.809  1.00  0.00     0.041 C 
HETATM   16  C20 UNL     1      57.962   6.401  17.663  1.00  0.00    -0.037 C 
HETATM   17  C21 UNL     1      59.329   6.466  18.357  1.00  0.00     0.015 C 
HETATM   18  C22 UNL     1      57.098   5.606  18.661  1.00  0.00     0.015 C 
BRANCH  14  19
HETATM   19  O1  UNL     1      56.583   9.763  16.877  1.00  0.00    -0.396 OA
ATOM     20  H1  UNL     1      56.909  10.474  16.339  1.00  0.00     0.210 HD
ENDBRANCH  14  19
ENDBRANCH   7   9
BRANCH   1  21
HETATM   21  C6  UNL     1      60.593   1.838  17.147  1.00  0.00     0.237 C 
BRANCH  21  22
HETATM   22  C5  UNL     1      61.636   2.297  18.045  1.00  0.00     0.028 C 
BRANCH  22  23
HETATM   23  C4  UNL     1      62.484   1.452  18.905  1.00  0.00     0.002 C 
BRANCH  23  24
HETATM   24  C3  UNL     1      61.925   0.297  19.605  1.00  0.00    -0.000 C 
BRANCH  24  25
HETATM   25  C2  UNL     1      60.946   0.306  20.672  1.00  0.00    -0.005 C 
HETATM   26  C1  UNL     1      59.508   0.489  20.336  1.00  0.00     0.005 C 
ENDBRANCH  24  25
ENDBRANCH  23  24
ENDBRANCH  22  23
ENDBRANCH  21  22
ENDBRANCH   1  21
TORSDOF 7
ENDMDL
MODEL 4
REMARK VINA RESULT: -7.101084053      2.693      6.215
REMARK  7 active torsions:
REMARK  status: ('A' for Active; 'I' for Inactive)
REMARK    1  A    between atoms: C2_2  and  C3_3 
REMARK    2  A    between atoms: C3_3  and  C4_4 
REMARK    3  A    between atoms: C4_4  and  C5_5 
REMARK    4  A    between atoms: C5_5  and  C6_6 
REMARK    5  A    between atoms: C6_6  and  N1_7 
REMARK    6  A    between atoms: C12_13  and  C13_14 
REMARK    7  A    between atoms: C18_19  and  O1_20 
ROOT
HETATM    1  N1  UNL     1      59.541   2.132  16.588  1.00  0.00    -0.067 N 
HETATM    2  C7  UNL     1      60.869   2.450  16.188  1.00  0.00     0.238 C 
HETATM    3  C8  UNL     1      61.015   3.783  15.485  1.00  0.00     0.033 C 
HETATM    4  C9  UNL     1      59.575   4.281  15.233  1.00  0.00    -0.005 C 
HETATM    5  C10 UNL     1      58.919   3.119  14.527  1.00  0.00     0.033 C 
HETATM    6  C11 UNL     1      58.669   1.937  15.442  1.00  0.00     0.238 C 
HETATM    7  C12 UNL     1      59.033   4.564  16.591  1.00  0.00     0.025 C 
HETATM    8  C23 UNL     1      58.967   3.304  17.329  1.00  0.00     0.243 C 
ENDROOT
BRANCH   7   9
HETATM    9  C13 UNL     1      57.910   5.551  16.652  1.00  0.00    -0.028 C 
HETATM   10  C14 UNL     1      56.537   4.897  16.434  1.00  0.00     0.016 C 
HETATM   11  C15 UNL     1      58.059   6.403  15.398  1.00  0.00    -0.007 C 
HETATM   12  C16 UNL     1      59.399   6.938  15.142  1.00  0.00     0.011 C 
HETATM   13  C17 UNL     1      57.093   7.598  15.443  1.00  0.00     0.037 C 
HETATM   14  C18 UNL     1      57.687   8.459  16.537  1.00  0.00     0.119 C 
HETATM   15  C19 UNL     1      57.355   7.758  17.797  1.00  0.00     0.041 C 
HETATM   16  C20 UNL     1      57.778   6.312  17.910  1.00  0.00    -0.037 C 
HETATM   17  C21 UNL     1      59.037   6.329  18.787  1.00  0.00     0.015 C 
HETATM   18  C22 UNL     1      56.697   5.757  18.856  1.00  0.00     0.015 C 
BRANCH  14  19
HETATM   19  O1  UNL     1      56.940   9.658  16.523  1.00  0.00    -0.396 OA
ATOM     20  H1  UNL     1      56.289   9.560  17.208  1.00  0.00     0.210 HD
ENDBRANCH  14  19
ENDBRANCH   7   9
BRANCH   1  21
HETATM   21  C6  UNL     1      59.464   1.056  17.528  1.00  0.00     0.237 C 
BRANCH  21  22
HETATM   22  C5  UNL     1      58.778   1.249  18.791  1.00  0.00     0.028 C 
BRANCH  22  23
HETATM   23  C4  UNL     1      59.240   0.797  20.116  1.00  0.00     0.002 C 
BRANCH  23  24
HETATM   24  C3  UNL     1      60.358  -0.136  20.240  1.00  0.00    -0.000 C 
BRANCH  24  25
HETATM   25  C2  UNL     1      61.766   0.190  20.343  1.00  0.00    -0.005 C 
HETATM   26  C1  UNL     1      62.430   0.903  19.218  1.00  0.00     0.005 C 
ENDBRANCH  24  25
ENDBRANCH  23  24
ENDBRANCH  22  23
ENDBRANCH  21  22
ENDBRANCH   1  21
TORSDOF 7
ENDMDL
MODEL 5
REMARK VINA RESULT: -6.965714497      1.712      4.410
REMARK  7 active torsions:
REMARK  status: ('A' for Active; 'I' for Inactive)
REMARK    1  A    between atoms: C2_2  and  C3_3 
REMARK    2  A    between atoms: C3_3  and  C4_4 
REMARK    3  A    between atoms: C4_4  and  C5_5 
REMARK    4  A    between atoms: C5_5  and  C6_6 
REMARK    5  A    between atoms: C6_6  and  N1_7 
REMARK    6  A    between atoms: C12_13  and  C13_14 
REMARK    7  A    between atoms: C18_19  and  O1_20 
ROOT
HETATM    1  N1  UNL     1      59.388   5.266  15.943  1.00  0.00    -0.067 N 
HETATM    2  C7  UNL     1      59.477   6.334  16.879  1.00  0.00     0.238 C 
HETATM    3  C8  UNL     1      59.116   5.959  18.301  1.00  0.00     0.033 C 
HETATM    4  C9  UNL     1      58.536   4.530  18.220  1.00  0.00    -0.005 C 
HETATM    5  C10 UNL     1      57.459   4.645  17.169  1.00  0.00     0.033 C 
HETATM    6  C11 UNL     1      58.016   4.820  15.770  1.00  0.00     0.238 C 
HETATM    7  C12 UNL     1      59.694   3.678  17.828  1.00  0.00     0.025 C 
HETATM    8  C23 UNL     1      60.126   4.080  16.492  1.00  0.00     0.243 C 
ENDROOT
BRANCH   7   9
HETATM    9  C13 UNL     1      59.594   2.232  18.203  1.00  0.00    -0.028 C 
HETATM   10  C14 UNL     1      58.809   1.408  17.172  1.00  0.00     0.016 C 
HETATM   11  C15 UNL     1      58.669   2.196  19.411  1.00  0.00    -0.007 C 
HETATM   12  C16 UNL     1      58.981   3.139  20.488  1.00  0.00     0.011 C 
HETATM   13  C17 UNL     1      58.649   0.788  20.031  1.00  0.00     0.037 C 
HETATM   14  C18 UNL     1      60.034   0.677  20.633  1.00  0.00     0.119 C 
HETATM   15  C19 UNL     1      60.938   0.484  19.479  1.00  0.00     0.041 C 
HETATM   16  C20 UNL     1      60.872   1.514  18.375  1.00  0.00    -0.037 C 
HETATM   17  C21 UNL     1      62.093   2.417  18.596  1.00  0.00     0.015 C 
HETATM   18  C22 UNL     1      61.276   0.669  17.152  1.00  0.00     0.015 C 
BRANCH  14  19
HETATM   19  O1  UNL     1      60.033  -0.533  21.363  1.00  0.00    -0.396 OA
ATOM     20  H1  UNL     1      60.483  -0.339  22.177  1.00  0.00     0.210 HD
ENDBRANCH  14  19
ENDBRANCH   7   9
BRANCH   1  21
HETATM   21  C6  UNL     1      60.040   5.534  14.698  1.00  0.00     0.237 C 
BRANCH  21  22
HETATM   22  C5  UNL     1      60.751   4.472  14.012  1.00  0.00     0.028 C 
BRANCH  22  23
HETATM   23  C4  UNL     1      60.412   3.900  12.696  1.00  0.00     0.002 C 
BRANCH  23  24
HETATM   24  C3  UNL     1      59.818   2.569  12.589  1.00  0.00    -0.000 C 
BRANCH  24  25
HETATM   25  C2  UNL     1      60.149   1.535  11.631  1.00  0.00    -0.005 C 
HETATM   26  C1  UNL     1      61.528   1.474  11.075  1.00  0.00     0.005 C 
ENDBRANCH  24  25
ENDBRANCH  23  24
ENDBRANCH  22  23
ENDBRANCH  21  22
ENDBRANCH   1  21
TORSDOF 7
ENDMDL
