MODEL 1
REMARK VINA RESULT: -7.832563886      0.000      0.000
REMARK  8 active torsions:
REMARK  status: ('A' for Active; 'I' for Inactive)
REMARK    1  A    between atoms: C2_2  and  C4_4 
REMARK    2  A    between atoms: C4_4  and  C5_5 
REMARK    3  A    between atoms: C5_5  and  C6_6 
REMARK    4  A    between atoms: C6_6  and  C7_7 
REMARK    5  A    between atoms: C7_7  and  C8_8 
REMARK    6  A    between atoms: C8_8  and  C9_9 
REMARK    7  A    between atoms: C9_9  and  C11_11 
REMARK    8  A    between atoms: C13_13  and  O1_14 
ROOT
HETATM    1  C11 UNL     1      56.700   4.800  17.708  1.00  0.00    -0.008 C 
HETATM    2  C12 UNL     1      57.313   5.303  18.971  1.00  0.00     0.037 C 
HETATM    3  C13 UNL     1      58.580   4.509  19.196  1.00  0.00     0.127 C 
HETATM    4  C14 UNL     1      58.596   3.369  18.218  1.00  0.00    -0.013 C 
HETATM    5  C15 UNL     1      57.806   2.185  18.566  1.00  0.00     0.017 C 
HETATM    6  C16 UNL     1      58.373   1.073  19.328  1.00  0.00    -0.013 C 
HETATM    7  C17 UNL     1      58.100   1.160  20.844  1.00  0.00     0.010 C 
HETATM    8  C18 UNL     1      59.752   0.681  19.173  1.00  0.00    -0.002 C 
HETATM    9  C19 UNL     1      60.381   0.695  17.822  1.00  0.00    -0.005 C 
HETATM   10  C20 UNL     1      61.693  -0.029  18.137  1.00  0.00     0.006 C 
HETATM   11  C21 UNL     1      62.043   0.693  19.456  1.00  0.00     0.006 C 
HETATM   12  C22 UNL     1      60.831   1.653  19.518  1.00  0.00    -0.005 C 
HETATM   13  C23 UNL     1      60.803   2.113  18.129  1.00  0.00    -0.005 C 
HETATM   14  C24 UNL     1      59.941   3.161  17.645  1.00  0.00     0.017 C 
HETATM   15  C25 UNL     1      57.821   4.061  17.061  1.00  0.00     0.017 C 
ENDROOT
BRANCH   1  16
HETATM   16  C9  UNL     1      56.293   6.021  16.885  1.00  0.00    -0.014 C 
HETATM   17  C10 UNL     1      56.341   5.616  15.447  1.00  0.00     0.010 C 
BRANCH  16  18
HETATM   18  C8  UNL     1      57.191   7.196  17.194  1.00  0.00     0.004 C 
BRANCH  18  19
HETATM   19  C7  UNL     1      58.271   7.375  16.183  1.00  0.00     0.000 C 
BRANCH  19  20
HETATM   20  C6  UNL     1      59.666   7.174  16.786  1.00  0.00     0.000 C 
BRANCH  20  21
HETATM   21  C5  UNL     1      60.373   6.052  16.032  1.00  0.00     0.000 C 
BRANCH  21  22
HETATM   22  C4  UNL     1      59.606   5.809  14.749  1.00  0.00     0.004 C 
BRANCH  22  23
HETATM   23  C2  UNL     1      60.219   4.662  13.975  1.00  0.00    -0.023 C 
HETATM   24  C1  UNL     1      61.509   4.250  14.692  1.00  0.00     0.009 C 
HETATM   25  C3  UNL     1      59.232   3.510  13.967  1.00  0.00     0.009 C 
ENDBRANCH  22  23
ENDBRANCH  21  22
ENDBRANCH  20  21
ENDBRANCH  19  20
ENDBRANCH  18  19
ENDBRANCH  16  18
ENDBRANCH   1  16
BRANCH   3  26
HETATM   26  O1  UNL     1      58.632   4.206  20.517  1.00  0.00    -0.395 OA
ATOM     27  H1  UNL     1      58.727   3.263  20.584  1.00  0.00     0.210 HD
ENDBRANCH   3  26
TORSDOF 8
ENDMDL
MODEL 2
REMARK VINA RESULT: -7.782258495      0.638      1.018
REMARK  8 active torsions:
REMARK  status: ('A' for Active; 'I' for Inactive)
REMARK    1  A    between atoms: C2_2  and  C4_4 
REMARK    2  A    between atoms: C4_4  and  C5_5 
REMARK    3  A    between atoms: C5_5  and  C6_6 
REMARK    4  A    between atoms: C6_6  and  C7_7 
REMARK    5  A    between atoms: C7_7  and  C8_8 
REMARK    6  A    between atoms: C8_8  and  C9_9 
REMARK    7  A    between atoms: C9_9  and  C11_11 
REMARK    8  A    between atoms: C13_13  and  O1_14 
ROOT
HETATM    1  C11 UNL     1      56.991   4.899  17.587  1.00  0.00    -0.008 C 
HETATM    2  C12 UNL     1      57.563   5.366  18.881  1.00  0.00     0.037 C 
HETATM    3  C13 UNL     1      58.787   4.522  19.157  1.00  0.00     0.127 C 
HETATM    4  C14 UNL     1      58.805   3.390  18.169  1.00  0.00    -0.013 C 
HETATM    5  C15 UNL     1      57.954   2.235  18.468  1.00  0.00     0.017 C 
HETATM    6  C16 UNL     1      58.443   1.096  19.244  1.00  0.00    -0.013 C 
HETATM    7  C17 UNL     1      58.103   1.181  20.747  1.00  0.00     0.010 C 
HETATM    8  C18 UNL     1      59.811   0.652  19.149  1.00  0.00    -0.002 C 
HETATM    9  C19 UNL     1      60.502   0.653  17.828  1.00  0.00    -0.005 C 
HETATM   10  C20 UNL     1      61.769  -0.124  18.195  1.00  0.00     0.006 C 
HETATM   11  C21 UNL     1      62.086   0.573  19.536  1.00  0.00     0.006 C 
HETATM   12  C22 UNL     1      60.910   1.579  19.552  1.00  0.00    -0.005 C 
HETATM   13  C23 UNL     1      60.963   2.050  18.168  1.00  0.00    -0.005 C 
HETATM   14  C24 UNL     1      60.166   3.135  17.656  1.00  0.00     0.017 C 
HETATM   15  C25 UNL     1      58.111   4.122  16.985  1.00  0.00     0.017 C 
ENDROOT
BRANCH   1  16
HETATM   16  C9  UNL     1      56.669   6.141  16.759  1.00  0.00    -0.014 C 
HETATM   17  C10 UNL     1      56.363   5.676  15.372  1.00  0.00     0.010 C 
BRANCH  16  18
HETATM   18  C8  UNL     1      57.814   7.125  16.808  1.00  0.00     0.004 C 
BRANCH  18  19
HETATM   19  C7  UNL     1      58.586   7.173  15.534  1.00  0.00     0.000 C 
BRANCH  19  20
HETATM   20  C6  UNL     1      59.832   6.283  15.580  1.00  0.00     0.000 C 
BRANCH  20  21
HETATM   21  C5  UNL     1      59.904   5.467  14.293  1.00  0.00     0.000 C 
BRANCH  21  22
HETATM   22  C4  UNL     1      60.926   4.369  14.505  1.00  0.00     0.004 C 
BRANCH  22  23
HETATM   23  C2  UNL     1      60.640   3.196  13.592  1.00  0.00    -0.023 C 
HETATM   24  C1  UNL     1      59.334   2.546  14.061  1.00  0.00     0.009 C 
HETATM   25  C3  UNL     1      60.486   3.720  12.176  1.00  0.00     0.009 C 
ENDBRANCH  22  23
ENDBRANCH  21  22
ENDBRANCH  20  21
ENDBRANCH  19  20
ENDBRANCH  18  19
ENDBRANCH  16  18
ENDBRANCH   1  16
BRANCH   3  26
HETATM   26  O1  UNL     1      58.766   4.206  20.475  1.00  0.00    -0.395 OA
ATOM     27  H1  UNL     1      59.445   3.557  20.618  1.00  0.00     0.210 HD
ENDBRANCH   3  26
TORSDOF 8
ENDMDL
MODEL 3
REMARK VINA RESULT: -7.438149267      3.028      4.781
REMARK  8 active torsions:
REMARK  status: ('A' for Active; 'I' for Inactive)
REMARK    1  A    between atoms: C2_2  and  C4_4 
REMARK    2  A    between atoms: C4_4  and  C5_5 
REMARK    3  A    between atoms: C5_5  and  C6_6 
REMARK    4  A    between atoms: C6_6  and  C7_7 
REMARK    5  A    between atoms: C7_7  and  C8_8 
REMARK    6  A    between atoms: C8_8  and  C9_9 
REMARK    7  A    between atoms: C9_9  and  C11_11 
REMARK    8  A    between atoms: C13_13  and  O1_14 
ROOT
HETATM    1  C11 UNL     1      59.688   3.176  15.070  1.00  0.00    -0.008 C 
HETATM    2  C12 UNL     1      60.354   4.173  15.955  1.00  0.00     0.037 C 
HETATM    3  C13 UNL     1      60.775   3.443  17.211  1.00  0.00     0.127 C 
HETATM    4  C14 UNL     1      60.141   2.080  17.191  1.00  0.00    -0.013 C 
HETATM    5  C15 UNL     1      58.743   1.992  17.620  1.00  0.00     0.017 C 
HETATM    6  C16 UNL     1      58.377   1.751  19.016  1.00  0.00    -0.013 C 
HETATM    7  C17 UNL     1      58.081   3.043  19.808  1.00  0.00     0.010 C 
HETATM    8  C18 UNL     1      59.179   0.912  19.870  1.00  0.00    -0.002 C 
HETATM    9  C19 UNL     1      59.793  -0.331  19.324  1.00  0.00    -0.005 C 
HETATM   10  C20 UNL     1      60.283  -0.974  20.625  1.00  0.00     0.006 C 
HETATM   11  C21 UNL     1      60.889   0.282  21.287  1.00  0.00     0.006 C 
HETATM   12  C22 UNL     1      60.591   1.299  20.160  1.00  0.00    -0.005 C 
HETATM   13  C23 UNL     1      61.001   0.513  18.996  1.00  0.00    -0.005 C 
HETATM   14  C24 UNL     1      61.077   1.038  17.657  1.00  0.00     0.017 C 
HETATM   15  C25 UNL     1      60.117   1.872  15.650  1.00  0.00     0.017 C 
ENDROOT
BRANCH   1  16
HETATM   16  C9  UNL     1      60.251   3.370  13.664  1.00  0.00    -0.014 C 
HETATM   17  C10 UNL     1      60.427   4.840  13.460  1.00  0.00     0.010 C 
BRANCH  16  18
HETATM   18  C8  UNL     1      59.343   2.740  12.634  1.00  0.00     0.004 C 
BRANCH  18  19
HETATM   19  C7  UNL     1      60.078   2.286  11.420  1.00  0.00     0.000 C 
BRANCH  19  20
HETATM   20  C6  UNL     1      59.201   2.330  10.164  1.00  0.00     0.000 C 
BRANCH  20  21
HETATM   21  C5  UNL     1      59.195   0.949   9.517  1.00  0.00     0.000 C 
BRANCH  21  22
HETATM   22  C4  UNL     1      60.264   0.119  10.197  1.00  0.00     0.004 C 
BRANCH  22  23
HETATM   23  C2  UNL     1      59.881  -1.345  10.191  1.00  0.00    -0.023 C 
HETATM   24  C1  UNL     1      59.994  -1.865  11.628  1.00  0.00     0.009 C 
HETATM   25  C3  UNL     1      58.450  -1.462   9.701  1.00  0.00     0.009 C 
ENDBRANCH  22  23
ENDBRANCH  21  22
ENDBRANCH  20  21
ENDBRANCH  19  20
ENDBRANCH  18  19
ENDBRANCH  16  18
ENDBRANCH   1  16
BRANCH   3  26
HETATM   26  O1  UNL     1      60.490   4.254  18.259  1.00  0.00    -0.395 OA
ATOM     27  H1  UNL     1      59.789   4.833  17.983  1.00  0.00     0.210 HD
ENDBRANCH   3  26
TORSDOF 8
ENDMDL
MODEL 4
REMARK VINA RESULT: -7.385544198      3.411      5.712
REMARK  8 active torsions:
REMARK  status: ('A' for Active; 'I' for Inactive)
REMARK    1  A    between atoms: C2_2  and  C4_4 
REMARK    2  A    between atoms: C4_4  and  C5_5 
REMARK    3  A    between atoms: C5_5  and  C6_6 
REMARK    4  A    between atoms: C6_6  and  C7_7 
REMARK    5  A    between atoms: C7_7  and  C8_8 
REMARK    6  A    between atoms: C8_8  and  C9_9 
REMARK    7  A    between atoms: C9_9  and  C11_11 
REMARK    8  A    between atoms: C13_13  and  O1_14 
ROOT
HETATM    1  C11 UNL     1      59.578   3.378  13.079  1.00  0.00    -0.008 C 
HETATM    2  C12 UNL     1      60.791   3.999  13.681  1.00  0.00     0.037 C 
HETATM    3  C13 UNL     1      60.852   3.548  15.124  1.00  0.00     0.127 C 
HETATM    4  C14 UNL     1      59.552   2.871  15.455  1.00  0.00    -0.013 C 
HETATM    5  C15 UNL     1      58.417   3.737  15.785  1.00  0.00     0.017 C 
HETATM    6  C16 UNL     1      58.139   4.157  17.158  1.00  0.00    -0.013 C 
HETATM    7  C17 UNL     1      58.732   5.537  17.514  1.00  0.00     0.010 C 
HETATM    8  C18 UNL     1      58.401   3.288  18.278  1.00  0.00    -0.002 C 
HETATM    9  C19 UNL     1      58.121   1.829  18.167  1.00  0.00    -0.005 C 
HETATM   10  C20 UNL     1      58.294   1.417  19.632  1.00  0.00     0.006 C 
HETATM   11  C21 UNL     1      59.582   2.209  19.942  1.00  0.00     0.006 C 
HETATM   12  C22 UNL     1      59.800   2.844  18.548  1.00  0.00    -0.005 C 
HETATM   13  C23 UNL     1      59.549   1.679  17.699  1.00  0.00    -0.005 C 
HETATM   14  C24 UNL     1      59.762   1.660  16.274  1.00  0.00     0.017 C 
HETATM   15  C25 UNL     1      59.239   2.294  14.045  1.00  0.00     0.017 C 
ENDROOT
BRANCH   1  16
HETATM   16  C9  UNL     1      59.987   2.805  11.724  1.00  0.00    -0.014 C 
HETATM   17  C10 UNL     1      61.315   2.146  11.910  1.00  0.00     0.010 C 
BRANCH  16  18
HETATM   18  C8  UNL     1      60.013   3.889  10.672  1.00  0.00     0.004 C 
BRANCH  18  19
HETATM   19  C7  UNL     1      59.254   3.517   9.445  1.00  0.00     0.000 C 
BRANCH  19  20
HETATM   20  C6  UNL     1      58.550   2.164   9.588  1.00  0.00     0.000 C 
BRANCH  20  21
HETATM   21  C5  UNL     1      59.005   1.248   8.456  1.00  0.00     0.000 C 
BRANCH  21  22
HETATM   22  C4  UNL     1      59.912   0.194   9.057  1.00  0.00     0.004 C 
BRANCH  22  23
HETATM   23  C2  UNL     1      59.187  -0.572  10.143  1.00  0.00    -0.023 C 
HETATM   24  C1  UNL     1      58.251  -1.575   9.463  1.00  0.00     0.009 C 
HETATM   25  C3  UNL     1      60.219  -1.301  10.982  1.00  0.00     0.009 C 
ENDBRANCH  22  23
ENDBRANCH  21  22
ENDBRANCH  20  21
ENDBRANCH  19  20
ENDBRANCH  18  19
ENDBRANCH  16  18
ENDBRANCH   1  16
BRANCH   3  26
HETATM   26  O1  UNL     1      61.206   4.627  15.865  1.00  0.00    -0.395 OA
ATOM     27  H1  UNL     1      60.993   4.427  16.770  1.00  0.00     0.210 HD
ENDBRANCH   3  26
TORSDOF 8
ENDMDL
MODEL 5
REMARK VINA RESULT: -7.219636321      3.636      6.363
REMARK  8 active torsions:
REMARK  status: ('A' for Active; 'I' for Inactive)
REMARK    1  A    between atoms: C2_2  and  C4_4 
REMARK    2  A    between atoms: C4_4  and  C5_5 
REMARK    3  A    between atoms: C5_5  and  C6_6 
REMARK    4  A    between atoms: C6_6  and  C7_7 
REMARK    5  A    between atoms: C7_7  and  C8_8 
REMARK    6  A    between atoms: C8_8  and  C9_9 
REMARK    7  A    between atoms: C9_9  and  C11_11 
REMARK    8  A    between atoms: C13_13  and  O1_14 
ROOT
HETATM    1  C11 UNL     1      60.655   3.157  12.804  1.00  0.00    -0.008 C 
HETATM    2  C12 UNL     1      59.736   2.066  13.233  1.00  0.00     0.037 C 
HETATM    3  C13 UNL     1      58.998   2.562  14.457  1.00  0.00     0.127 C 
HETATM    4  C14 UNL     1      59.651   3.837  14.909  1.00  0.00    -0.013 C 
HETATM    5  C15 UNL     1      60.871   3.710  15.710  1.00  0.00     0.017 C 
HETATM    6  C16 UNL     1      60.833   3.629  17.170  1.00  0.00    -0.013 C 
HETATM    7  C17 UNL     1      60.854   2.182  17.709  1.00  0.00     0.010 C 
HETATM    8  C18 UNL     1      59.847   4.347  17.938  1.00  0.00    -0.002 C 
HETATM    9  C19 UNL     1      59.450   5.725  17.533  1.00  0.00    -0.005 C 
HETATM   10  C20 UNL     1      58.630   6.132  18.761  1.00  0.00     0.006 C 
HETATM   11  C21 UNL     1      57.824   4.828  18.941  1.00  0.00     0.006 C 
HETATM   12  C22 UNL     1      58.400   4.038  17.742  1.00  0.00    -0.005 C 
HETATM   13  C23 UNL     1      58.360   5.077  16.713  1.00  0.00    -0.005 C 
HETATM   14  C24 UNL     1      58.652   4.844  15.322  1.00  0.00     0.017 C 
HETATM   15  C25 UNL     1      60.118   4.350  13.518  1.00  0.00     0.017 C 
ENDROOT
BRANCH   1  16
HETATM   16  C9  UNL     1      60.509   3.304  11.291  1.00  0.00    -0.014 C 
HETATM   17  C10 UNL     1      60.476   4.768  10.993  1.00  0.00     0.010 C 
BRANCH  16  18
HETATM   18  C8  UNL     1      59.278   2.578  10.802  1.00  0.00     0.004 C 
BRANCH  18  19
HETATM   19  C7  UNL     1      59.049   2.754   9.340  1.00  0.00     0.000 C 
BRANCH  19  20
HETATM   20  C6  UNL     1      58.955   1.413   8.604  1.00  0.00     0.000 C 
BRANCH  20  21
HETATM   21  C5  UNL     1      60.322   0.737   8.631  1.00  0.00     0.000 C 
BRANCH  21  22
HETATM   22  C4  UNL     1      60.095  -0.746   8.845  1.00  0.00     0.004 C 
BRANCH  22  23
HETATM   23  C2  UNL     1      59.233  -0.979  10.066  1.00  0.00    -0.023 C 
HETATM   24  C1  UNL     1      58.105  -1.936   9.668  1.00  0.00     0.009 C 
HETATM   25  C3  UNL     1      60.095  -1.604  11.146  1.00  0.00     0.009 C 
ENDBRANCH  22  23
ENDBRANCH  21  22
ENDBRANCH  20  21
ENDBRANCH  19  20
ENDBRANCH  18  19
ENDBRANCH  16  18
ENDBRANCH   1  16
BRANCH   3  26
HETATM   26  O1  UNL     1      58.949   1.533  15.339  1.00  0.00    -0.395 OA
ATOM     27  H1  UNL     1      58.052   1.468  15.644  1.00  0.00     0.210 HD
ENDBRANCH   3  26
TORSDOF 8
ENDMDL
