MODEL 1
REMARK VINA RESULT: -8.451240361      0.000      0.000
REMARK  7 active torsions:
REMARK  status: ('A' for Active; 'I' for Inactive)
REMARK    1  A    between atoms: C2_2  and  N1_3 
REMARK    2  A    between atoms: N1_3  and  C3_4 
REMARK    3  A    between atoms: N1_3  and  C5_6 
REMARK    4  A    between atoms: C5_6  and  C6_7 
REMARK    5  A    between atoms: C6_7  and  C7_8 
REMARK    6  A    between atoms: C7_8  and  C8_9 
REMARK    7  A    between atoms: C17_18  and  C18_19 
ROOT
HETATM    1  C8  UNL     1      58.197   3.614  19.350  1.00  0.00    -0.039 C 
HETATM    2  C9  UNL     1      57.853   4.648  20.387  1.00  0.00     0.014 C 
HETATM    3  C10 UNL     1      58.066   6.033  19.752  1.00  0.00    -0.013 C 
HETATM    4  C11 UNL     1      57.139   6.126  18.598  1.00  0.00     0.010 C 
HETATM    5  C12 UNL     1      57.625   5.182  17.477  1.00  0.00    -0.004 C 
HETATM    6  C13 UNL     1      57.371   3.827  18.075  1.00  0.00     0.015 C 
HETATM    7  C14 UNL     1      59.035   5.489  17.164  1.00  0.00    -0.029 C 
HETATM    8  C15 UNL     1      59.254   7.034  17.073  1.00  0.00     0.011 C 
HETATM    9  C16 UNL     1      58.954   6.855  15.599  1.00  0.00     0.006 C 
HETATM   10  C17 UNL     1      59.574   5.455  15.808  1.00  0.00    -0.001 C 
HETATM   11  C23 UNL     1      59.903   5.084  18.335  1.00  0.00    -0.004 C 
HETATM   12  C24 UNL     1      59.529   6.099  19.435  1.00  0.00     0.010 C 
HETATM   13  C25 UNL     1      59.640   3.733  18.887  1.00  0.00     0.015 C 
ENDROOT
BRANCH   1  14
HETATM   14  C7  UNL     1      57.925   2.216  19.826  1.00  0.00     0.011 C 
BRANCH  14  15
HETATM   15  C6  UNL     1      58.427   1.165  18.867  1.00  0.00     0.031 C 
BRANCH  15  16
HETATM   16  C5  UNL     1      59.376   0.274  19.635  1.00  0.00     0.272 C 
BRANCH  16  17
HETATM   17  N1  UNL     1      60.562  -0.077  18.880  1.00  0.00     0.087 N 
BRANCH  17  18
HETATM   18  C2  UNL     1      60.702   0.725  17.683  1.00  0.00     0.268 C 
HETATM   19  C1  UNL     1      62.011   1.484  17.794  1.00  0.00     0.037 C 
ENDBRANCH  17  18
BRANCH  17  20
HETATM   20  C3  UNL     1      61.692   0.269  19.754  1.00  0.00     0.268 C 
HETATM   21  C4  UNL     1      61.184   0.313  21.177  1.00  0.00     0.037 C 
ENDBRANCH  17  20
ENDBRANCH  16  17
ENDBRANCH  15  16
ENDBRANCH  14  15
ENDBRANCH   1  14
BRANCH  10  22
HETATM   22  C18 UNL     1      59.158   4.557  14.734  1.00  0.00    -0.010 C 
HETATM   23  C19 UNL     1      59.016   3.155  15.200  1.00  0.00     0.005 C 
HETATM   24  C20 UNL     1      59.457   2.263  14.077  1.00  0.00     0.000 C 
HETATM   25  C21 UNL     1      59.862   3.201  12.959  1.00  0.00     0.000 C 
HETATM   26  C22 UNL     1      60.281   4.469  13.688  1.00  0.00     0.005 C 
ENDBRANCH  10  22
TORSDOF 7
ENDMDL
MODEL 2
REMARK VINA RESULT: -8.322402178      2.124      5.725
REMARK  7 active torsions:
REMARK  status: ('A' for Active; 'I' for Inactive)
REMARK    1  A    between atoms: C2_2  and  N1_3 
REMARK    2  A    between atoms: N1_3  and  C3_4 
REMARK    3  A    between atoms: N1_3  and  C5_6 
REMARK    4  A    between atoms: C5_6  and  C6_7 
REMARK    5  A    between atoms: C6_7  and  C7_8 
REMARK    6  A    between atoms: C7_8  and  C8_9 
REMARK    7  A    between atoms: C17_18  and  C18_19 
ROOT
HETATM    1  C8  UNL     1      59.481   5.033  15.408  1.00  0.00    -0.039 C 
HETATM    2  C9  UNL     1      58.932   6.433  15.361  1.00  0.00     0.014 C 
HETATM    3  C10 UNL     1      58.200   6.691  16.690  1.00  0.00    -0.013 C 
HETATM    4  C11 UNL     1      59.207   6.564  17.771  1.00  0.00     0.010 C 
HETATM    5  C12 UNL     1      59.616   5.082  17.913  1.00  0.00    -0.004 C 
HETATM    6  C13 UNL     1      60.377   4.841  16.640  1.00  0.00     0.015 C 
HETATM    7  C14 UNL     1      58.403   4.261  18.099  1.00  0.00    -0.029 C 
HETATM    8  C15 UNL     1      57.434   4.935  19.123  1.00  0.00     0.011 C 
HETATM    9  C16 UNL     1      58.166   4.107  20.159  1.00  0.00     0.006 C 
HETATM   10  C17 UNL     1      58.351   3.109  18.994  1.00  0.00    -0.001 C 
HETATM   11  C23 UNL     1      57.603   4.259  16.814  1.00  0.00    -0.004 C 
HETATM   12  C24 UNL     1      57.072   5.704  16.714  1.00  0.00     0.010 C 
HETATM   13  C25 UNL     1      58.380   3.998  15.579  1.00  0.00     0.015 C 
ENDROOT
BRANCH   1  14
HETATM   14  C7  UNL     1      60.310   4.704  14.201  1.00  0.00     0.011 C 
BRANCH  14  15
HETATM   15  C6  UNL     1      60.247   3.243  13.829  1.00  0.00     0.031 C 
BRANCH  15  16
HETATM   16  C5  UNL     1      60.698   3.127  12.391  1.00  0.00     0.272 C 
BRANCH  16  17
HETATM   17  N1  UNL     1      59.943   2.148  11.636  1.00  0.00     0.087 N 
BRANCH  17  18
HETATM   18  C2  UNL     1      59.361   2.717  10.439  1.00  0.00     0.268 C 
HETATM   19  C1  UNL     1      60.059   4.039  10.178  1.00  0.00     0.037 C 
ENDBRANCH  17  18
BRANCH  17  20
HETATM   20  C3  UNL     1      60.932   1.155  11.194  1.00  0.00     0.268 C 
HETATM   21  C4  UNL     1      60.229  -0.178  11.072  1.00  0.00     0.037 C 
ENDBRANCH  17  20
ENDBRANCH  16  17
ENDBRANCH  15  16
ENDBRANCH  14  15
ENDBRANCH   1  14
BRANCH  10  22
HETATM   22  C18 UNL     1      59.450   2.192  19.287  1.00  0.00    -0.010 C 
HETATM   23  C19 UNL     1      59.989   1.552  18.061  1.00  0.00     0.005 C 
HETATM   24  C20 UNL     1      60.383   0.150  18.425  1.00  0.00     0.000 C 
HETATM   25  C21 UNL     1      60.044   0.009  19.894  1.00  0.00     0.000 C 
HETATM   26  C22 UNL     1      58.910   1.003  20.098  1.00  0.00     0.005 C 
ENDBRANCH  10  22
TORSDOF 7
ENDMDL
MODEL 3
REMARK VINA RESULT: -8.314216347      2.091      5.750
REMARK  7 active torsions:
REMARK  status: ('A' for Active; 'I' for Inactive)
REMARK    1  A    between atoms: C2_2  and  N1_3 
REMARK    2  A    between atoms: N1_3  and  C3_4 
REMARK    3  A    between atoms: N1_3  and  C5_6 
REMARK    4  A    between atoms: C5_6  and  C6_7 
REMARK    5  A    between atoms: C6_7  and  C7_8 
REMARK    6  A    between atoms: C7_8  and  C8_9 
REMARK    7  A    between atoms: C17_18  and  C18_19 
ROOT
HETATM    1  C8  UNL     1      59.431   5.098  15.463  1.00  0.00    -0.039 C 
HETATM    2  C9  UNL     1      58.890   6.501  15.440  1.00  0.00     0.014 C 
HETATM    3  C10 UNL     1      58.185   6.750  16.785  1.00  0.00    -0.013 C 
HETATM    4  C11 UNL     1      59.212   6.607  17.845  1.00  0.00     0.010 C 
HETATM    5  C12 UNL     1      59.614   5.120  17.965  1.00  0.00    -0.004 C 
HETATM    6  C13 UNL     1      60.349   4.888  16.675  1.00  0.00     0.015 C 
HETATM    7  C14 UNL     1      58.400   4.305  18.166  1.00  0.00    -0.029 C 
HETATM    8  C15 UNL     1      57.454   4.975  19.216  1.00  0.00     0.011 C 
HETATM    9  C16 UNL     1      58.201   4.132  20.229  1.00  0.00     0.006 C 
HETATM   10  C17 UNL     1      58.358   3.145  19.051  1.00  0.00    -0.001 C 
HETATM   11  C23 UNL     1      57.575   4.321  16.897  1.00  0.00    -0.004 C 
HETATM   12  C24 UNL     1      57.052   5.770  16.821  1.00  0.00     0.010 C 
HETATM   13  C25 UNL     1      58.328   4.067  15.645  1.00  0.00     0.015 C 
ENDROOT
BRANCH   1  14
HETATM   14  C7  UNL     1      60.235   4.776  14.238  1.00  0.00     0.011 C 
BRANCH  14  15
HETATM   15  C6  UNL     1      60.670   3.332  14.187  1.00  0.00     0.031 C 
BRANCH  15  16
HETATM   16  C5  UNL     1      60.098   2.736  12.921  1.00  0.00     0.272 C 
BRANCH  16  17
HETATM   17  N1  UNL     1      60.937   2.954  11.760  1.00  0.00     0.087 N 
BRANCH  17  18
HETATM   18  C2  UNL     1      61.520   1.722  11.272  1.00  0.00     0.268 C 
HETATM   19  C1  UNL     1      60.398   0.711  11.133  1.00  0.00     0.037 C 
ENDBRANCH  17  18
BRANCH  17  20
HETATM   20  C3  UNL     1      60.027   3.435  10.711  1.00  0.00     0.268 C 
HETATM   21  C4  UNL     1      60.577   4.739  10.181  1.00  0.00     0.037 C 
ENDBRANCH  17  20
ENDBRANCH  16  17
ENDBRANCH  15  16
ENDBRANCH  14  15
ENDBRANCH   1  14
BRANCH  10  22
HETATM   22  C18 UNL     1      59.456   2.219  19.314  1.00  0.00    -0.010 C 
HETATM   23  C19 UNL     1      60.001   1.626  18.067  1.00  0.00     0.005 C 
HETATM   24  C20 UNL     1      60.394   0.211  18.380  1.00  0.00     0.000 C 
HETATM   25  C21 UNL     1      60.050   0.015  19.841  1.00  0.00     0.000 C 
HETATM   26  C22 UNL     1      58.914   0.999  20.078  1.00  0.00     0.005 C 
ENDBRANCH  10  22
TORSDOF 7
ENDMDL
MODEL 4
REMARK VINA RESULT: -8.144340005      2.414      6.071
REMARK  7 active torsions:
REMARK  status: ('A' for Active; 'I' for Inactive)
REMARK    1  A    between atoms: C2_2  and  N1_3 
REMARK    2  A    between atoms: N1_3  and  C3_4 
REMARK    3  A    between atoms: N1_3  and  C5_6 
REMARK    4  A    between atoms: C5_6  and  C6_7 
REMARK    5  A    between atoms: C6_7  and  C7_8 
REMARK    6  A    between atoms: C7_8  and  C8_9 
REMARK    7  A    between atoms: C17_18  and  C18_19 
ROOT
HETATM    1  C8  UNL     1      60.137   4.158  14.939  1.00  0.00    -0.039 C 
HETATM    2  C9  UNL     1      59.647   5.535  14.583  1.00  0.00     0.014 C 
HETATM    3  C10 UNL     1      58.764   6.028  15.742  1.00  0.00    -0.013 C 
HETATM    4  C11 UNL     1      59.622   6.079  16.949  1.00  0.00     0.010 C 
HETATM    5  C12 UNL     1      59.959   4.639  17.394  1.00  0.00    -0.004 C 
HETATM    6  C13 UNL     1      60.864   4.172  16.290  1.00  0.00     0.015 C 
HETATM    7  C14 UNL     1      58.705   3.878  17.559  1.00  0.00    -0.029 C 
HETATM    8  C15 UNL     1      57.639   4.732  18.320  1.00  0.00     0.011 C 
HETATM    9  C16 UNL     1      58.207   4.088  19.567  1.00  0.00     0.006 C 
HETATM   10  C17 UNL     1      58.502   2.900  18.624  1.00  0.00    -0.001 C 
HETATM   11  C23 UNL     1      58.072   3.663  16.202  1.00  0.00    -0.004 C 
HETATM   12  C24 UNL     1      57.608   5.075  15.788  1.00  0.00     0.010 C 
HETATM   13  C25 UNL     1      58.989   3.181  15.140  1.00  0.00     0.015 C 
ENDROOT
BRANCH   1  14
HETATM   14  C7  UNL     1      61.099   3.614  13.923  1.00  0.00     0.011 C 
BRANCH  14  15
HETATM   15  C6  UNL     1      60.530   3.603  12.526  1.00  0.00     0.031 C 
BRANCH  15  16
HETATM   16  C5  UNL     1      60.877   2.266  11.911  1.00  0.00     0.272 C 
BRANCH  16  17
HETATM   17  N1  UNL     1      59.795   1.702  11.131  1.00  0.00     0.087 N 
BRANCH  17  18
HETATM   18  C2  UNL     1      59.286   2.638  10.150  1.00  0.00     0.268 C 
HETATM   19  C1  UNL     1      58.513   1.839   9.117  1.00  0.00     0.037 C 
ENDBRANCH  17  18
BRANCH  17  20
HETATM   20  C3  UNL     1      60.398   0.591  10.381  1.00  0.00     0.268 C 
HETATM   21  C4  UNL     1      60.298  -0.653  11.233  1.00  0.00     0.037 C 
ENDBRANCH  17  20
ENDBRANCH  16  17
ENDBRANCH  15  16
ENDBRANCH  14  15
ENDBRANCH   1  14
BRANCH  10  22
HETATM   22  C18 UNL     1      59.522   2.035  19.209  1.00  0.00    -0.010 C 
HETATM   23  C19 UNL     1      60.219   1.217  18.185  1.00  0.00     0.005 C 
HETATM   24  C20 UNL     1      60.521  -0.115  18.806  1.00  0.00     0.000 C 
HETATM   25  C21 UNL     1      59.967  -0.034  20.213  1.00  0.00     0.000 C 
HETATM   26  C22 UNL     1      58.841   0.982  20.098  1.00  0.00     0.005 C 
ENDBRANCH  10  22
TORSDOF 7
ENDMDL
MODEL 5
REMARK VINA RESULT: -8.123005552      1.808      5.271
REMARK  7 active torsions:
REMARK  status: ('A' for Active; 'I' for Inactive)
REMARK    1  A    between atoms: C2_2  and  N1_3 
REMARK    2  A    between atoms: N1_3  and  C3_4 
REMARK    3  A    between atoms: N1_3  and  C5_6 
REMARK    4  A    between atoms: C5_6  and  C6_7 
REMARK    5  A    between atoms: C6_7  and  C7_8 
REMARK    6  A    between atoms: C7_8  and  C8_9 
REMARK    7  A    between atoms: C17_18  and  C18_19 
ROOT
HETATM    1  C8  UNL     1      58.972   5.637  15.953  1.00  0.00    -0.039 C 
HETATM    2  C9  UNL     1      58.319   6.983  16.117  1.00  0.00     0.014 C 
HETATM    3  C10 UNL     1      57.599   6.988  17.477  1.00  0.00    -0.013 C 
HETATM    4  C11 UNL     1      58.636   6.784  18.517  1.00  0.00     0.010 C 
HETATM    5  C12 UNL     1      59.157   5.332  18.436  1.00  0.00    -0.004 C 
HETATM    6  C13 UNL     1      59.905   5.337  17.133  1.00  0.00     0.015 C 
HETATM    7  C14 UNL     1      58.012   4.402  18.513  1.00  0.00    -0.029 C 
HETATM    8  C15 UNL     1      57.019   4.845  19.636  1.00  0.00     0.011 C 
HETATM    9  C16 UNL     1      57.833   3.934  20.531  1.00  0.00     0.006 C 
HETATM   10  C17 UNL     1      58.066   3.132  19.231  1.00  0.00    -0.001 C 
HETATM   11  C23 UNL     1      57.187   4.526  17.251  1.00  0.00    -0.004 C 
HETATM   12  C24 UNL     1      56.548   5.925  17.369  1.00  0.00     0.010 C 
HETATM   13  C25 UNL     1      57.955   4.506  15.983  1.00  0.00     0.015 C 
ENDROOT
BRANCH   1  14
HETATM   14  C7  UNL     1      59.796   5.550  14.702  1.00  0.00     0.011 C 
BRANCH  14  15
HETATM   15  C6  UNL     1      61.114   4.847  14.919  1.00  0.00     0.031 C 
BRANCH  15  16
HETATM   16  C5  UNL     1      61.157   3.675  13.965  1.00  0.00     0.272 C 
BRANCH  16  17
HETATM   17  N1  UNL     1      60.052   3.663  13.028  1.00  0.00     0.087 N 
BRANCH  17  18
HETATM   18  C2  UNL     1      60.480   3.973  11.680  1.00  0.00     0.268 C 
HETATM   19  C1  UNL     1      59.753   3.026  10.743  1.00  0.00     0.037 C 
ENDBRANCH  17  18
BRANCH  17  20
HETATM   20  C3  UNL     1      59.575   2.273  13.011  1.00  0.00     0.268 C 
HETATM   21  C4  UNL     1      59.147   1.911  14.415  1.00  0.00     0.037 C 
ENDBRANCH  17  20
ENDBRANCH  16  17
ENDBRANCH  15  16
ENDBRANCH  14  15
ENDBRANCH   1  14
BRANCH  10  22
HETATM   22  C18 UNL     1      59.235   2.270  19.376  1.00  0.00    -0.010 C 
HETATM   23  C19 UNL     1      59.751   1.799  18.066  1.00  0.00     0.005 C 
HETATM   24  C20 UNL     1      60.253   0.398  18.259  1.00  0.00     0.000 C 
HETATM   25  C21 UNL     1      60.001   0.083  19.719  1.00  0.00     0.000 C 
HETATM   26  C22 UNL     1      58.817   0.968  20.079  1.00  0.00     0.005 C 
ENDBRANCH  10  22
TORSDOF 7
ENDMDL
