MODEL 1
REMARK VINA RESULT: -8.313788953      0.000      0.000
REMARK  9 active torsions:
REMARK  status: ('A' for Active; 'I' for Inactive)
REMARK    1  A    between atoms: C2_2  and  C3_3 
REMARK    2  A    between atoms: C3_3  and  C6_6 
REMARK    3  A    between atoms: C7_7  and  C8_8 
REMARK    4  A    between atoms: C11_11  and  O1_12 
REMARK    5  A    between atoms: C15_17  and  C16_18 
REMARK    6  A    between atoms: C16_18  and  C18_20 
REMARK    7  A    between atoms: C18_20  and  C19_21 
REMARK    8  A    between atoms: C19_21  and  C20_22 
REMARK    9  A    between atoms: C20_22  and  C21_23 
ROOT
HETATM    1  C8  UNL     1      60.684   3.097  18.215  1.00  0.00     0.074 C 
HETATM    2  C9  UNL     1      62.118   2.559  18.367  1.00  0.00     0.020 C 
HETATM    3  C10 UNL     1      62.235   1.126  17.973  1.00  0.00     0.033 C 
HETATM    4  C11 UNL     1      61.253   0.247  18.730  1.00  0.00     0.123 C 
HETATM    5  C12 UNL     1      60.432   1.153  19.590  1.00  0.00     0.024 C 
HETATM    6  C13 UNL     1      59.474   0.495  20.502  1.00  0.00     0.008 C 
HETATM    7  C14 UNL     1      58.215   1.366  20.363  1.00  0.00     0.006 C 
HETATM    8  C15 UNL     1      58.735   2.672  19.808  1.00  0.00    -0.001 C 
HETATM    9  C24 UNL     1      59.639   2.171  18.733  1.00  0.00    -0.020 C 
HETATM   10  C25 UNL     1      58.980   1.345  17.674  1.00  0.00     0.017 C 
ENDROOT
BRANCH   8  11
HETATM   11  C16 UNL     1      57.809   3.740  19.676  1.00  0.00    -0.014 C 
HETATM   12  C17 UNL     1      58.239   5.122  20.147  1.00  0.00     0.010 C 
BRANCH  11  13
HETATM   13  C18 UNL     1      56.955   3.981  18.475  1.00  0.00     0.005 C 
BRANCH  13  14
HETATM   14  C19 UNL     1      57.042   5.309  17.806  1.00  0.00     0.001 C 
BRANCH  14  15
HETATM   15  C20 UNL     1      57.210   5.344  16.342  1.00  0.00     0.004 C 
BRANCH  15  16
HETATM   16  C21 UNL     1      57.715   6.553  15.673  1.00  0.00    -0.023 C 
HETATM   17  C22 UNL     1      56.816   7.663  15.326  1.00  0.00     0.009 C 
HETATM   18  C23 UNL     1      58.913   7.164  16.417  1.00  0.00     0.009 C 
ENDBRANCH  15  16
ENDBRANCH  14  15
ENDBRANCH  13  14
ENDBRANCH  11  13
ENDBRANCH   8  11
BRANCH   1  19
HETATM   19  C7  UNL     1      60.534   3.253  16.742  1.00  0.00    -0.100 C 
HETATM   20  C6  UNL     1      60.397   3.397  15.550  1.00  0.00    -0.093 C 
BRANCH  20  21
HETATM   21  C3  UNL     1      60.222   3.552  14.105  1.00  0.00     0.033 C 
HETATM   22  C4  UNL     1      60.372   5.018  13.773  1.00  0.00     0.033 C 
HETATM   23  C5  UNL     1      58.848   3.111  13.676  1.00  0.00     0.033 C 
BRANCH  21  24
HETATM   24  C2  UNL     1      61.231   2.792  13.346  1.00  0.00    -0.015 C 
HETATM   25  C1  UNL     1      61.036   2.459  12.095  1.00  0.00     0.008 C 
ENDBRANCH  21  24
ENDBRANCH  20  21
ENDBRANCH   1  19
BRANCH   4  26
HETATM   26  O1  UNL     1      61.986  -0.578  19.568  1.00  0.00    -0.395 OA
ATOM     27  H1  UNL     1      61.940  -1.460  19.217  1.00  0.00     0.210 HD
ENDBRANCH   4  26
TORSDOF 9
ENDMDL
MODEL 2
REMARK VINA RESULT: -8.186709737      0.495      1.181
REMARK  9 active torsions:
REMARK  status: ('A' for Active; 'I' for Inactive)
REMARK    1  A    between atoms: C2_2  and  C3_3 
REMARK    2  A    between atoms: C3_3  and  C6_6 
REMARK    3  A    between atoms: C7_7  and  C8_8 
REMARK    4  A    between atoms: C11_11  and  O1_12 
REMARK    5  A    between atoms: C15_17  and  C16_18 
REMARK    6  A    between atoms: C16_18  and  C18_20 
REMARK    7  A    between atoms: C18_20  and  C19_21 
REMARK    8  A    between atoms: C19_21  and  C20_22 
REMARK    9  A    between atoms: C20_22  and  C21_23 
ROOT
HETATM    1  C8  UNL     1      60.732   3.126  18.204  1.00  0.00     0.074 C 
HETATM    2  C9  UNL     1      62.144   2.554  18.421  1.00  0.00     0.020 C 
HETATM    3  C10 UNL     1      62.238   1.110  18.058  1.00  0.00     0.033 C 
HETATM    4  C11 UNL     1      61.204   0.273  18.793  1.00  0.00     0.123 C 
HETATM    5  C12 UNL     1      60.377   1.216  19.604  1.00  0.00     0.024 C 
HETATM    6  C13 UNL     1      59.367   0.602  20.490  1.00  0.00     0.008 C 
HETATM    7  C14 UNL     1      58.138   1.503  20.287  1.00  0.00     0.006 C 
HETATM    8  C15 UNL     1      58.714   2.783  19.728  1.00  0.00    -0.001 C 
HETATM    9  C24 UNL     1      59.644   2.239  18.698  1.00  0.00    -0.020 C 
HETATM   10  C25 UNL     1      59.004   1.409  17.630  1.00  0.00     0.017 C 
ENDROOT
BRANCH   8  11
HETATM   11  C16 UNL     1      57.822   3.872  19.541  1.00  0.00    -0.014 C 
HETATM   12  C17 UNL     1      58.231   5.233  20.086  1.00  0.00     0.010 C 
BRANCH  11  13
HETATM   13  C18 UNL     1      57.086   4.161  18.274  1.00  0.00     0.005 C 
BRANCH  13  14
HETATM   14  C19 UNL     1      57.092   5.558  17.760  1.00  0.00     0.001 C 
BRANCH  14  15
HETATM   15  C20 UNL     1      57.365   5.775  16.328  1.00  0.00     0.004 C 
BRANCH  15  16
HETATM   16  C21 UNL     1      58.452   6.667  15.896  1.00  0.00    -0.023 C 
HETATM   17  C22 UNL     1      58.179   8.044  15.457  1.00  0.00     0.009 C 
HETATM   18  C23 UNL     1      59.578   6.747  16.939  1.00  0.00     0.009 C 
ENDBRANCH  15  16
ENDBRANCH  14  15
ENDBRANCH  13  14
ENDBRANCH  11  13
ENDBRANCH   8  11
BRANCH   1  19
HETATM   19  C7  UNL     1      60.643   3.257  16.723  1.00  0.00    -0.100 C 
HETATM   20  C6  UNL     1      60.558   3.383  15.524  1.00  0.00    -0.093 C 
BRANCH  20  21
HETATM   21  C3  UNL     1      60.443   3.518  14.072  1.00  0.00     0.033 C 
HETATM   22  C4  UNL     1      61.517   2.664  13.438  1.00  0.00     0.033 C 
HETATM   23  C5  UNL     1      60.663   4.944  13.642  1.00  0.00     0.033 C 
BRANCH  21  24
HETATM   24  C2  UNL     1      59.130   3.065  13.581  1.00  0.00    -0.015 C 
HETATM   25  C1  UNL     1      58.126   2.866  14.398  1.00  0.00     0.008 C 
ENDBRANCH  21  24
ENDBRANCH  20  21
ENDBRANCH   1  19
BRANCH   4  26
HETATM   26  O1  UNL     1      61.882  -0.555  19.674  1.00  0.00    -0.395 OA
ATOM     27  H1  UNL     1      61.725  -1.453  19.405  1.00  0.00     0.210 HD
ENDBRANCH   4  26
TORSDOF 9
ENDMDL
MODEL 3
REMARK VINA RESULT: -8.172300985      0.899      1.335
REMARK  9 active torsions:
REMARK  status: ('A' for Active; 'I' for Inactive)
REMARK    1  A    between atoms: C2_2  and  C3_3 
REMARK    2  A    between atoms: C3_3  and  C6_6 
REMARK    3  A    between atoms: C7_7  and  C8_8 
REMARK    4  A    between atoms: C11_11  and  O1_12 
REMARK    5  A    between atoms: C15_17  and  C16_18 
REMARK    6  A    between atoms: C16_18  and  C18_20 
REMARK    7  A    between atoms: C18_20  and  C19_21 
REMARK    8  A    between atoms: C19_21  and  C20_22 
REMARK    9  A    between atoms: C20_22  and  C21_23 
ROOT
HETATM    1  C8  UNL     1      60.836   3.047  17.803  1.00  0.00     0.074 C 
HETATM    2  C9  UNL     1      62.008   2.074  18.029  1.00  0.00     0.020 C 
HETATM    3  C10 UNL     1      61.625   0.653  17.789  1.00  0.00     0.033 C 
HETATM    4  C11 UNL     1      60.422   0.242  18.620  1.00  0.00     0.123 C 
HETATM    5  C12 UNL     1      59.976   1.455  19.371  1.00  0.00     0.024 C 
HETATM    6  C13 UNL     1      58.873   1.257  20.334  1.00  0.00     0.008 C 
HETATM    7  C14 UNL     1      57.979   2.484  20.089  1.00  0.00     0.006 C 
HETATM    8  C15 UNL     1      58.897   3.472  19.407  1.00  0.00    -0.001 C 
HETATM    9  C24 UNL     1      59.553   2.588  18.401  1.00  0.00    -0.020 C 
HETATM   10  C25 UNL     1      58.629   1.929  17.426  1.00  0.00     0.017 C 
ENDROOT
BRANCH   8  11
HETATM   11  C16 UNL     1      58.383   4.771  19.151  1.00  0.00    -0.014 C 
HETATM   12  C17 UNL     1      57.122   5.199  19.890  1.00  0.00     0.010 C 
BRANCH  11  13
HETATM   13  C18 UNL     1      59.212   6.007  19.038  1.00  0.00     0.005 C 
BRANCH  13  14
HETATM   14  C19 UNL     1      59.054   6.850  17.821  1.00  0.00     0.001 C 
BRANCH  14  15
HETATM   15  C20 UNL     1      59.181   6.204  16.502  1.00  0.00     0.004 C 
BRANCH  15  16
HETATM   16  C21 UNL     1      58.010   6.051  15.625  1.00  0.00    -0.023 C 
HETATM   17  C22 UNL     1      57.204   4.820  15.639  1.00  0.00     0.009 C 
HETATM   18  C23 UNL     1      57.030   7.227  15.763  1.00  0.00     0.009 C 
ENDBRANCH  15  16
ENDBRANCH  14  15
ENDBRANCH  13  14
ENDBRANCH  11  13
ENDBRANCH   8  11
BRANCH   1  19
HETATM   19  C7  UNL     1      60.714   3.092  16.320  1.00  0.00    -0.100 C 
HETATM   20  C6  UNL     1      60.608   3.151  15.117  1.00  0.00    -0.093 C 
BRANCH  20  21
HETATM   21  C3  UNL     1      60.464   3.209  13.663  1.00  0.00     0.033 C 
HETATM   22  C4  UNL     1      60.590   4.655  13.240  1.00  0.00     0.033 C 
HETATM   23  C5  UNL     1      59.110   2.712  13.233  1.00  0.00     0.033 C 
BRANCH  21  24
HETATM   24  C2  UNL     1      61.505   2.425  12.976  1.00  0.00    -0.015 C 
HETATM   25  C1  UNL     1      61.356   2.028  11.738  1.00  0.00     0.008 C 
ENDBRANCH  21  24
ENDBRANCH  20  21
ENDBRANCH   1  19
BRANCH   4  26
HETATM   26  O1  UNL     1      60.852  -0.692  19.550  1.00  0.00    -0.395 OA
ATOM     27  H1  UNL     1      60.093  -0.979  20.044  1.00  0.00     0.210 HD
ENDBRANCH   4  26
TORSDOF 9
ENDMDL
MODEL 4
REMARK VINA RESULT: -7.841800220      2.313      5.264
REMARK  9 active torsions:
REMARK  status: ('A' for Active; 'I' for Inactive)
REMARK    1  A    between atoms: C2_2  and  C3_3 
REMARK    2  A    between atoms: C3_3  and  C6_6 
REMARK    3  A    between atoms: C7_7  and  C8_8 
REMARK    4  A    between atoms: C11_11  and  O1_12 
REMARK    5  A    between atoms: C15_17  and  C16_18 
REMARK    6  A    between atoms: C16_18  and  C18_20 
REMARK    7  A    between atoms: C18_20  and  C19_21 
REMARK    8  A    between atoms: C19_21  and  C20_22 
REMARK    9  A    between atoms: C20_22  and  C21_23 
ROOT
HETATM    1  C8  UNL     1      57.567   4.171  16.481  1.00  0.00     0.074 C 
HETATM    2  C9  UNL     1      56.627   5.275  15.966  1.00  0.00     0.020 C 
HETATM    3  C10 UNL     1      57.284   6.614  15.929  1.00  0.00     0.033 C 
HETATM    4  C11 UNL     1      57.867   6.996  17.280  1.00  0.00     0.123 C 
HETATM    5  C12 UNL     1      57.635   5.839  18.197  1.00  0.00     0.024 C 
HETATM    6  C13 UNL     1      58.031   6.036  19.607  1.00  0.00     0.008 C 
HETATM    7  C14 UNL     1      58.717   4.706  19.959  1.00  0.00     0.006 C 
HETATM    8  C15 UNL     1      58.200   3.742  18.917  1.00  0.00    -0.001 C 
HETATM    9  C24 UNL     1      58.353   4.565  17.683  1.00  0.00    -0.020 C 
HETATM   10  C25 UNL     1      59.748   5.012  17.377  1.00  0.00     0.017 C 
ENDROOT
BRANCH   8  11
HETATM   11  C16 UNL     1      58.571   2.378  19.048  1.00  0.00    -0.014 C 
HETATM   12  C17 UNL     1      57.962   1.578  20.191  1.00  0.00     0.010 C 
BRANCH  11  13
HETATM   13  C18 UNL     1      58.688   1.414  17.913  1.00  0.00     0.005 C 
BRANCH  13  14
HETATM   14  C19 UNL     1      60.044   1.142  17.360  1.00  0.00     0.001 C 
BRANCH  14  15
HETATM   15  C20 UNL     1      60.856   0.086  17.990  1.00  0.00     0.004 C 
BRANCH  15  16
HETATM   16  C21 UNL     1      61.970   0.429  18.887  1.00  0.00    -0.023 C 
HETATM   17  C22 UNL     1      62.660   1.723  18.784  1.00  0.00     0.009 C 
HETATM   18  C23 UNL     1      61.598   0.238  20.366  1.00  0.00     0.009 C 
ENDBRANCH  15  16
ENDBRANCH  14  15
ENDBRANCH  13  14
ENDBRANCH  11  13
ENDBRANCH   8  11
BRANCH   1  19
HETATM   19  C7  UNL     1      58.485   3.943  15.331  1.00  0.00    -0.100 C 
HETATM   20  C6  UNL     1      59.218   3.738  14.392  1.00  0.00    -0.093 C 
BRANCH  20  21
HETATM   21  C3  UNL     1      60.121   3.487  13.269  1.00  0.00     0.033 C 
HETATM   22  C4  UNL     1      61.451   3.039  13.831  1.00  0.00     0.033 C 
HETATM   23  C5  UNL     1      60.349   4.739  12.466  1.00  0.00     0.033 C 
BRANCH  21  24
HETATM   24  C2  UNL     1      59.607   2.431  12.378  1.00  0.00    -0.015 C 
HETATM   25  C1  UNL     1      59.602   2.577  11.077  1.00  0.00     0.008 C 
ENDBRANCH  21  24
ENDBRANCH  20  21
ENDBRANCH   1  19
BRANCH   4  26
HETATM   26  O1  UNL     1      57.136   8.070  17.765  1.00  0.00    -0.395 OA
ATOM     27  H1  UNL     1      57.753   8.733  18.050  1.00  0.00     0.210 HD
ENDBRANCH   4  26
TORSDOF 9
ENDMDL
MODEL 5
REMARK VINA RESULT: -7.514179850      2.261      5.300
REMARK  9 active torsions:
REMARK  status: ('A' for Active; 'I' for Inactive)
REMARK    1  A    between atoms: C2_2  and  C3_3 
REMARK    2  A    between atoms: C3_3  and  C6_6 
REMARK    3  A    between atoms: C7_7  and  C8_8 
REMARK    4  A    between atoms: C11_11  and  O1_12 
REMARK    5  A    between atoms: C15_17  and  C16_18 
REMARK    6  A    between atoms: C16_18  and  C18_20 
REMARK    7  A    between atoms: C18_20  and  C19_21 
REMARK    8  A    between atoms: C19_21  and  C20_22 
REMARK    9  A    between atoms: C20_22  and  C21_23 
ROOT
HETATM    1  C8  UNL     1      57.381   4.242  16.228  1.00  0.00     0.074 C 
HETATM    2  C9  UNL     1      56.640   5.480  15.692  1.00  0.00     0.020 C 
HETATM    3  C10 UNL     1      57.461   6.721  15.780  1.00  0.00     0.033 C 
HETATM    4  C11 UNL     1      57.962   6.969  17.193  1.00  0.00     0.123 C 
HETATM    5  C12 UNL     1      57.503   5.817  18.027  1.00  0.00     0.024 C 
HETATM    6  C13 UNL     1      57.790   5.903  19.474  1.00  0.00     0.008 C 
HETATM    7  C14 UNL     1      58.266   4.482  19.814  1.00  0.00     0.006 C 
HETATM    8  C15 UNL     1      57.728   3.637  18.683  1.00  0.00    -0.001 C 
HETATM    9  C24 UNL     1      58.097   4.482  17.511  1.00  0.00    -0.020 C 
HETATM   10  C25 UNL     1      59.559   4.753  17.349  1.00  0.00     0.017 C 
ENDROOT
BRANCH   8  11
HETATM   11  C16 UNL     1      57.909   2.232  18.775  1.00  0.00    -0.014 C 
HETATM   12  C17 UNL     1      58.629   1.527  17.634  1.00  0.00     0.010 C 
BRANCH  11  13
HETATM   13  C18 UNL     1      58.327   1.506  20.012  1.00  0.00     0.005 C 
BRANCH  13  14
HETATM   14  C19 UNL     1      59.408   0.489  19.898  1.00  0.00     0.001 C 
BRANCH  14  15
HETATM   15  C20 UNL     1      60.777   0.877  20.282  1.00  0.00     0.004 C 
BRANCH  15  16
HETATM   16  C21 UNL     1      61.864   0.879  19.290  1.00  0.00    -0.023 C 
HETATM   17  C22 UNL     1      61.948  -0.158  18.251  1.00  0.00     0.009 C 
HETATM   18  C23 UNL     1      61.991   2.235  18.579  1.00  0.00     0.009 C 
ENDBRANCH  15  16
ENDBRANCH  14  15
ENDBRANCH  13  14
ENDBRANCH  11  13
ENDBRANCH   8  11
BRANCH   1  19
HETATM   19  C7  UNL     1      58.364   3.942  15.150  1.00  0.00    -0.100 C 
HETATM   20  C6  UNL     1      59.171   3.681  14.289  1.00  0.00    -0.093 C 
BRANCH  20  21
HETATM   21  C3  UNL     1      60.157   3.385  13.250  1.00  0.00     0.033 C 
HETATM   22  C4  UNL     1      59.718   2.128  12.536  1.00  0.00     0.033 C 
HETATM   23  C5  UNL     1      61.515   3.134  13.849  1.00  0.00     0.033 C 
BRANCH  21  24
HETATM   24  C2  UNL     1      60.260   4.475  12.264  1.00  0.00    -0.015 C 
HETATM   25  C1  UNL     1      60.367   4.230  10.983  1.00  0.00     0.008 C 
ENDBRANCH  21  24
ENDBRANCH  20  21
ENDBRANCH   1  19
BRANCH   4  26
HETATM   26  O1  UNL     1      57.333   8.109  17.669  1.00  0.00    -0.395 OA
ATOM     27  H1  UNL     1      57.352   8.075  18.618  1.00  0.00     0.210 HD
ENDBRANCH   4  26
TORSDOF 9
ENDMDL
