MODEL 1
REMARK VINA RESULT: -7.472935464      0.000      0.000
REMARK  6 active torsions:
REMARK  status: ('A' for Active; 'I' for Inactive)
REMARK    1  A    between atoms: C16_16  and  C17_17 
REMARK    2  A    between atoms: C17_17  and  C18_18 
REMARK    3  A    between atoms: C18_18  and  C19_19 
REMARK    4  A    between atoms: C19_19  and  C20_20 
REMARK    5  A    between atoms: C20_20  and  C21_21 
REMARK    6  A    between atoms: C21_21  and  N1_22 
ROOT
HETATM    1  C1  UNL     1      60.874  -0.186  18.223  1.00  0.00     0.015 C 
HETATM    2  C2  UNL     1      60.582   1.194  18.833  1.00  0.00    -0.043 C 
HETATM    3  C3  UNL     1      61.858   1.857  19.104  1.00  0.00     0.015 C 
HETATM    4  C4  UNL     1      59.896   0.914  20.179  1.00  0.00     0.009 C 
HETATM    5  C5  UNL     1      58.412   1.100  20.116  1.00  0.00     0.002 C 
HETATM    6  C6  UNL     1      57.938   2.438  19.669  1.00  0.00     0.010 C 
HETATM    7  C7  UNL     1      58.865   3.002  18.581  1.00  0.00    -0.039 C 
HETATM    8  C8  UNL     1      59.663   4.062  19.243  1.00  0.00     0.015 C 
HETATM    9  C9  UNL     1      58.120   3.576  17.416  1.00  0.00     0.015 C 
HETATM   10  C10 UNL     1      58.631   2.922  16.164  1.00  0.00    -0.004 C 
HETATM   11  C11 UNL     1      59.876   2.122  16.557  1.00  0.00    -0.004 C 
HETATM   12  C12 UNL     1      61.118   2.813  16.199  1.00  0.00     0.006 C 
HETATM   13  C13 UNL     1      61.176   2.952  14.693  1.00  0.00     0.014 C 
HETATM   14  C14 UNL     1      59.895   3.402  14.059  1.00  0.00    -0.017 C 
HETATM   15  C15 UNL     1      59.344   2.340  13.111  1.00  0.00     0.020 C 
HETATM   16  C16 UNL     1      60.198   4.657  13.315  1.00  0.00    -0.075 C 
HETATM   17  C22 UNL     1      59.750   5.688  13.974  1.00  0.00    -0.023 C 
HETATM   18  C23 UNL     1      59.102   5.221  15.230  1.00  0.00     0.033 C 
HETATM   19  C24 UNL     1      58.808   3.787  14.995  1.00  0.00     0.006 C 
HETATM   20  C25 UNL     1      59.583   1.847  17.983  1.00  0.00     0.006 C 
ENDROOT
BRANCH  16  21
HETATM   21  C17 UNL     1      60.931   4.613  12.030  1.00  0.00     0.034 C 
BRANCH  21  22
HETATM   22  C18 UNL     1      60.202   4.822  10.782  1.00  0.00     0.004 C 
BRANCH  22  23
HETATM   23  C19 UNL     1      60.152   3.744   9.773  1.00  0.00     0.002 C 
BRANCH  23  24
HETATM   24  C20 UNL     1      61.514   3.029   9.820  1.00  0.00     0.027 C 
BRANCH  24  25
HETATM   25  C21 UNL     1      61.281   1.527  10.039  1.00  0.00     0.229 C 
BRANCH  25  26
HETATM   26  N1  UNL     1      62.155   1.019  11.055  1.00  0.00    -0.079 N 
ATOM     27  H13 UNL     1      62.362   0.031  10.914  1.00  0.00     0.274 HD
ATOM     28  H12 UNL     1      63.100   1.391  10.960  1.00  0.00     0.274 HD
ATOM     29  H11 UNL     1      61.772   1.194  11.984  1.00  0.00     0.274 HD
ENDBRANCH  25  26
ENDBRANCH  24  25
ENDBRANCH  23  24
ENDBRANCH  22  23
ENDBRANCH  21  22
ENDBRANCH  16  21
TORSDOF 6
ENDMDL
MODEL 2
REMARK VINA RESULT: -7.417617060      2.093      3.938
REMARK  6 active torsions:
REMARK  status: ('A' for Active; 'I' for Inactive)
REMARK    1  A    between atoms: C16_16  and  C17_17 
REMARK    2  A    between atoms: C17_17  and  C18_18 
REMARK    3  A    between atoms: C18_18  and  C19_19 
REMARK    4  A    between atoms: C19_19  and  C20_20 
REMARK    5  A    between atoms: C20_20  and  C21_21 
REMARK    6  A    between atoms: C21_21  and  N1_22 
ROOT
HETATM    1  C1  UNL     1      58.042   7.709  17.648  1.00  0.00     0.015 C 
HETATM    2  C2  UNL     1      57.550   6.375  18.231  1.00  0.00    -0.043 C 
HETATM    3  C3  UNL     1      56.188   6.136  17.749  1.00  0.00     0.015 C 
HETATM    4  C4  UNL     1      57.485   6.587  19.751  1.00  0.00     0.009 C 
HETATM    5  C5  UNL     1      58.652   5.980  20.465  1.00  0.00     0.002 C 
HETATM    6  C6  UNL     1      58.866   4.522  20.249  1.00  0.00     0.010 C 
HETATM    7  C7  UNL     1      58.518   4.136  18.803  1.00  0.00    -0.039 C 
HETATM    8  C8  UNL     1      57.221   3.423  18.879  1.00  0.00     0.015 C 
HETATM    9  C9  UNL     1      59.549   3.253  18.169  1.00  0.00     0.015 C 
HETATM   10  C10 UNL     1      59.983   3.891  16.880  1.00  0.00    -0.004 C 
HETATM   11  C11 UNL     1      59.019   5.050  16.610  1.00  0.00    -0.004 C 
HETATM   12  C12 UNL     1      58.003   4.708  15.612  1.00  0.00     0.006 C 
HETATM   13  C13 UNL     1      58.695   4.433  14.294  1.00  0.00     0.014 C 
HETATM   14  C14 UNL     1      59.917   3.572  14.399  1.00  0.00    -0.017 C 
HETATM   15  C15 UNL     1      61.166   4.327  13.951  1.00  0.00     0.020 C 
HETATM   16  C16 UNL     1      59.686   2.386  13.529  1.00  0.00    -0.075 C 
HETATM   17  C22 UNL     1      59.397   1.345  14.258  1.00  0.00    -0.023 C 
HETATM   18  C23 UNL     1      59.405   1.737  15.694  1.00  0.00     0.033 C 
HETATM   19  C24 UNL     1      60.189   2.995  15.740  1.00  0.00     0.006 C 
HETATM   20  C25 UNL     1      58.597   5.377  17.993  1.00  0.00     0.006 C 
ENDROOT
BRANCH  16  21
HETATM   21  C17 UNL     1      59.778   2.501  12.056  1.00  0.00     0.034 C 
BRANCH  21  22
HETATM   22  C18 UNL     1      60.327   1.392  11.283  1.00  0.00     0.004 C 
BRANCH  22  23
HETATM   23  C19 UNL     1      59.607   0.904  10.089  1.00  0.00     0.002 C 
BRANCH  23  24
HETATM   24  C20 UNL     1      59.509  -0.626  10.224  1.00  0.00     0.027 C 
BRANCH  24  25
HETATM   25  C21 UNL     1      60.484  -1.094  11.314  1.00  0.00     0.229 C 
BRANCH  25  26
HETATM   26  N1  UNL     1      59.934  -2.190  12.054  1.00  0.00    -0.079 N 
ATOM     27  H13 UNL     1      59.603  -1.896  12.973  1.00  0.00     0.274 HD
ATOM     28  H12 UNL     1      59.045  -2.502  11.663  1.00  0.00     0.274 HD
ATOM     29  H11 UNL     1      60.605  -2.955  12.123  1.00  0.00     0.274 HD
ENDBRANCH  25  26
ENDBRANCH  24  25
ENDBRANCH  23  24
ENDBRANCH  22  23
ENDBRANCH  21  22
ENDBRANCH  16  21
TORSDOF 6
ENDMDL
MODEL 3
REMARK VINA RESULT: -7.098070904      1.615      1.888
REMARK  6 active torsions:
REMARK  status: ('A' for Active; 'I' for Inactive)
REMARK    1  A    between atoms: C16_16  and  C17_17 
REMARK    2  A    between atoms: C17_17  and  C18_18 
REMARK    3  A    between atoms: C18_18  and  C19_19 
REMARK    4  A    between atoms: C19_19  and  C20_20 
REMARK    5  A    between atoms: C20_20  and  C21_21 
REMARK    6  A    between atoms: C21_21  and  N1_22 
ROOT
HETATM    1  C1  UNL     1      60.687  -0.149  18.243  1.00  0.00     0.015 C 
HETATM    2  C2  UNL     1      60.453   1.254  18.825  1.00  0.00    -0.043 C 
HETATM    3  C3  UNL     1      61.756   1.867  19.089  1.00  0.00     0.015 C 
HETATM    4  C4  UNL     1      59.752   1.031  20.174  1.00  0.00     0.009 C 
HETATM    5  C5  UNL     1      58.278   1.279  20.102  1.00  0.00     0.002 C 
HETATM    6  C6  UNL     1      57.863   2.627  19.628  1.00  0.00     0.010 C 
HETATM    7  C7  UNL     1      58.816   3.129  18.533  1.00  0.00    -0.039 C 
HETATM    8  C8  UNL     1      59.656   4.167  19.177  1.00  0.00     0.015 C 
HETATM    9  C9  UNL     1      58.099   3.712  17.354  1.00  0.00     0.015 C 
HETATM   10  C10 UNL     1      58.585   3.012  16.117  1.00  0.00    -0.004 C 
HETATM   11  C11 UNL     1      59.794   2.167  16.529  1.00  0.00    -0.004 C 
HETATM   12  C12 UNL     1      61.065   2.798  16.163  1.00  0.00     0.006 C 
HETATM   13  C13 UNL     1      61.133   2.905  14.655  1.00  0.00     0.014 C 
HETATM   14  C14 UNL     1      59.875   3.398  14.008  1.00  0.00    -0.017 C 
HETATM   15  C15 UNL     1      59.281   2.342  13.078  1.00  0.00     0.020 C 
HETATM   16  C16 UNL     1      60.234   4.623  13.241  1.00  0.00    -0.075 C 
HETATM   17  C22 UNL     1      59.828   5.685  13.878  1.00  0.00    -0.023 C 
HETATM   18  C23 UNL     1      59.157   5.271  15.140  1.00  0.00     0.033 C 
HETATM   19  C24 UNL     1      58.803   3.846  14.932  1.00  0.00     0.006 C 
HETATM   20  C25 UNL     1      59.485   1.934  17.960  1.00  0.00     0.006 C 
ENDROOT
BRANCH  16  21
HETATM   21  C17 UNL     1      60.967   4.523  11.959  1.00  0.00     0.034 C 
BRANCH  21  22
HETATM   22  C18 UNL     1      60.302   4.915  10.721  1.00  0.00     0.004 C 
BRANCH  22  23
HETATM   23  C19 UNL     1      59.789   3.876   9.804  1.00  0.00     0.002 C 
BRANCH  23  24
HETATM   24  C20 UNL     1      58.836   4.581   8.822  1.00  0.00     0.027 C 
BRANCH  24  25
HETATM   25  C21 UNL     1      59.384   5.983   8.517  1.00  0.00     0.229 C 
BRANCH  25  26
HETATM   26  N1  UNL     1      58.741   6.542   7.365  1.00  0.00    -0.079 N 
ATOM     27  H13 UNL     1      59.376   7.132   6.828  1.00  0.00     0.274 HD
ATOM     28  H12 UNL     1      58.554   5.832   6.656  1.00  0.00     0.274 HD
ATOM     29  H11 UNL     1      57.893   7.043   7.630  1.00  0.00     0.274 HD
ENDBRANCH  25  26
ENDBRANCH  24  25
ENDBRANCH  23  24
ENDBRANCH  22  23
ENDBRANCH  21  22
ENDBRANCH  16  21
TORSDOF 6
ENDMDL
MODEL 4
REMARK VINA RESULT: -6.981077880      1.862      3.797
REMARK  6 active torsions:
REMARK  status: ('A' for Active; 'I' for Inactive)
REMARK    1  A    between atoms: C16_16  and  C17_17 
REMARK    2  A    between atoms: C17_17  and  C18_18 
REMARK    3  A    between atoms: C18_18  and  C19_19 
REMARK    4  A    between atoms: C19_19  and  C20_20 
REMARK    5  A    between atoms: C20_20  and  C21_21 
REMARK    6  A    between atoms: C21_21  and  N1_22 
ROOT
HETATM    1  C1  UNL     1      58.035   7.755  17.689  1.00  0.00     0.015 C 
HETATM    2  C2  UNL     1      57.543   6.422  18.274  1.00  0.00    -0.043 C 
HETATM    3  C3  UNL     1      56.180   6.184  17.798  1.00  0.00     0.015 C 
HETATM    4  C4  UNL     1      57.486   6.634  19.795  1.00  0.00     0.009 C 
HETATM    5  C5  UNL     1      58.655   6.025  20.503  1.00  0.00     0.002 C 
HETATM    6  C6  UNL     1      58.867   4.568  20.287  1.00  0.00     0.010 C 
HETATM    7  C7  UNL     1      58.513   4.182  18.843  1.00  0.00    -0.039 C 
HETATM    8  C8  UNL     1      57.215   3.470  18.924  1.00  0.00     0.015 C 
HETATM    9  C9  UNL     1      59.539   3.298  18.204  1.00  0.00     0.015 C 
HETATM   10  C10 UNL     1      59.968   3.935  16.913  1.00  0.00    -0.004 C 
HETATM   11  C11 UNL     1      59.004   5.095  16.648  1.00  0.00    -0.004 C 
HETATM   12  C12 UNL     1      57.984   4.754  15.653  1.00  0.00     0.006 C 
HETATM   13  C13 UNL     1      58.670   4.479  14.332  1.00  0.00     0.014 C 
HETATM   14  C14 UNL     1      59.891   3.616  14.433  1.00  0.00    -0.017 C 
HETATM   15  C15 UNL     1      61.139   4.370  13.979  1.00  0.00     0.020 C 
HETATM   16  C16 UNL     1      59.655   2.430  13.563  1.00  0.00    -0.075 C 
HETATM   17  C22 UNL     1      59.368   1.389  14.294  1.00  0.00    -0.023 C 
HETATM   18  C23 UNL     1      59.383   1.781  15.730  1.00  0.00     0.033 C 
HETATM   19  C24 UNL     1      60.169   3.038  15.772  1.00  0.00     0.006 C 
HETATM   20  C25 UNL     1      58.588   5.423  18.032  1.00  0.00     0.006 C 
ENDROOT
BRANCH  16  21
HETATM   21  C17 UNL     1      59.741   2.545  12.090  1.00  0.00     0.034 C 
BRANCH  21  22
HETATM   22  C18 UNL     1      60.425   1.505  11.329  1.00  0.00     0.004 C 
BRANCH  22  23
HETATM   23  C19 UNL     1      61.745   1.787  10.726  1.00  0.00     0.002 C 
BRANCH  23  24
HETATM   24  C20 UNL     1      61.560   3.006   9.804  1.00  0.00     0.027 C 
BRANCH  24  25
HETATM   25  C21 UNL     1      62.700   3.032   8.777  1.00  0.00     0.229 C 
BRANCH  25  26
HETATM   26  N1  UNL     1      63.533   1.875   8.911  1.00  0.00    -0.079 N 
ATOM     27  H13 UNL     1      63.756   1.680   9.887  1.00  0.00     0.274 HD
ATOM     28  H12 UNL     1      63.025   1.017   8.695  1.00  0.00     0.274 HD
ATOM     29  H11 UNL     1      64.376   1.966   8.344  1.00  0.00     0.274 HD
ENDBRANCH  25  26
ENDBRANCH  24  25
ENDBRANCH  23  24
ENDBRANCH  22  23
ENDBRANCH  21  22
ENDBRANCH  16  21
TORSDOF 6
ENDMDL
MODEL 5
REMARK VINA RESULT: -6.868279605      1.559      2.155
REMARK  6 active torsions:
REMARK  status: ('A' for Active; 'I' for Inactive)
REMARK    1  A    between atoms: C16_16  and  C17_17 
REMARK    2  A    between atoms: C17_17  and  C18_18 
REMARK    3  A    between atoms: C18_18  and  C19_19 
REMARK    4  A    between atoms: C19_19  and  C20_20 
REMARK    5  A    between atoms: C20_20  and  C21_21 
REMARK    6  A    between atoms: C21_21  and  N1_22 
ROOT
HETATM    1  C1  UNL     1      57.784   1.252  19.222  1.00  0.00     0.015 C 
HETATM    2  C2  UNL     1      58.502   2.589  19.462  1.00  0.00    -0.043 C 
HETATM    3  C3  UNL     1      59.897   2.308  19.801  1.00  0.00     0.015 C 
HETATM    4  C4  UNL     1      57.827   3.204  20.698  1.00  0.00     0.009 C 
HETATM    5  C5  UNL     1      56.850   4.280  20.342  1.00  0.00     0.002 C 
HETATM    6  C6  UNL     1      57.388   5.416  19.544  1.00  0.00     0.010 C 
HETATM    7  C7  UNL     1      58.436   4.917  18.537  1.00  0.00    -0.039 C 
HETATM    8  C8  UNL     1      59.749   5.335  19.084  1.00  0.00     0.015 C 
HETATM    9  C9  UNL     1      58.249   5.488  17.166  1.00  0.00     0.015 C 
HETATM   10  C10 UNL     1      58.170   4.348  16.190  1.00  0.00    -0.004 C 
HETATM   11  C11 UNL     1      58.564   3.081  16.954  1.00  0.00    -0.004 C 
HETATM   12  C12 UNL     1      59.942   2.670  16.676  1.00  0.00     0.006 C 
HETATM   13  C13 UNL     1      60.055   2.318  15.208  1.00  0.00     0.014 C 
HETATM   14  C14 UNL     1      59.396   3.294  14.281  1.00  0.00    -0.017 C 
HETATM   15  C15 UNL     1      58.260   2.636  13.502  1.00  0.00     0.020 C 
HETATM   16  C16 UNL     1      60.450   3.784  13.350  1.00  0.00    -0.075 C 
HETATM   17  C22 UNL     1      60.819   4.989  13.686  1.00  0.00    -0.023 C 
HETATM   18  C23 UNL     1      60.045   5.421  14.881  1.00  0.00     0.033 C 
HETATM   19  C24 UNL     1      58.862   4.528  14.912  1.00  0.00     0.006 C 
HETATM   20  C25 UNL     1      58.185   3.468  18.333  1.00  0.00     0.006 C 
ENDROOT
BRANCH  16  21
HETATM   21  C17 UNL     1      60.943   2.926  12.250  1.00  0.00     0.034 C 
BRANCH  21  22
HETATM   22  C18 UNL     1      60.301   2.999  10.941  1.00  0.00     0.004 C 
BRANCH  22  23
HETATM   23  C19 UNL     1      59.879   1.756  10.262  1.00  0.00     0.002 C 
BRANCH  23  24
HETATM   24  C20 UNL     1      60.338   0.587  11.152  1.00  0.00     0.027 C 
BRANCH  24  25
HETATM   25  C21 UNL     1      59.902  -0.734  10.503  1.00  0.00     0.229 C 
BRANCH  25  26
HETATM   26  N1  UNL     1      60.743  -1.813  10.928  1.00  0.00    -0.079 N 
ATOM     27  H13 UNL     1      61.105  -2.344  10.136  1.00  0.00     0.274 HD
ATOM     28  H12 UNL     1      61.629  -1.475  11.306  1.00  0.00     0.274 HD
ATOM     29  H11 UNL     1      60.255  -2.414  11.592  1.00  0.00     0.274 HD
ENDBRANCH  25  26
ENDBRANCH  24  25
ENDBRANCH  23  24
ENDBRANCH  22  23
ENDBRANCH  21  22
ENDBRANCH  16  21
TORSDOF 6
ENDMDL
