MODEL 1
REMARK VINA RESULT: -5.462387658      0.000      0.000
REMARK  6 active torsions:
REMARK  status: ('A' for Active; 'I' for Inactive)
REMARK    1  A    between atoms: C2_2  and  N1_5 
REMARK       I    between atoms: N1_5  and  C5_7 
REMARK       I    between atoms: C5_7  and  N4_20 
REMARK       I    between atoms: N2_8  and  C6_10 
REMARK    2  A    between atoms: C6_10  and  C7_12 
REMARK       I    between atoms: C7_12  and  N3_14 
REMARK    3  A    between atoms: N3_14  and  C8_16 
REMARK    4  A    between atoms: N4_20  and  C10_22 
REMARK    5  A    between atoms: C10_22  and  C11_23 
REMARK    6  A    between atoms: C11_23  and  N5_24 
ROOT
HETATM    1  N1  UNL     1      90.042  99.680 -43.458  1.00  0.00    -0.218 N 
ATOM      2  H1  UNL     1      90.459 100.418 -44.025  1.00  0.00     0.178 HD
HETATM    3  C5  UNL     1      90.858  98.935 -42.549  1.00  0.00     0.677 C 
HETATM    4  N2  UNL     1      90.521  97.706 -42.391  1.00  0.00    -0.152 N 
ATOM      5  H2  UNL     1      89.719  97.330 -42.898  1.00  0.00     0.188 HD
HETATM    6  C6  UNL     1      91.250  96.877 -41.522  1.00  0.00     0.328 C 
HETATM    7  O1  UNL     1      91.975  97.400 -40.647  1.00  0.00    -0.261 OA
HETATM    8  N4  UNL     1      91.960  99.556 -41.890  1.00  0.00    -0.225 N 
ATOM      9  H4  UNL     1      92.920  99.296 -42.117  1.00  0.00     0.177 HD
ENDROOT
BRANCH   1  10
HETATM   10  C2  UNL     1      88.641  99.395 -43.576  1.00  0.00     0.036 C 
HETATM   11  C1  UNL     1      88.335  98.104 -44.279  1.00  0.00     0.038 C 
HETATM   12  C3  UNL     1      88.012 100.516 -44.417  1.00  0.00     0.038 C 
HETATM   13  C4  UNL     1      88.076  99.422 -42.169  1.00  0.00     0.038 C 
ENDBRANCH   1  10
BRANCH   8  14
HETATM   14  C10 UNL     1      91.679 100.559 -40.897  1.00  0.00     0.165 C 
BRANCH  14  15
HETATM   15  C11 UNL     1      92.353 101.876 -41.142  1.00  0.00     0.249 C 
BRANCH  15  16
HETATM   16  N5  UNL     1      93.345 101.832 -42.171  1.00  0.00    -0.078 N 
ATOM     17  H53 UNL     1      94.049 102.556 -42.024  1.00  0.00     0.274 HD
ATOM     18  H52 UNL     1      93.930 101.003 -42.071  1.00  0.00     0.274 HD
ATOM     19  H51 UNL     1      92.960 101.890 -43.114  1.00  0.00     0.274 HD
ENDBRANCH  15  16
ENDBRANCH  14  15
ENDBRANCH   8  14
BRANCH   6  20
HETATM   20  C7  UNL     1      91.184  95.402 -41.608  1.00  0.00     0.315 C 
HETATM   21  O2  UNL     1      90.633  94.703 -40.727  1.00  0.00    -0.262 OA
HETATM   22  N3  UNL     1      91.778  94.775 -42.744  1.00  0.00    -0.312 N 
ATOM     23  H3  UNL     1      92.228  95.338 -43.466  1.00  0.00     0.170 HD
BRANCH  22  24
HETATM   24  C8  UNL     1      91.740  93.353 -42.863  1.00  0.00     0.089 C 
HETATM   25 BR1  UNL     1      92.346  92.311 -41.406  1.00  0.00    -0.031 Br
HETATM   26  C9  UNL     1      91.293  92.784 -43.961  1.00  0.00     0.093 C 
HETATM   27 BR2  UNL     1      90.697  93.885 -45.391  1.00  0.00    -0.061 Br
ENDBRANCH  22  24
ENDBRANCH   6  20
TORSDOF 6
ENDMDL
MODEL 2
REMARK VINA RESULT: -5.365631025      3.552      7.358
REMARK  6 active torsions:
REMARK  status: ('A' for Active; 'I' for Inactive)
REMARK    1  A    between atoms: C2_2  and  N1_5 
REMARK       I    between atoms: N1_5  and  C5_7 
REMARK       I    between atoms: C5_7  and  N4_20 
REMARK       I    between atoms: N2_8  and  C6_10 
REMARK    2  A    between atoms: C6_10  and  C7_12 
REMARK       I    between atoms: C7_12  and  N3_14 
REMARK    3  A    between atoms: N3_14  and  C8_16 
REMARK    4  A    between atoms: N4_20  and  C10_22 
REMARK    5  A    between atoms: C10_22  and  C11_23 
REMARK    6  A    between atoms: C11_23  and  N5_24 
ROOT
HETATM    1  N1  UNL     1      92.611  93.181 -43.271  1.00  0.00    -0.218 N 
ATOM      2  H1  UNL     1      93.482  92.723 -43.540  1.00  0.00     0.178 HD
HETATM    3  C5  UNL     1      91.771  93.759 -44.275  1.00  0.00     0.677 C 
HETATM    4  N2  UNL     1      91.130  94.811 -43.914  1.00  0.00    -0.152 N 
ATOM      5  H2  UNL     1      91.243  95.174 -42.967  1.00  0.00     0.188 HD
HETATM    6  C6  UNL     1      90.275  95.465 -44.818  1.00  0.00     0.328 C 
HETATM    7  O1  UNL     1      89.859  94.843 -45.820  1.00  0.00    -0.261 OA
HETATM    8  N4  UNL     1      91.686  93.173 -45.572  1.00  0.00    -0.225 N 
ATOM      9  H4  UNL     1      92.071  93.648 -46.388  1.00  0.00     0.177 HD
ENDROOT
BRANCH   1  10
HETATM   10  C2  UNL     1      92.236  93.242 -41.887  1.00  0.00     0.036 C 
HETATM   11  C1  UNL     1      91.232  94.313 -41.571  1.00  0.00     0.038 C 
HETATM   12  C3  UNL     1      93.501  93.570 -41.081  1.00  0.00     0.038 C 
HETATM   13  C4  UNL     1      91.727  91.862 -41.518  1.00  0.00     0.038 C 
ENDBRANCH   1  10
BRANCH   8  14
HETATM   14  C10 UNL     1      91.042  91.892 -45.697  1.00  0.00     0.165 C 
BRANCH  14  15
HETATM   15  C11 UNL     1      91.197  91.251 -47.045  1.00  0.00     0.249 C 
BRANCH  15  16
HETATM   16  N5  UNL     1      92.431  90.546 -47.207  1.00  0.00    -0.078 N 
ATOM     17  H53 UNL     1      93.184  91.190 -47.451  1.00  0.00     0.274 HD
ATOM     18  H52 UNL     1      92.776  90.212 -46.308  1.00  0.00     0.274 HD
ATOM     19  H51 UNL     1      92.380  89.781 -47.880  1.00  0.00     0.274 HD
ENDBRANCH  15  16
ENDBRANCH  14  15
ENDBRANCH   8  14
BRANCH   6  20
HETATM   20  C7  UNL     1      89.849  96.866 -44.617  1.00  0.00     0.315 C 
HETATM   21  O2  UNL     1      89.045  97.440 -45.388  1.00  0.00    -0.262 OA
HETATM   22  N3  UNL     1      90.388  97.573 -43.500  1.00  0.00    -0.312 N 
ATOM     23  H3  UNL     1      91.042  97.112 -42.867  1.00  0.00     0.170 HD
BRANCH  22  24
HETATM   24  C8  UNL     1      90.005  98.929 -43.273  1.00  0.00     0.089 C 
HETATM   25 BR1  UNL     1      88.371  99.267 -42.383  1.00  0.00    -0.031 Br
HETATM   26  C9  UNL     1      90.771  99.918 -43.675  1.00  0.00     0.093 C 
HETATM   27 BR2  UNL     1      92.402  99.515 -44.564  1.00  0.00    -0.061 Br
ENDBRANCH  22  24
ENDBRANCH   6  20
TORSDOF 6
ENDMDL
MODEL 3
REMARK VINA RESULT: -5.217399711      2.267      3.054
REMARK  6 active torsions:
REMARK  status: ('A' for Active; 'I' for Inactive)
REMARK    1  A    between atoms: C2_2  and  N1_5 
REMARK       I    between atoms: N1_5  and  C5_7 
REMARK       I    between atoms: C5_7  and  N4_20 
REMARK       I    between atoms: N2_8  and  C6_10 
REMARK    2  A    between atoms: C6_10  and  C7_12 
REMARK       I    between atoms: C7_12  and  N3_14 
REMARK    3  A    between atoms: N3_14  and  C8_16 
REMARK    4  A    between atoms: N4_20  and  C10_22 
REMARK    5  A    between atoms: C10_22  and  C11_23 
REMARK    6  A    between atoms: C11_23  and  N5_24 
ROOT
HETATM    1  N1  UNL     1      87.354  99.280 -44.899  1.00  0.00    -0.218 N 
ATOM      2  H1  UNL     1      87.229 100.221 -45.273  1.00  0.00     0.178 HD
HETATM    3  C5  UNL     1      88.575  98.933 -44.240  1.00  0.00     0.677 C 
HETATM    4  N2  UNL     1      88.951  97.714 -44.390  1.00  0.00    -0.152 N 
ATOM      5  H2  UNL     1      88.386  97.073 -44.947  1.00  0.00     0.188 HD
HETATM    6  C6  UNL     1      90.137  97.259 -43.789  1.00  0.00     0.328 C 
HETATM    7  O1  UNL     1      90.623  97.907 -42.836  1.00  0.00    -0.261 OA
HETATM    8  N4  UNL     1      89.292  99.907 -43.485  1.00  0.00    -0.225 N 
ATOM      9  H4  UNL     1      90.195 100.258 -43.804  1.00  0.00     0.177 HD
ENDROOT
BRANCH   1  10
HETATM   10  C2  UNL     1      86.302  98.313 -45.036  1.00  0.00     0.036 C 
HETATM   11  C1  UNL     1      86.699  97.080 -45.795  1.00  0.00     0.038 C 
HETATM   12  C3  UNL     1      85.167  98.976 -45.831  1.00  0.00     0.038 C 
HETATM   13  C4  UNL     1      85.832  97.988 -43.631  1.00  0.00     0.038 C 
ENDBRANCH   1  10
BRANCH   8  14
HETATM   14  C10 UNL     1      88.706 100.380 -42.259  1.00  0.00     0.165 C 
BRANCH  14  15
HETATM   15  C11 UNL     1      89.655 101.127 -41.368  1.00  0.00     0.249 C 
BRANCH  15  16
HETATM   16  N5  UNL     1      90.860 100.411 -41.083  1.00  0.00    -0.078 N 
ATOM     17  H53 UNL     1      90.720  99.768 -40.305  1.00  0.00     0.274 HD
ATOM     18  H52 UNL     1      91.064  99.742 -41.825  1.00  0.00     0.274 HD
ATOM     19  H51 UNL     1      91.664 101.015 -40.912  1.00  0.00     0.274 HD
ENDBRANCH  15  16
ENDBRANCH  14  15
ENDBRANCH   8  14
BRANCH   6  20
HETATM   20  C7  UNL     1      90.826  96.034 -44.247  1.00  0.00     0.315 C 
HETATM   21  O2  UNL     1      91.572  96.021 -45.253  1.00  0.00    -0.262 OA
HETATM   22  N3  UNL     1      90.619  94.835 -43.501  1.00  0.00    -0.312 N 
ATOM     23  H3  UNL     1      90.014  94.839 -42.679  1.00  0.00     0.170 HD
BRANCH  22  24
HETATM   24  C8  UNL     1      91.263  93.629 -43.913  1.00  0.00     0.089 C 
HETATM   25 BR1  UNL     1      90.896  92.958 -45.643  1.00  0.00    -0.031 Br
HETATM   26  C9  UNL     1      92.091  93.003 -43.107  1.00  0.00     0.093 C 
HETATM   27 BR2  UNL     1      92.420  93.727 -41.381  1.00  0.00    -0.061 Br
ENDBRANCH  22  24
ENDBRANCH   6  20
TORSDOF 6
ENDMDL
MODEL 4
REMARK VINA RESULT: -5.208998093      3.528      7.316
REMARK  6 active torsions:
REMARK  status: ('A' for Active; 'I' for Inactive)
REMARK    1  A    between atoms: C2_2  and  N1_5 
REMARK       I    between atoms: N1_5  and  C5_7 
REMARK       I    between atoms: C5_7  and  N4_20 
REMARK       I    between atoms: N2_8  and  C6_10 
REMARK    2  A    between atoms: C6_10  and  C7_12 
REMARK       I    between atoms: C7_12  and  N3_14 
REMARK    3  A    between atoms: N3_14  and  C8_16 
REMARK    4  A    between atoms: N4_20  and  C10_22 
REMARK    5  A    between atoms: C10_22  and  C11_23 
REMARK    6  A    between atoms: C11_23  and  N5_24 
ROOT
HETATM    1  N1  UNL     1      92.561  93.097 -43.238  1.00  0.00    -0.218 N 
ATOM      2  H1  UNL     1      93.355  92.511 -43.496  1.00  0.00     0.178 HD
HETATM    3  C5  UNL     1      91.846  93.814 -44.248  1.00  0.00     0.677 C 
HETATM    4  N2  UNL     1      91.371  94.949 -43.883  1.00  0.00    -0.152 N 
ATOM      5  H2  UNL     1      91.517  95.277 -42.928  1.00  0.00     0.188 HD
HETATM    6  C6  UNL     1      90.651  95.742 -44.792  1.00  0.00     0.328 C 
HETATM    7  O1  UNL     1      90.165  95.208 -45.814  1.00  0.00    -0.261 OA
HETATM    8  N4  UNL     1      91.700  93.267 -45.557  1.00  0.00    -0.225 N 
ATOM      9  H4  UNL     1      92.174  93.687 -46.357  1.00  0.00     0.177 HD
ENDROOT
BRANCH   1  10
HETATM   10  C2  UNL     1      92.169  93.198 -41.861  1.00  0.00     0.036 C 
HETATM   11  C1  UNL     1      91.028  94.143 -41.616  1.00  0.00     0.038 C 
HETATM   12  C3  UNL     1      93.371  93.744 -41.077  1.00  0.00     0.038 C 
HETATM   13  C4  UNL     1      91.845  91.789 -41.402  1.00  0.00     0.038 C 
ENDBRANCH   1  10
BRANCH   8  14
HETATM   14  C10 UNL     1      90.866  92.106 -45.718  1.00  0.00     0.165 C 
BRANCH  14  15
HETATM   15  C11 UNL     1      91.036  91.399 -47.030  1.00  0.00     0.249 C 
BRANCH  15  16
HETATM   16  N5  UNL     1      92.285  90.714 -47.156  1.00  0.00    -0.078 N 
ATOM     17  H53 UNL     1      92.367  90.283 -48.076  1.00  0.00     0.274 HD
ATOM     18  H52 UNL     1      93.056  91.378 -47.208  1.00  0.00     0.274 HD
ATOM     19  H51 UNL     1      92.451  90.026 -46.420  1.00  0.00     0.274 HD
ENDBRANCH  15  16
ENDBRANCH  14  15
ENDBRANCH   8  14
BRANCH   6  20
HETATM   20  C7  UNL     1      90.446  97.191 -44.577  1.00  0.00     0.315 C 
HETATM   21  O2  UNL     1      90.742  98.046 -45.443  1.00  0.00    -0.262 OA
HETATM   22  N3  UNL     1      89.892  97.607 -43.329  1.00  0.00    -0.312 N 
ATOM     23  H3  UNL     1      89.647  96.916 -42.620  1.00  0.00     0.170 HD
BRANCH  22  24
HETATM   24  C8  UNL     1      89.682  98.996 -43.080  1.00  0.00     0.089 C 
HETATM   25 BR1  UNL     1      91.140 100.029 -42.460  1.00  0.00    -0.031 Br
HETATM   26  C9  UNL     1      88.503  99.543 -43.278  1.00  0.00     0.093 C 
HETATM   27 BR2  UNL     1      87.077  98.453 -43.902  1.00  0.00    -0.061 Br
ENDBRANCH  22  24
ENDBRANCH   6  20
TORSDOF 6
ENDMDL
MODEL 5
REMARK VINA RESULT: -5.164340297      2.379      4.076
REMARK  6 active torsions:
REMARK  status: ('A' for Active; 'I' for Inactive)
REMARK    1  A    between atoms: C2_2  and  N1_5 
REMARK       I    between atoms: N1_5  and  C5_7 
REMARK       I    between atoms: C5_7  and  N4_20 
REMARK       I    between atoms: N2_8  and  C6_10 
REMARK    2  A    between atoms: C6_10  and  C7_12 
REMARK       I    between atoms: C7_12  and  N3_14 
REMARK    3  A    between atoms: N3_14  and  C8_16 
REMARK    4  A    between atoms: N4_20  and  C10_22 
REMARK    5  A    between atoms: C10_22  and  C11_23 
REMARK    6  A    between atoms: C11_23  and  N5_24 
ROOT
HETATM    1  N1  UNL     1      89.677  99.650 -41.833  1.00  0.00    -0.218 N 
ATOM      2  H1  UNL     1      89.029  99.933 -41.098  1.00  0.00     0.178 HD
HETATM    3  C5  UNL     1      89.247  98.740 -42.849  1.00  0.00     0.677 C 
HETATM    4  N2  UNL     1      90.153  97.945 -43.292  1.00  0.00    -0.152 N 
ATOM      5  H2  UNL     1      91.100  97.995 -42.917  1.00  0.00     0.188 HD
HETATM    6  C6  UNL     1      89.845  97.007 -44.292  1.00  0.00     0.328 C 
HETATM    7  O1  UNL     1      88.825  97.179 -44.995  1.00  0.00    -0.261 OA
HETATM    8  N4  UNL     1      87.896  98.750 -43.304  1.00  0.00    -0.225 N 
ATOM      9  H4  UNL     1      87.268  97.972 -43.100  1.00  0.00     0.177 HD
ENDROOT
BRANCH   1  10
HETATM   10  C2  UNL     1      91.016 100.169 -41.842  1.00  0.00     0.036 C 
HETATM   11  C1  UNL     1      91.519 100.543 -43.206  1.00  0.00     0.038 C 
HETATM   12  C3  UNL     1      91.942  99.063 -41.317  1.00  0.00     0.038 C 
HETATM   13  C4  UNL     1      91.024 101.350 -40.890  1.00  0.00     0.038 C 
ENDBRANCH   1  10
BRANCH   8  14
HETATM   14  C10 UNL     1      87.442  99.888 -44.059  1.00  0.00     0.165 C 
BRANCH  14  15
HETATM   15  C11 UNL     1      86.231 100.565 -43.490  1.00  0.00     0.249 C 
BRANCH  15  16
HETATM   16  N5  UNL     1      86.303 100.779 -42.078  1.00  0.00    -0.078 N 
ATOM     17  H53 UNL     1      85.908  99.985 -41.573  1.00  0.00     0.274 HD
ATOM     18  H52 UNL     1      87.269 100.725 -41.754  1.00  0.00     0.274 HD
ATOM     19  H51 UNL     1      85.870 101.651 -41.773  1.00  0.00     0.274 HD
ENDBRANCH  15  16
ENDBRANCH  14  15
ENDBRANCH   8  14
BRANCH   6  20
HETATM   20  C7  UNL     1      90.693  95.821 -44.540  1.00  0.00     0.315 C 
HETATM   21  O2  UNL     1      91.685  95.854 -45.305  1.00  0.00    -0.262 OA
HETATM   22  N3  UNL     1      90.350  94.606 -43.874  1.00  0.00    -0.312 N 
ATOM     23  H3  UNL     1      89.545  94.572 -43.248  1.00  0.00     0.170 HD
BRANCH  22  24
HETATM   24  C8  UNL     1      91.141  93.437 -44.090  1.00  0.00     0.089 C 
HETATM   25 BR1  UNL     1      91.035  92.576 -45.770  1.00  0.00    -0.031 Br
HETATM   26  C9  UNL     1      91.924  92.973 -43.142  1.00  0.00     0.093 C 
HETATM   27 BR2  UNL     1      91.989  93.884 -41.474  1.00  0.00    -0.061 Br
ENDBRANCH  22  24
ENDBRANCH   6  20
TORSDOF 6
ENDMDL
