MODEL 1
REMARK VINA RESULT: -6.017613947      0.000      0.000
REMARK  5 active torsions:
REMARK  status: ('A' for Active; 'I' for Inactive)
REMARK    1  A    between atoms: C3_3  and  C4_4 
REMARK    2  A    between atoms: C5_5  and  C6_6 
REMARK    3  A    between atoms: C6_6  and  C7_7 
REMARK    4  A    between atoms: C7_7  and  N1_8 
REMARK       I    between atoms: N1_8  and  C8_10 
REMARK       I    between atoms: C8_10  and  N3_14 
REMARK    5  A    between atoms: N3_14  and  C9_16 
ROOT
HETATM    1  C1  UNL     1      91.177  91.387 -47.165  1.00  0.00     0.113 C 
HETATM    2  C2  UNL     1      91.188  92.084 -45.871  1.00  0.00    -0.097 C 
HETATM    3  C3  UNL     1      91.182  92.665 -44.809  1.00  0.00    -0.015 C 
ENDROOT
BRANCH   3   4
HETATM    4  C4  UNL     1      91.153  93.336 -43.554  1.00  0.00    -0.015 C 
HETATM    5  C5  UNL     1      91.130  93.886 -42.482  1.00  0.00    -0.091 C 
BRANCH   5   6
HETATM    6  C6  UNL     1      91.088  94.548 -41.154  1.00  0.00     0.115 C 
BRANCH   6   7
HETATM    7  C7  UNL     1      91.961  95.761 -41.248  1.00  0.00     0.150 C 
BRANCH   7   8
HETATM    8  N1  UNL     1      91.112  96.924 -41.048  1.00  0.00    -0.226 N 
HETATM    9  C8  UNL     1      91.669  98.213 -41.268  1.00  0.00     0.668 C 
HETATM   10  N2  UNL     1      92.213  98.890 -40.332  1.00  0.00    -0.235 N 
HETATM   11  N3  UNL     1      91.592  98.712 -42.598  1.00  0.00    -0.211 N 
ATOM     12  H22 UNL     1      92.268  98.532 -39.378  1.00  0.00     0.174 HD
ATOM     13  H21 UNL     1      92.612  99.815 -40.490  1.00  0.00     0.174 HD
ATOM     14  H3  UNL     1      92.449  99.028 -43.052  1.00  0.00     0.178 HD
ATOM     15  H1  UNL     1      90.141  96.818 -40.758  1.00  0.00     0.177 HD
BRANCH  11  16
HETATM   16  C9  UNL     1      90.368  98.789 -43.322  1.00  0.00     0.223 C 
HETATM   17  C10 UNL     1      90.694  98.609 -44.785  1.00  0.00     0.245 C 
HETATM   18  O1  UNL     1      90.490  97.613 -45.513  1.00  0.00    -0.271 OA
HETATM   19  N4  UNL     1      91.298  99.828 -45.187  1.00  0.00    -0.352 N 
HETATM   20  C11 UNL     1      92.064  99.981 -46.415  1.00  0.00     0.152 C 
HETATM   21  C12 UNL     1      91.025 100.862 -44.186  1.00  0.00     0.160 C 
HETATM   22  C13 UNL     1      89.891 100.231 -43.379  1.00  0.00     0.121 C 
HETATM   23 BR1  UNL     1      88.279 100.344 -44.467  1.00  0.00    -0.068 Br
HETATM   24 BR2  UNL     1      89.620 101.039 -41.680  1.00  0.00    -0.068 Br
ENDBRANCH  11  16
ENDBRANCH   7   8
ENDBRANCH   6   7
ENDBRANCH   5   6
ENDBRANCH   3   4
TORSDOF 5
ENDMDL
MODEL 2
REMARK VINA RESULT: -5.683999604      1.339      1.794
REMARK  5 active torsions:
REMARK  status: ('A' for Active; 'I' for Inactive)
REMARK    1  A    between atoms: C3_3  and  C4_4 
REMARK    2  A    between atoms: C5_5  and  C6_6 
REMARK    3  A    between atoms: C6_6  and  C7_7 
REMARK    4  A    between atoms: C7_7  and  N1_8 
REMARK       I    between atoms: N1_8  and  C8_10 
REMARK       I    between atoms: C8_10  and  N3_14 
REMARK    5  A    between atoms: N3_14  and  C9_16 
ROOT
HETATM    1  C1  UNL     1      91.156  90.267 -48.573  1.00  0.00     0.113 C 
HETATM    2  C2  UNL     1      91.181  91.079 -47.347  1.00  0.00    -0.097 C 
HETATM    3  C3  UNL     1      91.207  91.761 -46.348  1.00  0.00    -0.015 C 
ENDROOT
BRANCH   3   4
HETATM    4  C4  UNL     1      91.219  92.578 -45.183  1.00  0.00    -0.015 C 
HETATM    5  C5  UNL     1      91.228  93.254 -44.185  1.00  0.00    -0.091 C 
BRANCH   5   6
HETATM    6  C6  UNL     1      91.221  94.075 -42.948  1.00  0.00     0.115 C 
BRANCH   6   7
HETATM    7  C7  UNL     1      91.218  95.508 -43.380  1.00  0.00     0.150 C 
BRANCH   7   8
HETATM    8  N1  UNL     1      90.533  96.272 -42.349  1.00  0.00    -0.226 N 
HETATM    9  C8  UNL     1      91.315  97.023 -41.432  1.00  0.00     0.668 C 
HETATM   10  N2  UNL     1      91.709  96.542 -40.317  1.00  0.00    -0.235 N 
HETATM   11  N3  UNL     1      91.644  98.350 -41.827  1.00  0.00    -0.211 N 
ATOM     12  H22 UNL     1      91.473  95.591 -40.034  1.00  0.00     0.174 HD
ATOM     13  H21 UNL     1      92.271  97.082 -39.658  1.00  0.00     0.174 HD
ATOM     14  H3  UNL     1      92.624  98.633 -41.822  1.00  0.00     0.178 HD
ATOM     15  H1  UNL     1      89.515  96.267 -42.287  1.00  0.00     0.177 HD
BRANCH  11  16
HETATM   16  C9  UNL     1      90.662  99.299 -42.228  1.00  0.00     0.223 C 
HETATM   17  C10 UNL     1      90.516  99.196 -43.727  1.00  0.00     0.245 C 
HETATM   18  O1  UNL     1      89.582  98.690 -44.387  1.00  0.00    -0.271 OA
HETATM   19  N4  UNL     1      91.682  99.804 -44.259  1.00  0.00    -0.352 N 
HETATM   20  C11 UNL     1      92.120  99.637 -45.637  1.00  0.00     0.152 C 
HETATM   21  C12 UNL     1      92.339 100.597 -43.217  1.00  0.00     0.160 C 
HETATM   22  C13 UNL     1      91.241 100.703 -42.159  1.00  0.00     0.121 C 
HETATM   23 BR1  UNL     1      89.931 101.984 -42.817  1.00  0.00    -0.068 Br
HETATM   24 BR2  UNL     1      91.881 101.208 -40.442  1.00  0.00    -0.068 Br
ENDBRANCH  11  16
ENDBRANCH   7   8
ENDBRANCH   6   7
ENDBRANCH   5   6
ENDBRANCH   3   4
TORSDOF 5
ENDMDL
MODEL 3
REMARK VINA RESULT: -5.432244012      1.317      1.389
REMARK  5 active torsions:
REMARK  status: ('A' for Active; 'I' for Inactive)
REMARK    1  A    between atoms: C3_3  and  C4_4 
REMARK    2  A    between atoms: C5_5  and  C6_6 
REMARK    3  A    between atoms: C6_6  and  C7_7 
REMARK    4  A    between atoms: C7_7  and  N1_8 
REMARK       I    between atoms: N1_8  and  C8_10 
REMARK       I    between atoms: C8_10  and  N3_14 
REMARK    5  A    between atoms: N3_14  and  C9_16 
ROOT
HETATM    1  C1  UNL     1      91.089  90.876 -47.875  1.00  0.00     0.113 C 
HETATM    2  C2  UNL     1      91.102  91.616 -46.605  1.00  0.00    -0.097 C 
HETATM    3  C3  UNL     1      91.126  92.235 -45.565  1.00  0.00    -0.015 C 
ENDROOT
BRANCH   3   4
HETATM    4  C4  UNL     1      91.145  92.984 -44.356  1.00  0.00    -0.015 C 
HETATM    5  C5  UNL     1      91.154  93.634 -43.340  1.00  0.00    -0.091 C 
BRANCH   5   6
HETATM    6  C6  UNL     1      91.171  94.452 -42.102  1.00  0.00     0.115 C 
BRANCH   6   7
HETATM    7  C7  UNL     1      91.398  95.871 -42.524  1.00  0.00     0.150 C 
BRANCH   7   8
HETATM    8  N1  UNL     1      90.775  96.726 -41.527  1.00  0.00    -0.226 N 
HETATM    9  C8  UNL     1      91.359  97.994 -41.264  1.00  0.00     0.668 C 
HETATM   10  N2  UNL     1      92.234  98.166 -40.350  1.00  0.00    -0.235 N 
HETATM   11  N3  UNL     1      90.918  99.071 -42.082  1.00  0.00    -0.211 N 
ATOM     12  H22 UNL     1      92.550  97.394 -39.763  1.00  0.00     0.174 HD
ATOM     13  H21 UNL     1      92.652  99.077 -40.161  1.00  0.00     0.174 HD
ATOM     14  H3  UNL     1      91.615  99.627 -42.576  1.00  0.00     0.178 HD
ATOM     15  H1  UNL     1      89.938  96.423 -41.029  1.00  0.00     0.177 HD
BRANCH  11  16
HETATM   16  C9  UNL     1      89.543  99.404 -42.241  1.00  0.00     0.223 C 
HETATM   17  C10 UNL     1      89.157  99.073 -43.663  1.00  0.00     0.245 C 
HETATM   18  O1  UNL     1      88.464  98.120 -44.083  1.00  0.00    -0.271 OA
HETATM   19  N4  UNL     1      89.752 100.087 -44.458  1.00  0.00    -0.352 N 
HETATM   20  C11 UNL     1      89.920  99.985 -45.900  1.00  0.00     0.152 C 
HETATM   21  C12 UNL     1      90.151 101.208 -43.602  1.00  0.00     0.160 C 
HETATM   22  C13 UNL     1      89.381 100.914 -42.314  1.00  0.00     0.121 C 
HETATM   23 BR1  UNL     1      87.514 101.356 -42.646  1.00  0.00    -0.068 Br
HETATM   24 BR2  UNL     1      90.042 101.850 -40.798  1.00  0.00    -0.068 Br
ENDBRANCH  11  16
ENDBRANCH   7   8
ENDBRANCH   6   7
ENDBRANCH   5   6
ENDBRANCH   3   4
TORSDOF 5
ENDMDL
MODEL 4
REMARK VINA RESULT: -5.388820601      2.523      3.349
REMARK  5 active torsions:
REMARK  status: ('A' for Active; 'I' for Inactive)
REMARK    1  A    between atoms: C3_3  and  C4_4 
REMARK    2  A    between atoms: C5_5  and  C6_6 
REMARK    3  A    between atoms: C6_6  and  C7_7 
REMARK    4  A    between atoms: C7_7  and  N1_8 
REMARK       I    between atoms: N1_8  and  C8_10 
REMARK       I    between atoms: C8_10  and  N3_14 
REMARK    5  A    between atoms: N3_14  and  C9_16 
ROOT
HETATM    1  C1  UNL     1      91.066  91.391 -46.727  1.00  0.00     0.113 C 
HETATM    2  C2  UNL     1      91.189  92.208 -45.511  1.00  0.00    -0.097 C 
HETATM    3  C3  UNL     1      91.299  92.868 -44.502  1.00  0.00    -0.015 C 
ENDROOT
BRANCH   3   4
HETATM    4  C4  UNL     1      91.455  93.647 -43.321  1.00  0.00    -0.015 C 
HETATM    5  C5  UNL     1      91.605  94.310 -42.326  1.00  0.00    -0.091 C 
BRANCH   5   6
HETATM    6  C6  UNL     1      91.811  95.118 -41.098  1.00  0.00     0.115 C 
BRANCH   6   7
HETATM    7  C7  UNL     1      90.856  96.269 -41.173  1.00  0.00     0.150 C 
BRANCH   7   8
HETATM    8  N1  UNL     1      91.202  97.046 -42.351  1.00  0.00    -0.226 N 
HETATM    9  C8  UNL     1      90.266  98.002 -42.830  1.00  0.00     0.668 C 
HETATM   10  N2  UNL     1      89.388  97.715 -43.712  1.00  0.00    -0.235 N 
HETATM   11  N3  UNL     1      90.356  99.305 -42.267  1.00  0.00    -0.211 N 
ATOM     12  H22 UNL     1      89.324  96.780 -44.115  1.00  0.00     0.174 HD
ATOM     13  H21 UNL     1      88.717  98.402 -44.055  1.00  0.00     0.174 HD
ATOM     14  H3  UNL     1      89.519  99.719 -41.857  1.00  0.00     0.178 HD
ATOM     15  H1  UNL     1      92.095  96.908 -42.823  1.00  0.00     0.177 HD
BRANCH  11  16
HETATM   16  C9  UNL     1      91.566 100.055 -42.251  1.00  0.00     0.223 C 
HETATM   17  C10 UNL     1      91.622 100.798 -40.938  1.00  0.00     0.245 C 
HETATM   18  O1  UNL     1      92.335 100.563 -39.938  1.00  0.00    -0.271 OA
HETATM   19  N4  UNL     1      90.679 101.851 -41.063  1.00  0.00    -0.352 N 
HETATM   20  C11 UNL     1      90.164 102.608 -39.932  1.00  0.00     0.152 C 
HETATM   21  C12 UNL     1      90.329 102.029 -42.474  1.00  0.00     0.160 C 
HETATM   22  C13 UNL     1      91.443 101.254 -43.178  1.00  0.00     0.121 C 
HETATM   23 BR1  UNL     1      93.058 102.337 -43.063  1.00  0.00    -0.068 Br
HETATM   24 BR2  UNL     1      91.046 100.816 -44.984  1.00  0.00    -0.068 Br
ENDBRANCH  11  16
ENDBRANCH   7   8
ENDBRANCH   6   7
ENDBRANCH   5   6
ENDBRANCH   3   4
TORSDOF 5
ENDMDL
MODEL 5
REMARK VINA RESULT: -5.339585117      2.477      3.677
REMARK  5 active torsions:
REMARK  status: ('A' for Active; 'I' for Inactive)
REMARK    1  A    between atoms: C3_3  and  C4_4 
REMARK    2  A    between atoms: C5_5  and  C6_6 
REMARK    3  A    between atoms: C6_6  and  C7_7 
REMARK    4  A    between atoms: C7_7  and  N1_8 
REMARK       I    between atoms: N1_8  and  C8_10 
REMARK       I    between atoms: C8_10  and  N3_14 
REMARK    5  A    between atoms: N3_14  and  C9_16 
ROOT
HETATM    1  C1  UNL     1      90.331  90.061 -49.243  1.00  0.00     0.113 C 
HETATM    2  C2  UNL     1      90.615  90.811 -48.011  1.00  0.00    -0.097 C 
HETATM    3  C3  UNL     1      90.862  91.436 -47.004  1.00  0.00    -0.015 C 
ENDROOT
BRANCH   3   4
HETATM    4  C4  UNL     1      91.146  92.193 -45.833  1.00  0.00    -0.015 C 
HETATM    5  C5  UNL     1      91.402  92.841 -44.850  1.00  0.00    -0.091 C 
BRANCH   5   6
HETATM    6  C6  UNL     1      91.740  93.634 -43.641  1.00  0.00     0.115 C 
BRANCH   6   7
HETATM    7  C7  UNL     1      90.773  94.776 -43.589  1.00  0.00     0.150 C 
BRANCH   7   8
HETATM    8  N1  UNL     1      90.996  95.589 -44.773  1.00  0.00    -0.226 N 
HETATM    9  C8  UNL     1      89.868  96.142 -45.436  1.00  0.00     0.668 C 
HETATM   10  N2  UNL     1      89.276  95.539 -46.394  1.00  0.00    -0.235 N 
HETATM   11  N3  UNL     1      89.425  97.411 -44.970  1.00  0.00    -0.211 N 
ATOM     12  H22 UNL     1      89.594  94.629 -46.728  1.00  0.00     0.174 HD
ATOM     13  H21 UNL     1      88.466  95.937 -46.870  1.00  0.00     0.174 HD
ATOM     14  H3  UNL     1      88.447  97.518 -44.700  1.00  0.00     0.178 HD
ATOM     15  H1  UNL     1      91.940  95.758 -45.120  1.00  0.00     0.177 HD
BRANCH  11  16
HETATM   16  C9  UNL     1      90.289  98.537 -44.865  1.00  0.00     0.223 C 
HETATM   17  C10 UNL     1      90.238  99.017 -43.434  1.00  0.00     0.245 C 
HETATM   18  O1  UNL     1      91.101  98.893 -42.537  1.00  0.00    -0.271 OA
HETATM   19  N4  UNL     1      88.978  99.656 -43.299  1.00  0.00    -0.352 N 
HETATM   20  C11 UNL     1      88.369  99.972 -42.015  1.00  0.00     0.152 C 
HETATM   21  C12 UNL     1      88.424  99.929 -44.627  1.00  0.00     0.160 C 
HETATM   22  C13 UNL     1      89.647  99.746 -45.526  1.00  0.00     0.121 C 
HETATM   23 BR1  UNL     1      90.783 101.308 -45.278  1.00  0.00    -0.068 Br
HETATM   24 BR2  UNL     1      89.217  99.504 -47.361  1.00  0.00    -0.068 Br
ENDBRANCH  11  16
ENDBRANCH   7   8
ENDBRANCH   6   7
ENDBRANCH   5   6
ENDBRANCH   3   4
TORSDOF 5
ENDMDL
