MODEL 1
REMARK VINA RESULT: -6.166311642      0.000      0.000
REMARK  10 active torsions:
REMARK  status: ('A' for Active; 'I' for Inactive)
REMARK    1  A    between atoms: N1_5  and  C4_6 
REMARK    2  A    between atoms: C4_6  and  O1_7 
REMARK    3  A    between atoms: N2_9  and  C5_11 
REMARK    4  A    between atoms: C5_11  and  O2_12 
REMARK    5  A    between atoms: C5_11  and  N3_14 
REMARK    6  A    between atoms: C7_17  and  C8_18 
REMARK    7  A    between atoms: C7_17  and  C11_28 
REMARK    8  A    between atoms: C8_18  and  N4_19 
REMARK    9  A    between atoms: N4_19  and  C9_21 
REMARK   10  A    between atoms: C9_21  and  N5_23 
ROOT
HETATM    1  C1  UNL     1      88.889  96.881 -45.335  1.00  0.00     0.017 C 
HETATM    2  C2  UNL     1      89.877  97.411 -44.885  1.00  0.00    -0.048 C 
HETATM    3  C3  UNL     1      91.090  98.036 -44.352  1.00  0.00     0.277 A 
HETATM    4  F1  UNL     1      92.230  97.837 -45.118  1.00  0.00    -0.201 F 
HETATM    5  N1  UNL     1      91.268  98.214 -42.936  1.00  0.00    -0.276 N 
HETATM    6  C7  UNL     1      90.882  99.396 -43.729  1.00  0.00     0.150 A 
ENDROOT
BRANCH   5   7
HETATM    7  C4  UNL     1      91.562  97.800 -41.622  1.00  0.00     0.227 C 
HETATM    8  N2  UNL     1      91.512  96.553 -41.068  1.00  0.00    -0.288 N 
ATOM      9  H2  UNL     1      91.801  96.588 -40.090  1.00  0.00     0.173 HD
BRANCH   7  10
HETATM   10  O1  UNL     1      91.940  98.792 -40.826  1.00  0.00    -0.332 OA
ATOM     11  H1  UNL     1      92.741  98.610 -40.349  1.00  0.00     0.220 HD
ENDBRANCH   7  10
BRANCH   8  12
HETATM   12  C5  UNL     1      91.190  95.258 -41.426  1.00  0.00     0.219 C 
BRANCH  12  13
HETATM   13  O2  UNL     1      90.856  94.464 -40.421  1.00  0.00    -0.332 OA
ATOM     14  H2  UNL     1      91.584  94.131 -39.910  1.00  0.00     0.220 HD
ENDBRANCH  12  13
BRANCH  12  15
HETATM   15  N3  UNL     1      91.139  94.594 -42.645  1.00  0.00    -0.361 N 
HETATM   16  C6  UNL     1      91.872  93.336 -42.850  1.00  0.00     0.150 C 
ATOM     17  H3  UNL     1      90.587  94.985 -43.408  1.00  0.00     0.162 HD
ENDBRANCH  12  15
ENDBRANCH   8  12
ENDBRANCH   5   7
BRANCH   6  18
HETATM   18  C8  UNL     1      91.926 100.393 -44.041  1.00  0.00     0.165 C 
BRANCH  18  19
HETATM   19  N4  UNL     1      92.705 100.876 -42.945  1.00  0.00    -0.364 N 
ATOM     20  H4  UNL     1      93.638 100.506 -42.766  1.00  0.00     0.162 HD
BRANCH  19  21
HETATM   21  C9  UNL     1      92.148 101.887 -42.106  1.00  0.00     0.173 C 
HETATM   22  S1  UNL     1      91.257 103.134 -42.660  1.00  0.00    -0.041 SA
BRANCH  21  23
HETATM   23  N5  UNL     1      92.393 101.785 -40.684  1.00  0.00    -0.310 N 
HETATM   24  C10 UNL     1      93.542 102.109 -40.227  1.00  0.00     0.203 C 
HETATM   25  N6  UNL     1      94.546 102.563 -41.101  1.00  0.00    -0.066 NA
HETATM   26  N7  UNL     1      93.794 102.018 -38.843  1.00  0.00    -0.066 NA
ATOM     27  H5  UNL     1      91.660 101.458 -40.055  1.00  0.00     0.170 HD
ENDBRANCH  21  23
ENDBRANCH  19  21
ENDBRANCH  18  19
ENDBRANCH   6  18
BRANCH   6  28
HETATM   28  C11 UNL     1      89.464  99.852 -43.575  1.00  0.00    -0.022 A 
HETATM   29  C12 UNL     1      88.746  99.581 -42.444  1.00  0.00     0.013 A 
HETATM   30  C13 UNL     1      87.424 100.010 -42.274  1.00  0.00     0.043 A 
HETATM   31  C14 UNL     1      86.840 100.732 -43.296  1.00  0.00     0.116 A 
HETATM   32  F2  UNL     1      85.548 101.158 -43.136  1.00  0.00    -0.206 F 
HETATM   33  C15 UNL     1      87.547 101.012 -44.441  1.00  0.00     0.043 A 
HETATM   34  C16 UNL     1      88.848 100.583 -44.595  1.00  0.00     0.013 A 
ENDBRANCH   6  28
TORSDOF 10
ENDMDL
MODEL 2
REMARK VINA RESULT: -6.163513954      1.540      1.817
REMARK  10 active torsions:
REMARK  status: ('A' for Active; 'I' for Inactive)
REMARK    1  A    between atoms: N1_5  and  C4_6 
REMARK    2  A    between atoms: C4_6  and  O1_7 
REMARK    3  A    between atoms: N2_9  and  C5_11 
REMARK    4  A    between atoms: C5_11  and  O2_12 
REMARK    5  A    between atoms: C5_11  and  N3_14 
REMARK    6  A    between atoms: C7_17  and  C8_18 
REMARK    7  A    between atoms: C7_17  and  C11_28 
REMARK    8  A    between atoms: C8_18  and  N4_19 
REMARK    9  A    between atoms: N4_19  and  C9_21 
REMARK   10  A    between atoms: C9_21  and  N5_23 
ROOT
HETATM    1  C1  UNL     1      88.773  95.530 -45.973  1.00  0.00     0.017 C 
HETATM    2  C2  UNL     1      89.750  96.020 -45.456  1.00  0.00    -0.048 C 
HETATM    3  C3  UNL     1      90.947  96.593 -44.836  1.00  0.00     0.277 A 
HETATM    4  F1  UNL     1      92.148  96.149 -45.374  1.00  0.00    -0.201 F 
HETATM    5  N1  UNL     1      90.948  96.984 -43.452  1.00  0.00    -0.276 N 
HETATM    6  C7  UNL     1      90.832  98.051 -44.463  1.00  0.00     0.150 A 
ENDROOT
BRANCH   5   7
HETATM    7  C4  UNL     1      90.998  96.765 -42.061  1.00  0.00     0.227 C 
HETATM    8  N2  UNL     1      91.111  95.596 -41.365  1.00  0.00    -0.288 N 
ATOM      9  H2  UNL     1      91.134  95.783 -40.362  1.00  0.00     0.173 HD
BRANCH   7  10
HETATM   10  O1  UNL     1      90.922  97.881 -41.347  1.00  0.00    -0.332 OA
ATOM     11  H1  UNL     1      90.932  97.731 -40.409  1.00  0.00     0.220 HD
ENDBRANCH   7  10
BRANCH   8  12
HETATM   12  C5  UNL     1      91.204  94.238 -41.602  1.00  0.00     0.219 C 
BRANCH  12  13
HETATM   13  O2  UNL     1      91.895  93.557 -40.703  1.00  0.00    -0.332 OA
ATOM     14  H2  UNL     1      91.521  92.719 -40.456  1.00  0.00     0.220 HD
ENDBRANCH  12  13
BRANCH  12  15
HETATM   15  N3  UNL     1      90.713  93.414 -42.607  1.00  0.00    -0.361 N 
HETATM   16  C6  UNL     1      91.510  93.139 -43.812  1.00  0.00     0.150 C 
ATOM     17  H3  UNL     1      89.789  92.995 -42.508  1.00  0.00     0.162 HD
ENDBRANCH  12  15
ENDBRANCH   8  12
ENDBRANCH   5   7
BRANCH   6  18
HETATM   18  C8  UNL     1      92.031  98.866 -44.750  1.00  0.00     0.165 C 
BRANCH  18  19
HETATM   19  N4  UNL     1      92.629  99.545 -43.645  1.00  0.00    -0.364 N 
ATOM     20  H4  UNL     1      93.193  99.037 -42.964  1.00  0.00     0.162 HD
BRANCH  19  21
HETATM   21  C9  UNL     1      92.421 100.951 -43.515  1.00  0.00     0.173 C 
HETATM   22  S1  UNL     1      91.967 101.917 -44.746  1.00  0.00    -0.041 SA
BRANCH  21  23
HETATM   23  N5  UNL     1      92.624 101.538 -42.208  1.00  0.00    -0.310 N 
HETATM   24  C10 UNL     1      91.711 101.411 -41.321  1.00  0.00     0.203 C 
HETATM   25  N6  UNL     1      90.532 100.705 -41.619  1.00  0.00    -0.066 NA
HETATM   26  N7  UNL     1      91.897 101.974 -40.043  1.00  0.00    -0.066 NA
ATOM     27  H5  UNL     1      93.483 102.046 -41.997  1.00  0.00     0.170 HD
ENDBRANCH  21  23
ENDBRANCH  19  21
ENDBRANCH  18  19
ENDBRANCH   6  18
BRANCH   6  28
HETATM   28  C11 UNL     1      89.478  98.675 -44.605  1.00  0.00    -0.022 A 
HETATM   29  C12 UNL     1      88.515  98.515 -43.649  1.00  0.00     0.013 A 
HETATM   30  C13 UNL     1      87.248  99.100 -43.755  1.00  0.00     0.043 A 
HETATM   31  C14 UNL     1      86.978  99.864 -44.874  1.00  0.00     0.116 A 
HETATM   32  F2  UNL     1      85.742 100.442 -44.984  1.00  0.00    -0.206 F 
HETATM   33  C15 UNL     1      87.935 100.033 -45.846  1.00  0.00     0.043 A 
HETATM   34  C16 UNL     1      89.179  99.451 -45.728  1.00  0.00     0.013 A 
ENDBRANCH   6  28
TORSDOF 10
ENDMDL
MODEL 3
REMARK VINA RESULT: -6.078328501      1.142      1.510
REMARK  10 active torsions:
REMARK  status: ('A' for Active; 'I' for Inactive)
REMARK    1  A    between atoms: N1_5  and  C4_6 
REMARK    2  A    between atoms: C4_6  and  O1_7 
REMARK    3  A    between atoms: N2_9  and  C5_11 
REMARK    4  A    between atoms: C5_11  and  O2_12 
REMARK    5  A    between atoms: C5_11  and  N3_14 
REMARK    6  A    between atoms: C7_17  and  C8_18 
REMARK    7  A    between atoms: C7_17  and  C11_28 
REMARK    8  A    between atoms: C8_18  and  N4_19 
REMARK    9  A    between atoms: N4_19  and  C9_21 
REMARK   10  A    between atoms: C9_21  and  N5_23 
ROOT
HETATM    1  C1  UNL     1      88.880  96.824 -45.379  1.00  0.00     0.017 C 
HETATM    2  C2  UNL     1      89.873  97.342 -44.922  1.00  0.00    -0.048 C 
HETATM    3  C3  UNL     1      91.089  97.951 -44.380  1.00  0.00     0.277 A 
HETATM    4  F1  UNL     1      92.234  97.732 -45.136  1.00  0.00    -0.201 F 
HETATM    5  N1  UNL     1      91.257  98.133 -42.964  1.00  0.00    -0.276 N 
HETATM    6  C7  UNL     1      90.896  99.316 -43.765  1.00  0.00     0.150 A 
ENDROOT
BRANCH   5   7
HETATM    7  C4  UNL     1      91.533  97.719 -41.645  1.00  0.00     0.227 C 
HETATM    8  N2  UNL     1      91.486  96.472 -41.093  1.00  0.00    -0.288 N 
ATOM      9  H2  UNL     1      91.758  96.509 -40.111  1.00  0.00     0.173 HD
BRANCH   7  10
HETATM   10  O1  UNL     1      91.888  98.715 -40.843  1.00  0.00    -0.332 OA
ATOM     11  H1  UNL     1      92.450  99.356 -41.261  1.00  0.00     0.220 HD
ENDBRANCH   7  10
BRANCH   8  12
HETATM   12  C5  UNL     1      91.183  95.174 -41.458  1.00  0.00     0.219 C 
BRANCH  12  13
HETATM   13  O2  UNL     1      90.926  94.353 -40.452  1.00  0.00    -0.332 OA
ATOM     14  H2  UNL     1      91.516  94.426 -39.712  1.00  0.00     0.220 HD
ENDBRANCH  12  13
BRANCH  12  15
HETATM   15  N3  UNL     1      91.086  94.530 -42.686  1.00  0.00    -0.361 N 
HETATM   16  C6  UNL     1      91.873  93.320 -42.966  1.00  0.00     0.150 C 
ATOM     17  H3  UNL     1      90.461  94.902 -43.401  1.00  0.00     0.162 HD
ENDBRANCH  12  15
ENDBRANCH   8  12
ENDBRANCH   5   7
BRANCH   6  18
HETATM   18  C8  UNL     1      91.958 100.297 -44.071  1.00  0.00     0.165 C 
BRANCH  18  19
HETATM   19  N4  UNL     1      92.724 100.784 -42.969  1.00  0.00    -0.364 N 
ATOM     20  H4  UNL     1      93.312 100.153 -42.424  1.00  0.00     0.162 HD
BRANCH  19  21
HETATM   21  C9  UNL     1      92.648 102.172 -42.646  1.00  0.00     0.173 C 
HETATM   22  S1  UNL     1      93.952 103.123 -42.428  1.00  0.00    -0.041 SA
BRANCH  21  23
HETATM   23  N5  UNL     1      91.330 102.755 -42.512  1.00  0.00    -0.310 N 
HETATM   24  C10 UNL     1      90.624 102.463 -41.487  1.00  0.00     0.203 C 
HETATM   25  N6  UNL     1      91.130 101.590 -40.506  1.00  0.00    -0.066 NA
HETATM   26  N7  UNL     1      89.340 103.027 -41.340  1.00  0.00    -0.066 NA
ATOM     27  H5  UNL     1      90.971 103.390 -43.224  1.00  0.00     0.170 HD
ENDBRANCH  21  23
ENDBRANCH  19  21
ENDBRANCH  18  19
ENDBRANCH   6  18
BRANCH   6  28
HETATM   28  C11 UNL     1      89.483  99.794 -43.626  1.00  0.00    -0.022 A 
HETATM   29  C12 UNL     1      88.715  99.446 -42.551  1.00  0.00     0.013 A 
HETATM   30  C13 UNL     1      87.398  99.893 -42.394  1.00  0.00     0.043 A 
HETATM   31  C14 UNL     1      86.871 100.714 -43.371  1.00  0.00     0.116 A 
HETATM   32  F2  UNL     1      85.584 101.158 -43.225  1.00  0.00    -0.206 F 
HETATM   33  C15 UNL     1      87.629 101.073 -44.461  1.00  0.00     0.043 A 
HETATM   34  C16 UNL     1      88.926 100.625 -44.602  1.00  0.00     0.013 A 
ENDBRANCH   6  28
TORSDOF 10
ENDMDL
MODEL 4
REMARK VINA RESULT: -5.802212953      2.112      2.610
REMARK  10 active torsions:
REMARK  status: ('A' for Active; 'I' for Inactive)
REMARK    1  A    between atoms: N1_5  and  C4_6 
REMARK    2  A    between atoms: C4_6  and  O1_7 
REMARK    3  A    between atoms: N2_9  and  C5_11 
REMARK    4  A    between atoms: C5_11  and  O2_12 
REMARK    5  A    between atoms: C5_11  and  N3_14 
REMARK    6  A    between atoms: C7_17  and  C8_18 
REMARK    7  A    between atoms: C7_17  and  C11_28 
REMARK    8  A    between atoms: C8_18  and  N4_19 
REMARK    9  A    between atoms: N4_19  and  C9_21 
REMARK   10  A    between atoms: C9_21  and  N5_23 
ROOT
HETATM    1  C1  UNL     1      89.950  94.759 -45.732  1.00  0.00     0.017 C 
HETATM    2  C2  UNL     1      90.399  95.804 -45.322  1.00  0.00    -0.048 C 
HETATM    3  C3  UNL     1      90.968  97.059 -44.826  1.00  0.00     0.277 A 
HETATM    4  F1  UNL     1      92.304  97.258 -45.148  1.00  0.00    -0.201 F 
HETATM    5  N1  UNL     1      90.483  97.661 -43.613  1.00  0.00    -0.276 N 
HETATM    6  C7  UNL     1      90.037  98.246 -44.890  1.00  0.00     0.150 A 
ENDROOT
BRANCH   5   7
HETATM    7  C4  UNL     1      90.357  97.801 -42.217  1.00  0.00     0.227 C 
HETATM    8  N2  UNL     1      90.693  96.934 -41.218  1.00  0.00    -0.288 N 
ATOM      9  H2  UNL     1      90.486  97.344 -40.308  1.00  0.00     0.173 HD
BRANCH   7  10
HETATM   10  O1  UNL     1      89.829  98.961 -41.848  1.00  0.00    -0.332 OA
ATOM     11  H1  UNL     1      89.961  99.162 -40.929  1.00  0.00     0.220 HD
ENDBRANCH   7  10
BRANCH   8  12
HETATM   12  C5  UNL     1      91.228  95.669 -41.062  1.00  0.00     0.219 C 
BRANCH  12  13
HETATM   13  O2  UNL     1      92.399  95.626 -40.448  1.00  0.00    -0.332 OA
ATOM     14  H2  UNL     1      93.089  95.181 -40.924  1.00  0.00     0.220 HD
ENDBRANCH  12  13
BRANCH  12  15
HETATM   15  N3  UNL     1      90.788  94.401 -41.421  1.00  0.00    -0.361 N 
HETATM   16  C6  UNL     1      91.508  93.611 -42.432  1.00  0.00     0.150 C 
ATOM     17  H3  UNL     1      89.955  94.014 -40.979  1.00  0.00     0.162 HD
ENDBRANCH  12  15
ENDBRANCH   8  12
ENDBRANCH   5   7
BRANCH   6  18
HETATM   18  C8  UNL     1      90.665  99.510 -45.331  1.00  0.00     0.165 C 
BRANCH  18  19
HETATM   19  N4  UNL     1      90.474 100.651 -44.494  1.00  0.00    -0.364 N 
ATOM     20  H4  UNL     1      89.536 100.964 -44.246  1.00  0.00     0.162 HD
BRANCH  19  21
HETATM   21  C9  UNL     1      91.625 101.343 -44.011  1.00  0.00     0.173 C 
HETATM   22  S1  UNL     1      92.333 102.581 -44.798  1.00  0.00    -0.041 SA
BRANCH  21  23
HETATM   23  N5  UNL     1      92.183 100.911 -42.748  1.00  0.00    -0.310 N 
HETATM   24  C10 UNL     1      91.601 101.255 -41.662  1.00  0.00     0.203 C 
HETATM   25  N6  UNL     1      90.433 102.038 -41.705  1.00  0.00    -0.066 NA
HETATM   26  N7  UNL     1      92.130 100.838 -40.424  1.00  0.00    -0.066 NA
ATOM     27  H5  UNL     1      93.028 100.340 -42.723  1.00  0.00     0.170 HD
ENDBRANCH  21  23
ENDBRANCH  19  21
ENDBRANCH  18  19
ENDBRANCH   6  18
BRANCH   6  28
HETATM   28  C11 UNL     1      88.619  97.966 -45.279  1.00  0.00    -0.022 A 
HETATM   29  C12 UNL     1      87.634  97.835 -44.341  1.00  0.00     0.013 A 
HETATM   30  C13 UNL     1      86.300  97.587 -44.683  1.00  0.00     0.043 A 
HETATM   31  C14 UNL     1      85.984  97.471 -46.022  1.00  0.00     0.116 A 
HETATM   32  F2  UNL     1      84.681  97.231 -46.366  1.00  0.00    -0.206 F 
HETATM   33  C15 UNL     1      86.963  97.598 -46.980  1.00  0.00     0.043 A 
HETATM   34  C16 UNL     1      88.273  97.843 -46.628  1.00  0.00     0.013 A 
ENDBRANCH   6  28
TORSDOF 10
ENDMDL
MODEL 5
REMARK VINA RESULT: -5.528720508      3.865      6.368
REMARK  10 active torsions:
REMARK  status: ('A' for Active; 'I' for Inactive)
REMARK    1  A    between atoms: N1_5  and  C4_6 
REMARK    2  A    between atoms: C4_6  and  O1_7 
REMARK    3  A    between atoms: N2_9  and  C5_11 
REMARK    4  A    between atoms: C5_11  and  O2_12 
REMARK    5  A    between atoms: C5_11  and  N3_14 
REMARK    6  A    between atoms: C7_17  and  C8_18 
REMARK    7  A    between atoms: C7_17  and  C11_28 
REMARK    8  A    between atoms: C8_18  and  N4_19 
REMARK    9  A    between atoms: N4_19  and  C9_21 
REMARK   10  A    between atoms: C9_21  and  N5_23 
ROOT
HETATM    1  C1  UNL     1      90.905  99.918 -46.332  1.00  0.00     0.017 C 
HETATM    2  C2  UNL     1      89.863  99.968 -45.720  1.00  0.00    -0.048 C 
HETATM    3  C3  UNL     1      88.597 100.052 -44.988  1.00  0.00     0.277 A 
HETATM    4  F1  UNL     1      87.675 100.942 -45.524  1.00  0.00    -0.201 F 
HETATM    5  N1  UNL     1      88.547  99.823 -43.570  1.00  0.00    -0.276 N 
HETATM    6  C7  UNL     1      88.086  98.737 -44.452  1.00  0.00     0.150 A 
ENDROOT
BRANCH   5   7
HETATM    7  C4  UNL     1      88.724 100.160 -42.213  1.00  0.00     0.227 C 
HETATM    8  N2  UNL     1      89.873 100.281 -41.486  1.00  0.00    -0.288 N 
ATOM      9  H2  UNL     1      89.658 100.553 -40.527  1.00  0.00     0.173 HD
BRANCH   7  10
HETATM   10  O1  UNL     1      87.585 100.387 -41.572  1.00  0.00    -0.332 OA
ATOM     11  H1  UNL     1      87.284  99.645 -41.060  1.00  0.00     0.220 HD
ENDBRANCH   7  10
BRANCH   8  12
HETATM   12  C5  UNL     1      91.239 100.147 -41.651  1.00  0.00     0.219 C 
BRANCH  12  13
HETATM   13  O2  UNL     1      91.909  99.831 -40.555  1.00  0.00    -0.332 OA
ATOM     14  H2  UNL     1      92.278  98.956 -40.546  1.00  0.00     0.220 HD
ENDBRANCH  12  13
BRANCH  12  15
HETATM   15  N3  UNL     1      92.079 100.276 -42.750  1.00  0.00    -0.361 N 
HETATM   16  C6  UNL     1      92.381 101.599 -43.317  1.00  0.00     0.150 C 
ATOM     17  H3  UNL     1      92.492  99.443 -43.169  1.00  0.00     0.162 HD
ENDBRANCH  12  15
ENDBRANCH   8  12
ENDBRANCH   5   7
BRANCH   6  18
HETATM   18  C8  UNL     1      86.629  98.529 -44.592  1.00  0.00     0.165 C 
BRANCH  18  19
HETATM   19  N4  UNL     1      85.849  98.612 -43.399  1.00  0.00    -0.364 N 
ATOM     20  H4  UNL     1      86.275  98.453 -42.486  1.00  0.00     0.162 HD
BRANCH  19  21
HETATM   21  C9  UNL     1      84.460  98.922 -43.512  1.00  0.00     0.173 C 
HETATM   22  S1  UNL     1      83.523  98.438 -44.753  1.00  0.00    -0.041 SA
BRANCH  21  23
HETATM   23  N5  UNL     1      83.864  99.710 -42.455  1.00  0.00    -0.310 N 
HETATM   24  C10 UNL     1      84.199 100.937 -42.330  1.00  0.00     0.203 C 
HETATM   25  N6  UNL     1      85.131 101.508 -43.216  1.00  0.00    -0.066 NA
HETATM   26  N7  UNL     1      83.622 101.718 -41.308  1.00  0.00    -0.066 NA
ATOM     27  H5  UNL     1      83.185  99.291 -41.818  1.00  0.00     0.170 HD
ENDBRANCH  21  23
ENDBRANCH  19  21
ENDBRANCH  18  19
ENDBRANCH   6  18
BRANCH   6  28
HETATM   28  C11 UNL     1      89.003  97.560 -44.577  1.00  0.00    -0.022 A 
HETATM   29  C12 UNL     1      89.998  97.331 -43.669  1.00  0.00     0.013 A 
HETATM   30  C13 UNL     1      90.857  96.230 -43.759  1.00  0.00     0.043 A 
HETATM   31  C14 UNL     1      90.680  95.353 -44.811  1.00  0.00     0.116 A 
HETATM   32  F2  UNL     1      91.514  94.272 -44.905  1.00  0.00    -0.206 F 
HETATM   33  C15 UNL     1      89.685  95.569 -45.735  1.00  0.00     0.043 A 
HETATM   34  C16 UNL     1      88.845  96.658 -45.634  1.00  0.00     0.013 A 
ENDBRANCH   6  28
TORSDOF 10
ENDMDL
