MODEL 1
REMARK VINA RESULT: -7.972687103      0.000      0.000
REMARK  7 active torsions:
REMARK  status: ('A' for Active; 'I' for Inactive)
REMARK    1  A    between atoms: C2_2  and  C3_3 
REMARK    2  A    between atoms: C3_3  and  C4_4 
REMARK    3  A    between atoms: C4_4  and  N1_5 
REMARK    4  A    between atoms: C4_4  and  C13_21 
REMARK    5  A    between atoms: N1_5  and  C5_7 
REMARK    6  A    between atoms: C5_7  and  C6_8 
REMARK    7  A    between atoms: C10_12  and  C11_13 
ROOT
HETATM    1  C11 UNL     1      27.534  52.277 252.685  1.00  0.00     0.152 C 
HETATM    2  N2  UNL     1      27.227  53.687 252.455  1.00  0.00    -0.080 NA
HETATM    3  N3  UNL     1      28.105  52.058 253.757  1.00  0.00    -0.280 N 
ATOM      4  H3  UNL     1      28.260  52.916 254.287  1.00  0.00     0.179 HD
HETATM    5  C12 UNL     1      28.569  50.988 254.396  1.00  0.00     0.183 C 
HETATM    6  N4  UNL     1      28.989  50.067 254.985  1.00  0.00    -0.172 NA
ENDROOT
BRANCH   1   7
HETATM    7  C10 UNL     1      27.107  51.400 251.611  1.00  0.00     0.074 A 
HETATM    8  C9  UNL     1      25.812  51.043 251.336  1.00  0.00     0.033 A 
HETATM    9  C8  UNL     1      25.467  50.196 250.277  1.00  0.00     0.004 A 
HETATM   10  C7  UNL     1      26.473  49.714 249.499  1.00  0.00     0.027 A 
HETATM   11  C6  UNL     1      27.765  50.062 249.763  1.00  0.00     0.027 A 
HETATM   12  N5  UNL     1      28.047  50.866 250.772  1.00  0.00    -0.355 N 
ATOM     13  H5  UNL     1      29.025  51.102 250.937  1.00  0.00     0.166 HD
BRANCH  11  14
HETATM   14  C5  UNL     1      28.837  49.504 248.863  1.00  0.00     0.172 C 
BRANCH  14  15
HETATM   15  N1  UNL     1      29.496  50.575 248.197  1.00  0.00    -0.404 N 
ATOM     16  H1  UNL     1      30.461  50.825 248.412  1.00  0.00     0.154 HD
BRANCH  15  17
HETATM   17  C4  UNL     1      28.751  51.273 247.230  1.00  0.00     0.170 C 
BRANCH  17  18
HETATM   18  C3  UNL     1      29.524  51.691 246.016  1.00  0.00     0.060 C 
BRANCH  18  19
HETATM   19  C2  UNL     1      28.746  52.394 244.979  1.00  0.00    -0.034 C 
HETATM   20  C1  UNL     1      29.188  52.716 243.792  1.00  0.00     0.007 C 
ENDBRANCH  18  19
ENDBRANCH  17  18
BRANCH  17  21
HETATM   21  C13 UNL     1      28.134  52.523 247.817  1.00  0.00     0.253 C 
HETATM   22  N6  UNL     1      28.878  53.276 248.752  1.00  0.00    -0.060 NA
HETATM   23  O1  UNL     1      26.981  52.838 247.444  1.00  0.00    -0.275 OA
ENDBRANCH  17  21
ENDBRANCH  15  17
ENDBRANCH  14  15
ENDBRANCH  11  14
ENDBRANCH   1   7
TORSDOF 7
ENDMDL
MODEL 2
REMARK VINA RESULT: -7.971863570      1.317      1.871
REMARK  7 active torsions:
REMARK  status: ('A' for Active; 'I' for Inactive)
REMARK    1  A    between atoms: C2_2  and  C3_3 
REMARK    2  A    between atoms: C3_3  and  C4_4 
REMARK    3  A    between atoms: C4_4  and  N1_5 
REMARK    4  A    between atoms: C4_4  and  C13_21 
REMARK    5  A    between atoms: N1_5  and  C5_7 
REMARK    6  A    between atoms: C5_7  and  C6_8 
REMARK    7  A    between atoms: C10_12  and  C11_13 
ROOT
HETATM    1  C11 UNL     1      27.584  52.865 253.163  1.00  0.00     0.152 C 
HETATM    2  N2  UNL     1      27.355  54.303 253.284  1.00  0.00    -0.080 NA
HETATM    3  N3  UNL     1      28.122  52.359 254.152  1.00  0.00    -0.280 N 
ATOM      4  H3  UNL     1      28.311  53.050 254.877  1.00  0.00     0.179 HD
HETATM    5  C12 UNL     1      28.516  51.141 254.510  1.00  0.00     0.183 C 
HETATM    6  N4  UNL     1      28.876  50.081 254.857  1.00  0.00    -0.172 NA
ENDROOT
BRANCH   1   7
HETATM    7  C10 UNL     1      27.132  52.303 251.904  1.00  0.00     0.074 A 
HETATM    8  C9  UNL     1      26.263  51.252 251.762  1.00  0.00     0.033 A 
HETATM    9  C8  UNL     1      25.863  50.762 250.514  1.00  0.00     0.004 A 
HETATM   10  C7  UNL     1      26.368  51.366 249.405  1.00  0.00     0.027 A 
HETATM   11  C6  UNL     1      27.234  52.413 249.534  1.00  0.00     0.027 A 
HETATM   12  N5  UNL     1      27.585  52.844 250.731  1.00  0.00    -0.355 N 
ATOM     13  H5  UNL     1      28.234  53.629 250.785  1.00  0.00     0.166 HD
BRANCH  11  14
HETATM   14  C5  UNL     1      27.756  53.046 248.271  1.00  0.00     0.172 C 
BRANCH  14  15
HETATM   15  N1  UNL     1      29.150  52.783 248.156  1.00  0.00    -0.404 N 
ATOM     16  H1  UNL     1      29.827  53.200 248.795  1.00  0.00     0.154 HD
BRANCH  15  17
HETATM   17  C4  UNL     1      29.549  51.921 247.120  1.00  0.00     0.170 C 
BRANCH  17  18
HETATM   18  C3  UNL     1      28.722  52.004 245.873  1.00  0.00     0.060 C 
BRANCH  18  19
HETATM   19  C2  UNL     1      29.355  52.699 244.737  1.00  0.00    -0.034 C 
HETATM   20  C1  UNL     1      28.909  52.701 243.509  1.00  0.00     0.007 C 
ENDBRANCH  18  19
ENDBRANCH  17  18
BRANCH  17  21
HETATM   21  C13 UNL     1      29.525  50.478 247.574  1.00  0.00     0.253 C 
HETATM   22  N6  UNL     1      30.540  50.021 248.442  1.00  0.00    -0.060 NA
HETATM   23  O1  UNL     1      28.598  49.747 247.156  1.00  0.00    -0.275 OA
ENDBRANCH  17  21
ENDBRANCH  15  17
ENDBRANCH  14  15
ENDBRANCH  11  14
ENDBRANCH   1   7
TORSDOF 7
ENDMDL
MODEL 3
REMARK VINA RESULT: -7.796066187      1.905      2.558
REMARK  7 active torsions:
REMARK  status: ('A' for Active; 'I' for Inactive)
REMARK    1  A    between atoms: C2_2  and  C3_3 
REMARK    2  A    between atoms: C3_3  and  C4_4 
REMARK    3  A    between atoms: C4_4  and  N1_5 
REMARK    4  A    between atoms: C4_4  and  C13_21 
REMARK    5  A    between atoms: N1_5  and  C5_7 
REMARK    6  A    between atoms: C5_7  and  C6_8 
REMARK    7  A    between atoms: C10_12  and  C11_13 
ROOT
HETATM    1  C11 UNL     1      28.374  53.180 253.170  1.00  0.00     0.152 C 
HETATM    2  N2  UNL     1      29.818  53.260 252.957  1.00  0.00    -0.080 NA
HETATM    3  N3  UNL     1      28.003  53.632 254.256  1.00  0.00    -0.280 N 
ATOM      4  H3  UNL     1      28.785  53.980 254.811  1.00  0.00     0.179 HD
HETATM    5  C12 UNL     1      26.842  53.782 254.886  1.00  0.00     0.183 C 
HETATM    6  N4  UNL     1      25.836  53.927 255.469  1.00  0.00    -0.172 NA
ENDROOT
BRANCH   1   7
HETATM    7  C10 UNL     1      27.650  52.585 252.062  1.00  0.00     0.074 A 
HETATM    8  C9  UNL     1      26.651  51.652 252.167  1.00  0.00     0.033 A 
HETATM    9  C8  UNL     1      25.987  51.122 251.055  1.00  0.00     0.004 A 
HETATM   10  C7  UNL     1      26.363  51.563 249.825  1.00  0.00     0.027 A 
HETATM   11  C6  UNL     1      27.355  52.492 249.708  1.00  0.00     0.027 A 
HETATM   12  N5  UNL     1      27.956  52.966 250.784  1.00  0.00    -0.355 N 
ATOM     13  H5  UNL     1      28.693  53.659 250.654  1.00  0.00     0.166 HD
BRANCH  11  14
HETATM   14  C5  UNL     1      27.724  52.948 248.320  1.00  0.00     0.172 C 
BRANCH  14  15
HETATM   15  N1  UNL     1      29.134  52.849 248.153  1.00  0.00    -0.404 N 
ATOM     16  H1  UNL     1      29.780  53.394 248.726  1.00  0.00     0.154 HD
BRANCH  15  17
HETATM   17  C4  UNL     1      29.595  51.965 247.162  1.00  0.00     0.170 C 
BRANCH  17  18
HETATM   18  C3  UNL     1      28.775  51.937 245.908  1.00  0.00     0.060 C 
BRANCH  18  19
HETATM   19  C2  UNL     1      29.330  52.697 244.772  1.00  0.00    -0.034 C 
HETATM   20  C1  UNL     1      28.869  52.668 243.548  1.00  0.00     0.007 C 
ENDBRANCH  18  19
ENDBRANCH  17  18
BRANCH  17  21
HETATM   21  C13 UNL     1      29.656  50.547 247.685  1.00  0.00     0.253 C 
HETATM   22  N6  UNL     1      28.602  49.660 247.373  1.00  0.00    -0.060 NA
HETATM   23  O1  UNL     1      30.647  50.220 248.377  1.00  0.00    -0.275 OA
ENDBRANCH  17  21
ENDBRANCH  15  17
ENDBRANCH  14  15
ENDBRANCH  11  14
ENDBRANCH   1   7
TORSDOF 7
ENDMDL
MODEL 4
REMARK VINA RESULT: -7.762296680      0.725      1.893
REMARK  7 active torsions:
REMARK  status: ('A' for Active; 'I' for Inactive)
REMARK    1  A    between atoms: C2_2  and  C3_3 
REMARK    2  A    between atoms: C3_3  and  C4_4 
REMARK    3  A    between atoms: C4_4  and  N1_5 
REMARK    4  A    between atoms: C4_4  and  C13_21 
REMARK    5  A    between atoms: N1_5  and  C5_7 
REMARK    6  A    between atoms: C5_7  and  C6_8 
REMARK    7  A    between atoms: C10_12  and  C11_13 
ROOT
HETATM    1  C11 UNL     1      27.522  52.175 252.813  1.00  0.00     0.152 C 
HETATM    2  N2  UNL     1      27.753  51.435 254.052  1.00  0.00    -0.080 NA
HETATM    3  N3  UNL     1      27.719  53.389 252.912  1.00  0.00    -0.280 N 
ATOM      4  H3  UNL     1      28.008  53.653 253.853  1.00  0.00     0.179 HD
HETATM    5  C12 UNL     1      27.651  54.441 252.101  1.00  0.00     0.183 C 
HETATM    6  N4  UNL     1      27.600  55.388 251.413  1.00  0.00    -0.172 NA
ENDROOT
BRANCH   1   7
HETATM    7  C10 UNL     1      27.106  51.342 251.701  1.00  0.00     0.074 A 
HETATM    8  C9  UNL     1      25.812  51.021 251.381  1.00  0.00     0.033 A 
HETATM    9  C8  UNL     1      25.478  50.214 250.287  1.00  0.00     0.004 A 
HETATM   10  C7  UNL     1      26.495  49.737 249.520  1.00  0.00     0.027 A 
HETATM   11  C6  UNL     1      27.786  50.050 249.828  1.00  0.00     0.027 A 
HETATM   12  N5  UNL     1      28.057  50.815 250.870  1.00  0.00    -0.355 N 
ATOM     13  H5  UNL     1      29.035  51.026 251.067  1.00  0.00     0.166 HD
BRANCH  11  14
HETATM   14  C5  UNL     1      28.870  49.498 248.939  1.00  0.00     0.172 C 
BRANCH  14  15
HETATM   15  N1  UNL     1      29.518  50.573 248.268  1.00  0.00    -0.404 N 
ATOM     16  H1  UNL     1      30.479  50.836 248.484  1.00  0.00     0.154 HD
BRANCH  15  17
HETATM   17  C4  UNL     1      28.769  51.254 247.292  1.00  0.00     0.170 C 
BRANCH  17  18
HETATM   18  C3  UNL     1      29.539  51.663 246.073  1.00  0.00     0.060 C 
BRANCH  18  19
HETATM   19  C2  UNL     1      28.765  52.382 245.045  1.00  0.00    -0.034 C 
HETATM   20  C1  UNL     1      29.214  52.733 243.869  1.00  0.00     0.007 C 
ENDBRANCH  18  19
ENDBRANCH  17  18
BRANCH  17  21
HETATM   21  C13 UNL     1      28.143  52.507 247.864  1.00  0.00     0.253 C 
HETATM   22  N6  UNL     1      28.874  53.265 248.805  1.00  0.00    -0.060 NA
HETATM   23  O1  UNL     1      26.995  52.819 247.474  1.00  0.00    -0.275 OA
ENDBRANCH  17  21
ENDBRANCH  15  17
ENDBRANCH  14  15
ENDBRANCH  11  14
ENDBRANCH   1   7
TORSDOF 7
ENDMDL
MODEL 5
REMARK VINA RESULT: -7.617315346      1.770      2.397
REMARK  7 active torsions:
REMARK  status: ('A' for Active; 'I' for Inactive)
REMARK    1  A    between atoms: C2_2  and  C3_3 
REMARK    2  A    between atoms: C3_3  and  C4_4 
REMARK    3  A    between atoms: C4_4  and  N1_5 
REMARK    4  A    between atoms: C4_4  and  C13_21 
REMARK    5  A    between atoms: N1_5  and  C5_7 
REMARK    6  A    between atoms: C5_7  and  C6_8 
REMARK    7  A    between atoms: C10_12  and  C11_13 
ROOT
HETATM    1  C11 UNL     1      27.678  53.322 253.392  1.00  0.00     0.152 C 
HETATM    2  N2  UNL     1      26.593  53.553 254.343  1.00  0.00    -0.080 NA
HETATM    3  N3  UNL     1      28.772  53.754 253.767  1.00  0.00    -0.280 N 
ATOM      4  H3  UNL     1      28.712  54.199 254.682  1.00  0.00     0.179 HD
HETATM    5  C12 UNL     1      30.008  53.784 253.279  1.00  0.00     0.183 C 
HETATM    6  N4  UNL     1      31.109  53.830 252.879  1.00  0.00    -0.172 NA
ENDROOT
BRANCH   1   7
HETATM    7  C10 UNL     1      27.264  52.627 252.188  1.00  0.00     0.074 A 
HETATM    8  C9  UNL     1      26.463  51.515 252.140  1.00  0.00     0.033 A 
HETATM    9  C8  UNL     1      26.096  50.895 250.940  1.00  0.00     0.004 A 
HETATM   10  C7  UNL     1      26.565  51.432 249.782  1.00  0.00     0.027 A 
HETATM   11  C6  UNL     1      27.362  52.538 249.817  1.00  0.00     0.027 A 
HETATM   12  N5  UNL     1      27.684  53.093 250.972  1.00  0.00    -0.355 N 
ATOM     13  H5  UNL     1      28.282  53.918 250.955  1.00  0.00     0.166 HD
BRANCH  11  14
HETATM   14  C5  UNL     1      27.845  53.093 248.502  1.00  0.00     0.172 C 
BRANCH  14  15
HETATM   15  N1  UNL     1      29.221  52.768 248.334  1.00  0.00    -0.404 N 
ATOM     16  H1  UNL     1      29.937  53.138 248.958  1.00  0.00     0.154 HD
BRANCH  15  17
HETATM   17  C4  UNL     1      29.544  51.912 247.265  1.00  0.00     0.170 C 
BRANCH  17  18
HETATM   18  C3  UNL     1      28.673  52.055 246.054  1.00  0.00     0.060 C 
BRANCH  18  19
HETATM   19  C2  UNL     1      29.305  52.705 244.892  1.00  0.00    -0.034 C 
HETATM   20  C1  UNL     1      28.857  52.658 243.664  1.00  0.00     0.007 C 
ENDBRANCH  18  19
ENDBRANCH  17  18
BRANCH  17  21
HETATM   21  C13 UNL     1      29.479  50.463 247.692  1.00  0.00     0.253 C 
HETATM   22  N6  UNL     1      30.463  49.969 248.577  1.00  0.00    -0.060 NA
HETATM   23  O1  UNL     1      28.548  49.759 247.237  1.00  0.00    -0.275 OA
ENDBRANCH  17  21
ENDBRANCH  15  17
ENDBRANCH  14  15
ENDBRANCH  11  14
ENDBRANCH   1   7
TORSDOF 7
ENDMDL
