MODEL 1
REMARK VINA RESULT: -6.828291035      0.000      0.000
REMARK  8 active torsions:
REMARK  status: ('A' for Active; 'I' for Inactive)
REMARK    1  A    between atoms: C1_4  and  N2_5 
REMARK    2  A    between atoms: N2_5  and  C2_7 
REMARK    3  A    between atoms: C4_9  and  N3_10 
REMARK    4  A    between atoms: C4_9  and  C5_14 
REMARK    5  A    between atoms: C5_14  and  S1_15 
REMARK    6  A    between atoms: S1_15  and  N4_18 
REMARK    7  A    between atoms: N4_18  and  C6_20 
REMARK    8  A    between atoms: C6_20  and  C7_21 
ROOT
HETATM    1  C5  UNL     1      27.302  51.832 248.961  1.00  0.00     0.204 C 
ENDROOT
BRANCH   1   2
HETATM    2  C4  UNL     1      28.248  51.609 247.849  1.00  0.00     0.160 A 
HETATM    3  C2  UNL     1      28.217  52.659 246.741  1.00  0.00     0.121 A 
HETATM    4  C3  UNL     1      29.459  52.391 247.561  1.00  0.00     0.069 A 
BRANCH   3   5
HETATM    5  N2  UNL     1      28.184  52.224 245.358  1.00  0.00    -0.379 N 
ATOM      6  H2  UNL     1      27.427  51.630 245.021  1.00  0.00     0.160 HD
BRANCH   5   7
HETATM    7  C1  UNL     1      29.218  52.637 244.480  1.00  0.00     0.169 C 
HETATM    8  N1  UNL     1      28.913  52.776 243.249  1.00  0.00    -0.396 N 
ATOM      9  H12 UNL     1      27.962  52.595 242.928  1.00  0.00     0.156 HD
ATOM     10  H11 UNL     1      29.656  53.072 242.617  1.00  0.00     0.156 HD
ENDBRANCH   5   7
ENDBRANCH   3   5
BRANCH   2  11
HETATM   11  N3  UNL     1      28.207  50.243 247.278  1.00  0.00    -0.067 N 
ATOM     12  H33 UNL     1      28.734  50.182 246.407  1.00  0.00     0.275 HD
ATOM     13  H32 UNL     1      28.753  49.585 247.833  1.00  0.00     0.275 HD
ATOM     14  H31 UNL     1      27.244  49.930 247.160  1.00  0.00     0.275 HD
ENDBRANCH   2  11
ENDBRANCH   1   2
BRANCH   1  15
HETATM   15  S1  UNL     1      27.045  50.589 250.138  1.00  0.00     0.229 S 
HETATM   16  O1  UNL     1      26.146  49.491 249.570  1.00  0.00    -0.206 OA
HETATM   17  O2  UNL     1      28.404  49.897 250.361  1.00  0.00    -0.206 OA
BRANCH  15  18
HETATM   18  N4  UNL     1      26.469  51.031 251.650  1.00  0.00    -0.314 N 
ATOM     19  H4  UNL     1      25.667  50.597 252.107  1.00  0.00     0.172 HD
BRANCH  18  20
HETATM   20  C6  UNL     1      27.239  52.085 252.217  1.00  0.00     0.188 C 
BRANCH  20  21
HETATM   21  C7  UNL     1      28.166  51.711 253.285  1.00  0.00     0.027 A 
HETATM   22  C8  UNL     1      29.231  52.496 253.610  1.00  0.00     0.027 A 
HETATM   23  C9  UNL     1      30.124  52.139 254.632  1.00  0.00     0.003 A 
HETATM   24  C10 UNL     1      29.918  50.966 255.322  1.00  0.00     0.017 A 
HETATM   25  C11 UNL     1      28.823  50.195 254.960  1.00  0.00     0.088 A 
HETATM   26  N5  UNL     1      27.973  50.569 253.963  1.00  0.00    -0.368 N 
ATOM     27  H5  UNL     1      27.179  49.973 253.728  1.00  0.00     0.165 HD
ENDBRANCH  20  21
ENDBRANCH  18  20
ENDBRANCH  15  18
ENDBRANCH   1  15
TORSDOF 8
ENDMDL
MODEL 2
REMARK VINA RESULT: -6.821939744      1.655      1.863
REMARK  8 active torsions:
REMARK  status: ('A' for Active; 'I' for Inactive)
REMARK    1  A    between atoms: C1_4  and  N2_5 
REMARK    2  A    between atoms: N2_5  and  C2_7 
REMARK    3  A    between atoms: C4_9  and  N3_10 
REMARK    4  A    between atoms: C4_9  and  C5_14 
REMARK    5  A    between atoms: C5_14  and  S1_15 
REMARK    6  A    between atoms: S1_15  and  N4_18 
REMARK    7  A    between atoms: N4_18  and  C6_20 
REMARK    8  A    between atoms: C6_20  and  C7_21 
ROOT
HETATM    1  C5  UNL     1      28.248  52.529 249.791  1.00  0.00     0.204 C 
ENDROOT
BRANCH   1   2
HETATM    2  C4  UNL     1      28.477  51.474 248.785  1.00  0.00     0.160 A 
HETATM    3  C2  UNL     1      29.073  51.948 247.462  1.00  0.00     0.121 A 
HETATM    4  C3  UNL     1      29.780  50.948 248.350  1.00  0.00     0.069 A 
BRANCH   3   5
HETATM    5  N2  UNL     1      28.485  51.486 246.219  1.00  0.00    -0.379 N 
ATOM      6  H2  UNL     1      28.076  50.554 246.154  1.00  0.00     0.160 HD
BRANCH   5   7
HETATM    7  C1  UNL     1      28.485  52.349 245.093  1.00  0.00     0.169 C 
HETATM    8  N1  UNL     1      29.621  52.665 244.606  1.00  0.00    -0.396 N 
ATOM      9  H12 UNL     1      30.481  52.304 245.019  1.00  0.00     0.156 HD
ATOM     10  H11 UNL     1      29.621  53.286 243.796  1.00  0.00     0.156 HD
ENDBRANCH   5   7
ENDBRANCH   3   5
BRANCH   2  11
HETATM   11  N3  UNL     1      27.311  50.592 248.550  1.00  0.00    -0.067 N 
ATOM     12  H33 UNL     1      26.573  51.070 248.032  1.00  0.00     0.275 HD
ATOM     13  H32 UNL     1      27.522  49.859 247.873  1.00  0.00     0.275 HD
ATOM     14  H31 UNL     1      26.966  50.207 249.429  1.00  0.00     0.275 HD
ENDBRANCH   2  11
ENDBRANCH   1   2
BRANCH   1  15
HETATM   15  S1  UNL     1      27.210  52.224 251.143  1.00  0.00     0.229 S 
HETATM   16  O1  UNL     1      27.038  53.489 251.983  1.00  0.00    -0.206 OA
HETATM   17  O2  UNL     1      25.805  51.947 250.573  1.00  0.00    -0.206 OA
BRANCH  15  18
HETATM   18  N4  UNL     1      27.582  50.945 252.162  1.00  0.00    -0.314 N 
ATOM     19  H4  UNL     1      27.834  50.011 251.839  1.00  0.00     0.172 HD
BRANCH  18  20
HETATM   20  C6  UNL     1      27.503  51.325 253.531  1.00  0.00     0.188 C 
BRANCH  20  21
HETATM   21  C7  UNL     1      28.690  51.068 254.346  1.00  0.00     0.027 A 
HETATM   22  C8  UNL     1      29.712  51.964 254.417  1.00  0.00     0.027 A 
HETATM   23  C9  UNL     1      30.854  51.720 255.196  1.00  0.00     0.003 A 
HETATM   24  C10 UNL     1      30.940  50.544 255.906  1.00  0.00     0.017 A 
HETATM   25  C11 UNL     1      29.878  49.658 255.807  1.00  0.00     0.088 A 
HETATM   26  N5  UNL     1      28.782  49.924 255.042  1.00  0.00    -0.368 N 
ATOM     27  H5  UNL     1      28.022  49.245 254.997  1.00  0.00     0.165 HD
ENDBRANCH  20  21
ENDBRANCH  18  20
ENDBRANCH  15  18
ENDBRANCH   1  15
TORSDOF 8
ENDMDL
MODEL 3
REMARK VINA RESULT: -6.711999471      1.321      1.785
REMARK  8 active torsions:
REMARK  status: ('A' for Active; 'I' for Inactive)
REMARK    1  A    between atoms: C1_4  and  N2_5 
REMARK    2  A    between atoms: N2_5  and  C2_7 
REMARK    3  A    between atoms: C4_9  and  N3_10 
REMARK    4  A    between atoms: C4_9  and  C5_14 
REMARK    5  A    between atoms: C5_14  and  S1_15 
REMARK    6  A    between atoms: S1_15  and  N4_18 
REMARK    7  A    between atoms: N4_18  and  C6_20 
REMARK    8  A    between atoms: C6_20  and  C7_21 
ROOT
HETATM    1  C5  UNL     1      27.544  51.987 249.323  1.00  0.00     0.204 C 
ENDROOT
BRANCH   1   2
HETATM    2  C4  UNL     1      28.439  51.182 248.469  1.00  0.00     0.160 A 
HETATM    3  C2  UNL     1      29.394  51.979 247.583  1.00  0.00     0.121 A 
HETATM    4  C3  UNL     1      29.890  51.014 248.636  1.00  0.00     0.069 A 
BRANCH   3   5
HETATM    5  N2  UNL     1      29.525  51.618 246.185  1.00  0.00    -0.379 N 
ATOM      6  H2  UNL     1      30.043  50.782 245.913  1.00  0.00     0.160 HD
BRANCH   5   7
HETATM    7  C1  UNL     1      28.924  52.442 245.200  1.00  0.00     0.169 C 
HETATM    8  N1  UNL     1      29.654  52.794 244.215  1.00  0.00    -0.396 N 
ATOM      9  H12 UNL     1      30.625  52.487 244.153  1.00  0.00     0.156 HD
ATOM     10  H11 UNL     1      29.222  53.387 243.506  1.00  0.00     0.156 HD
ENDBRANCH   5   7
ENDBRANCH   3   5
BRANCH   2  11
HETATM   11  N3  UNL     1      27.751  50.130 247.685  1.00  0.00    -0.067 N 
ATOM     12  H33 UNL     1      27.142  50.529 246.970  1.00  0.00     0.275 HD
ATOM     13  H32 UNL     1      28.397  49.631 247.074  1.00  0.00     0.275 HD
ATOM     14  H31 UNL     1      27.244  49.494 248.301  1.00  0.00     0.275 HD
ENDBRANCH   2  11
ENDBRANCH   1   2
BRANCH   1  15
HETATM   15  S1  UNL     1      26.733  51.250 250.663  1.00  0.00     0.229 S 
HETATM   16  O1  UNL     1      25.705  52.210 251.260  1.00  0.00    -0.206 OA
HETATM   17  O2  UNL     1      25.892  50.091 250.093  1.00  0.00    -0.206 OA
BRANCH  15  18
HETATM   18  N4  UNL     1      27.662  50.612 251.904  1.00  0.00    -0.314 N 
ATOM     19  H4  UNL     1      28.164  49.726 251.847  1.00  0.00     0.172 HD
BRANCH  18  20
HETATM   20  C6  UNL     1      27.665  51.460 253.047  1.00  0.00     0.188 C 
BRANCH  20  21
HETATM   21  C7  UNL     1      28.747  51.251 254.010  1.00  0.00     0.027 A 
HETATM   22  C8  UNL     1      28.801  50.136 254.788  1.00  0.00     0.027 A 
HETATM   23  C9  UNL     1      29.835  49.933 255.715  1.00  0.00     0.003 A 
HETATM   24  C10 UNL     1      30.820  50.887 255.838  1.00  0.00     0.017 A 
HETATM   25  C11 UNL     1      30.728  52.009 255.027  1.00  0.00     0.088 A 
HETATM   26  N5  UNL     1      29.711  52.177 254.136  1.00  0.00    -0.368 N 
ATOM     27  H5  UNL     1      29.681  53.016 253.558  1.00  0.00     0.165 HD
ENDBRANCH  20  21
ENDBRANCH  18  20
ENDBRANCH  15  18
ENDBRANCH   1  15
TORSDOF 8
ENDMDL
MODEL 4
REMARK VINA RESULT: -6.691940541      0.671      1.089
REMARK  8 active torsions:
REMARK  status: ('A' for Active; 'I' for Inactive)
REMARK    1  A    between atoms: C1_4  and  N2_5 
REMARK    2  A    between atoms: N2_5  and  C2_7 
REMARK    3  A    between atoms: C4_9  and  N3_10 
REMARK    4  A    between atoms: C4_9  and  C5_14 
REMARK    5  A    between atoms: C5_14  and  S1_15 
REMARK    6  A    between atoms: S1_15  and  N4_18 
REMARK    7  A    between atoms: N4_18  and  C6_20 
REMARK    8  A    between atoms: C6_20  and  C7_21 
ROOT
HETATM    1  C5  UNL     1      27.350  51.800 248.961  1.00  0.00     0.204 C 
ENDROOT
BRANCH   1   2
HETATM    2  C4  UNL     1      28.283  51.585 247.838  1.00  0.00     0.160 A 
HETATM    3  C2  UNL     1      28.230  52.635 246.730  1.00  0.00     0.121 A 
HETATM    4  C3  UNL     1      29.484  52.377 247.534  1.00  0.00     0.069 A 
BRANCH   3   5
HETATM    5  N2  UNL     1      28.183  52.199 245.348  1.00  0.00    -0.379 N 
ATOM      6  H2  UNL     1      27.420  51.609 245.017  1.00  0.00     0.160 HD
BRANCH   5   7
HETATM    7  C1  UNL     1      29.213  52.604 244.461  1.00  0.00     0.169 C 
HETATM    8  N1  UNL     1      28.890  52.782 243.240  1.00  0.00    -0.396 N 
ATOM      9  H12 UNL     1      27.929  52.635 242.932  1.00  0.00     0.156 HD
ATOM     10  H11 UNL     1      29.630  53.074 242.602  1.00  0.00     0.156 HD
ENDBRANCH   5   7
ENDBRANCH   3   5
BRANCH   2  11
HETATM   11  N3  UNL     1      28.247  50.219 247.268  1.00  0.00    -0.067 N 
ATOM     12  H33 UNL     1      28.691  50.180 246.350  1.00  0.00     0.275 HD
ATOM     13  H32 UNL     1      28.871  49.584 247.766  1.00  0.00     0.275 HD
ATOM     14  H31 UNL     1      27.290  49.864 247.240  1.00  0.00     0.275 HD
ENDBRANCH   2  11
ENDBRANCH   1   2
BRANCH   1  15
HETATM   15  S1  UNL     1      27.135  50.566 250.155  1.00  0.00     0.229 S 
HETATM   16  O1  UNL     1      26.208  49.470 249.632  1.00  0.00    -0.206 OA
HETATM   17  O2  UNL     1      28.498  49.868 250.326  1.00  0.00    -0.206 OA
BRANCH  15  18
HETATM   18  N4  UNL     1      26.625  51.018 251.688  1.00  0.00    -0.314 N 
ATOM     19  H4  UNL     1      25.869  50.561 252.198  1.00  0.00     0.172 HD
BRANCH  18  20
HETATM   20  C6  UNL     1      27.377  52.118 252.187  1.00  0.00     0.188 C 
BRANCH  20  21
HETATM   21  C7  UNL     1      28.326  51.823 253.261  1.00  0.00     0.027 A 
HETATM   22  C8  UNL     1      28.175  50.734 254.065  1.00  0.00     0.027 A 
HETATM   23  C9  UNL     1      29.081  50.450 255.098  1.00  0.00     0.003 A 
HETATM   24  C10 UNL     1      30.149  51.294 255.303  1.00  0.00     0.017 A 
HETATM   25  C11 UNL     1      30.266  52.392 254.463  1.00  0.00     0.088 A 
HETATM   26  N5  UNL     1      29.369  52.642 253.468  1.00  0.00    -0.368 N 
ATOM     27  H5  UNL     1      29.492  53.461 252.872  1.00  0.00     0.165 HD
ENDBRANCH  20  21
ENDBRANCH  18  20
ENDBRANCH  15  18
ENDBRANCH   1  15
TORSDOF 8
ENDMDL
MODEL 5
REMARK VINA RESULT: -6.676426147      1.897      2.477
REMARK  8 active torsions:
REMARK  status: ('A' for Active; 'I' for Inactive)
REMARK    1  A    between atoms: C1_4  and  N2_5 
REMARK    2  A    between atoms: N2_5  and  C2_7 
REMARK    3  A    between atoms: C4_9  and  N3_10 
REMARK    4  A    between atoms: C4_9  and  C5_14 
REMARK    5  A    between atoms: C5_14  and  S1_15 
REMARK    6  A    between atoms: S1_15  and  N4_18 
REMARK    7  A    between atoms: N4_18  and  C6_20 
REMARK    8  A    between atoms: C6_20  and  C7_21 
ROOT
HETATM    1  C5  UNL     1      27.357  51.146 248.427  1.00  0.00     0.204 C 
ENDROOT
BRANCH   1   2
HETATM    2  C4  UNL     1      28.696  51.391 247.857  1.00  0.00     0.160 A 
HETATM    3  C2  UNL     1      28.729  52.277 246.614  1.00  0.00     0.121 A 
HETATM    4  C3  UNL     1      29.444  52.657 247.891  1.00  0.00     0.069 A 
BRANCH   3   5
HETATM    5  N2  UNL     1      29.516  51.858 245.470  1.00  0.00    -0.379 N 
ATOM      6  H2  UNL     1      30.013  50.968 245.482  1.00  0.00     0.160 HD
BRANCH   5   7
HETATM    7  C1  UNL     1      29.584  52.703 244.333  1.00  0.00     0.169 C 
HETATM    8  N1  UNL     1      28.566  52.726 243.566  1.00  0.00    -0.396 N 
ATOM      9  H12 UNL     1      27.746  52.155 243.775  1.00  0.00     0.156 HD
ATOM     10  H11 UNL     1      28.614  53.334 242.748  1.00  0.00     0.156 HD
ENDBRANCH   5   7
ENDBRANCH   3   5
BRANCH   2  11
HETATM   11  N3  UNL     1      29.505  50.167 247.650  1.00  0.00    -0.067 N 
ATOM     12  H33 UNL     1      30.337  50.159 248.240  1.00  0.00     0.275 HD
ATOM     13  H32 UNL     1      29.043  49.340 248.028  1.00  0.00     0.275 HD
ATOM     14  H31 UNL     1      29.740  50.052 246.664  1.00  0.00     0.275 HD
ENDBRANCH   2  11
ENDBRANCH   1   2
BRANCH   1  15
HETATM   15  S1  UNL     1      27.166  50.030 249.737  1.00  0.00     0.229 S 
HETATM   16  O1  UNL     1      25.687  49.855 250.080  1.00  0.00    -0.206 OA
HETATM   17  O2  UNL     1      27.607  48.649 249.215  1.00  0.00    -0.206 OA
BRANCH  15  18
HETATM   18  N4  UNL     1      28.020  50.310 251.154  1.00  0.00    -0.314 N 
ATOM     19  H4  UNL     1      28.870  49.813 251.417  1.00  0.00     0.172 HD
BRANCH  18  20
HETATM   20  C6  UNL     1      27.411  51.327 251.941  1.00  0.00     0.188 C 
BRANCH  20  21
HETATM   21  C7  UNL     1      28.007  52.660 251.855  1.00  0.00     0.027 A 
HETATM   22  C8  UNL     1      27.419  53.658 251.138  1.00  0.00     0.027 A 
HETATM   23  C9  UNL     1      27.989  54.937 251.050  1.00  0.00     0.003 A 
HETATM   24  C10 UNL     1      29.172  55.189 251.707  1.00  0.00     0.017 A 
HETATM   25  C11 UNL     1      29.739  54.146 252.425  1.00  0.00     0.088 A 
HETATM   26  N5  UNL     1      29.161  52.914 252.492  1.00  0.00    -0.368 N 
ATOM     27  H5  UNL     1      29.610  52.175 253.032  1.00  0.00     0.165 HD
ENDBRANCH  20  21
ENDBRANCH  18  20
ENDBRANCH  15  18
ENDBRANCH   1  15
TORSDOF 8
ENDMDL
