MODEL 1
REMARK VINA RESULT: -7.142862245      0.000      0.000
REMARK  7 active torsions:
REMARK  status: ('A' for Active; 'I' for Inactive)
REMARK    1  A    between atoms: C1_2  and  C2_4 
REMARK    2  A    between atoms: C2_4  and  C3_5 
REMARK    3  A    between atoms: C3_5  and  C4_6 
REMARK    4  A    between atoms: C4_6  and  N2_7 
REMARK    5  A    between atoms: C4_6  and  O3_17 
REMARK       I    between atoms: N2_7  and  C5_9 
REMARK    6  A    between atoms: C5_9  and  C6_11 
REMARK    7  A    between atoms: O3_17  and  N3_18 
REMARK       I    between atoms: N3_18  and  C12_20 
ROOT
HETATM    1  C4  UNL     1      27.412  52.414 249.832  1.00  0.00     0.254 C 
ENDROOT
BRANCH   1   2
HETATM    2  C3  UNL     1      26.746  51.230 249.186  1.00  0.00     0.065 C 
BRANCH   2   3
HETATM    3  C2  UNL     1      27.309  49.954 249.776  1.00  0.00     0.104 C 
BRANCH   3   4
HETATM    4  C1  UNL     1      28.438  49.468 248.968  1.00  0.00     0.231 C 
HETATM    5  N1  UNL     1      28.373  49.577 247.560  1.00  0.00    -0.062 NA
HETATM    6  O1  UNL     1      29.452  48.961 249.503  1.00  0.00    -0.277 OA
ENDBRANCH   3   4
ENDBRANCH   2   3
ENDBRANCH   1   2
BRANCH   1   7
HETATM    7  N2  UNL     1      28.225  52.043 250.976  1.00  0.00    -0.328 N 
HETATM    8  C5  UNL     1      27.821  52.243 252.307  1.00  0.00     0.253 C 
HETATM    9  O2  UNL     1      26.708  52.761 252.528  1.00  0.00    -0.268 OA
ATOM     10  H2  UNL     1      29.136  51.615 250.806  1.00  0.00     0.165 HD
BRANCH   8  11
HETATM   11  C6  UNL     1      28.657  51.866 253.410  1.00  0.00     0.032 A 
HETATM   12  C7  UNL     1      28.372  50.730 254.125  1.00  0.00     0.017 A 
HETATM   13  C8  UNL     1      29.149  50.321 255.204  1.00  0.00     0.001 A 
HETATM   14  C9  UNL     1      30.236  51.055 255.583  1.00  0.00     0.000 A 
HETATM   15  C10 UNL     1      30.527  52.208 254.859  1.00  0.00     0.001 A 
HETATM   16  C11 UNL     1      29.771  52.626 253.793  1.00  0.00     0.017 A 
ENDBRANCH   8  11
ENDBRANCH   1   7
BRANCH   1  17
HETATM   17  O3  UNL     1      28.208  53.131 248.955  1.00  0.00    -0.251 OA
BRANCH  17  18
HETATM   18  N3  UNL     1      27.884  52.794 247.692  1.00  0.00    -0.217 N 
HETATM   19  C12 UNL     1      28.921  52.746 246.706  1.00  0.00     0.352 C 
HETATM   20  N4  UNL     1      28.680  52.403 245.356  1.00  0.00    -0.038 NA
HETATM   21  O4  UNL     1      30.127  53.018 247.024  1.00  0.00    -0.249 OA
ATOM     22  H3  UNL     1      26.919  52.576 247.442  1.00  0.00     0.199 HD
ENDBRANCH  17  18
ENDBRANCH   1  17
TORSDOF 7
ENDMDL
MODEL 2
REMARK VINA RESULT: -7.114745511      2.921      4.358
REMARK  7 active torsions:
REMARK  status: ('A' for Active; 'I' for Inactive)
REMARK    1  A    between atoms: C1_2  and  C2_4 
REMARK    2  A    between atoms: C2_4  and  C3_5 
REMARK    3  A    between atoms: C3_5  and  C4_6 
REMARK    4  A    between atoms: C4_6  and  N2_7 
REMARK    5  A    between atoms: C4_6  and  O3_17 
REMARK       I    between atoms: N2_7  and  C5_9 
REMARK    6  A    between atoms: C5_9  and  C6_11 
REMARK    7  A    between atoms: O3_17  and  N3_18 
REMARK       I    between atoms: N3_18  and  C12_20 
ROOT
HETATM    1  C4  UNL     1      28.635  52.460 248.628  1.00  0.00     0.254 C 
ENDROOT
BRANCH   1   2
HETATM    2  C3  UNL     1      29.624  52.553 247.499  1.00  0.00     0.065 C 
BRANCH   2   3
HETATM    3  C2  UNL     1      29.296  51.505 246.456  1.00  0.00     0.104 C 
BRANCH   3   4
HETATM    4  C1  UNL     1      28.710  52.133 245.263  1.00  0.00     0.231 C 
HETATM    5  N1  UNL     1      29.527  52.937 244.436  1.00  0.00    -0.062 NA
HETATM    6  O1  UNL     1      27.502  51.969 244.967  1.00  0.00    -0.277 OA
ENDBRANCH   3   4
ENDBRANCH   2   3
ENDBRANCH   1   2
BRANCH   1   7
HETATM    7  N2  UNL     1      28.673  53.620 249.502  1.00  0.00    -0.328 N 
HETATM    8  C5  UNL     1      28.729  53.528 250.903  1.00  0.00     0.253 C 
HETATM    9  O2  UNL     1      28.752  52.399 251.433  1.00  0.00    -0.268 OA
ATOM     10  H2  UNL     1      28.659  54.548 249.077  1.00  0.00     0.165 HD
BRANCH   8  11
HETATM   11  C6  UNL     1      28.761  54.699 251.730  1.00  0.00     0.032 A 
HETATM   12  C7  UNL     1      29.961  55.172 252.197  1.00  0.00     0.017 A 
HETATM   13  C8  UNL     1      30.048  56.302 253.005  1.00  0.00     0.001 A 
HETATM   14  C9  UNL     1      28.916  56.980 253.357  1.00  0.00     0.000 A 
HETATM   15  C10 UNL     1      27.697  56.502 252.885  1.00  0.00     0.001 A 
HETATM   16  C11 UNL     1      27.594  55.389 252.088  1.00  0.00     0.017 A 
ENDBRANCH   8  11
ENDBRANCH   1   7
BRANCH   1  17
HETATM   17  O3  UNL     1      27.332  52.295 248.192  1.00  0.00    -0.251 OA
BRANCH  17  18
HETATM   18  N3  UNL     1      26.587  51.817 249.206  1.00  0.00    -0.217 N 
HETATM   19  C12 UNL     1      26.547  50.403 249.424  1.00  0.00     0.352 C 
HETATM   20  N4  UNL     1      25.794  49.807 250.462  1.00  0.00    -0.038 NA
HETATM   21  O4  UNL     1      27.208  49.615 248.668  1.00  0.00    -0.249 OA
ATOM     22  H3  UNL     1      26.060  52.451 249.808  1.00  0.00     0.199 HD
ENDBRANCH  17  18
ENDBRANCH   1  17
TORSDOF 7
ENDMDL
MODEL 3
REMARK VINA RESULT: -7.092879140      1.054      1.087
REMARK  7 active torsions:
REMARK  status: ('A' for Active; 'I' for Inactive)
REMARK    1  A    between atoms: C1_2  and  C2_4 
REMARK    2  A    between atoms: C2_4  and  C3_5 
REMARK    3  A    between atoms: C3_5  and  C4_6 
REMARK    4  A    between atoms: C4_6  and  N2_7 
REMARK    5  A    between atoms: C4_6  and  O3_17 
REMARK       I    between atoms: N2_7  and  C5_9 
REMARK    6  A    between atoms: C5_9  and  C6_11 
REMARK    7  A    between atoms: O3_17  and  N3_18 
REMARK       I    between atoms: N3_18  and  C12_20 
ROOT
HETATM    1  C4  UNL     1      27.637  52.932 250.424  1.00  0.00     0.254 C 
ENDROOT
BRANCH   1   2
HETATM    2  C3  UNL     1      26.535  52.021 249.961  1.00  0.00     0.065 C 
BRANCH   2   3
HETATM    3  C2  UNL     1      26.719  50.653 250.585  1.00  0.00     0.104 C 
BRANCH   3   4
HETATM    4  C1  UNL     1      27.394  49.746 249.644  1.00  0.00     0.231 C 
HETATM    5  N1  UNL     1      28.807  49.711 249.616  1.00  0.00    -0.062 NA
HETATM    6  O1  UNL     1      26.741  49.006 248.870  1.00  0.00    -0.277 OA
ENDBRANCH   3   4
ENDBRANCH   2   3
ENDBRANCH   1   2
BRANCH   1   7
HETATM    7  N2  UNL     1      28.445  52.343 251.477  1.00  0.00    -0.328 N 
HETATM    8  C5  UNL     1      28.182  52.526 252.846  1.00  0.00     0.253 C 
HETATM    9  O2  UNL     1      27.205  53.223 253.184  1.00  0.00    -0.268 OA
ATOM     10  H2  UNL     1      29.245  51.767 251.210  1.00  0.00     0.165 HD
BRANCH   8  11
HETATM   11  C6  UNL     1      29.009  51.928 253.854  1.00  0.00     0.032 A 
HETATM   12  C7  UNL     1      28.632  50.742 254.431  1.00  0.00     0.017 A 
HETATM   13  C8  UNL     1      29.395  50.122 255.415  1.00  0.00     0.001 A 
HETATM   14  C9  UNL     1      30.562  50.692 255.837  1.00  0.00     0.000 A 
HETATM   15  C10 UNL     1      30.947  51.896 255.253  1.00  0.00     0.001 A 
HETATM   16  C11 UNL     1      30.205  52.521 254.283  1.00  0.00     0.017 A 
ENDBRANCH   8  11
ENDBRANCH   1   7
BRANCH   1  17
HETATM   17  O3  UNL     1      28.484  53.320 249.400  1.00  0.00    -0.251 OA
BRANCH  17  18
HETATM   18  N3  UNL     1      27.879  53.092 248.219  1.00  0.00    -0.217 N 
HETATM   19  C12 UNL     1      28.624  52.457 247.175  1.00  0.00     0.352 C 
HETATM   20  N4  UNL     1      28.076  52.177 245.903  1.00  0.00    -0.038 NA
HETATM   21  O4  UNL     1      29.840  52.116 247.366  1.00  0.00    -0.249 OA
ATOM     22  H3  UNL     1      26.907  53.365 248.071  1.00  0.00     0.199 HD
ENDBRANCH  17  18
ENDBRANCH   1  17
TORSDOF 7
ENDMDL
MODEL 4
REMARK VINA RESULT: -7.069490022      2.933      4.351
REMARK  7 active torsions:
REMARK  status: ('A' for Active; 'I' for Inactive)
REMARK    1  A    between atoms: C1_2  and  C2_4 
REMARK    2  A    between atoms: C2_4  and  C3_5 
REMARK    3  A    between atoms: C3_5  and  C4_6 
REMARK    4  A    between atoms: C4_6  and  N2_7 
REMARK    5  A    between atoms: C4_6  and  O3_17 
REMARK       I    between atoms: N2_7  and  C5_9 
REMARK    6  A    between atoms: C5_9  and  C6_11 
REMARK    7  A    between atoms: O3_17  and  N3_18 
REMARK       I    between atoms: N3_18  and  C12_20 
ROOT
HETATM    1  C4  UNL     1      28.716  52.472 248.534  1.00  0.00     0.254 C 
ENDROOT
BRANCH   1   2
HETATM    2  C3  UNL     1      29.587  52.680 247.326  1.00  0.00     0.065 C 
BRANCH   2   3
HETATM    3  C2  UNL     1      29.295  51.600 246.305  1.00  0.00     0.104 C 
BRANCH   3   4
HETATM    4  C1  UNL     1      28.662  52.179 245.110  1.00  0.00     0.231 C 
HETATM    5  N1  UNL     1      29.469  52.835 244.153  1.00  0.00    -0.062 NA
HETATM    6  O1  UNL     1      27.423  52.103 244.927  1.00  0.00    -0.277 OA
ENDBRANCH   3   4
ENDBRANCH   2   3
ENDBRANCH   1   2
BRANCH   1   7
HETATM    7  N2  UNL     1      28.764  53.592 249.457  1.00  0.00    -0.328 N 
HETATM    8  C5  UNL     1      28.791  53.440 250.854  1.00  0.00     0.253 C 
HETATM    9  O2  UNL     1      28.779  52.289 251.335  1.00  0.00    -0.268 OA
ATOM     10  H2  UNL     1      28.778  54.537 249.072  1.00  0.00     0.165 HD
BRANCH   8  11
HETATM   11  C6  UNL     1      28.833  54.573 251.731  1.00  0.00     0.032 A 
HETATM   12  C7  UNL     1      27.703  55.327 251.928  1.00  0.00     0.017 A 
HETATM   13  C8  UNL     1      27.692  56.437 252.766  1.00  0.00     0.001 A 
HETATM   14  C9  UNL     1      28.827  56.809 253.426  1.00  0.00     0.000 A 
HETATM   15  C10 UNL     1      29.975  56.047 253.228  1.00  0.00     0.001 A 
HETATM   16  C11 UNL     1      30.004  54.949 252.404  1.00  0.00     0.017 A 
ENDBRANCH   8  11
ENDBRANCH   1   7
BRANCH   1  17
HETATM   17  O3  UNL     1      27.390  52.239 248.211  1.00  0.00    -0.251 OA
BRANCH  17  18
HETATM   18  N3  UNL     1      27.032  51.028 248.677  1.00  0.00    -0.217 N 
HETATM   19  C12 UNL     1      26.116  50.957 249.775  1.00  0.00     0.352 C 
HETATM   20  N4  UNL     1      25.680  49.733 250.333  1.00  0.00    -0.038 NA
HETATM   21  O4  UNL     1      25.651  52.025 250.297  1.00  0.00    -0.249 OA
ATOM     22  H3  UNL     1      27.405  50.177 248.256  1.00  0.00     0.199 HD
ENDBRANCH  17  18
ENDBRANCH   1  17
TORSDOF 7
ENDMDL
MODEL 5
REMARK VINA RESULT: -7.063392341      1.025      1.499
REMARK  7 active torsions:
REMARK  status: ('A' for Active; 'I' for Inactive)
REMARK    1  A    between atoms: C1_2  and  C2_4 
REMARK    2  A    between atoms: C2_4  and  C3_5 
REMARK    3  A    between atoms: C3_5  and  C4_6 
REMARK    4  A    between atoms: C4_6  and  N2_7 
REMARK    5  A    between atoms: C4_6  and  O3_17 
REMARK       I    between atoms: N2_7  and  C5_9 
REMARK    6  A    between atoms: C5_9  and  C6_11 
REMARK    7  A    between atoms: O3_17  and  N3_18 
REMARK       I    between atoms: N3_18  and  C12_20 
ROOT
HETATM    1  C4  UNL     1      27.600  52.928 250.449  1.00  0.00     0.254 C 
ENDROOT
BRANCH   1   2
HETATM    2  C3  UNL     1      26.479  52.024 250.019  1.00  0.00     0.065 C 
BRANCH   2   3
HETATM    3  C2  UNL     1      26.692  50.644 250.605  1.00  0.00     0.104 C 
BRANCH   3   4
HETATM    4  C1  UNL     1      27.373  49.773 249.635  1.00  0.00     0.231 C 
HETATM    5  N1  UNL     1      28.776  49.864 249.495  1.00  0.00    -0.062 NA
HETATM    6  O1  UNL     1      26.732  48.955 248.932  1.00  0.00    -0.277 OA
ENDBRANCH   3   4
ENDBRANCH   2   3
ENDBRANCH   1   2
BRANCH   1   7
HETATM    7  N2  UNL     1      28.421  52.342 251.495  1.00  0.00    -0.328 N 
HETATM    8  C5  UNL     1      28.147  52.492 252.865  1.00  0.00     0.253 C 
HETATM    9  O2  UNL     1      27.148  53.154 253.212  1.00  0.00    -0.268 OA
ATOM     10  H2  UNL     1      29.237  51.795 251.221  1.00  0.00     0.165 HD
BRANCH   8  11
HETATM   11  C6  UNL     1      28.986  51.900 253.867  1.00  0.00     0.032 A 
HETATM   12  C7  UNL     1      30.174  52.498 254.202  1.00  0.00     0.017 A 
HETATM   13  C8  UNL     1      31.026  51.964 255.164  1.00  0.00     0.001 A 
HETATM   14  C9  UNL     1      30.690  50.810 255.811  1.00  0.00     0.000 A 
HETATM   15  C10 UNL     1      29.484  50.201 255.473  1.00  0.00     0.001 A 
HETATM   16  C11 UNL     1      28.634  50.714 254.526  1.00  0.00     0.017 A 
ENDBRANCH   8  11
ENDBRANCH   1   7
BRANCH   1  17
HETATM   17  O3  UNL     1      28.433  53.291 249.405  1.00  0.00    -0.251 OA
BRANCH  17  18
HETATM   18  N3  UNL     1      27.830  52.992 248.238  1.00  0.00    -0.217 N 
HETATM   19  C12 UNL     1      28.637  52.558 247.139  1.00  0.00     0.352 C 
HETATM   20  N4  UNL     1      28.097  52.222 245.876  1.00  0.00    -0.038 NA
HETATM   21  O4  UNL     1      29.903  52.457 247.268  1.00  0.00    -0.249 OA
ATOM     22  H3  UNL     1      26.818  53.074 248.140  1.00  0.00     0.199 HD
ENDBRANCH  17  18
ENDBRANCH   1  17
TORSDOF 7
ENDMDL
