MODEL 1
REMARK VINA RESULT: -6.689836498      0.000      0.000
REMARK  9 active torsions:
REMARK  status: ('A' for Active; 'I' for Inactive)
REMARK    1  A    between atoms: N1_2  and  C3_4 
REMARK    2  A    between atoms: C3_4  and  C4_5 
REMARK    3  A    between atoms: C4_5  and  O1_6 
REMARK    4  A    between atoms: O1_6  and  C5_7 
REMARK    5  A    between atoms: C6_10  and  N3_11 
REMARK    6  A    between atoms: N3_11  and  C7_13 
REMARK    7  A    between atoms: C7_13  and  C8_14 
REMARK    8  A    between atoms: C11_17  and  C12_18 
REMARK    9  A    between atoms: C12_18  and  N4_19 
ROOT
HETATM    1  C5  UNL     1      26.121   1.336 287.584  1.00  0.00     0.253 A 
HETATM    2  N2  UNL     1      26.996   2.286 287.947  1.00  0.00    -0.152 N 
ATOM      3  H2  UNL     1      27.916   2.439 287.532  1.00  0.00     0.188 HD
HETATM    4  C6  UNL     1      26.459   3.004 288.948  1.00  0.00     0.696 A 
HETATM    5  N6  UNL     1      25.257   2.480 289.183  1.00  0.00    -0.129 N 
ATOM      6  H6  UNL     1      24.605   2.815 289.893  1.00  0.00     0.205 HD
HETATM    7  N7  UNL     1      25.029   1.466 288.366  1.00  0.00    -0.250 N 
ATOM      8  H7  UNL     1      24.188   0.891 288.334  1.00  0.00     0.191 HD
ENDROOT
BRANCH   4   9
HETATM    9  N3  UNL     1      27.062   3.994 289.515  1.00  0.00    -0.219 N 
ATOM     10  H3  UNL     1      26.537   4.862 289.619  1.00  0.00     0.178 HD
BRANCH   9  11
HETATM   11  C7  UNL     1      28.406   3.979 290.013  1.00  0.00     0.195 C 
BRANCH  11  12
HETATM   12  C8  UNL     1      28.595   2.868 290.985  1.00  0.00     0.028 A 
HETATM   13  C9  UNL     1      29.468   1.806 290.839  1.00  0.00     0.028 A 
HETATM   14  C10 UNL     1      29.359   0.986 291.944  1.00  0.00     0.028 A 
HETATM   15  C11 UNL     1      28.414   1.552 292.768  1.00  0.00     0.035 A 
HETATM   16  N5  UNL     1      27.988   2.665 292.163  1.00  0.00    -0.360 N 
ATOM     17  H5  UNL     1      27.281   3.288 292.553  1.00  0.00     0.165 HD
BRANCH  15  18
HETATM   18  C12 UNL     1      27.969   0.998 294.094  1.00  0.00     0.286 C 
BRANCH  18  19
HETATM   19  N4  UNL     1      29.112   0.685 294.919  1.00  0.00    -0.074 N 
ATOM     20  H43 UNL     1      29.381  -0.295 294.839  1.00  0.00     0.274 HD
ATOM     21  H42 UNL     1      29.967   1.108 294.559  1.00  0.00     0.274 HD
ATOM     22  H41 UNL     1      28.935   0.952 295.888  1.00  0.00     0.274 HD
ENDBRANCH  18  19
ENDBRANCH  15  18
ENDBRANCH  11  12
ENDBRANCH   9  11
ENDBRANCH   4   9
BRANCH   1  23
HETATM   23  O1  UNL     1      26.248   0.393 286.620  1.00  0.00    -0.319 OA
BRANCH  23  24
HETATM   24  C4  UNL     1      26.204   0.534 285.227  1.00  0.00     0.209 C 
BRANCH  24  25
HETATM   25  C3  UNL     1      27.567   0.326 284.668  1.00  0.00     0.298 C 
BRANCH  25  26
HETATM   26  N1  UNL     1      28.019   1.394 283.814  1.00  0.00     0.082 N 
HETATM   27  C1  UNL     1      27.341   1.464 282.561  1.00  0.00     0.309 C 
HETATM   28  C2  UNL     1      28.050   2.668 284.460  1.00  0.00     0.309 C 
ENDBRANCH  25  26
ENDBRANCH  24  25
ENDBRANCH  23  24
ENDBRANCH   1  23
TORSDOF 9
ENDMDL
MODEL 2
REMARK VINA RESULT: -6.641224747      1.536      2.103
REMARK  9 active torsions:
REMARK  status: ('A' for Active; 'I' for Inactive)
REMARK    1  A    between atoms: N1_2  and  C3_4 
REMARK    2  A    between atoms: C3_4  and  C4_5 
REMARK    3  A    between atoms: C4_5  and  O1_6 
REMARK    4  A    between atoms: O1_6  and  C5_7 
REMARK    5  A    between atoms: C6_10  and  N3_11 
REMARK    6  A    between atoms: N3_11  and  C7_13 
REMARK    7  A    between atoms: C7_13  and  C8_14 
REMARK    8  A    between atoms: C11_17  and  C12_18 
REMARK    9  A    between atoms: C12_18  and  N4_19 
ROOT
HETATM    1  C5  UNL     1      25.820   1.804 288.016  1.00  0.00     0.253 A 
HETATM    2  N2  UNL     1      26.890   2.593 288.198  1.00  0.00    -0.152 N 
ATOM      3  H2  UNL     1      27.726   2.608 287.613  1.00  0.00     0.188 HD
HETATM    4  C6  UNL     1      26.676   3.360 289.281  1.00  0.00     0.696 A 
HETATM    5  N6  UNL     1      25.473   3.028 289.746  1.00  0.00    -0.129 N 
ATOM      6  H6  UNL     1      25.031   3.443 290.566  1.00  0.00     0.205 HD
HETATM    7  N7  UNL     1      24.934   2.085 288.993  1.00  0.00    -0.250 N 
ATOM      8  H7  UNL     1      24.020   1.652 289.126  1.00  0.00     0.191 HD
ENDROOT
BRANCH   4   9
HETATM    9  N3  UNL     1      27.528   4.227 289.717  1.00  0.00    -0.219 N 
ATOM     10  H3  UNL     1      27.217   5.196 289.778  1.00  0.00     0.178 HD
BRANCH   9  11
HETATM   11  C7  UNL     1      28.874   3.945 290.121  1.00  0.00     0.195 C 
BRANCH  11  12
HETATM   12  C8  UNL     1      28.909   2.802 291.073  1.00  0.00     0.028 A 
HETATM   13  C9  UNL     1      29.638   1.639 290.914  1.00  0.00     0.028 A 
HETATM   14  C10 UNL     1      29.414   0.820 292.002  1.00  0.00     0.028 A 
HETATM   15  C11 UNL     1      28.542   1.488 292.830  1.00  0.00     0.035 A 
HETATM   16  N5  UNL     1      28.269   2.657 292.243  1.00  0.00    -0.360 N 
ATOM     17  H5  UNL     1      27.644   3.359 292.639  1.00  0.00     0.165 HD
BRANCH  15  18
HETATM   18  C12 UNL     1      28.016   0.973 294.141  1.00  0.00     0.286 C 
BRANCH  18  19
HETATM   19  N4  UNL     1      29.107   0.601 295.011  1.00  0.00    -0.074 N 
ATOM     20  H43 UNL     1      28.810  -0.056 295.733  1.00  0.00     0.274 HD
ATOM     21  H42 UNL     1      29.786   0.008 294.535  1.00  0.00     0.274 HD
ATOM     22  H41 UNL     1      29.543   1.433 295.411  1.00  0.00     0.274 HD
ENDBRANCH  18  19
ENDBRANCH  15  18
ENDBRANCH  11  12
ENDBRANCH   9  11
ENDBRANCH   4   9
BRANCH   1  23
HETATM   23  O1  UNL     1      25.608   0.878 287.049  1.00  0.00    -0.319 OA
BRANCH  23  24
HETATM   24  C4  UNL     1      26.315   0.654 285.861  1.00  0.00     0.209 C 
BRANCH  24  25
HETATM   25  C3  UNL     1      27.365  -0.371 286.099  1.00  0.00     0.298 C 
BRANCH  25  26
HETATM   26  N1  UNL     1      26.900  -1.530 286.817  1.00  0.00     0.082 N 
HETATM   27  C1  UNL     1      26.877  -2.726 286.039  1.00  0.00     0.309 C 
HETATM   28  C2  UNL     1      27.567  -1.735 288.064  1.00  0.00     0.309 C 
ENDBRANCH  25  26
ENDBRANCH  24  25
ENDBRANCH  23  24
ENDBRANCH   1  23
TORSDOF 9
ENDMDL
MODEL 3
REMARK VINA RESULT: -6.582543728      1.753      2.387
REMARK  9 active torsions:
REMARK  status: ('A' for Active; 'I' for Inactive)
REMARK    1  A    between atoms: N1_2  and  C3_4 
REMARK    2  A    between atoms: C3_4  and  C4_5 
REMARK    3  A    between atoms: C4_5  and  O1_6 
REMARK    4  A    between atoms: O1_6  and  C5_7 
REMARK    5  A    between atoms: C6_10  and  N3_11 
REMARK    6  A    between atoms: N3_11  and  C7_13 
REMARK    7  A    between atoms: C7_13  and  C8_14 
REMARK    8  A    between atoms: C11_17  and  C12_18 
REMARK    9  A    between atoms: C12_18  and  N4_19 
ROOT
HETATM    1  C5  UNL     1      26.016   1.482 287.461  1.00  0.00     0.253 A 
HETATM    2  N2  UNL     1      26.872   2.450 287.825  1.00  0.00    -0.152 N 
ATOM      3  H2  UNL     1      27.725   2.708 287.329  1.00  0.00     0.188 HD
HETATM    4  C6  UNL     1      26.416   3.023 288.952  1.00  0.00     0.696 A 
HETATM    5  N6  UNL     1      25.282   2.395 289.262  1.00  0.00    -0.129 N 
ATOM      6  H6  UNL     1      24.701   2.609 290.072  1.00  0.00     0.205 HD
HETATM    7  N7  UNL     1      25.020   1.455 288.370  1.00  0.00    -0.250 N 
ATOM      8  H7  UNL     1      24.215   0.828 288.369  1.00  0.00     0.191 HD
ENDROOT
BRANCH   4   9
HETATM    9  N3  UNL     1      27.023   3.991 289.552  1.00  0.00    -0.219 N 
ATOM     10  H3  UNL     1      26.499   4.855 289.693  1.00  0.00     0.178 HD
BRANCH   9  11
HETATM   11  C7  UNL     1      28.371   3.957 290.040  1.00  0.00     0.195 C 
BRANCH  11  12
HETATM   12  C8  UNL     1      28.553   2.840 291.006  1.00  0.00     0.028 A 
HETATM   13  C9  UNL     1      29.396   1.758 290.840  1.00  0.00     0.028 A 
HETATM   14  C10 UNL     1      29.291   0.939 291.947  1.00  0.00     0.028 A 
HETATM   15  C11 UNL     1      28.378   1.527 292.791  1.00  0.00     0.035 A 
HETATM   16  N5  UNL     1      27.966   2.650 292.197  1.00  0.00    -0.360 N 
ATOM     17  H5  UNL     1      27.284   3.290 292.602  1.00  0.00     0.165 HD
BRANCH  15  18
HETATM   18  C12 UNL     1      27.947   0.982 294.126  1.00  0.00     0.286 C 
BRANCH  18  19
HETATM   19  N4  UNL     1      29.099   0.622 294.919  1.00  0.00    -0.074 N 
ATOM     20  H43 UNL     1      29.419  -0.325 294.716  1.00  0.00     0.274 HD
ATOM     21  H42 UNL     1      29.934   1.131 294.628  1.00  0.00     0.274 HD
ATOM     22  H41 UNL     1      28.902   0.751 295.912  1.00  0.00     0.274 HD
ENDBRANCH  18  19
ENDBRANCH  15  18
ENDBRANCH  11  12
ENDBRANCH   9  11
ENDBRANCH   4   9
BRANCH   1  23
HETATM   23  O1  UNL     1      26.084   0.652 286.392  1.00  0.00    -0.319 OA
BRANCH  23  24
HETATM   24  C4  UNL     1      27.161  -0.111 285.925  1.00  0.00     0.209 C 
BRANCH  24  25
HETATM   25  C3  UNL     1      26.653  -1.402 285.387  1.00  0.00     0.298 C 
BRANCH  25  26
HETATM   26  N1  UNL     1      27.065  -2.555 286.144  1.00  0.00     0.082 N 
HETATM   27  C1  UNL     1      26.936  -2.400 287.557  1.00  0.00     0.309 C 
HETATM   28  C2  UNL     1      26.469  -3.775 285.699  1.00  0.00     0.309 C 
ENDBRANCH  25  26
ENDBRANCH  24  25
ENDBRANCH  23  24
ENDBRANCH   1  23
TORSDOF 9
ENDMDL
MODEL 4
REMARK VINA RESULT: -6.558544294      1.053      1.396
REMARK  9 active torsions:
REMARK  status: ('A' for Active; 'I' for Inactive)
REMARK    1  A    between atoms: N1_2  and  C3_4 
REMARK    2  A    between atoms: C3_4  and  C4_5 
REMARK    3  A    between atoms: C4_5  and  O1_6 
REMARK    4  A    between atoms: O1_6  and  C5_7 
REMARK    5  A    between atoms: C6_10  and  N3_11 
REMARK    6  A    between atoms: N3_11  and  C7_13 
REMARK    7  A    between atoms: C7_13  and  C8_14 
REMARK    8  A    between atoms: C11_17  and  C12_18 
REMARK    9  A    between atoms: C12_18  and  N4_19 
ROOT
HETATM    1  C5  UNL     1      25.919   1.412 287.727  1.00  0.00     0.253 A 
HETATM    2  N2  UNL     1      26.868   2.308 288.039  1.00  0.00    -0.152 N 
ATOM      3  H2  UNL     1      27.784   2.385 287.596  1.00  0.00     0.188 HD
HETATM    4  C6  UNL     1      26.411   3.088 289.033  1.00  0.00     0.696 A 
HETATM    5  N6  UNL     1      25.182   2.656 289.315  1.00  0.00    -0.129 N 
ATOM      6  H6  UNL     1      24.575   3.054 290.032  1.00  0.00     0.205 HD
HETATM    7  N7  UNL     1      24.862   1.639 288.533  1.00  0.00    -0.250 N 
ATOM      8  H7  UNL     1      23.982   1.124 288.539  1.00  0.00     0.191 HD
ENDROOT
BRANCH   4   9
HETATM    9  N3  UNL     1      27.097   4.048 289.557  1.00  0.00    -0.219 N 
ATOM     10  H3  UNL     1      26.633   4.951 289.657  1.00  0.00     0.178 HD
BRANCH   9  11
HETATM   11  C7  UNL     1      28.454   3.955 290.009  1.00  0.00     0.195 C 
BRANCH  11  12
HETATM   12  C8  UNL     1      28.607   2.844 290.988  1.00  0.00     0.028 A 
HETATM   13  C9  UNL     1      29.429   1.743 290.839  1.00  0.00     0.028 A 
HETATM   14  C10 UNL     1      29.300   0.938 291.952  1.00  0.00     0.028 A 
HETATM   15  C11 UNL     1      28.394   1.553 292.785  1.00  0.00     0.035 A 
HETATM   16  N5  UNL     1      28.010   2.678 292.177  1.00  0.00    -0.360 N 
ATOM     17  H5  UNL     1      27.338   3.336 292.571  1.00  0.00     0.165 HD
BRANCH  15  18
HETATM   18  C12 UNL     1      27.944   1.031 294.122  1.00  0.00     0.286 C 
BRANCH  18  19
HETATM   19  N4  UNL     1      29.084   0.667 294.931  1.00  0.00    -0.074 N 
ATOM     20  H43 UNL     1      29.743   0.082 294.417  1.00  0.00     0.274 HD
ATOM     21  H42 UNL     1      29.694   1.465 295.108  1.00  0.00     0.274 HD
ATOM     22  H41 UNL     1      28.779   0.222 295.797  1.00  0.00     0.274 HD
ENDBRANCH  18  19
ENDBRANCH  15  18
ENDBRANCH  11  12
ENDBRANCH   9  11
ENDBRANCH   4   9
BRANCH   1  23
HETATM   23  O1  UNL     1      25.953   0.437 286.786  1.00  0.00    -0.319 OA
BRANCH  23  24
HETATM   24  C4  UNL     1      27.026  -0.362 286.372  1.00  0.00     0.209 C 
BRANCH  24  25
HETATM   25  C3  UNL     1      26.639  -1.110 285.146  1.00  0.00     0.298 C 
BRANCH  25  26
HETATM   26  N1  UNL     1      26.002  -0.298 284.141  1.00  0.00     0.082 N 
HETATM   27  C1  UNL     1      26.913   0.434 283.322  1.00  0.00     0.309 C 
HETATM   28  C2  UNL     1      25.050  -1.010 283.349  1.00  0.00     0.309 C 
ENDBRANCH  25  26
ENDBRANCH  24  25
ENDBRANCH  23  24
ENDBRANCH   1  23
TORSDOF 9
ENDMDL
MODEL 5
REMARK VINA RESULT: -6.551124444      1.872      7.336
REMARK  9 active torsions:
REMARK  status: ('A' for Active; 'I' for Inactive)
REMARK    1  A    between atoms: N1_2  and  C3_4 
REMARK    2  A    between atoms: C3_4  and  C4_5 
REMARK    3  A    between atoms: C4_5  and  O1_6 
REMARK    4  A    between atoms: O1_6  and  C5_7 
REMARK    5  A    between atoms: C6_10  and  N3_11 
REMARK    6  A    between atoms: N3_11  and  C7_13 
REMARK    7  A    between atoms: C7_13  and  C8_14 
REMARK    8  A    between atoms: C11_17  and  C12_18 
REMARK    9  A    between atoms: C12_18  and  N4_19 
ROOT
HETATM    1  C5  UNL     1      27.474   3.305 289.669  1.00  0.00     0.253 A 
HETATM    2  N2  UNL     1      27.612   2.232 288.874  1.00  0.00    -0.152 N 
ATOM      3  H2  UNL     1      28.439   1.637 288.816  1.00  0.00     0.188 HD
HETATM    4  C6  UNL     1      26.479   2.072 288.169  1.00  0.00     0.696 A 
HETATM    5  N6  UNL     1      25.661   3.054 288.545  1.00  0.00    -0.129 N 
ATOM      6  H6  UNL     1      24.719   3.198 288.181  1.00  0.00     0.205 HD
HETATM    7  N7  UNL     1      26.244   3.815 289.455  1.00  0.00    -0.250 N 
ATOM      8  H7  UNL     1      25.839   4.633 289.911  1.00  0.00     0.191 HD
ENDROOT
BRANCH   4   9
HETATM    9  N3  UNL     1      26.304   1.123 287.313  1.00  0.00    -0.219 N 
ATOM     10  H3  UNL     1      26.368   0.166 287.658  1.00  0.00     0.178 HD
BRANCH   9  11
HETATM   11  C7  UNL     1      26.026   1.298 285.917  1.00  0.00     0.195 C 
BRANCH  11  12
HETATM   12  C8  UNL     1      27.277   1.585 285.164  1.00  0.00     0.028 A 
HETATM   13  C9  UNL     1      28.407   0.788 285.140  1.00  0.00     0.028 A 
HETATM   14  C10 UNL     1      29.354   1.384 284.333  1.00  0.00     0.028 A 
HETATM   15  C11 UNL     1      28.798   2.551 283.862  1.00  0.00     0.035 A 
HETATM   16  N5  UNL     1      27.568   2.631 284.377  1.00  0.00    -0.360 N 
ATOM     17  H5  UNL     1      26.924   3.400 284.194  1.00  0.00     0.165 HD
BRANCH  15  18
HETATM   18  C12 UNL     1      29.474   3.530 282.941  1.00  0.00     0.286 C 
BRANCH  18  19
HETATM   19  N4  UNL     1      28.716   3.681 281.721  1.00  0.00    -0.074 N 
ATOM     20  H43 UNL     1      28.728   2.830 281.159  1.00  0.00     0.274 HD
ATOM     21  H42 UNL     1      27.713   3.730 281.901  1.00  0.00     0.274 HD
ATOM     22  H41 UNL     1      29.048   4.488 281.193  1.00  0.00     0.274 HD
ENDBRANCH  18  19
ENDBRANCH  15  18
ENDBRANCH  11  12
ENDBRANCH   9  11
ENDBRANCH   4   9
BRANCH   1  23
HETATM   23  O1  UNL     1      28.366   3.829 290.545  1.00  0.00    -0.319 OA
BRANCH  23  24
HETATM   24  C4  UNL     1      29.006   3.221 291.632  1.00  0.00     0.209 C 
BRANCH  24  25
HETATM   25  C3  UNL     1      28.002   2.485 292.446  1.00  0.00     0.298 C 
BRANCH  25  26
HETATM   26  N1  UNL     1      28.364   1.120 292.730  1.00  0.00     0.082 N 
HETATM   27  C1  UNL     1      29.473   0.642 291.970  1.00  0.00     0.309 C 
HETATM   28  C2  UNL     1      28.537   0.853 294.124  1.00  0.00     0.309 C 
ENDBRANCH  25  26
ENDBRANCH  24  25
ENDBRANCH  23  24
ENDBRANCH   1  23
TORSDOF 9
ENDMDL
