MODEL 1
REMARK VINA RESULT: -7.368357632      0.000      0.000
REMARK  7 active torsions:
REMARK  status: ('A' for Active; 'I' for Inactive)
REMARK    1  A    between atoms: N1_3  and  N2_5 
REMARK    2  A    between atoms: N2_5  and  C3_7 
REMARK    3  A    between atoms: C3_7  and  C4_8 
REMARK    4  A    between atoms: C3_7  and  C6_12 
REMARK    5  A    between atoms: C4_8  and  C5_9 
REMARK       I    between atoms: C6_12  and  N4_14 
REMARK    6  A    between atoms: N4_14  and  N5_16 
REMARK    7  A    between atoms: C7_18  and  C8_19 
ROOT
HETATM    1  C6  UNL     1      27.904   1.201 287.651  1.00  0.00     0.260 C 
HETATM    2  O2  UNL     1      28.356   0.064 287.307  1.00  0.00    -0.269 OA
HETATM    3  N4  UNL     1      27.609   2.156 286.661  1.00  0.00    -0.269 N 
ATOM      4  H4  UNL     1      27.252   3.079 286.906  1.00  0.00     0.190 HD
ENDROOT
BRANCH   1   5
HETATM    5  C3  UNL     1      27.694   1.513 289.102  1.00  0.00     0.201 C 
BRANCH   5   6
HETATM    6  N2  UNL     1      28.126   0.267 289.784  1.00  0.00    -0.323 N 
ATOM      7  H2  UNL     1      28.104  -0.622 289.286  1.00  0.00     0.181 HD
BRANCH   6   8
HETATM    8  N1  UNL     1      28.555   0.315 291.085  1.00  0.00    -0.320 N 
HETATM    9  C2  UNL     1      28.091   1.030 292.028  1.00  0.00     0.075 C 
HETATM   10  C1  UNL     1      28.668   0.971 293.396  1.00  0.00     0.056 C 
ATOM     11  H1  UNL     1      29.338  -0.294 291.325  1.00  0.00     0.185 HD
ENDBRANCH   6   8
ENDBRANCH   5   6
BRANCH   5  12
HETATM   12  C4  UNL     1      26.219   1.684 289.327  1.00  0.00     0.135 C 
BRANCH  12  13
HETATM   13  C5  UNL     1      25.712   3.025 289.496  1.00  0.00     0.233 C 
HETATM   14  N3  UNL     1      26.572   4.023 290.013  1.00  0.00    -0.062 NA
HETATM   15  O1  UNL     1      24.553   3.356 289.210  1.00  0.00    -0.277 OA
ENDBRANCH  12  13
ENDBRANCH   5  12
ENDBRANCH   1   5
BRANCH   3  16
HETATM   16  N5  UNL     1      27.828   1.786 285.308  1.00  0.00    -0.308 N 
HETATM   17  C7  UNL     1      28.072   2.750 284.489  1.00  0.00     0.118 C 
ATOM     18  H5  UNL     1      27.794   0.813 285.002  1.00  0.00     0.186 HD
BRANCH  17  19
HETATM   19  C8  UNL     1      28.304   2.392 283.072  1.00  0.00    -0.019 A 
HETATM   20  C9  UNL     1      27.304   1.890 282.288  1.00  0.00     0.013 A 
HETATM   21  C10 UNL     1      27.495   1.544 280.949  1.00  0.00     0.001 A 
HETATM   22  C11 UNL     1      28.751   1.723 280.416  1.00  0.00     0.000 A 
HETATM   23  C12 UNL     1      29.766   2.229 281.200  1.00  0.00     0.001 A 
HETATM   24  C13 UNL     1      29.567   2.571 282.530  1.00  0.00     0.013 A 
ENDBRANCH  17  19
ENDBRANCH   3  16
TORSDOF 7
ENDMDL
MODEL 2
REMARK VINA RESULT: -7.341221950      0.039      1.065
REMARK  7 active torsions:
REMARK  status: ('A' for Active; 'I' for Inactive)
REMARK    1  A    between atoms: N1_3  and  N2_5 
REMARK    2  A    between atoms: N2_5  and  C3_7 
REMARK    3  A    between atoms: C3_7  and  C4_8 
REMARK    4  A    between atoms: C3_7  and  C6_12 
REMARK    5  A    between atoms: C4_8  and  C5_9 
REMARK       I    between atoms: C6_12  and  N4_14 
REMARK    6  A    between atoms: N4_14  and  N5_16 
REMARK    7  A    between atoms: C7_18  and  C8_19 
ROOT
HETATM    1  C6  UNL     1      27.915   1.187 287.650  1.00  0.00     0.260 C 
HETATM    2  O2  UNL     1      28.376   0.051 287.312  1.00  0.00    -0.269 OA
HETATM    3  N4  UNL     1      27.625   2.137 286.654  1.00  0.00    -0.269 N 
ATOM      4  H4  UNL     1      27.261   3.059 286.893  1.00  0.00     0.190 HD
ENDROOT
BRANCH   1   5
HETATM    5  C3  UNL     1      27.689   1.501 289.097  1.00  0.00     0.201 C 
BRANCH   5   6
HETATM    6  N2  UNL     1      28.109   0.254 289.786  1.00  0.00    -0.323 N 
ATOM      7  H2  UNL     1      28.081  -0.637 289.292  1.00  0.00     0.181 HD
BRANCH   6   8
HETATM    8  N1  UNL     1      28.534   0.304 291.088  1.00  0.00    -0.320 N 
HETATM    9  C2  UNL     1      28.086   1.042 292.021  1.00  0.00     0.075 C 
HETATM   10  C1  UNL     1      28.656   0.981 293.392  1.00  0.00     0.056 C 
ATOM     11  H1  UNL     1      29.299  -0.324 291.337  1.00  0.00     0.185 HD
ENDBRANCH   6   8
ENDBRANCH   5   6
BRANCH   5  12
HETATM   12  C4  UNL     1      26.212   1.677 289.304  1.00  0.00     0.135 C 
BRANCH  12  13
HETATM   13  C5  UNL     1      25.709   3.019 289.477  1.00  0.00     0.233 C 
HETATM   14  N3  UNL     1      26.564   4.008 290.020  1.00  0.00    -0.062 NA
HETATM   15  O1  UNL     1      24.557   3.359 289.173  1.00  0.00    -0.277 OA
ENDBRANCH  12  13
ENDBRANCH   5  12
ENDBRANCH   1   5
BRANCH   3  16
HETATM   16  N5  UNL     1      27.860   1.765 285.304  1.00  0.00    -0.308 N 
HETATM   17  C7  UNL     1      28.085   2.730 284.481  1.00  0.00     0.118 C 
ATOM     18  H5  UNL     1      27.850   0.791 285.004  1.00  0.00     0.186 HD
BRANCH  17  19
HETATM   19  C8  UNL     1      28.332   2.370 283.067  1.00  0.00    -0.019 A 
HETATM   20  C9  UNL     1      29.570   2.493 282.502  1.00  0.00     0.013 A 
HETATM   21  C10 UNL     1      29.830   2.160 281.172  1.00  0.00     0.001 A 
HETATM   22  C11 UNL     1      28.782   1.689 280.415  1.00  0.00     0.000 A 
HETATM   23  C12 UNL     1      27.530   1.561 280.976  1.00  0.00     0.001 A 
HETATM   24  C13 UNL     1      27.279   1.895 282.300  1.00  0.00     0.013 A 
ENDBRANCH  17  19
ENDBRANCH   3  16
TORSDOF 7
ENDMDL
MODEL 3
REMARK VINA RESULT: -7.122264710      3.851      4.372
REMARK  7 active torsions:
REMARK  status: ('A' for Active; 'I' for Inactive)
REMARK    1  A    between atoms: N1_3  and  N2_5 
REMARK    2  A    between atoms: N2_5  and  C3_7 
REMARK    3  A    between atoms: C3_7  and  C4_8 
REMARK    4  A    between atoms: C3_7  and  C6_12 
REMARK    5  A    between atoms: C4_8  and  C5_9 
REMARK       I    between atoms: C6_12  and  N4_14 
REMARK    6  A    between atoms: N4_14  and  N5_16 
REMARK    7  A    between atoms: C7_18  and  C8_19 
ROOT
HETATM    1  C6  UNL     1      28.237   0.799 289.773  1.00  0.00     0.260 C 
HETATM    2  O2  UNL     1      27.687  -0.107 290.475  1.00  0.00    -0.269 OA
HETATM    3  N4  UNL     1      28.496   0.556 288.412  1.00  0.00    -0.269 N 
ATOM      4  H4  UNL     1      28.941   1.260 287.824  1.00  0.00     0.190 HD
ENDROOT
BRANCH   1   5
HETATM    5  C3  UNL     1      28.604   2.110 290.400  1.00  0.00     0.201 C 
BRANCH   5   6
HETATM    6  N2  UNL     1      27.862   2.092 291.686  1.00  0.00    -0.323 N 
ATOM      7  H2  UNL     1      26.882   2.373 291.714  1.00  0.00     0.181 HD
BRANCH   6   8
HETATM    8  N1  UNL     1      28.496   1.699 292.835  1.00  0.00    -0.320 N 
HETATM    9  C2  UNL     1      28.006   1.034 293.801  1.00  0.00     0.075 C 
HETATM   10  C1  UNL     1      28.826   0.682 294.989  1.00  0.00     0.056 C 
ATOM     11  H1  UNL     1      29.475   1.972 292.927  1.00  0.00     0.185 HD
ENDBRANCH   6   8
ENDBRANCH   5   6
BRANCH   5  12
HETATM   12  C4  UNL     1      28.034   3.205 289.544  1.00  0.00     0.135 C 
BRANCH  12  13
HETATM   13  C5  UNL     1      26.598   3.313 289.452  1.00  0.00     0.233 C 
HETATM   14  N3  UNL     1      25.905   2.490 288.532  1.00  0.00    -0.062 NA
HETATM   15  O1  UNL     1      25.929   4.094 290.142  1.00  0.00    -0.277 OA
ENDBRANCH  12  13
ENDBRANCH   5  12
ENDBRANCH   1   5
BRANCH   3  16
HETATM   16  N5  UNL     1      28.114  -0.707 287.888  1.00  0.00    -0.308 N 
HETATM   17  C7  UNL     1      28.648  -1.039 286.763  1.00  0.00     0.118 C 
ATOM     18  H5  UNL     1      27.454  -1.315 288.373  1.00  0.00     0.186 HD
BRANCH  17  19
HETATM   19  C8  UNL     1      28.267  -2.351 286.194  1.00  0.00    -0.019 A 
HETATM   20  C9  UNL     1      26.958  -2.710 286.038  1.00  0.00     0.013 A 
HETATM   21  C10 UNL     1      26.571  -3.941 285.504  1.00  0.00     0.001 A 
HETATM   22  C11 UNL     1      27.564  -4.814 285.126  1.00  0.00     0.000 A 
HETATM   23  C12 UNL     1      28.888  -4.460 285.281  1.00  0.00     0.001 A 
HETATM   24  C13 UNL     1      29.264  -3.235 285.812  1.00  0.00     0.013 A 
ENDBRANCH  17  19
ENDBRANCH   3  16
TORSDOF 7
ENDMDL
MODEL 4
REMARK VINA RESULT: -7.049902543      4.233      4.682
REMARK  7 active torsions:
REMARK  status: ('A' for Active; 'I' for Inactive)
REMARK    1  A    between atoms: N1_3  and  N2_5 
REMARK    2  A    between atoms: N2_5  and  C3_7 
REMARK    3  A    between atoms: C3_7  and  C4_8 
REMARK    4  A    between atoms: C3_7  and  C6_12 
REMARK    5  A    between atoms: C4_8  and  C5_9 
REMARK       I    between atoms: C6_12  and  N4_14 
REMARK    6  A    between atoms: N4_14  and  N5_16 
REMARK    7  A    between atoms: C7_18  and  C8_19 
ROOT
HETATM    1  C6  UNL     1      27.473  -0.064 288.589  1.00  0.00     0.260 C 
HETATM    2  O2  UNL     1      26.386   0.026 287.936  1.00  0.00    -0.269 OA
HETATM    3  N4  UNL     1      28.204  -1.265 288.551  1.00  0.00    -0.269 N 
ATOM      4  H4  UNL     1      29.076  -1.371 289.069  1.00  0.00     0.190 HD
ENDROOT
BRANCH   1   5
HETATM    5  C3  UNL     1      27.960   1.103 289.392  1.00  0.00     0.201 C 
BRANCH   5   6
HETATM    6  N2  UNL     1      28.679   0.463 290.523  1.00  0.00    -0.323 N 
ATOM      7  H2  UNL     1      29.536  -0.062 290.352  1.00  0.00     0.181 HD
BRANCH   6   8
HETATM    8  N1  UNL     1      28.188   0.579 291.797  1.00  0.00    -0.320 N 
HETATM    9  C2  UNL     1      28.831   0.889 292.849  1.00  0.00     0.075 C 
HETATM   10  C1  UNL     1      28.155   0.974 294.169  1.00  0.00     0.056 C 
ATOM     11  H1  UNL     1      27.192   0.396 291.916  1.00  0.00     0.185 HD
ENDBRANCH   6   8
ENDBRANCH   5   6
BRANCH   5  12
HETATM   12  C4  UNL     1      26.759   1.817 289.942  1.00  0.00     0.135 C 
BRANCH  12  13
HETATM   13  C5  UNL     1      26.868   3.236 290.183  1.00  0.00     0.233 C 
HETATM   14  N3  UNL     1      28.021   3.736 290.833  1.00  0.00    -0.062 NA
HETATM   15  O1  UNL     1      25.998   4.052 289.848  1.00  0.00    -0.277 OA
ENDBRANCH  12  13
ENDBRANCH   5  12
ENDBRANCH   1   5
BRANCH   3  16
HETATM   16  N5  UNL     1      27.683  -2.325 287.763  1.00  0.00    -0.308 N 
HETATM   17  C7  UNL     1      28.237  -2.503 286.613  1.00  0.00     0.118 C 
ATOM     18  H5  UNL     1      26.915  -2.912 288.089  1.00  0.00     0.186 HD
BRANCH  17  19
HETATM   19  C8  UNL     1      27.712  -3.602 285.772  1.00  0.00    -0.019 A 
HETATM   20  C9  UNL     1      26.377  -3.725 285.506  1.00  0.00     0.013 A 
HETATM   21  C10 UNL     1      25.856  -4.751 284.716  1.00  0.00     0.001 A 
HETATM   22  C11 UNL     1      26.740  -5.666 284.193  1.00  0.00     0.000 A 
HETATM   23  C12 UNL     1      28.088  -5.550 284.457  1.00  0.00     0.001 A 
HETATM   24  C13 UNL     1      28.598  -4.526 285.243  1.00  0.00     0.013 A 
ENDBRANCH  17  19
ENDBRANCH   3  16
TORSDOF 7
ENDMDL
MODEL 5
REMARK VINA RESULT: -7.047798201      4.236      4.780
REMARK  7 active torsions:
REMARK  status: ('A' for Active; 'I' for Inactive)
REMARK    1  A    between atoms: N1_3  and  N2_5 
REMARK    2  A    between atoms: N2_5  and  C3_7 
REMARK    3  A    between atoms: C3_7  and  C4_8 
REMARK    4  A    between atoms: C3_7  and  C6_12 
REMARK    5  A    between atoms: C4_8  and  C5_9 
REMARK       I    between atoms: C6_12  and  N4_14 
REMARK    6  A    between atoms: N4_14  and  N5_16 
REMARK    7  A    between atoms: C7_18  and  C8_19 
ROOT
HETATM    1  C6  UNL     1      27.467  -0.080 288.575  1.00  0.00     0.260 C 
HETATM    2  O2  UNL     1      26.384   0.005 287.915  1.00  0.00    -0.269 OA
HETATM    3  N4  UNL     1      28.203  -1.278 288.543  1.00  0.00    -0.269 N 
ATOM      4  H4  UNL     1      29.072  -1.380 289.066  1.00  0.00     0.190 HD
ENDROOT
BRANCH   1   5
HETATM    5  C3  UNL     1      27.945   1.090 289.379  1.00  0.00     0.201 C 
BRANCH   5   6
HETATM    6  N2  UNL     1      28.661   0.455 290.514  1.00  0.00    -0.323 N 
ATOM      7  H2  UNL     1      29.512  -0.081 290.345  1.00  0.00     0.181 HD
BRANCH   6   8
HETATM    8  N1  UNL     1      28.176   0.588 291.789  1.00  0.00    -0.320 N 
HETATM    9  C2  UNL     1      28.832   0.868 292.841  1.00  0.00     0.075 C 
HETATM   10  C1  UNL     1      28.160   0.978 294.161  1.00  0.00     0.056 C 
ATOM     11  H1  UNL     1      27.173   0.445 291.907  1.00  0.00     0.185 HD
ENDBRANCH   6   8
ENDBRANCH   5   6
BRANCH   5  12
HETATM   12  C4  UNL     1      26.738   1.799 289.923  1.00  0.00     0.135 C 
BRANCH  12  13
HETATM   13  C5  UNL     1      26.841   3.217 290.170  1.00  0.00     0.233 C 
HETATM   14  N3  UNL     1      27.991   3.718 290.826  1.00  0.00    -0.062 NA
HETATM   15  O1  UNL     1      25.970   4.032 289.836  1.00  0.00    -0.277 OA
ENDBRANCH  12  13
ENDBRANCH   5  12
ENDBRANCH   1   5
BRANCH   3  16
HETATM   16  N5  UNL     1      27.691  -2.341 287.753  1.00  0.00    -0.308 N 
HETATM   17  C7  UNL     1      28.257  -2.523 286.610  1.00  0.00     0.118 C 
ATOM     18  H5  UNL     1      26.919  -2.927 288.072  1.00  0.00     0.186 HD
BRANCH  17  19
HETATM   19  C8  UNL     1      27.741  -3.625 285.767  1.00  0.00    -0.019 A 
HETATM   20  C9  UNL     1      28.576  -4.551 285.210  1.00  0.00     0.013 A 
HETATM   21  C10 UNL     1      28.117  -5.600 284.411  1.00  0.00     0.001 A 
HETATM   22  C11 UNL     1      26.762  -5.686 284.189  1.00  0.00     0.000 A 
HETATM   23  C12 UNL     1      25.911  -4.756 284.747  1.00  0.00     0.001 A 
HETATM   24  C13 UNL     1      26.377  -3.716 285.540  1.00  0.00     0.013 A 
ENDBRANCH  17  19
ENDBRANCH   3  16
TORSDOF 7
ENDMDL
