MODEL 1
REMARK VINA RESULT: -6.282402407      0.000      0.000
REMARK  7 active torsions:
REMARK  status: ('A' for Active; 'I' for Inactive)
REMARK    1  A    between atoms: C2_2  and  C3_3 
REMARK       I    between atoms: C3_3  and  N1_5 
REMARK    2  A    between atoms: N1_5  and  C4_7 
REMARK    3  A    between atoms: C4_7  and  C5_8 
REMARK    4  A    between atoms: C4_7  and  C9_16 
REMARK    5  A    between atoms: C5_8  and  C6_9 
REMARK       I    between atoms: C9_16  and  N4_18 
REMARK    6  A    between atoms: N4_18  and  C10_20 
REMARK    7  A    between atoms: C10_20  and  C12_22 
ROOT
HETATM    1  C4  UNL     1      26.742   1.108 285.879  1.00  0.00     0.182 C 
ENDROOT
BRANCH   1   2
HETATM    2  N1  UNL     1      26.975  -0.298 285.676  1.00  0.00    -0.344 N 
HETATM    3  C3  UNL     1      26.250  -1.101 284.774  1.00  0.00     0.241 C 
HETATM    4  O1  UNL     1      25.334  -0.607 284.080  1.00  0.00    -0.269 OA
ATOM      5  H1  UNL     1      27.713  -0.742 286.222  1.00  0.00     0.163 HD
BRANCH   3   6
HETATM    6  C2  UNL     1      26.546  -2.508 284.628  1.00  0.00     0.064 C 
HETATM    7  C1  UNL     1      26.771  -3.307 285.673  1.00  0.00     0.017 C 
ENDBRANCH   3   6
ENDBRANCH   1   2
BRANCH   1   8
HETATM    8  C5  UNL     1      27.819   2.030 285.529  1.00  0.00     0.093 C 
BRANCH   8   9
HETATM    9  C6  UNL     1      28.065   2.410 284.164  1.00  0.00     0.028 A 
HETATM   10  C7  UNL     1      29.044   3.149 283.555  1.00  0.00     0.114 A 
HETATM   11  N2  UNL     1      28.803   3.191 282.233  1.00  0.00    -0.360 N 
HETATM   12  C8  UNL     1      27.672   2.476 282.011  1.00  0.00     0.180 A 
ATOM     13  H2  UNL     1      29.365   3.670 281.529  1.00  0.00     0.166 HD
HETATM   14  N3  UNL     1      27.214   2.000 283.165  1.00  0.00    -0.354 N 
ATOM     15  H3  UNL     1      26.378   1.429 283.288  1.00  0.00     0.166 HD
ENDBRANCH   8   9
ENDBRANCH   1   8
BRANCH   1  16
HETATM   16  C9  UNL     1      26.164   1.358 287.250  1.00  0.00     0.241 C 
HETATM   17  O2  UNL     1      24.947   1.150 287.475  1.00  0.00    -0.271 OA
HETATM   18  N4  UNL     1      26.948   1.831 288.330  1.00  0.00    -0.347 N 
ATOM     19  H4  UNL     1      27.940   2.007 288.171  1.00  0.00     0.163 HD
BRANCH  18  20
HETATM   20  C10 UNL     1      26.415   2.070 289.624  1.00  0.00     0.169 C 
HETATM   21  C11 UNL     1      26.105   3.560 289.732  1.00  0.00     0.042 C 
BRANCH  20  22
HETATM   22  C12 UNL     1      27.256   1.607 290.729  1.00  0.00     0.253 C 
HETATM   23  N5  UNL     1      27.784   0.298 290.714  1.00  0.00    -0.060 NA
HETATM   24  O3  UNL     1      27.506   2.376 291.686  1.00  0.00    -0.275 OA
ENDBRANCH  20  22
ENDBRANCH  18  20
ENDBRANCH   1  16
TORSDOF 7
ENDMDL
MODEL 2
REMARK VINA RESULT: -6.211304880      2.971      6.538
REMARK  7 active torsions:
REMARK  status: ('A' for Active; 'I' for Inactive)
REMARK    1  A    between atoms: C2_2  and  C3_3 
REMARK       I    between atoms: C3_3  and  N1_5 
REMARK    2  A    between atoms: N1_5  and  C4_7 
REMARK    3  A    between atoms: C4_7  and  C5_8 
REMARK    4  A    between atoms: C4_7  and  C9_16 
REMARK    5  A    between atoms: C5_8  and  C6_9 
REMARK       I    between atoms: C9_16  and  N4_18 
REMARK    6  A    between atoms: N4_18  and  C10_20 
REMARK    7  A    between atoms: C10_20  and  C12_22 
ROOT
HETATM    1  C4  UNL     1      28.465   0.899 289.910  1.00  0.00     0.182 C 
ENDROOT
BRANCH   1   2
HETATM    2  N1  UNL     1      28.050   0.619 291.260  1.00  0.00    -0.344 N 
HETATM    3  C3  UNL     1      28.503   1.323 292.392  1.00  0.00     0.241 C 
HETATM    4  O1  UNL     1      29.320   2.262 292.270  1.00  0.00    -0.269 OA
ATOM      5  H1  UNL     1      27.383  -0.139 291.406  1.00  0.00     0.163 HD
BRANCH   3   6
HETATM    6  C2  UNL     1      28.037   0.980 293.716  1.00  0.00     0.064 C 
HETATM    7  C1  UNL     1      28.867   0.661 294.710  1.00  0.00     0.017 C 
ENDBRANCH   3   6
ENDBRANCH   1   2
BRANCH   1   8
HETATM    8  C5  UNL     1      28.151   2.217 289.365  1.00  0.00     0.093 C 
BRANCH   8   9
HETATM    9  C6  UNL     1      26.791   2.630 289.142  1.00  0.00     0.028 A 
HETATM   10  C7  UNL     1      25.989   3.576 289.721  1.00  0.00     0.114 A 
HETATM   11  N2  UNL     1      24.786   3.559 289.120  1.00  0.00    -0.360 N 
HETATM   12  C8  UNL     1      24.834   2.600 288.162  1.00  0.00     0.180 A 
ATOM     13  H2  UNL     1      23.988   4.153 289.344  1.00  0.00     0.166 HD
HETATM   14  N3  UNL     1      26.035   2.031 288.163  1.00  0.00    -0.354 N 
ATOM     15  H3  UNL     1      26.343   1.280 287.545  1.00  0.00     0.166 HD
ENDBRANCH   8   9
ENDBRANCH   1   8
BRANCH   1  16
HETATM   16  C9  UNL     1      28.083  -0.235 288.991  1.00  0.00     0.241 C 
HETATM   17  O2  UNL     1      27.362  -1.174 289.406  1.00  0.00    -0.271 OA
HETATM   18  N4  UNL     1      28.509  -0.295 287.642  1.00  0.00    -0.347 N 
ATOM     19  H4  UNL     1      29.096   0.458 287.282  1.00  0.00     0.163 HD
BRANCH  18  20
HETATM   20  C10 UNL     1      28.155  -1.357 286.768  1.00  0.00     0.169 C 
HETATM   21  C11 UNL     1      29.409  -1.764 285.998  1.00  0.00     0.042 C 
BRANCH  20  22
HETATM   22  C12 UNL     1      27.036  -1.065 285.871  1.00  0.00     0.253 C 
HETATM   23  N5  UNL     1      26.819  -1.865 284.729  1.00  0.00    -0.060 NA
HETATM   24  O3  UNL     1      26.271  -0.105 286.121  1.00  0.00    -0.275 OA
ENDBRANCH  20  22
ENDBRANCH  18  20
ENDBRANCH   1  16
TORSDOF 7
ENDMDL
MODEL 3
REMARK VINA RESULT: -6.177310454      2.231      2.851
REMARK  7 active torsions:
REMARK  status: ('A' for Active; 'I' for Inactive)
REMARK    1  A    between atoms: C2_2  and  C3_3 
REMARK       I    between atoms: C3_3  and  N1_5 
REMARK    2  A    between atoms: N1_5  and  C4_7 
REMARK    3  A    between atoms: C4_7  and  C5_8 
REMARK    4  A    between atoms: C4_7  and  C9_16 
REMARK    5  A    between atoms: C5_8  and  C6_9 
REMARK       I    between atoms: C9_16  and  N4_18 
REMARK    6  A    between atoms: N4_18  and  C10_20 
REMARK    7  A    between atoms: C10_20  and  C12_22 
ROOT
HETATM    1  C4  UNL     1      26.760   0.374 287.990  1.00  0.00     0.182 C 
ENDROOT
BRANCH   1   2
HETATM    2  N1  UNL     1      27.935  -0.390 287.661  1.00  0.00    -0.344 N 
HETATM    3  C3  UNL     1      27.940  -1.780 287.433  1.00  0.00     0.241 C 
HETATM    4  O1  UNL     1      26.879  -2.439 287.509  1.00  0.00    -0.269 OA
ATOM      5  H1  UNL     1      28.822   0.108 287.589  1.00  0.00     0.163 HD
BRANCH   3   6
HETATM    6  C2  UNL     1      29.164  -2.475 287.107  1.00  0.00     0.064 C 
HETATM    7  C1  UNL     1      29.974  -2.081 286.123  1.00  0.00     0.017 C 
ENDBRANCH   3   6
ENDBRANCH   1   2
BRANCH   1   8
HETATM    8  C5  UNL     1      26.104   1.105 286.909  1.00  0.00     0.093 C 
BRANCH   8   9
HETATM    9  C6  UNL     1      26.748   1.301 285.639  1.00  0.00     0.028 A 
HETATM   10  C7  UNL     1      26.816   0.553 284.494  1.00  0.00     0.114 A 
HETATM   11  N2  UNL     1      27.553   1.212 283.582  1.00  0.00    -0.360 N 
HETATM   12  C8  UNL     1      27.948   2.376 284.157  1.00  0.00     0.180 A 
ATOM     13  H2  UNL     1      27.775   0.897 282.638  1.00  0.00     0.166 HD
HETATM   14  N3  UNL     1      27.472   2.443 285.396  1.00  0.00    -0.354 N 
ATOM     15  H3  UNL     1      27.618   3.210 286.053  1.00  0.00     0.166 HD
ENDBRANCH   8   9
ENDBRANCH   1   8
BRANCH   1  16
HETATM   16  C9  UNL     1      27.000   1.214 289.220  1.00  0.00     0.241 C 
HETATM   17  O2  UNL     1      26.114   1.996 289.639  1.00  0.00    -0.271 OA
HETATM   18  N4  UNL     1      28.214   1.164 289.949  1.00  0.00    -0.347 N 
ATOM     19  H4  UNL     1      28.950   0.536 289.627  1.00  0.00     0.163 HD
BRANCH  18  20
HETATM   20  C10 UNL     1      28.451   1.950 291.107  1.00  0.00     0.169 C 
HETATM   21  C11 UNL     1      29.683   2.811 290.842  1.00  0.00     0.042 C 
BRANCH  20  22
HETATM   22  C12 UNL     1      28.576   1.188 292.350  1.00  0.00     0.253 C 
HETATM   23  N5  UNL     1      27.762   1.506 293.458  1.00  0.00    -0.060 NA
HETATM   24  O3  UNL     1      29.406   0.253 292.427  1.00  0.00    -0.275 OA
ENDBRANCH  20  22
ENDBRANCH  18  20
ENDBRANCH   1  16
TORSDOF 7
ENDMDL
MODEL 4
REMARK VINA RESULT: -6.130909014      2.961      6.566
REMARK  7 active torsions:
REMARK  status: ('A' for Active; 'I' for Inactive)
REMARK    1  A    between atoms: C2_2  and  C3_3 
REMARK       I    between atoms: C3_3  and  N1_5 
REMARK    2  A    between atoms: N1_5  and  C4_7 
REMARK    3  A    between atoms: C4_7  and  C5_8 
REMARK    4  A    between atoms: C4_7  and  C9_16 
REMARK    5  A    between atoms: C5_8  and  C6_9 
REMARK       I    between atoms: C9_16  and  N4_18 
REMARK    6  A    between atoms: N4_18  and  C10_20 
REMARK    7  A    between atoms: C10_20  and  C12_22 
ROOT
HETATM    1  C4  UNL     1      28.204   0.333 289.180  1.00  0.00     0.182 C 
ENDROOT
BRANCH   1   2
HETATM    2  N1  UNL     1      27.800   0.244 290.558  1.00  0.00    -0.344 N 
HETATM    3  C3  UNL     1      28.467   0.880 291.623  1.00  0.00     0.241 C 
HETATM    4  O1  UNL     1      29.481   1.580 291.410  1.00  0.00    -0.269 OA
ATOM      5  H1  UNL     1      26.977  -0.316 290.778  1.00  0.00     0.163 HD
BRANCH   3   6
HETATM    6  C2  UNL     1      27.996   0.741 292.983  1.00  0.00     0.064 C 
HETATM    7  C1  UNL     1      28.802   0.868 294.039  1.00  0.00     0.017 C 
ENDBRANCH   3   6
ENDBRANCH   1   2
BRANCH   1   8
HETATM    8  C5  UNL     1      27.964   1.595 288.484  1.00  0.00     0.093 C 
BRANCH   8   9
HETATM    9  C6  UNL     1      26.896   2.474 288.876  1.00  0.00     0.028 A 
HETATM   10  C7  UNL     1      26.836   3.583 289.677  1.00  0.00     0.114 A 
HETATM   11  N2  UNL     1      25.572   4.041 289.699  1.00  0.00    -0.360 N 
HETATM   12  C8  UNL     1      24.837   3.218 288.909  1.00  0.00     0.180 A 
ATOM     13  H2  UNL     1      25.230   4.853 290.213  1.00  0.00     0.166 HD
HETATM   14  N3  UNL     1      25.620   2.269 288.407  1.00  0.00    -0.354 N 
ATOM     15  H3  UNL     1      25.326   1.518 287.782  1.00  0.00     0.166 HD
ENDBRANCH   8   9
ENDBRANCH   1   8
BRANCH   1  16
HETATM   16  C9  UNL     1      27.730  -0.874 288.409  1.00  0.00     0.241 C 
HETATM   17  O2  UNL     1      27.277  -1.876 289.011  1.00  0.00    -0.271 OA
HETATM   18  N4  UNL     1      27.774  -0.936 286.994  1.00  0.00    -0.347 N 
ATOM     19  H4  UNL     1      28.139  -0.134 286.482  1.00  0.00     0.163 HD
BRANCH  18  20
HETATM   20  C10 UNL     1      27.331  -2.067 286.258  1.00  0.00     0.169 C 
HETATM   21  C11 UNL     1      28.563  -2.874 285.858  1.00  0.00     0.042 C 
BRANCH  20  22
HETATM   22  C12 UNL     1      26.486  -1.754 285.104  1.00  0.00     0.253 C 
HETATM   23  N5  UNL     1      25.967  -0.452 284.941  1.00  0.00    -0.060 NA
HETATM   24  O3  UNL     1      26.226  -2.646 284.263  1.00  0.00    -0.275 OA
ENDBRANCH  20  22
ENDBRANCH  18  20
ENDBRANCH   1  16
TORSDOF 7
ENDMDL
MODEL 5
REMARK VINA RESULT: -6.109276219      2.179      4.318
REMARK  7 active torsions:
REMARK  status: ('A' for Active; 'I' for Inactive)
REMARK    1  A    between atoms: C2_2  and  C3_3 
REMARK       I    between atoms: C3_3  and  N1_5 
REMARK    2  A    between atoms: N1_5  and  C4_7 
REMARK    3  A    between atoms: C4_7  and  C5_8 
REMARK    4  A    between atoms: C4_7  and  C9_16 
REMARK    5  A    between atoms: C5_8  and  C6_9 
REMARK       I    between atoms: C9_16  and  N4_18 
REMARK    6  A    between atoms: N4_18  and  C10_20 
REMARK    7  A    between atoms: C10_20  and  C12_22 
ROOT
HETATM    1  C4  UNL     1      27.514   1.133 287.418  1.00  0.00     0.182 C 
ENDROOT
BRANCH   1   2
HETATM    2  N1  UNL     1      27.531   2.062 286.319  1.00  0.00    -0.344 N 
HETATM    3  C3  UNL     1      28.261   1.871 285.130  1.00  0.00     0.241 C 
HETATM    4  O1  UNL     1      28.956   0.843 284.970  1.00  0.00    -0.269 OA
ATOM      5  H1  UNL     1      26.978   2.914 286.406  1.00  0.00     0.163 HD
BRANCH   3   6
HETATM    6  C2  UNL     1      28.225   2.853 284.070  1.00  0.00     0.064 C 
HETATM    7  C1  UNL     1      29.318   3.236 283.407  1.00  0.00     0.017 C 
ENDBRANCH   3   6
ENDBRANCH   1   2
BRANCH   1   8
HETATM    8  C5  UNL     1      26.506   0.077 287.396  1.00  0.00     0.093 C 
BRANCH   8   9
HETATM    9  C6  UNL     1      26.755  -1.183 286.749  1.00  0.00     0.028 A 
HETATM   10  C7  UNL     1      27.098  -2.426 287.210  1.00  0.00     0.114 A 
HETATM   11  N2  UNL     1      27.200  -3.268 286.167  1.00  0.00    -0.360 N 
HETATM   12  C8  UNL     1      26.920  -2.552 285.049  1.00  0.00     0.180 A 
ATOM     13  H2  UNL     1      27.443  -4.258 286.208  1.00  0.00     0.166 HD
HETATM   14  N3  UNL     1      26.651  -1.294 285.383  1.00  0.00    -0.354 N 
ATOM     15  H3  UNL     1      26.410  -0.542 284.738  1.00  0.00     0.166 HD
ENDBRANCH   8   9
ENDBRANCH   1   8
BRANCH   1  16
HETATM   16  C9  UNL     1      27.582   1.867 288.735  1.00  0.00     0.241 C 
HETATM   17  O2  UNL     1      26.935   2.928 288.905  1.00  0.00    -0.271 OA
HETATM   18  N4  UNL     1      28.364   1.406 289.821  1.00  0.00    -0.347 N 
ATOM     19  H4  UNL     1      28.900   0.546 289.706  1.00  0.00     0.163 HD
BRANCH  18  20
HETATM   20  C10 UNL     1      28.436   2.089 291.064  1.00  0.00     0.169 C 
HETATM   21  C11 UNL     1      29.599   3.074 290.989  1.00  0.00     0.042 C 
BRANCH  20  22
HETATM   22  C12 UNL     1      28.535   1.218 292.237  1.00  0.00     0.253 C 
HETATM   23  N5  UNL     1      27.725   1.460 293.367  1.00  0.00    -0.060 NA
HETATM   24  O3  UNL     1      29.339   0.258 292.234  1.00  0.00    -0.275 OA
ENDBRANCH  20  22
ENDBRANCH  18  20
ENDBRANCH   1  16
TORSDOF 7
ENDMDL
