MODEL 1
REMARK VINA RESULT: -6.920229049      0.000      0.000
REMARK  8 active torsions:
REMARK  status: ('A' for Active; 'I' for Inactive)
REMARK       I    between atoms: C1_4  and  N3_6 
REMARK    1  A    between atoms: N3_6  and  N4_8 
REMARK    2  A    between atoms: C2_10  and  C3_11 
REMARK    3  A    between atoms: C6_14  and  O1_15 
REMARK    4  A    between atoms: O1_15  and  C7_16 
REMARK    5  A    between atoms: C7_16  and  C8_18 
REMARK    6  A    between atoms: C8_18  and  N5_19 
REMARK    7  A    between atoms: N5_19  and  C9_21 
REMARK    8  A    between atoms: C9_21  and  C10_22 
ROOT
HETATM    1  C3  UNL     1      26.808   0.792 286.466  1.00  0.00    -0.019 A 
HETATM    2  C4  UNL     1      25.682   1.351 287.003  1.00  0.00     0.015 A 
HETATM    3  C5  UNL     1      25.638   1.731 288.320  1.00  0.00     0.038 A 
HETATM    4  C6  UNL     1      26.714   1.567 289.154  1.00  0.00     0.079 A 
HETATM    5  C11 UNL     1      27.857   0.996 288.592  1.00  0.00     0.038 A 
HETATM    6  C12 UNL     1      27.898   0.616 287.269  1.00  0.00     0.015 A 
ENDROOT
BRANCH   1   7
HETATM    7  C2  UNL     1      26.865   0.376 285.066  1.00  0.00     0.118 C 
HETATM    8  N4  UNL     1      27.206   1.197 284.141  1.00  0.00    -0.309 N 
ATOM      9  H4  UNL     1      27.445   2.161 284.375  1.00  0.00     0.186 HD
BRANCH   8  10
HETATM   10  N3  UNL     1      27.250   0.771 282.828  1.00  0.00    -0.274 N 
HETATM   11  C1  UNL     1      27.003   1.673 281.775  1.00  0.00     0.200 C 
HETATM   12  N1  UNL     1      27.554   2.840 281.690  1.00  0.00    -0.372 N 
HETATM   13  N2  UNL     1      26.100   1.312 280.728  1.00  0.00    -0.062 NA
ATOM     14  H12 UNL     1      27.375   3.493 280.927  1.00  0.00     0.158 HD
ATOM     15  H11 UNL     1      28.199   3.098 282.437  1.00  0.00     0.158 HD
ATOM     16  H3  UNL     1      27.463  -0.204 282.619  1.00  0.00     0.189 HD
ENDBRANCH   8  10
ENDBRANCH   1   7
BRANCH   4  17
HETATM   17  O1  UNL     1      26.746   1.925 290.493  1.00  0.00    -0.278 OA
BRANCH  17  18
HETATM   18  C7  UNL     1      27.532   2.989 290.872  1.00  0.00     0.281 C 
HETATM   19  O2  UNL     1      27.412   4.087 290.276  1.00  0.00    -0.263 OA
BRANCH  18  20
HETATM   20  C8  UNL     1      28.533   2.898 291.974  1.00  0.00     0.226 C 
BRANCH  20  21
HETATM   21  N5  UNL     1      29.461   1.830 291.833  1.00  0.00    -0.407 N 
ATOM     22  H5  UNL     1      30.284   1.903 291.235  1.00  0.00     0.154 HD
BRANCH  21  23
HETATM   23  C9  UNL     1      29.169   0.649 292.582  1.00  0.00     0.183 C 
BRANCH  23  24
HETATM   24  C10 UNL     1      28.482   0.941 293.871  1.00  0.00     0.250 C 
HETATM   25  O3  UNL     1      28.875   0.542 294.936  1.00  0.00    -0.305 OA
ENDBRANCH  23  24
ENDBRANCH  21  23
ENDBRANCH  20  21
ENDBRANCH  18  20
ENDBRANCH  17  18
ENDBRANCH   4  17
TORSDOF 8
ENDMDL
MODEL 2
REMARK VINA RESULT: -6.898406846      0.059      1.053
REMARK  8 active torsions:
REMARK  status: ('A' for Active; 'I' for Inactive)
REMARK       I    between atoms: C1_4  and  N3_6 
REMARK    1  A    between atoms: N3_6  and  N4_8 
REMARK    2  A    between atoms: C2_10  and  C3_11 
REMARK    3  A    between atoms: C6_14  and  O1_15 
REMARK    4  A    between atoms: O1_15  and  C7_16 
REMARK    5  A    between atoms: C7_16  and  C8_18 
REMARK    6  A    between atoms: C8_18  and  N5_19 
REMARK    7  A    between atoms: N5_19  and  C9_21 
REMARK    8  A    between atoms: C9_21  and  C10_22 
ROOT
HETATM    1  C3  UNL     1      26.830   0.765 286.435  1.00  0.00    -0.019 A 
HETATM    2  C4  UNL     1      27.932   0.593 287.224  1.00  0.00     0.015 A 
HETATM    3  C5  UNL     1      27.927   0.970 288.543  1.00  0.00     0.038 A 
HETATM    4  C6  UNL     1      26.821   1.534 289.126  1.00  0.00     0.079 A 
HETATM    5  C11 UNL     1      25.703   1.703 288.309  1.00  0.00     0.038 A 
HETATM    6  C12 UNL     1      25.712   1.323 286.985  1.00  0.00     0.015 A 
ENDROOT
BRANCH   1   7
HETATM    7  C2  UNL     1      26.826   0.375 285.027  1.00  0.00     0.118 C 
HETATM    8  N4  UNL     1      27.269   1.163 284.116  1.00  0.00    -0.309 N 
ATOM      9  H4  UNL     1      27.632   2.082 284.368  1.00  0.00     0.186 HD
BRANCH   8  10
HETATM   10  N3  UNL     1      27.252   0.763 282.795  1.00  0.00    -0.274 N 
HETATM   11  C1  UNL     1      26.965   1.686 281.771  1.00  0.00     0.200 C 
HETATM   12  N1  UNL     1      27.521   2.851 281.684  1.00  0.00    -0.372 N 
HETATM   13  N2  UNL     1      26.014   1.351 280.757  1.00  0.00    -0.062 NA
ATOM     14  H12 UNL     1      27.314   3.520 280.943  1.00  0.00     0.158 HD
ATOM     15  H11 UNL     1      28.200   3.090 282.407  1.00  0.00     0.158 HD
ATOM     16  H3  UNL     1      27.448  -0.209 282.558  1.00  0.00     0.189 HD
ENDBRANCH   8  10
ENDBRANCH   1   7
BRANCH   4  17
HETATM   17  O1  UNL     1      26.738   1.941 290.449  1.00  0.00    -0.278 OA
BRANCH  17  18
HETATM   18  C7  UNL     1      27.526   2.990 290.866  1.00  0.00     0.281 C 
HETATM   19  O2  UNL     1      27.449   4.092 290.272  1.00  0.00    -0.263 OA
BRANCH  18  20
HETATM   20  C8  UNL     1      28.479   2.877 292.008  1.00  0.00     0.226 C 
BRANCH  20  21
HETATM   21  N5  UNL     1      29.436   1.835 291.868  1.00  0.00    -0.407 N 
ATOM     22  H5  UNL     1      30.258   1.931 291.273  1.00  0.00     0.154 HD
BRANCH  21  23
HETATM   23  C9  UNL     1      29.174   0.645 292.614  1.00  0.00     0.183 C 
BRANCH  23  24
HETATM   24  C10 UNL     1      28.472   0.915 293.900  1.00  0.00     0.250 C 
HETATM   25  O3  UNL     1      28.875   0.534 294.967  1.00  0.00    -0.305 OA
ENDBRANCH  23  24
ENDBRANCH  21  23
ENDBRANCH  20  21
ENDBRANCH  18  20
ENDBRANCH  17  18
ENDBRANCH   4  17
TORSDOF 8
ENDMDL
MODEL 3
REMARK VINA RESULT: -6.574989807      1.733      2.795
REMARK  8 active torsions:
REMARK  status: ('A' for Active; 'I' for Inactive)
REMARK       I    between atoms: C1_4  and  N3_6 
REMARK    1  A    between atoms: N3_6  and  N4_8 
REMARK    2  A    between atoms: C2_10  and  C3_11 
REMARK    3  A    between atoms: C6_14  and  O1_15 
REMARK    4  A    between atoms: O1_15  and  C7_16 
REMARK    5  A    between atoms: C7_16  and  C8_18 
REMARK    6  A    between atoms: C8_18  and  N5_19 
REMARK    7  A    between atoms: N5_19  and  C9_21 
REMARK    8  A    between atoms: C9_21  and  C10_22 
ROOT
HETATM    1  C3  UNL     1      26.981   1.402 287.098  1.00  0.00    -0.019 A 
HETATM    2  C4  UNL     1      26.067   1.912 287.976  1.00  0.00     0.015 A 
HETATM    3  C5  UNL     1      26.114   1.600 289.311  1.00  0.00     0.038 A 
HETATM    4  C6  UNL     1      27.076   0.766 289.821  1.00  0.00     0.079 A 
HETATM    5  C11 UNL     1      28.004   0.253 288.914  1.00  0.00     0.038 A 
HETATM    6  C12 UNL     1      27.952   0.570 287.574  1.00  0.00     0.015 A 
ENDROOT
BRANCH   1   7
HETATM    7  C2  UNL     1      26.936   1.721 285.672  1.00  0.00     0.118 C 
HETATM    8  N4  UNL     1      27.781   2.529 285.143  1.00  0.00    -0.309 N 
ATOM      9  H4  UNL     1      28.503   2.962 285.719  1.00  0.00     0.186 HD
BRANCH   8  10
HETATM   10  N3  UNL     1      27.710   2.809 283.793  1.00  0.00    -0.274 N 
HETATM   11  C1  UNL     1      28.835   2.630 282.965  1.00  0.00     0.200 C 
HETATM   12  N1  UNL     1      29.565   1.562 282.973  1.00  0.00    -0.372 N 
HETATM   13  N2  UNL     1      29.220   3.664 282.056  1.00  0.00    -0.062 NA
ATOM     14  H12 UNL     1      30.380   1.432 282.373  1.00  0.00     0.158 HD
ATOM     15  H11 UNL     1      29.290   0.824 283.621  1.00  0.00     0.158 HD
ATOM     16  H3  UNL     1      26.836   3.147 283.392  1.00  0.00     0.189 HD
ENDBRANCH   8  10
ENDBRANCH   1   7
BRANCH   4  17
HETATM   17  O1  UNL     1      27.190   0.404 291.155  1.00  0.00    -0.278 OA
BRANCH  17  18
HETATM   18  C7  UNL     1      28.212   0.946 291.900  1.00  0.00     0.281 C 
HETATM   19  O2  UNL     1      29.225   0.250 292.153  1.00  0.00    -0.263 OA
BRANCH  18  20
HETATM   20  C8  UNL     1      28.172   2.340 292.428  1.00  0.00     0.226 C 
BRANCH  20  21
HETATM   21  N5  UNL     1      29.247   3.161 291.993  1.00  0.00    -0.407 N 
ATOM     22  H5  UNL     1      29.770   3.754 292.636  1.00  0.00     0.154 HD
BRANCH  21  23
HETATM   23  C9  UNL     1      29.550   3.103 290.598  1.00  0.00     0.183 C 
BRANCH  23  24
HETATM   24  C10 UNL     1      28.812   4.125 289.806  1.00  0.00     0.250 C 
HETATM   25  O3  UNL     1      27.747   4.577 290.136  1.00  0.00    -0.305 OA
ENDBRANCH  23  24
ENDBRANCH  21  23
ENDBRANCH  20  21
ENDBRANCH  18  20
ENDBRANCH  17  18
ENDBRANCH   4  17
TORSDOF 8
ENDMDL
MODEL 4
REMARK VINA RESULT: -6.555196325      3.211      8.524
REMARK  8 active torsions:
REMARK  status: ('A' for Active; 'I' for Inactive)
REMARK       I    between atoms: C1_4  and  N3_6 
REMARK    1  A    between atoms: N3_6  and  N4_8 
REMARK    2  A    between atoms: C2_10  and  C3_11 
REMARK    3  A    between atoms: C6_14  and  O1_15 
REMARK    4  A    between atoms: O1_15  and  C7_16 
REMARK    5  A    between atoms: C7_16  and  C8_18 
REMARK    6  A    between atoms: C8_18  and  N5_19 
REMARK    7  A    between atoms: N5_19  and  C9_21 
REMARK    8  A    between atoms: C9_21  and  C10_22 
ROOT
HETATM    1  C3  UNL     1      26.899   1.285 288.947  1.00  0.00    -0.019 A 
HETATM    2  C4  UNL     1      25.769   1.589 288.240  1.00  0.00     0.015 A 
HETATM    3  C5  UNL     1      25.698   1.371 286.888  1.00  0.00     0.038 A 
HETATM    4  C6  UNL     1      26.751   0.842 286.187  1.00  0.00     0.079 A 
HETATM    5  C11 UNL     1      27.898   0.536 286.921  1.00  0.00     0.038 A 
HETATM    6  C12 UNL     1      27.965   0.756 288.280  1.00  0.00     0.015 A 
ENDROOT
BRANCH   1   7
HETATM    7  C2  UNL     1      26.989   1.520 290.387  1.00  0.00     0.118 C 
HETATM    8  N4  UNL     1      27.809   2.380 290.870  1.00  0.00    -0.309 N 
ATOM      9  H4  UNL     1      28.413   2.916 290.249  1.00  0.00     0.186 HD
BRANCH   8  10
HETATM   10  N3  UNL     1      27.869   2.578 292.236  1.00  0.00    -0.274 N 
HETATM   11  C1  UNL     1      28.298   1.545 293.090  1.00  0.00     0.200 C 
HETATM   12  N1  UNL     1      29.364   0.842 292.881  1.00  0.00    -0.372 N 
HETATM   13  N2  UNL     1      27.540   1.229 294.261  1.00  0.00    -0.062 NA
ATOM     14  H12 UNL     1      29.675   0.093 293.500  1.00  0.00     0.158 HD
ATOM     15  H11 UNL     1      29.905   1.067 292.047  1.00  0.00     0.158 HD
ATOM     16  H3  UNL     1      27.600   3.480 292.628  1.00  0.00     0.189 HD
ENDBRANCH   8  10
ENDBRANCH   1   7
BRANCH   4  17
HETATM   17  O1  UNL     1      26.756   0.593 284.823  1.00  0.00    -0.278 OA
BRANCH  17  18
HETATM   18  C7  UNL     1      27.254   1.561 283.979  1.00  0.00     0.281 C 
HETATM   19  O2  UNL     1      27.626   2.660 284.455  1.00  0.00    -0.263 OA
BRANCH  18  20
HETATM   20  C8  UNL     1      27.374   1.359 282.507  1.00  0.00     0.226 C 
BRANCH  20  21
HETATM   21  N5  UNL     1      27.225   2.546 281.740  1.00  0.00    -0.407 N 
ATOM     22  H5  UNL     1      26.432   3.175 281.864  1.00  0.00     0.154 HD
BRANCH  21  23
HETATM   23  C9  UNL     1      28.255   2.804 280.785  1.00  0.00     0.183 C 
BRANCH  23  24
HETATM   24  C10 UNL     1      29.591   2.995 281.417  1.00  0.00     0.250 C 
HETATM   25  O3  UNL     1      30.020   4.070 281.746  1.00  0.00    -0.305 OA
ENDBRANCH  23  24
ENDBRANCH  21  23
ENDBRANCH  20  21
ENDBRANCH  18  20
ENDBRANCH  17  18
ENDBRANCH   4  17
TORSDOF 8
ENDMDL
MODEL 5
REMARK VINA RESULT: -6.540348286      3.397      8.509
REMARK  8 active torsions:
REMARK  status: ('A' for Active; 'I' for Inactive)
REMARK       I    between atoms: C1_4  and  N3_6 
REMARK    1  A    between atoms: N3_6  and  N4_8 
REMARK    2  A    between atoms: C2_10  and  C3_11 
REMARK    3  A    between atoms: C6_14  and  O1_15 
REMARK    4  A    between atoms: O1_15  and  C7_16 
REMARK    5  A    between atoms: C7_16  and  C8_18 
REMARK    6  A    between atoms: C8_18  and  N5_19 
REMARK    7  A    between atoms: N5_19  and  C9_21 
REMARK    8  A    between atoms: C9_21  and  C10_22 
ROOT
HETATM    1  C3  UNL     1      26.891   1.117 288.660  1.00  0.00    -0.019 A 
HETATM    2  C4  UNL     1      27.805   0.303 288.052  1.00  0.00     0.015 A 
HETATM    3  C5  UNL     1      27.733   0.033 286.709  1.00  0.00     0.038 A 
HETATM    4  C6  UNL     1      26.745   0.564 285.920  1.00  0.00     0.079 A 
HETATM    5  C11 UNL     1      25.819   1.393 286.553  1.00  0.00     0.038 A 
HETATM    6  C12 UNL     1      25.895   1.662 287.902  1.00  0.00     0.015 A 
ENDROOT
BRANCH   1   7
HETATM    7  C2  UNL     1      26.953   1.405 290.091  1.00  0.00     0.118 C 
HETATM    8  N4  UNL     1      27.694   2.347 290.549  1.00  0.00    -0.309 N 
ATOM      9  H4  UNL     1      28.256   2.911 289.912  1.00  0.00     0.186 HD
BRANCH   8  10
HETATM   10  N3  UNL     1      27.730   2.593 291.908  1.00  0.00    -0.274 N 
HETATM   11  C1  UNL     1      28.282   1.648 292.792  1.00  0.00     0.200 C 
HETATM   12  N1  UNL     1      29.425   1.073 292.601  1.00  0.00    -0.372 N 
HETATM   13  N2  UNL     1      27.568   1.278 293.974  1.00  0.00    -0.062 NA
ATOM     14  H12 UNL     1      29.826   0.388 293.242  1.00  0.00     0.158 HD
ATOM     15  H11 UNL     1      29.935   1.337 291.758  1.00  0.00     0.158 HD
ATOM     16  H3  UNL     1      27.353   3.468 292.273  1.00  0.00     0.189 HD
ENDBRANCH   8  10
ENDBRANCH   1   7
BRANCH   4  17
HETATM   17  O1  UNL     1      26.606   0.339 284.559  1.00  0.00    -0.278 OA
BRANCH  17  18
HETATM   18  C7  UNL     1      27.620   0.737 283.718  1.00  0.00     0.281 C 
HETATM   19  O2  UNL     1      28.369  -0.127 283.204  1.00  0.00    -0.263 OA
BRANCH  18  20
HETATM   20  C8  UNL     1      27.872   2.169 283.384  1.00  0.00     0.226 C 
BRANCH  20  21
HETATM   21  N5  UNL     1      27.397   2.563 282.103  1.00  0.00    -0.407 N 
ATOM     22  H5  UNL     1      26.402   2.655 281.900  1.00  0.00     0.154 HD
BRANCH  21  23
HETATM   23  C9  UNL     1      28.400   2.821 281.120  1.00  0.00     0.183 C 
BRANCH  23  24
HETATM   24  C10 UNL     1      29.745   3.050 281.716  1.00  0.00     0.250 C 
HETATM   25  O3  UNL     1      30.353   4.082 281.604  1.00  0.00    -0.305 OA
ENDBRANCH  23  24
ENDBRANCH  21  23
ENDBRANCH  20  21
ENDBRANCH  18  20
ENDBRANCH  17  18
ENDBRANCH   4  17
TORSDOF 8
ENDMDL
