MODEL 1
REMARK VINA RESULT: -7.520965933      0.000      0.000
REMARK  7 active torsions:
REMARK  status: ('A' for Active; 'I' for Inactive)
REMARK    1  A    between atoms: C1_2  and  C2_4 
REMARK    2  A    between atoms: C2_4  and  C3_5 
REMARK    3  A    between atoms: N2_6  and  N3_8 
REMARK    4  A    between atoms: N3_8  and  C4_10 
REMARK    5  A    between atoms: C7_13  and  C8_14 
REMARK       I    between atoms: C8_14  and  N4_16 
REMARK    6  A    between atoms: N4_16  and  C9_18 
REMARK    7  A    between atoms: C9_18  and  C10_19 
ROOT
HETATM    1  C4  UNL     1      26.634   2.465 289.251  1.00  0.00     0.048 A 
HETATM    2  C5  UNL     1      27.695   2.423 288.373  1.00  0.00     0.032 A 
HETATM    3  C6  UNL     1      27.650   1.885 287.110  1.00  0.00     0.019 A 
HETATM    4  C7  UNL     1      26.437   1.338 286.680  1.00  0.00     0.032 A 
HETATM    5  C11 UNL     1      25.354   1.358 287.523  1.00  0.00     0.019 A 
HETATM    6  C12 UNL     1      25.450   1.912 288.787  1.00  0.00     0.032 A 
ENDROOT
BRANCH   1   7
HETATM    7  N3  UNL     1      26.748   3.040 290.554  1.00  0.00    -0.301 N 
ATOM      8  H3  UNL     1      26.116   3.801 290.801  1.00  0.00     0.187 HD
BRANCH   7   9
HETATM    9  N2  UNL     1      27.664   2.625 291.495  1.00  0.00    -0.315 N 
HETATM   10  C3  UNL     1      27.966   1.369 291.591  1.00  0.00     0.089 C 
ATOM     11  H2  UNL     1      28.102   3.304 292.116  1.00  0.00     0.185 HD
BRANCH  10  12
HETATM   12  C2  UNL     1      28.939   0.854 292.576  1.00  0.00     0.145 C 
BRANCH  12  13
HETATM   13  C1  UNL     1      28.373   0.923 293.952  1.00  0.00     0.235 C 
HETATM   14  N1  UNL     1      29.052   0.446 295.085  1.00  0.00    -0.062 NA
HETATM   15  O1  UNL     1      27.236   1.431 294.116  1.00  0.00    -0.277 OA
ENDBRANCH  12  13
ENDBRANCH  10  12
ENDBRANCH   7   9
ENDBRANCH   1   7
BRANCH   4  16
HETATM   16  C8  UNL     1      26.409   0.777 285.344  1.00  0.00     0.252 C 
HETATM   17  O2  UNL     1      25.670  -0.224 285.096  1.00  0.00    -0.268 OA
HETATM   18  N4  UNL     1      27.183   1.310 284.294  1.00  0.00    -0.348 N 
ATOM     19  H4  UNL     1      27.790   2.112 284.467  1.00  0.00     0.163 HD
BRANCH  18  20
HETATM   20  C9  UNL     1      27.125   0.732 282.986  1.00  0.00     0.222 C 
BRANCH  20  21
HETATM   21  C10 UNL     1      27.245   1.698 281.875  1.00  0.00     0.248 C 
HETATM   22  N5  UNL     1      26.243   1.659 280.867  1.00  0.00    -0.061 NA
HETATM   23  O3  UNL     1      28.161   2.543 281.759  1.00  0.00    -0.275 OA
ENDBRANCH  20  21
ENDBRANCH  18  20
ENDBRANCH   4  16
TORSDOF 7
ENDMDL
MODEL 2
REMARK VINA RESULT: -7.416580906      0.254      1.087
REMARK  7 active torsions:
REMARK  status: ('A' for Active; 'I' for Inactive)
REMARK    1  A    between atoms: C1_2  and  C2_4 
REMARK    2  A    between atoms: C2_4  and  C3_5 
REMARK    3  A    between atoms: N2_6  and  N3_8 
REMARK    4  A    between atoms: N3_8  and  C4_10 
REMARK    5  A    between atoms: C7_13  and  C8_14 
REMARK       I    between atoms: C8_14  and  N4_16 
REMARK    6  A    between atoms: N4_16  and  C9_18 
REMARK    7  A    between atoms: C9_18  and  C10_19 
ROOT
HETATM    1  C4  UNL     1      26.616   2.365 289.104  1.00  0.00     0.048 A 
HETATM    2  C5  UNL     1      25.486   1.791 288.565  1.00  0.00     0.032 A 
HETATM    3  C6  UNL     1      25.399   1.261 287.301  1.00  0.00     0.019 A 
HETATM    4  C7  UNL     1      26.543   1.306 286.498  1.00  0.00     0.032 A 
HETATM    5  C11 UNL     1      27.691   1.870 286.995  1.00  0.00     0.019 A 
HETATM    6  C12 UNL     1      27.729   2.390 288.276  1.00  0.00     0.032 A 
ENDROOT
BRANCH   1   7
HETATM    7  N3  UNL     1      26.639   2.900 290.429  1.00  0.00    -0.301 N 
ATOM      8  H3  UNL     1      25.910   3.562 290.694  1.00  0.00     0.187 HD
BRANCH   7   9
HETATM    9  N2  UNL     1      27.589   2.570 291.370  1.00  0.00    -0.315 N 
HETATM   10  C3  UNL     1      27.931   1.331 291.536  1.00  0.00     0.089 C 
ATOM     11  H2  UNL     1      28.024   3.300 291.934  1.00  0.00     0.185 HD
BRANCH  10  12
HETATM   12  C2  UNL     1      28.943   0.907 292.524  1.00  0.00     0.145 C 
BRANCH  12  13
HETATM   13  C1  UNL     1      28.381   0.964 293.902  1.00  0.00     0.235 C 
HETATM   14  N1  UNL     1      29.070   0.490 295.030  1.00  0.00    -0.062 NA
HETATM   15  O1  UNL     1      27.239   1.460 294.072  1.00  0.00    -0.277 OA
ENDBRANCH  12  13
ENDBRANCH  10  12
ENDBRANCH   7   9
ENDBRANCH   1   7
BRANCH   4  16
HETATM   16  C8  UNL     1      26.432   0.740 285.169  1.00  0.00     0.252 C 
HETATM   17  O2  UNL     1      25.578  -0.170 284.940  1.00  0.00    -0.268 OA
HETATM   18  N4  UNL     1      27.250   1.167 284.104  1.00  0.00    -0.348 N 
ATOM     19  H4  UNL     1      27.948   1.894 284.261  1.00  0.00     0.163 HD
BRANCH  18  20
HETATM   20  C9  UNL     1      27.107   0.587 282.803  1.00  0.00     0.222 C 
BRANCH  20  21
HETATM   21  C10 UNL     1      26.913   1.560 281.708  1.00  0.00     0.248 C 
HETATM   22  N5  UNL     1      25.812   1.344 280.835  1.00  0.00    -0.061 NA
HETATM   23  O3  UNL     1      27.644   2.553 281.497  1.00  0.00    -0.275 OA
ENDBRANCH  20  21
ENDBRANCH  18  20
ENDBRANCH   4  16
TORSDOF 7
ENDMDL
MODEL 3
REMARK VINA RESULT: -7.005479972      1.668      2.176
REMARK  7 active torsions:
REMARK  status: ('A' for Active; 'I' for Inactive)
REMARK    1  A    between atoms: C1_2  and  C2_4 
REMARK    2  A    between atoms: C2_4  and  C3_5 
REMARK    3  A    between atoms: N2_6  and  N3_8 
REMARK    4  A    between atoms: N3_8  and  C4_10 
REMARK    5  A    between atoms: C7_13  and  C8_14 
REMARK       I    between atoms: C8_14  and  N4_16 
REMARK    6  A    between atoms: N4_16  and  C9_18 
REMARK    7  A    between atoms: C9_18  and  C10_19 
ROOT
HETATM    1  C4  UNL     1      26.675   2.441 289.264  1.00  0.00     0.048 A 
HETATM    2  C5  UNL     1      27.754   2.418 288.408  1.00  0.00     0.032 A 
HETATM    3  C6  UNL     1      27.743   1.882 287.143  1.00  0.00     0.019 A 
HETATM    4  C7  UNL     1      26.548   1.317 286.687  1.00  0.00     0.032 A 
HETATM    5  C11 UNL     1      25.448   1.319 287.509  1.00  0.00     0.019 A 
HETATM    6  C12 UNL     1      25.509   1.871 288.775  1.00  0.00     0.032 A 
ENDROOT
BRANCH   1   7
HETATM    7  N3  UNL     1      26.754   3.016 290.570  1.00  0.00    -0.301 N 
ATOM      8  H3  UNL     1      26.121   3.782 290.798  1.00  0.00     0.187 HD
BRANCH   7   9
HETATM    9  N2  UNL     1      27.637   2.593 291.539  1.00  0.00    -0.315 N 
HETATM   10  C3  UNL     1      28.038   1.361 291.554  1.00  0.00     0.089 C 
ATOM     11  H2  UNL     1      27.974   3.248 292.244  1.00  0.00     0.185 HD
BRANCH  10  12
HETATM   12  C2  UNL     1      28.984   0.840 292.561  1.00  0.00     0.145 C 
BRANCH  12  13
HETATM   13  C1  UNL     1      28.393   0.931 293.926  1.00  0.00     0.235 C 
HETATM   14  N1  UNL     1      29.058   0.487 295.080  1.00  0.00    -0.062 NA
HETATM   15  O1  UNL     1      27.246   1.426 294.059  1.00  0.00    -0.277 OA
ENDBRANCH  12  13
ENDBRANCH  10  12
ENDBRANCH   7   9
ENDBRANCH   1   7
BRANCH   4  16
HETATM   16  C8  UNL     1      26.555   0.759 285.350  1.00  0.00     0.252 C 
HETATM   17  O2  UNL     1      26.872   1.491 284.363  1.00  0.00    -0.268 OA
HETATM   18  N4  UNL     1      26.219  -0.586 285.100  1.00  0.00    -0.348 N 
ATOM     19  H4  UNL     1      25.957  -1.196 285.874  1.00  0.00     0.163 HD
BRANCH  18  20
HETATM   20  C9  UNL     1      26.244  -1.102 283.765  1.00  0.00     0.222 C 
BRANCH  20  21
HETATM   21  C10 UNL     1      24.986  -1.738 283.323  1.00  0.00     0.248 C 
HETATM   22  N5  UNL     1      23.812  -0.936 283.338  1.00  0.00    -0.061 NA
HETATM   23  O3  UNL     1      24.881  -2.924 282.940  1.00  0.00    -0.275 OA
ENDBRANCH  20  21
ENDBRANCH  18  20
ENDBRANCH   4  16
TORSDOF 7
ENDMDL
MODEL 4
REMARK VINA RESULT: -6.974971376      1.397      1.478
REMARK  7 active torsions:
REMARK  status: ('A' for Active; 'I' for Inactive)
REMARK    1  A    between atoms: C1_2  and  C2_4 
REMARK    2  A    between atoms: C2_4  and  C3_5 
REMARK    3  A    between atoms: N2_6  and  N3_8 
REMARK    4  A    between atoms: N3_8  and  C4_10 
REMARK    5  A    between atoms: C7_13  and  C8_14 
REMARK       I    between atoms: C8_14  and  N4_16 
REMARK    6  A    between atoms: N4_16  and  C9_18 
REMARK    7  A    between atoms: C9_18  and  C10_19 
ROOT
HETATM    1  C4  UNL     1      26.726   1.433 288.572  1.00  0.00     0.048 A 
HETATM    2  C5  UNL     1      27.952   1.134 288.019  1.00  0.00     0.032 A 
HETATM    3  C6  UNL     1      28.187   0.957 286.678  1.00  0.00     0.019 A 
HETATM    4  C7  UNL     1      27.103   1.089 285.805  1.00  0.00     0.032 A 
HETATM    5  C11 UNL     1      25.863   1.386 286.314  1.00  0.00     0.019 A 
HETATM    6  C12 UNL     1      25.677   1.556 287.673  1.00  0.00     0.032 A 
ENDROOT
BRANCH   1   7
HETATM    7  N3  UNL     1      26.549   1.606 289.980  1.00  0.00    -0.301 N 
ATOM      8  H3  UNL     1      25.849   2.276 290.298  1.00  0.00     0.187 HD
BRANCH   7   9
HETATM    9  N2  UNL     1      27.269   0.918 290.931  1.00  0.00    -0.315 N 
HETATM   10  C3  UNL     1      28.270   1.490 291.521  1.00  0.00     0.089 C 
ATOM     11  H2  UNL     1      27.015  -0.040 291.170  1.00  0.00     0.185 HD
BRANCH  10  12
HETATM   12  C2  UNL     1      29.085   0.814 292.551  1.00  0.00     0.145 C 
BRANCH  12  13
HETATM   13  C1  UNL     1      28.432   0.921 293.885  1.00  0.00     0.235 C 
HETATM   14  N1  UNL     1      29.032   0.466 295.070  1.00  0.00    -0.062 NA
HETATM   15  O1  UNL     1      27.291   1.442 293.963  1.00  0.00    -0.277 OA
ENDBRANCH  12  13
ENDBRANCH  10  12
ENDBRANCH   7   9
ENDBRANCH   1   7
BRANCH   4  16
HETATM   16  C8  UNL     1      27.373   0.900 284.394  1.00  0.00     0.252 C 
HETATM   17  O2  UNL     1      26.847  -0.077 283.777  1.00  0.00    -0.268 OA
HETATM   18  N4  UNL     1      28.209   1.773 283.670  1.00  0.00    -0.348 N 
ATOM     19  H4  UNL     1      28.648   2.563 284.142  1.00  0.00     0.163 HD
BRANCH  18  20
HETATM   20  C9  UNL     1      28.447   1.556 282.274  1.00  0.00     0.222 C 
BRANCH  20  21
HETATM   21  C10 UNL     1      28.327   2.763 281.431  1.00  0.00     0.248 C 
HETATM   22  N5  UNL     1      29.317   3.770 281.591  1.00  0.00    -0.061 NA
HETATM   23  O3  UNL     1      27.421   2.960 280.591  1.00  0.00    -0.275 OA
ENDBRANCH  20  21
ENDBRANCH  18  20
ENDBRANCH   4  16
TORSDOF 7
ENDMDL
MODEL 5
REMARK VINA RESULT: -6.963105662      1.473      2.223
REMARK  7 active torsions:
REMARK  status: ('A' for Active; 'I' for Inactive)
REMARK    1  A    between atoms: C1_2  and  C2_4 
REMARK    2  A    between atoms: C2_4  and  C3_5 
REMARK    3  A    between atoms: N2_6  and  N3_8 
REMARK    4  A    between atoms: N3_8  and  C4_10 
REMARK    5  A    between atoms: C7_13  and  C8_14 
REMARK       I    between atoms: C8_14  and  N4_16 
REMARK    6  A    between atoms: N4_16  and  C9_18 
REMARK    7  A    between atoms: C9_18  and  C10_19 
ROOT
HETATM    1  C4  UNL     1      26.633   2.332 289.110  1.00  0.00     0.048 A 
HETATM    2  C5  UNL     1      25.539   1.710 288.551  1.00  0.00     0.032 A 
HETATM    3  C6  UNL     1      25.494   1.189 287.280  1.00  0.00     0.019 A 
HETATM    4  C7  UNL     1      26.644   1.298 286.493  1.00  0.00     0.032 A 
HETATM    5  C11 UNL     1      27.758   1.913 287.011  1.00  0.00     0.019 A 
HETATM    6  C12 UNL     1      27.754   2.420 288.297  1.00  0.00     0.032 A 
ENDROOT
BRANCH   1   7
HETATM    7  N3  UNL     1      26.614   2.853 290.441  1.00  0.00    -0.301 N 
ATOM      8  H3  UNL     1      25.861   3.492 290.697  1.00  0.00     0.187 HD
BRANCH   7   9
HETATM    9  N2  UNL     1      27.554   2.541 291.397  1.00  0.00    -0.315 N 
HETATM   10  C3  UNL     1      27.966   1.319 291.523  1.00  0.00     0.089 C 
ATOM     11  H2  UNL     1      27.926   3.270 292.005  1.00  0.00     0.185 HD
BRANCH  10  12
HETATM   12  C2  UNL     1      28.972   0.913 292.525  1.00  0.00     0.145 C 
BRANCH  12  13
HETATM   13  C1  UNL     1      28.388   0.953 293.895  1.00  0.00     0.235 C 
HETATM   14  N1  UNL     1      29.051   0.449 295.025  1.00  0.00    -0.062 NA
HETATM   15  O1  UNL     1      27.249   1.459 294.055  1.00  0.00    -0.277 OA
ENDBRANCH  12  13
ENDBRANCH  10  12
ENDBRANCH   7   9
ENDBRANCH   1   7
BRANCH   4  16
HETATM   16  C8  UNL     1      26.578   0.741 285.157  1.00  0.00     0.252 C 
HETATM   17  O2  UNL     1      27.004   1.416 284.170  1.00  0.00    -0.268 OA
HETATM   18  N4  UNL     1      26.049  -0.541 284.907  1.00  0.00    -0.348 N 
ATOM     19  H4  UNL     1      25.696  -1.103 285.682  1.00  0.00     0.163 HD
BRANCH  18  20
HETATM   20  C9  UNL     1      26.005  -1.059 283.573  1.00  0.00     0.222 C 
BRANCH  20  21
HETATM   21  C10 UNL     1      24.686  -0.967 282.916  1.00  0.00     0.248 C 
HETATM   22  N5  UNL     1      24.635  -0.331 281.646  1.00  0.00    -0.061 NA
HETATM   23  O3  UNL     1      23.617  -1.406 283.396  1.00  0.00    -0.275 OA
ENDBRANCH  20  21
ENDBRANCH  18  20
ENDBRANCH   4  16
TORSDOF 7
ENDMDL
