MODEL 1
REMARK VINA RESULT: -8.074625439      0.000      0.000
REMARK  6 active torsions:
REMARK  status: ('A' for Active; 'I' for Inactive)
REMARK    1  A    between atoms: C2_2  and  N1_3 
REMARK       I    between atoms: N1_3  and  C3_5 
REMARK       I    between atoms: C3_5  and  N3_9 
REMARK    2  A    between atoms: C9_15  and  C10_16 
REMARK       I    between atoms: C10_16  and  N4_18 
REMARK    3  A    between atoms: N4_18  and  C11_20 
REMARK    4  A    between atoms: C11_20  and  C12_21 
REMARK    5  A    between atoms: N5_24  and  C15_25 
REMARK    6  A    between atoms: C15_25  and  C16_26 
ROOT
HETATM    1  N1  UNL     1       2.372   3.109  18.121  1.00  0.00    -0.227 N 
ATOM      2  H1  UNL     1       1.496   3.578  18.350  1.00  0.00     0.177 HD
HETATM    3  C3  UNL     1       2.437   1.704  18.228  1.00  0.00     0.669 C 
HETATM    4  N2  UNL     1       2.140   0.968  17.223  1.00  0.00    -0.235 N 
ATOM      5  H21 UNL     1       2.187  -0.048  17.300  1.00  0.00     0.174 HD
ATOM      6  H22 UNL     1       1.854   1.398  16.343  1.00  0.00     0.174 HD
HETATM    7  N3  UNL     1       2.832   1.111  19.442  1.00  0.00    -0.218 N 
HETATM    8  C4  UNL     1       3.964   0.217  19.585  1.00  0.00     0.142 C 
HETATM    9  C5  UNL     1       3.946  -0.336  20.998  1.00  0.00     0.030 C 
HETATM   10  C6  UNL     1       2.585  -0.930  21.359  1.00  0.00    -0.037 C 
HETATM   11  C7  UNL     1       2.672  -1.376  22.785  1.00  0.00     0.010 C 
HETATM   12  C8  UNL     1       1.673  -2.398  23.172  1.00  0.00     0.015 C 
HETATM   13  C9  UNL     1       0.591  -2.688  22.195  1.00  0.00     0.078 C 
HETATM   14  C24 UNL     1       1.005  -2.710  20.768  1.00  0.00     0.015 C 
HETATM   15  C25 UNL     1       2.365  -2.170  20.502  1.00  0.00     0.010 C 
HETATM   16  C26 UNL     1       1.506   0.086  21.132  1.00  0.00     0.030 C 
HETATM   17  C27 UNL     1       2.076   1.393  20.640  1.00  0.00     0.142 C 
ENDROOT
BRANCH  13  18
HETATM   18  C10 UNL     1      -0.101  -3.985  22.582  1.00  0.00     0.221 C 
HETATM   19  O1  UNL     1      -1.267  -4.146  22.211  1.00  0.00    -0.273 OA
HETATM   20  N4  UNL     1       0.589  -4.937  23.330  1.00  0.00    -0.360 N 
ATOM     21  H4  UNL     1       1.540  -4.663  23.578  1.00  0.00     0.162 HD
BRANCH  20  22
HETATM   22  C11 UNL     1       0.211  -6.217  23.811  1.00  0.00     0.127 C 
BRANCH  22  23
HETATM   23  C12 UNL     1      -0.415  -7.198  22.922  1.00  0.00     0.007 C 
HETATM   24  C13 UNL     1      -1.840  -7.598  23.296  1.00  0.00     0.036 C 
HETATM   25  C14 UNL     1      -2.176  -8.767  22.411  1.00  0.00     0.273 C 
HETATM   26  N5  UNL     1      -1.573  -8.622  21.060  1.00  0.00     0.088 N 
HETATM   27  C22 UNL     1      -0.180  -8.961  21.238  1.00  0.00     0.273 C 
HETATM   28  C23 UNL     1       0.345  -8.425  22.598  1.00  0.00     0.036 C 
BRANCH  26  29
HETATM   29  C15 UNL     1      -2.219  -9.575  20.227  1.00  0.00     0.277 C 
BRANCH  29  30
HETATM   30  C16 UNL     1      -2.998  -9.102  19.065  1.00  0.00     0.014 C 
HETATM   31  C17 UNL     1      -2.410  -9.267  17.710  1.00  0.00     0.006 C 
HETATM   32  C18 UNL     1      -3.597  -9.377  16.727  1.00  0.00     0.000 C 
HETATM   33  C19 UNL     1      -4.661  -8.416  17.160  1.00  0.00     0.000 C 
HETATM   34  C20 UNL     1      -4.057  -7.221  17.909  1.00  0.00     0.000 C 
HETATM   35  C21 UNL     1      -3.410  -7.641  19.197  1.00  0.00     0.006 C 
ENDBRANCH  29  30
ENDBRANCH  26  29
ENDBRANCH  22  23
ENDBRANCH  20  22
ENDBRANCH  13  18
BRANCH   1  36
HETATM   36  C2  UNL     1       3.502   3.913  17.698  1.00  0.00     0.133 C 
HETATM   37  C1  UNL     1       4.269   4.351  18.912  1.00  0.00     0.027 C 
ENDBRANCH   1  36
TORSDOF 6
ENDMDL
MODEL 2
REMARK VINA RESULT: -7.779864090      2.267      4.251
REMARK  6 active torsions:
REMARK  status: ('A' for Active; 'I' for Inactive)
REMARK    1  A    between atoms: C2_2  and  N1_3 
REMARK       I    between atoms: N1_3  and  C3_5 
REMARK       I    between atoms: C3_5  and  N3_9 
REMARK    2  A    between atoms: C9_15  and  C10_16 
REMARK       I    between atoms: C10_16  and  N4_18 
REMARK    3  A    between atoms: N4_18  and  C11_20 
REMARK    4  A    between atoms: C11_20  and  C12_21 
REMARK    5  A    between atoms: N5_24  and  C15_25 
REMARK    6  A    between atoms: C15_25  and  C16_26 
ROOT
HETATM    1  N1  UNL     1       2.672   2.607  19.384  1.00  0.00    -0.227 N 
ATOM      2  H1  UNL     1       1.771   3.067  19.511  1.00  0.00     0.177 HD
HETATM    3  C3  UNL     1       2.694   1.224  19.110  1.00  0.00     0.669 C 
HETATM    4  N2  UNL     1       2.661   0.807  17.899  1.00  0.00    -0.235 N 
ATOM      5  H21 UNL     1       2.677  -0.193  17.700  1.00  0.00     0.174 HD
ATOM      6  H22 UNL     1       2.617   1.478  17.131  1.00  0.00     0.174 HD
HETATM    7  N3  UNL     1       2.755   0.299  20.170  1.00  0.00    -0.218 N 
HETATM    8  C4  UNL     1       3.803  -0.689  20.333  1.00  0.00     0.142 C 
HETATM    9  C5  UNL     1       3.414  -1.594  21.487  1.00  0.00     0.030 C 
HETATM   10  C6  UNL     1       2.001  -2.151  21.322  1.00  0.00    -0.037 C 
HETATM   11  C7  UNL     1       1.711  -2.966  22.543  1.00  0.00     0.010 C 
HETATM   12  C8  UNL     1       0.637  -3.971  22.373  1.00  0.00     0.015 C 
HETATM   13  C9  UNL     1      -0.158  -3.902  21.118  1.00  0.00     0.078 C 
HETATM   14  C24 UNL     1       0.612  -3.577  19.889  1.00  0.00     0.015 C 
HETATM   15  C25 UNL     1       1.999  -3.096  20.127  1.00  0.00     0.010 C 
HETATM   16  C26 UNL     1       1.027  -1.028  21.127  1.00  0.00     0.030 C 
HETATM   17  C27 UNL     1       1.717   0.312  21.174  1.00  0.00     0.142 C 
ENDROOT
BRANCH  13  18
HETATM   18  C10 UNL     1      -0.939  -5.195  20.946  1.00  0.00     0.221 C 
HETATM   19  O1  UNL     1      -1.288  -5.794  21.966  1.00  0.00    -0.273 OA
HETATM   20  N4  UNL     1      -1.230  -5.658  19.664  1.00  0.00    -0.360 N 
ATOM     21  H4  UNL     1      -0.866  -5.068  18.915  1.00  0.00     0.162 HD
BRANCH  20  22
HETATM   22  C11 UNL     1      -1.940  -6.798  19.210  1.00  0.00     0.127 C 
BRANCH  22  23
HETATM   23  C12 UNL     1      -1.457  -8.150  19.504  1.00  0.00     0.007 C 
HETATM   24  C13 UNL     1      -0.719  -8.839  18.360  1.00  0.00     0.036 C 
HETATM   25  C14 UNL     1      -0.539 -10.267  18.798  1.00  0.00     0.273 C 
HETATM   26  N5  UNL     1      -0.291 -10.364  20.261  1.00  0.00     0.088 N 
HETATM   27  C22 UNL     1      -1.588 -10.179  20.870  1.00  0.00     0.273 C 
HETATM   28  C23 UNL     1      -2.411  -9.115  20.094  1.00  0.00     0.036 C 
BRANCH  26  29
HETATM   29  C15 UNL     1       0.192 -11.679  20.501  1.00  0.00     0.277 C 
BRANCH  29  30
HETATM   30  C16 UNL     1       1.273 -11.877  21.487  1.00  0.00     0.014 C 
HETATM   31  C17 UNL     1       0.950 -12.595  22.748  1.00  0.00     0.006 C 
HETATM   32  C18 UNL     1       2.261 -13.264  23.220  1.00  0.00     0.000 C 
HETATM   33  C19 UNL     1       3.394 -12.320  22.960  1.00  0.00     0.000 C 
HETATM   34  C20 UNL     1       2.918 -10.862  22.989  1.00  0.00     0.000 C 
HETATM   35  C21 UNL     1       1.950 -10.570  21.880  1.00  0.00     0.006 C 
ENDBRANCH  29  30
ENDBRANCH  26  29
ENDBRANCH  22  23
ENDBRANCH  20  22
ENDBRANCH  13  18
BRANCH   1  36
HETATM   36  C2  UNL     1       3.881   3.401  19.494  1.00  0.00     0.133 C 
HETATM   37  C1  UNL     1       4.388   3.322  20.904  1.00  0.00     0.027 C 
ENDBRANCH   1  36
TORSDOF 6
ENDMDL
MODEL 3
REMARK VINA RESULT: -7.738787016      3.483      4.295
REMARK  6 active torsions:
REMARK  status: ('A' for Active; 'I' for Inactive)
REMARK    1  A    between atoms: C2_2  and  N1_3 
REMARK       I    between atoms: N1_3  and  C3_5 
REMARK       I    between atoms: C3_5  and  N3_9 
REMARK    2  A    between atoms: C9_15  and  C10_16 
REMARK       I    between atoms: C10_16  and  N4_18 
REMARK    3  A    between atoms: N4_18  and  C11_20 
REMARK    4  A    between atoms: C11_20  and  C12_21 
REMARK    5  A    between atoms: N5_24  and  C15_25 
REMARK    6  A    between atoms: C15_25  and  C16_26 
ROOT
HETATM    1  N1  UNL     1      -2.769   2.329  25.399  1.00  0.00    -0.227 N 
ATOM      2  H1  UNL     1      -3.266   1.913  26.186  1.00  0.00     0.177 HD
HETATM    3  C3  UNL     1      -2.376   1.498  24.329  1.00  0.00     0.669 C 
HETATM    4  N2  UNL     1      -3.163   1.314  23.335  1.00  0.00    -0.235 N 
ATOM      5  H21 UNL     1      -2.879   0.713  22.562  1.00  0.00     0.174 HD
ATOM      6  H22 UNL     1      -4.076   1.768  23.317  1.00  0.00     0.174 HD
HETATM    7  N3  UNL     1      -1.115   0.871  24.354  1.00  0.00    -0.218 N 
HETATM    8  C4  UNL     1      -0.097   1.043  23.337  1.00  0.00     0.142 C 
HETATM    9  C5  UNL     1       1.030   0.074  23.638  1.00  0.00     0.030 C 
HETATM   10  C6  UNL     1       0.518  -1.354  23.826  1.00  0.00    -0.037 C 
HETATM   11  C7  UNL     1       1.703  -2.196  24.181  1.00  0.00     0.010 C 
HETATM   12  C8  UNL     1       1.530  -3.643  23.922  1.00  0.00     0.015 C 
HETATM   13  C9  UNL     1       0.164  -4.106  23.563  1.00  0.00     0.078 C 
HETATM   14  C24 UNL     1      -0.604  -3.201  22.667  1.00  0.00     0.015 C 
HETATM   15  C25 UNL     1      -0.013  -1.849  22.486  1.00  0.00     0.010 C 
HETATM   16  C26 UNL     1      -0.551  -1.381  24.877  1.00  0.00     0.030 C 
HETATM   17  C27 UNL     1      -0.789  -0.007  25.453  1.00  0.00     0.142 C 
ENDROOT
BRANCH  13  18
HETATM   18  C10 UNL     1       0.244  -5.509  22.982  1.00  0.00     0.221 C 
HETATM   19  O1  UNL     1      -0.158  -5.674  21.828  1.00  0.00    -0.273 OA
HETATM   20  N4  UNL     1       0.760  -6.546  23.757  1.00  0.00    -0.360 N 
ATOM     21  H4  UNL     1       1.040  -6.265  24.697  1.00  0.00     0.162 HD
BRANCH  20  22
HETATM   22  C11 UNL     1       0.966  -7.921  23.478  1.00  0.00     0.127 C 
BRANCH  22  23
HETATM   23  C12 UNL     1       0.124  -8.625  22.506  1.00  0.00     0.007 C 
HETATM   24  C13 UNL     1      -1.188  -9.173  23.060  1.00  0.00     0.036 C 
HETATM   25  C14 UNL     1      -1.752 -10.045  21.971  1.00  0.00     0.273 C 
HETATM   26  N5  UNL     1      -1.469  -9.488  20.622  1.00  0.00     0.088 N 
HETATM   27  C22 UNL     1      -0.083  -9.808  20.372  1.00  0.00     0.273 C 
HETATM   28  C23 UNL     1       0.755  -9.672  21.673  1.00  0.00     0.036 C 
BRANCH  26  29
HETATM   29  C15 UNL     1      -2.315 -10.182  19.715  1.00  0.00     0.277 C 
BRANCH  29  30
HETATM   30  C16 UNL     1      -3.128  -9.406  18.756  1.00  0.00     0.014 C 
HETATM   31  C17 UNL     1      -2.678  -9.350  17.340  1.00  0.00     0.006 C 
HETATM   32  C18 UNL     1      -3.948  -9.139  16.485  1.00  0.00     0.000 C 
HETATM   33  C19 UNL     1      -4.851  -8.185  17.205  1.00  0.00     0.000 C 
HETATM   34  C20 UNL     1      -4.048  -7.234  18.103  1.00  0.00     0.000 C 
HETATM   35  C21 UNL     1      -3.351  -7.969  19.210  1.00  0.00     0.006 C 
ENDBRANCH  29  30
ENDBRANCH  26  29
ENDBRANCH  22  23
ENDBRANCH  20  22
ENDBRANCH  13  18
BRANCH   1  36
HETATM   36  C2  UNL     1      -2.494   3.753  25.424  1.00  0.00     0.133 C 
HETATM   37  C1  UNL     1      -3.768   4.500  25.157  1.00  0.00     0.027 C 
ENDBRANCH   1  36
TORSDOF 6
ENDMDL
MODEL 4
REMARK VINA RESULT: -7.651643683      2.287      3.980
REMARK  6 active torsions:
REMARK  status: ('A' for Active; 'I' for Inactive)
REMARK    1  A    between atoms: C2_2  and  N1_3 
REMARK       I    between atoms: N1_3  and  C3_5 
REMARK       I    between atoms: C3_5  and  N3_9 
REMARK    2  A    between atoms: C9_15  and  C10_16 
REMARK       I    between atoms: C10_16  and  N4_18 
REMARK    3  A    between atoms: N4_18  and  C11_20 
REMARK    4  A    between atoms: C11_20  and  C12_21 
REMARK    5  A    between atoms: N5_24  and  C15_25 
REMARK    6  A    between atoms: C15_25  and  C16_26 
ROOT
HETATM    1  N1  UNL     1       3.003   2.695  19.515  1.00  0.00    -0.227 N 
ATOM      2  H1  UNL     1       2.114   3.181  19.631  1.00  0.00     0.177 HD
HETATM    3  C3  UNL     1       2.987   1.317  19.215  1.00  0.00     0.669 C 
HETATM    4  N2  UNL     1       2.967   0.924  17.996  1.00  0.00    -0.235 N 
ATOM      5  H21 UNL     1       2.956  -0.073  17.779  1.00  0.00     0.174 HD
ATOM      6  H22 UNL     1       2.962   1.609  17.240  1.00  0.00     0.174 HD
HETATM    7  N3  UNL     1       2.995   0.371  20.259  1.00  0.00    -0.218 N 
HETATM    8  C4  UNL     1       4.007  -0.653  20.426  1.00  0.00     0.142 C 
HETATM    9  C5  UNL     1       3.564  -1.566  21.553  1.00  0.00     0.030 C 
HETATM   10  C6  UNL     1       2.138  -2.074  21.347  1.00  0.00    -0.037 C 
HETATM   11  C7  UNL     1       1.795  -2.902  22.546  1.00  0.00     0.010 C 
HETATM   12  C8  UNL     1       0.693  -3.868  22.334  1.00  0.00     0.015 C 
HETATM   13  C9  UNL     1      -0.071  -3.751  21.064  1.00  0.00     0.078 C 
HETATM   14  C24 UNL     1       0.736  -3.428  19.858  1.00  0.00     0.015 C 
HETATM   15  C25 UNL     1       2.132  -2.997  20.135  1.00  0.00     0.010 C 
HETATM   16  C26 UNL     1       1.204  -0.917  21.153  1.00  0.00     0.030 C 
HETATM   17  C27 UNL     1       1.936   0.399  21.240  1.00  0.00     0.142 C 
ENDROOT
BRANCH  13  18
HETATM   18  C10 UNL     1      -0.889  -5.015  20.850  1.00  0.00     0.221 C 
HETATM   19  O1  UNL     1      -1.384  -5.551  21.844  1.00  0.00    -0.273 OA
HETATM   20  N4  UNL     1      -1.050  -5.521  19.561  1.00  0.00    -0.360 N 
ATOM     21  H4  UNL     1      -0.572  -4.981  18.839  1.00  0.00     0.162 HD
BRANCH  20  22
HETATM   22  C11 UNL     1      -1.756  -6.648  19.071  1.00  0.00     0.127 C 
BRANCH  22  23
HETATM   23  C12 UNL     1      -1.522  -7.982  19.629  1.00  0.00     0.007 C 
HETATM   24  C13 UNL     1      -0.933  -8.999  18.655  1.00  0.00     0.036 C 
HETATM   25  C14 UNL     1      -1.010 -10.325  19.361  1.00  0.00     0.273 C 
HETATM   26  N5  UNL     1      -0.767 -10.183  20.821  1.00  0.00     0.088 N 
HETATM   27  C22 UNL     1      -2.003  -9.655  21.352  1.00  0.00     0.273 C 
HETATM   28  C23 UNL     1      -2.628  -8.629  20.368  1.00  0.00     0.036 C 
BRANCH  26  29
HETATM   29  C15 UNL     1      -0.527 -11.493  21.319  1.00  0.00     0.277 C 
BRANCH  29  30
HETATM   30  C16 UNL     1      -1.165 -11.907  22.584  1.00  0.00     0.014 C 
HETATM   31  C17 UNL     1      -0.521 -11.499  23.861  1.00  0.00     0.006 C 
HETATM   32  C18 UNL     1      -1.651 -11.411  24.913  1.00  0.00     0.000 C 
HETATM   33  C19 UNL     1      -2.603 -12.544  24.680  1.00  0.00     0.000 C 
HETATM   34  C20 UNL     1      -1.893 -13.740  24.034  1.00  0.00     0.000 C 
HETATM   35  C21 UNL     1      -1.387 -13.412  22.659  1.00  0.00     0.006 C 
ENDBRANCH  29  30
ENDBRANCH  26  29
ENDBRANCH  22  23
ENDBRANCH  20  22
ENDBRANCH  13  18
BRANCH   1  36
HETATM   36  C2  UNL     1       4.233   3.447  19.666  1.00  0.00     0.133 C 
HETATM   37  C1  UNL     1       4.748   3.263  21.064  1.00  0.00     0.027 C 
ENDBRANCH   1  36
TORSDOF 6
ENDMDL
MODEL 5
REMARK VINA RESULT: -7.630471656      2.538      3.508
REMARK  6 active torsions:
REMARK  status: ('A' for Active; 'I' for Inactive)
REMARK    1  A    between atoms: C2_2  and  N1_3 
REMARK       I    between atoms: N1_3  and  C3_5 
REMARK       I    between atoms: C3_5  and  N3_9 
REMARK    2  A    between atoms: C9_15  and  C10_16 
REMARK       I    between atoms: C10_16  and  N4_18 
REMARK    3  A    between atoms: N4_18  and  C11_20 
REMARK    4  A    between atoms: C11_20  and  C12_21 
REMARK    5  A    between atoms: N5_24  and  C15_25 
REMARK    6  A    between atoms: C15_25  and  C16_26 
ROOT
HETATM    1  N1  UNL     1       0.719   2.773  23.425  1.00  0.00    -0.227 N 
ATOM      2  H1  UNL     1      -0.271   2.910  23.624  1.00  0.00     0.177 HD
HETATM    3  C3  UNL     1       1.114   1.624  22.708  1.00  0.00     0.669 C 
HETATM    4  N2  UNL     1       1.180   1.654  21.430  1.00  0.00    -0.235 N 
ATOM      5  H21 UNL     1       1.465   0.823  20.911  1.00  0.00     0.174 HD
ATOM      6  H22 UNL     1       0.944   2.510  20.928  1.00  0.00     0.174 HD
HETATM    7  N3  UNL     1       1.440   0.442  23.402  1.00  0.00    -0.218 N 
HETATM    8  C4  UNL     1       2.720  -0.232  23.312  1.00  0.00     0.142 C 
HETATM    9  C5  UNL     1       2.608  -1.545  24.063  1.00  0.00     0.030 C 
HETATM   10  C6  UNL     1       1.399  -2.360  23.608  1.00  0.00    -0.037 C 
HETATM   11  C7  UNL     1       1.359  -3.589  24.461  1.00  0.00     0.010 C 
HETATM   12  C8  UNL     1       0.597  -4.718  23.880  1.00  0.00     0.015 C 
HETATM   13  C9  UNL     1      -0.204  -4.434  22.659  1.00  0.00     0.078 C 
HETATM   14  C24 UNL     1       0.432  -3.519  21.675  1.00  0.00     0.015 C 
HETATM   15  C25 UNL     1       1.638  -2.805  22.171  1.00  0.00     0.010 C 
HETATM   16  C26 UNL     1       0.152  -1.534  23.720  1.00  0.00     0.030 C 
HETATM   17  C27 UNL     1       0.452  -0.160  24.265  1.00  0.00     0.142 C 
ENDROOT
BRANCH  13  18
HETATM   18  C10 UNL     1      -0.604  -5.746  22.004  1.00  0.00     0.221 C 
HETATM   19  O1  UNL     1      -1.327  -5.691  21.006  1.00  0.00    -0.273 OA
HETATM   20  N4  UNL     1      -0.151  -6.950  22.541  1.00  0.00    -0.360 N 
ATOM     21  H4  UNL     1       0.427  -6.843  23.375  1.00  0.00     0.162 HD
BRANCH  20  22
HETATM   22  C11 UNL     1      -0.347  -8.296  22.140  1.00  0.00     0.127 C 
BRANCH  22  23
HETATM   23  C12 UNL     1      -0.990  -8.614  20.862  1.00  0.00     0.007 C 
HETATM   24  C13 UNL     1      -2.204  -9.534  20.957  1.00  0.00     0.036 C 
HETATM   25  C14 UNL     1      -2.538  -9.908  19.539  1.00  0.00     0.273 C 
HETATM   26  N5  UNL     1      -2.294  -8.780  18.603  1.00  0.00     0.088 N 
HETATM   27  C22 UNL     1      -0.861  -8.752  18.421  1.00  0.00     0.273 C 
HETATM   28  C23 UNL     1      -0.133  -9.084  19.752  1.00  0.00     0.036 C 
BRANCH  26  29
HETATM   29  C15 UNL     1      -2.947  -9.118  17.387  1.00  0.00     0.277 C 
BRANCH  29  30
HETATM   30  C16 UNL     1      -3.771  -8.097  16.707  1.00  0.00     0.014 C 
HETATM   31  C17 UNL     1      -4.284  -6.958  17.514  1.00  0.00     0.006 C 
HETATM   32  C18 UNL     1      -4.456  -5.772  16.538  1.00  0.00     0.000 C 
HETATM   33  C19 UNL     1      -4.991  -6.300  15.242  1.00  0.00     0.000 C 
HETATM   34  C20 UNL     1      -5.812  -7.577  15.461  1.00  0.00     0.000 C 
HETATM   35  C21 UNL     1      -4.966  -8.702  15.981  1.00  0.00     0.006 C 
ENDBRANCH  29  30
ENDBRANCH  26  29
ENDBRANCH  22  23
ENDBRANCH  20  22
ENDBRANCH  13  18
BRANCH   1  36
HETATM   36  C2  UNL     1       1.667   3.768  23.890  1.00  0.00     0.133 C 
HETATM   37  C1  UNL     1       2.392   3.227  25.088  1.00  0.00     0.027 C 
ENDBRANCH   1  36
TORSDOF 6
ENDMDL
