MODEL 1
REMARK VINA RESULT: -7.825877657      0.000      0.000
REMARK  6 active torsions:
REMARK  status: ('A' for Active; 'I' for Inactive)
REMARK    1  A    between atoms: C2_2  and  C5_5 
REMARK    2  A    between atoms: C5_5  and  C6_6 
REMARK       I    between atoms: C6_6  and  N1_8 
REMARK       I    between atoms: C7_10  and  N2_11 
REMARK       I    between atoms: C7_10  and  N4_25 
REMARK    3  A    between atoms: N2_11  and  C8_13 
REMARK    4  A    between atoms: N3_20  and  C15_21 
REMARK    5  A    between atoms: C15_21  and  C16_22 
REMARK    6  A    between atoms: N4_25  and  C19_27 
ROOT
HETATM    1  C6  UNL     1       1.293 -12.530  23.272  1.00  0.00     0.236 C 
HETATM    2  O1  UNL     1       1.267 -12.591  24.520  1.00  0.00    -0.273 OA
HETATM    3  N1  UNL     1       0.232 -12.126  22.452  1.00  0.00    -0.160 N 
ATOM      4  H1  UNL     1       0.134 -12.576  21.542  1.00  0.00     0.187 HD
HETATM    5  C7  UNL     1      -0.644 -11.204  22.780  1.00  0.00     0.677 C 
HETATM    6  N2  UNL     1      -1.660 -10.898  21.855  1.00  0.00    -0.222 N 
ATOM      7  H2  UNL     1      -2.607 -11.249  22.003  1.00  0.00     0.178 HD
HETATM    8  N4  UNL     1      -0.477 -10.606  24.038  1.00  0.00    -0.217 N 
ATOM      9  H4  UNL     1       0.454 -10.263  24.274  1.00  0.00     0.178 HD
ENDROOT
BRANCH   6  10
HETATM   10  C8  UNL     1      -1.364 -10.083  20.688  1.00  0.00     0.103 C 
HETATM   11  C9  UNL     1      -2.407  -9.043  20.526  1.00  0.00     0.061 C 
HETATM   12  C10 UNL     1      -2.317  -8.468  19.105  1.00  0.00     0.225 C 
HETATM   13  C11 UNL     1      -0.899  -8.068  18.777  1.00  0.00     0.038 C 
HETATM   14  N3  UNL     1      -2.659  -9.585  18.238  1.00  0.00     0.098 N 
HETATM   15  C12 UNL     1      -0.376  -9.217  17.951  1.00  0.00     0.038 C 
HETATM   16  C13 UNL     1      -1.422 -10.290  18.187  1.00  0.00     0.225 C 
HETATM   17  C14 UNL     1      -1.208 -10.998  19.508  1.00  0.00     0.061 C 
BRANCH  14  18
HETATM   18  C15 UNL     1      -3.217  -9.174  16.998  1.00  0.00     0.278 C 
BRANCH  18  19
HETATM   19  C16 UNL     1      -4.478  -8.381  17.254  1.00  0.00     0.014 A 
HETATM   20  C17 UNL     1      -5.380  -8.053  16.117  1.00  0.00     0.007 A 
HETATM   21  C18 UNL     1      -4.543  -6.970  16.692  1.00  0.00     0.007 A 
ENDBRANCH  18  19
ENDBRANCH  14  18
ENDBRANCH   6  10
BRANCH   8  22
HETATM   22  C19 UNL     1      -1.502 -10.435  25.015  1.00  0.00     0.048 C 
HETATM   23  C20 UNL     1      -2.318  -9.214  24.773  1.00  0.00     0.036 C 
HETATM   24  C21 UNL     1      -3.318  -9.005  25.911  1.00  0.00    -0.012 C 
HETATM   25  C22 UNL     1      -2.626  -8.953  27.240  1.00  0.00     0.009 C 
HETATM   26  C26 UNL     1      -4.273 -10.177  25.862  1.00  0.00     0.009 C 
HETATM   27  C23 UNL     1      -1.882 -10.265  27.447  1.00  0.00    -0.012 C 
HETATM   28  C24 UNL     1      -2.871 -11.390  27.431  1.00  0.00     0.009 C 
HETATM   29  C28 UNL     1      -0.842 -10.361  26.382  1.00  0.00     0.036 C 
HETATM   30  C25 UNL     1      -3.506 -11.451  26.051  1.00  0.00    -0.012 C 
HETATM   31  C27 UNL     1      -2.408 -11.656  25.059  1.00  0.00     0.036 C 
ENDBRANCH   8  22
BRANCH   1  32
HETATM   32  C5  UNL     1       2.585 -12.926  22.625  1.00  0.00     0.112 C 
BRANCH  32  33
HETATM   33  C2  UNL     1       2.586 -14.344  22.152  1.00  0.00    -0.043 C 
HETATM   34  C1  UNL     1       4.024 -14.838  22.201  1.00  0.00     0.015 C 
HETATM   35  C3  UNL     1       1.748 -15.225  23.026  1.00  0.00     0.015 C 
HETATM   36  C4  UNL     1       2.076 -14.426  20.729  1.00  0.00     0.015 C 
ENDBRANCH  32  33
ENDBRANCH   1  32
TORSDOF 6
ENDMDL
MODEL 2
REMARK VINA RESULT: -7.822392115      3.524      8.351
REMARK  6 active torsions:
REMARK  status: ('A' for Active; 'I' for Inactive)
REMARK    1  A    between atoms: C2_2  and  C5_5 
REMARK    2  A    between atoms: C5_5  and  C6_6 
REMARK       I    between atoms: C6_6  and  N1_8 
REMARK       I    between atoms: C7_10  and  N2_11 
REMARK       I    between atoms: C7_10  and  N4_25 
REMARK    3  A    between atoms: N2_11  and  C8_13 
REMARK    4  A    between atoms: N3_20  and  C15_21 
REMARK    5  A    between atoms: C15_21  and  C16_22 
REMARK    6  A    between atoms: N4_25  and  C19_27 
ROOT
HETATM    1  C6  UNL     1      -0.195  -5.294  22.445  1.00  0.00     0.236 C 
HETATM    2  O1  UNL     1       0.159  -5.329  21.246  1.00  0.00    -0.273 OA
HETATM    3  N1  UNL     1      -1.249  -6.025  23.006  1.00  0.00    -0.160 N 
ATOM      4  H1  UNL     1      -1.785  -5.590  23.757  1.00  0.00     0.187 HD
HETATM    5  C7  UNL     1      -1.593  -7.234  22.626  1.00  0.00     0.677 C 
HETATM    6  N2  UNL     1      -2.676  -7.851  23.281  1.00  0.00    -0.222 N 
ATOM      7  H2  UNL     1      -3.585  -7.907  22.820  1.00  0.00     0.178 HD
HETATM    8  N4  UNL     1      -0.835  -7.801  21.590  1.00  0.00    -0.217 N 
ATOM      9  H4  UNL     1       0.181  -7.769  21.682  1.00  0.00     0.178 HD
ENDROOT
BRANCH   6  10
HETATM   10  C8  UNL     1      -2.503  -8.409  24.612  1.00  0.00     0.103 C 
HETATM   11  C9  UNL     1      -1.387  -9.383  24.605  1.00  0.00     0.061 C 
HETATM   12  C10 UNL     1      -1.474 -10.246  25.872  1.00  0.00     0.225 C 
HETATM   13  C11 UNL     1      -1.615  -9.382  27.101  1.00  0.00     0.038 C 
HETATM   14  N3  UNL     1      -2.718 -10.986  25.724  1.00  0.00     0.098 N 
HETATM   15  C12 UNL     1      -3.091  -9.425  27.412  1.00  0.00     0.038 C 
HETATM   16  C13 UNL     1      -3.673 -10.017  26.144  1.00  0.00     0.225 C 
HETATM   17  C14 UNL     1      -3.821  -8.974  25.056  1.00  0.00     0.061 C 
BRANCH  14  18
HETATM   18  C15 UNL     1      -2.711 -12.225  26.418  1.00  0.00     0.278 C 
BRANCH  18  19
HETATM   19  C16 UNL     1      -2.116 -13.295  25.530  1.00  0.00     0.014 A 
HETATM   20  C17 UNL     1      -2.413 -13.284  24.072  1.00  0.00     0.007 A 
HETATM   21  C18 UNL     1      -3.072 -14.308  24.920  1.00  0.00     0.007 A 
ENDBRANCH  18  19
ENDBRANCH  14  18
ENDBRANCH   6  10
BRANCH   8  22
HETATM   22  C19 UNL     1      -1.365  -8.420  20.420  1.00  0.00     0.048 C 
HETATM   23  C20 UNL     1      -2.515  -7.664  19.852  1.00  0.00     0.036 C 
HETATM   24  C21 UNL     1      -3.130  -8.428  18.678  1.00  0.00    -0.012 C 
HETATM   25  C22 UNL     1      -3.526  -9.816  19.081  1.00  0.00     0.009 C 
HETATM   26  C26 UNL     1      -2.071  -8.476  17.599  1.00  0.00     0.009 C 
HETATM   27  C23 UNL     1      -2.285 -10.548  19.574  1.00  0.00    -0.012 C 
HETATM   28  C24 UNL     1      -1.284 -10.606  18.462  1.00  0.00     0.009 C 
HETATM   29  C28 UNL     1      -1.797  -9.830  20.788  1.00  0.00     0.036 C 
HETATM   30  C25 UNL     1      -0.859  -9.186  18.123  1.00  0.00    -0.012 C 
HETATM   31  C27 UNL     1      -0.285  -8.580  19.362  1.00  0.00     0.036 C 
ENDBRANCH   8  22
BRANCH   1  32
HETATM   32  C5  UNL     1       0.597  -4.385  23.334  1.00  0.00     0.112 C 
BRANCH  32  33
HETATM   33  C2  UNL     1       0.313  -2.939  23.086  1.00  0.00    -0.043 C 
HETATM   34  C1  UNL     1       0.560  -2.198  24.392  1.00  0.00     0.015 C 
HETATM   35  C3  UNL     1       1.212  -2.366  22.035  1.00  0.00     0.015 C 
HETATM   36  C4  UNL     1      -1.128  -2.748  22.666  1.00  0.00     0.015 C 
ENDBRANCH  32  33
ENDBRANCH   1  32
TORSDOF 6
ENDMDL
MODEL 3
REMARK VINA RESULT: -7.803750949      3.477      8.374
REMARK  6 active torsions:
REMARK  status: ('A' for Active; 'I' for Inactive)
REMARK    1  A    between atoms: C2_2  and  C5_5 
REMARK    2  A    between atoms: C5_5  and  C6_6 
REMARK       I    between atoms: C6_6  and  N1_8 
REMARK       I    between atoms: C7_10  and  N2_11 
REMARK       I    between atoms: C7_10  and  N4_25 
REMARK    3  A    between atoms: N2_11  and  C8_13 
REMARK    4  A    between atoms: N3_20  and  C15_21 
REMARK    5  A    between atoms: C15_21  and  C16_22 
REMARK    6  A    between atoms: N4_25  and  C19_27 
ROOT
HETATM    1  C6  UNL     1      -0.215  -5.398  22.407  1.00  0.00     0.236 C 
HETATM    2  O1  UNL     1       0.146  -5.454  21.211  1.00  0.00    -0.273 OA
HETATM    3  N1  UNL     1      -1.286  -6.102  22.971  1.00  0.00    -0.160 N 
ATOM      4  H1  UNL     1      -1.818  -5.649  23.713  1.00  0.00     0.187 HD
HETATM    5  C7  UNL     1      -1.648  -7.310  22.604  1.00  0.00     0.677 C 
HETATM    6  N2  UNL     1      -2.747  -7.899  23.259  1.00  0.00    -0.222 N 
ATOM      7  H2  UNL     1      -3.653  -7.945  22.794  1.00  0.00     0.178 HD
HETATM    8  N4  UNL     1      -0.894  -7.904  21.580  1.00  0.00    -0.217 N 
ATOM      9  H4  UNL     1       0.121  -7.888  21.678  1.00  0.00     0.178 HD
ENDROOT
BRANCH   6  10
HETATM   10  C8  UNL     1      -2.591  -8.443  24.599  1.00  0.00     0.103 C 
HETATM   11  C9  UNL     1      -1.464  -9.404  24.621  1.00  0.00     0.061 C 
HETATM   12  C10 UNL     1      -1.564 -10.256  25.894  1.00  0.00     0.225 C 
HETATM   13  C11 UNL     1      -1.738  -9.383  27.113  1.00  0.00     0.038 C 
HETATM   14  N3  UNL     1      -2.795 -11.013  25.730  1.00  0.00     0.098 N 
HETATM   15  C12 UNL     1      -3.219  -9.442  27.396  1.00  0.00     0.038 C 
HETATM   16  C13 UNL     1      -3.770 -10.052  26.123  1.00  0.00     0.225 C 
HETATM   17  C14 UNL     1      -3.911  -9.021  25.023  1.00  0.00     0.061 C 
BRANCH  14  18
HETATM   18  C15 UNL     1      -2.786 -12.246  26.435  1.00  0.00     0.278 C 
BRANCH  18  19
HETATM   19  C16 UNL     1      -2.192 -13.323  25.556  1.00  0.00     0.014 A 
HETATM   20  C17 UNL     1      -2.411 -13.271  24.085  1.00  0.00     0.007 A 
HETATM   21  C18 UNL     1      -3.157 -14.281  24.875  1.00  0.00     0.007 A 
ENDBRANCH  18  19
ENDBRANCH  14  18
ENDBRANCH   6  10
BRANCH   8  22
HETATM   22  C19 UNL     1      -1.429  -8.528  20.415  1.00  0.00     0.048 C 
HETATM   23  C20 UNL     1      -1.951  -9.894  20.693  1.00  0.00     0.036 C 
HETATM   24  C21 UNL     1      -2.395 -10.570  19.394  1.00  0.00    -0.012 C 
HETATM   25  C22 UNL     1      -1.286 -10.596  18.387  1.00  0.00     0.009 C 
HETATM   26  C26 UNL     1      -3.562  -9.762  18.870  1.00  0.00     0.009 C 
HETATM   27  C23 UNL     1      -0.864  -9.163  18.098  1.00  0.00    -0.012 C 
HETATM   28  C24 UNL     1      -2.037  -8.415  17.545  1.00  0.00     0.009 C 
HETATM   29  C28 UNL     1      -0.328  -8.590  19.368  1.00  0.00     0.036 C 
HETATM   30  C25 UNL     1      -3.117  -8.354  18.614  1.00  0.00    -0.012 C 
HETATM   31  C27 UNL     1      -2.530  -7.673  19.806  1.00  0.00     0.036 C 
ENDBRANCH   8  22
BRANCH   1  32
HETATM   32  C5  UNL     1       0.588  -4.492  23.290  1.00  0.00     0.112 C 
BRANCH  32  33
HETATM   33  C2  UNL     1       0.336  -3.044  23.018  1.00  0.00    -0.043 C 
HETATM   34  C1  UNL     1       0.589  -2.289  24.314  1.00  0.00     0.015 C 
HETATM   35  C3  UNL     1       1.254  -2.507  21.964  1.00  0.00     0.015 C 
HETATM   36  C4  UNL     1      -1.099  -2.830  22.584  1.00  0.00     0.015 C 
ENDBRANCH  32  33
ENDBRANCH   1  32
TORSDOF 6
ENDMDL
MODEL 4
REMARK VINA RESULT: -7.727316462      0.974      1.331
REMARK  6 active torsions:
REMARK  status: ('A' for Active; 'I' for Inactive)
REMARK    1  A    between atoms: C2_2  and  C5_5 
REMARK    2  A    between atoms: C5_5  and  C6_6 
REMARK       I    between atoms: C6_6  and  N1_8 
REMARK       I    between atoms: C7_10  and  N2_11 
REMARK       I    between atoms: C7_10  and  N4_25 
REMARK    3  A    between atoms: N2_11  and  C8_13 
REMARK    4  A    between atoms: N3_20  and  C15_21 
REMARK    5  A    between atoms: C15_21  and  C16_22 
REMARK    6  A    between atoms: N4_25  and  C19_27 
ROOT
HETATM    1  C6  UNL     1      -0.501 -13.794  22.735  1.00  0.00     0.236 C 
HETATM    2  O1  UNL     1      -0.390 -14.014  23.961  1.00  0.00    -0.273 OA
HETATM    3  N1  UNL     1      -1.258 -12.768  22.155  1.00  0.00    -0.160 N 
ATOM      4  H1  UNL     1      -1.712 -12.956  21.261  1.00  0.00     0.187 HD
HETATM    5  C7  UNL     1      -1.422 -11.580  22.690  1.00  0.00     0.677 C 
HETATM    6  N2  UNL     1      -2.210 -10.643  21.994  1.00  0.00    -0.222 N 
ATOM      7  H2  UNL     1      -3.162 -10.448  22.305  1.00  0.00     0.178 HD
HETATM    8  N4  UNL     1      -0.784 -11.356  23.919  1.00  0.00    -0.217 N 
ATOM      9  H4  UNL     1       0.203 -11.607  23.987  1.00  0.00     0.178 HD
ENDROOT
BRANCH   6  10
HETATM   10  C8  UNL     1      -1.672  -9.955  20.832  1.00  0.00     0.103 C 
HETATM   11  C9  UNL     1      -2.435  -8.709  20.591  1.00  0.00     0.061 C 
HETATM   12  C10 UNL     1      -2.138  -8.214  19.168  1.00  0.00     0.225 C 
HETATM   13  C11 UNL     1      -0.651  -8.161  18.916  1.00  0.00     0.038 C 
HETATM   14  N3  UNL     1      -2.683  -9.248  18.302  1.00  0.00     0.098 N 
HETATM   15  C12 UNL     1      -0.366  -9.425  18.143  1.00  0.00     0.038 C 
HETATM   16  C13 UNL     1      -1.642 -10.220  18.336  1.00  0.00     0.225 C 
HETATM   17  C14 UNL     1      -1.669 -10.918  19.680  1.00  0.00     0.061 C 
BRANCH  14  18
HETATM   18  C15 UNL     1      -3.064  -8.758  17.024  1.00  0.00     0.278 C 
BRANCH  18  19
HETATM   19  C16 UNL     1      -4.463  -8.190  17.101  1.00  0.00     0.014 A 
HETATM   20  C17 UNL     1      -5.250  -8.011  15.851  1.00  0.00     0.007 A 
HETATM   21  C18 UNL     1      -4.689  -6.806  16.512  1.00  0.00     0.007 A 
ENDBRANCH  18  19
ENDBRANCH  14  18
ENDBRANCH   6  10
BRANCH   8  22
HETATM   22  C19 UNL     1      -1.399 -10.807  25.083  1.00  0.00     0.048 C 
HETATM   23  C20 UNL     1      -1.479  -9.322  25.033  1.00  0.00     0.036 C 
HETATM   24  C21 UNL     1      -2.028  -8.771  26.351  1.00  0.00    -0.012 C 
HETATM   25  C22 UNL     1      -1.214  -9.243  27.517  1.00  0.00     0.009 C 
HETATM   26  C26 UNL     1      -3.450  -9.275  26.464  1.00  0.00     0.009 C 
HETATM   27  C23 UNL     1      -1.247 -10.764  27.545  1.00  0.00    -0.012 C 
HETATM   28  C24 UNL     1      -2.667 -11.214  27.699  1.00  0.00     0.009 C 
HETATM   29  C28 UNL     1      -0.594 -11.248  26.294  1.00  0.00     0.036 C 
HETATM   30  C25 UNL     1      -3.447 -10.774  26.470  1.00  0.00    -0.012 C 
HETATM   31  C27 UNL     1      -2.791 -11.388  25.278  1.00  0.00     0.036 C 
ENDBRANCH   8  22
BRANCH   1  32
HETATM   32  C5  UNL     1       0.252 -14.723  21.833  1.00  0.00     0.112 C 
BRANCH  32  33
HETATM   33  C2  UNL     1       1.555 -14.155  21.372  1.00  0.00    -0.043 C 
HETATM   34  C1  UNL     1       2.135 -15.123  20.351  1.00  0.00     0.015 C 
HETATM   35  C3  UNL     1       1.381 -12.819  20.718  1.00  0.00     0.015 C 
HETATM   36  C4  UNL     1       2.513 -14.019  22.535  1.00  0.00     0.015 C 
ENDBRANCH  32  33
ENDBRANCH   1  32
TORSDOF 6
ENDMDL
MODEL 5
REMARK VINA RESULT: -7.641015925      1.054      1.641
REMARK  6 active torsions:
REMARK  status: ('A' for Active; 'I' for Inactive)
REMARK    1  A    between atoms: C2_2  and  C5_5 
REMARK    2  A    between atoms: C5_5  and  C6_6 
REMARK       I    between atoms: C6_6  and  N1_8 
REMARK       I    between atoms: C7_10  and  N2_11 
REMARK       I    between atoms: C7_10  and  N4_25 
REMARK    3  A    between atoms: N2_11  and  C8_13 
REMARK    4  A    between atoms: N3_20  and  C15_21 
REMARK    5  A    between atoms: C15_21  and  C16_22 
REMARK    6  A    between atoms: N4_25  and  C19_27 
ROOT
HETATM    1  C6  UNL     1       1.589 -12.213  23.787  1.00  0.00     0.236 C 
HETATM    2  O1  UNL     1       1.483 -12.206  25.033  1.00  0.00    -0.273 OA
HETATM    3  N1  UNL     1       0.551 -11.972  22.878  1.00  0.00    -0.160 N 
ATOM      4  H1  UNL     1       0.561 -12.482  21.995  1.00  0.00     0.187 HD
HETATM    5  C7  UNL     1      -0.435 -11.131  23.091  1.00  0.00     0.677 C 
HETATM    6  N2  UNL     1      -1.412 -10.987  22.087  1.00  0.00    -0.222 N 
ATOM      7  H2  UNL     1      -2.325 -11.426  22.199  1.00  0.00     0.178 HD
HETATM    8  N4  UNL     1      -0.416 -10.446  24.316  1.00  0.00    -0.217 N 
ATOM      9  H4  UNL     1       0.457  -9.994  24.587  1.00  0.00     0.178 HD
ENDROOT
BRANCH   6  10
HETATM   10  C8  UNL     1      -1.121 -10.214  20.891  1.00  0.00     0.103 C 
HETATM   11  C9  UNL     1      -2.125  -9.137  20.735  1.00  0.00     0.061 C 
HETATM   12  C10 UNL     1      -2.058  -8.600  19.297  1.00  0.00     0.225 C 
HETATM   13  C11 UNL     1      -0.637  -8.266  18.915  1.00  0.00     0.038 C 
HETATM   14  N3  UNL     1      -2.472  -9.724  18.470  1.00  0.00     0.098 N 
HETATM   15  C12 UNL     1      -0.187  -9.456  18.103  1.00  0.00     0.038 C 
HETATM   16  C13 UNL     1      -1.266 -10.479  18.399  1.00  0.00     0.225 C 
HETATM   17  C14 UNL     1      -1.039 -11.163  19.730  1.00  0.00     0.061 C 
BRANCH  14  18
HETATM   18  C15 UNL     1      -3.053  -9.320  17.239  1.00  0.00     0.278 C 
BRANCH  18  19
HETATM   19  C16 UNL     1      -4.338  -8.573  17.510  1.00  0.00     0.014 A 
HETATM   20  C17 UNL     1      -5.176  -8.117  16.368  1.00  0.00     0.007 A 
HETATM   21  C18 UNL     1      -4.390  -7.104  17.116  1.00  0.00     0.007 A 
ENDBRANCH  18  19
ENDBRANCH  14  18
ENDBRANCH   6  10
BRANCH   8  22
HETATM   22  C19 UNL     1      -1.518 -10.330  25.215  1.00  0.00     0.048 C 
HETATM   23  C20 UNL     1      -2.393  -9.170  24.889  1.00  0.00     0.036 C 
HETATM   24  C21 UNL     1      -3.484  -9.010  25.950  1.00  0.00    -0.012 C 
HETATM   25  C22 UNL     1      -2.894  -8.890  27.323  1.00  0.00     0.009 C 
HETATM   26  C26 UNL     1      -4.353 -10.245  25.858  1.00  0.00     0.009 C 
HETATM   27  C23 UNL     1      -2.082 -10.145  27.610  1.00  0.00    -0.012 C 
HETATM   28  C24 UNL     1      -2.990 -11.334  27.548  1.00  0.00     0.009 C 
HETATM   29  C28 UNL     1      -0.964 -10.189  26.623  1.00  0.00     0.036 C 
HETATM   30  C25 UNL     1      -3.520 -11.461  26.128  1.00  0.00    -0.012 C 
HETATM   31  C27 UNL     1      -2.342 -11.607  25.221  1.00  0.00     0.036 C 
ENDBRANCH   8  22
BRANCH   1  32
HETATM   32  C5  UNL     1       2.955 -12.508  23.248  1.00  0.00     0.112 C 
BRANCH  32  33
HETATM   33  C2  UNL     1       3.897 -11.356  23.391  1.00  0.00    -0.043 C 
HETATM   34  C1  UNL     1       5.291 -11.866  23.060  1.00  0.00     0.015 C 
HETATM   35  C3  UNL     1       3.560 -10.241  22.451  1.00  0.00     0.015 C 
HETATM   36  C4  UNL     1       3.878 -10.833  24.811  1.00  0.00     0.015 C 
ENDBRANCH  32  33
ENDBRANCH   1  32
TORSDOF 6
ENDMDL
