MODEL 1
REMARK VINA RESULT: -7.497307746      0.000      0.000
REMARK  7 active torsions:
REMARK  status: ('A' for Active; 'I' for Inactive)
REMARK    1  A    between atoms: C2_2  and  C3_3 
REMARK    2  A    between atoms: C3_3  and  C4_4 
REMARK    3  A    between atoms: C4_4  and  C5_5 
REMARK    4  A    between atoms: C5_5  and  N1_6 
REMARK    5  A    between atoms: N1_6  and  C6_8 
REMARK    6  A    between atoms: C6_8  and  N2_10 
REMARK    7  A    between atoms: N2_10  and  C8_12 
ROOT
HETATM    1  C8  UNL     1      -1.634  -8.254  21.199  1.00  0.00     0.086 C 
HETATM    2  N3  UNL     1      -2.041  -7.122  21.975  1.00  0.00    -0.369 N 
ATOM      3  H3  UNL     1      -2.449  -6.248  21.644  1.00  0.00     0.161 HD
HETATM    4  C9  UNL     1      -1.731  -7.514  23.375  1.00  0.00     0.041 A 
HETATM    5  C10 UNL     1      -2.835  -7.954  24.188  1.00  0.00     0.033 C 
HETATM    6  C11 UNL     1      -2.882  -9.421  24.235  1.00  0.00     0.013 C 
HETATM    7  C12 UNL     1      -1.623 -10.204  24.577  1.00  0.00    -0.031 C 
HETATM    8  C13 UNL     1      -1.916 -10.483  26.058  1.00  0.00     0.016 C 
HETATM    9  C14 UNL     1      -1.765 -11.435  23.741  1.00  0.00     0.010 C 
HETATM   10  C15 UNL     1      -1.693 -11.179  22.279  1.00  0.00     0.007 C 
HETATM   11  C16 UNL     1      -0.625 -10.371  21.692  1.00  0.00     0.013 C 
HETATM   12  C17 UNL     1      -0.511  -8.927  21.966  1.00  0.00     0.065 C 
HETATM   13  C18 UNL     1      -0.630  -8.436  23.340  1.00  0.00     0.006 A 
HETATM   14  C19 UNL     1      -0.408  -7.053  23.763  1.00  0.00     0.045 A 
HETATM   15  C20 UNL     1      -0.410  -9.401  24.465  1.00  0.00    -0.025 C 
HETATM   16  C21 UNL     1      -0.150  -8.676  25.810  1.00  0.00     0.017 C 
HETATM   17  C22 UNL     1       0.920 -10.014  24.228  1.00  0.00     0.018 C 
HETATM   18  C23 UNL     1       1.123 -11.415  24.642  1.00  0.00     0.080 C 
HETATM   19  C24 UNL     1       0.389 -12.463  23.959  1.00  0.00     0.135 C 
HETATM   20  O1  UNL     1       0.937 -13.250  23.202  1.00  0.00    -0.297 OA
HETATM   21  C25 UNL     1      -1.065 -12.682  24.108  1.00  0.00     0.017 C 
HETATM   22  C26 UNL     1      -1.273 -13.286  25.456  1.00  0.00     0.023 C 
HETATM   23  C27 UNL     1      -1.548 -13.787  23.142  1.00  0.00     0.023 C 
ENDROOT
BRANCH   1  24
HETATM   24  N2  UNL     1      -1.582  -8.141  19.815  1.00  0.00    -0.318 N 
HETATM   25  C7  UNL     1      -1.152  -6.791  19.261  1.00  0.00     0.160 C 
BRANCH  24  26
HETATM   26  C6  UNL     1      -1.879  -9.037  18.813  1.00  0.00     0.178 C 
HETATM   27  S1  UNL     1      -0.457  -9.701  18.094  1.00  0.00    -0.040 SA
BRANCH  26  28
HETATM   28  N1  UNL     1      -3.035  -9.542  18.232  1.00  0.00    -0.346 N 
ATOM     29  H1  UNL     1      -3.532 -10.196  18.836  1.00  0.00     0.167 HD
BRANCH  28  30
HETATM   30  C5  UNL     1      -3.669  -9.347  16.990  1.00  0.00     0.063 C 
BRANCH  30  31
HETATM   31  C4  UNL     1      -4.240  -7.931  16.909  1.00  0.00     0.044 C 
BRANCH  31  32
HETATM   32  C3  UNL     1      -5.370  -7.962  15.901  1.00  0.00     0.005 C 
BRANCH  32  33
HETATM   33  C2  UNL     1      -5.144  -6.782  14.962  1.00  0.00    -0.004 C 
HETATM   34  C1  UNL     1      -4.941  -5.568  15.835  1.00  0.00     0.005 C 
ENDBRANCH  32  33
ENDBRANCH  31  32
ENDBRANCH  30  31
ENDBRANCH  28  30
ENDBRANCH  26  28
ENDBRANCH  24  26
ENDBRANCH   1  24
TORSDOF 7
ENDMDL
MODEL 2
REMARK VINA RESULT: -7.449869168      2.006      3.663
REMARK  7 active torsions:
REMARK  status: ('A' for Active; 'I' for Inactive)
REMARK    1  A    between atoms: C2_2  and  C3_3 
REMARK    2  A    between atoms: C3_3  and  C4_4 
REMARK    3  A    between atoms: C4_4  and  C5_5 
REMARK    4  A    between atoms: C5_5  and  N1_6 
REMARK    5  A    between atoms: N1_6  and  C6_8 
REMARK    6  A    between atoms: C6_8  and  N2_10 
REMARK    7  A    between atoms: N2_10  and  C8_12 
ROOT
HETATM    1  C8  UNL     1      -0.871  -8.007  21.590  1.00  0.00     0.086 C 
HETATM    2  N3  UNL     1      -0.343  -9.010  20.715  1.00  0.00    -0.369 N 
ATOM      3  H3  UNL     1       0.008  -8.892  19.765  1.00  0.00     0.161 HD
HETATM    4  C9  UNL     1      -0.424 -10.263  21.512  1.00  0.00     0.041 A 
HETATM    5  C10 UNL     1       0.795 -10.730  22.118  1.00  0.00     0.033 C 
HETATM    6  C11 UNL     1       0.847 -10.335  23.532  1.00  0.00     0.013 C 
HETATM    7  C12 UNL     1      -0.342 -10.620  24.437  1.00  0.00    -0.031 C 
HETATM    8  C13 UNL     1       0.185 -11.890  25.122  1.00  0.00     0.016 C 
HETATM    9  C14 UNL     1      -0.338  -9.448  25.364  1.00  0.00     0.010 C 
HETATM   10  C15 UNL     1      -0.644  -8.155  24.697  1.00  0.00     0.007 C 
HETATM   11  C16 UNL     1      -1.791  -8.003  23.803  1.00  0.00     0.013 C 
HETATM   12  C17 UNL     1      -1.858  -8.706  22.508  1.00  0.00     0.065 C 
HETATM   13  C18 UNL     1      -1.518 -10.128  22.433  1.00  0.00     0.006 A 
HETATM   14  C19 UNL     1      -1.667 -10.969  21.245  1.00  0.00     0.045 A 
HETATM   15  C20 UNL     1      -1.556 -10.938  23.692  1.00  0.00    -0.025 C 
HETATM   16  C21 UNL     1      -1.595 -12.460  23.404  1.00  0.00     0.017 C 
HETATM   17  C22 UNL     1      -2.908 -10.739  24.271  1.00  0.00     0.018 C 
HETATM   18  C23 UNL     1      -3.043 -10.747  25.740  1.00  0.00     0.080 C 
HETATM   19  C24 UNL     1      -2.431  -9.681  26.509  1.00  0.00     0.135 C 
HETATM   20  O1  UNL     1      -3.094  -8.820  27.065  1.00  0.00    -0.297 OA
HETATM   21  C25 UNL     1      -0.972  -9.533  26.694  1.00  0.00     0.017 C 
HETATM   22  C26 UNL     1      -0.551 -10.595  27.654  1.00  0.00     0.023 C 
HETATM   23  C27 UNL     1      -0.652  -8.222  27.447  1.00  0.00     0.023 C 
ENDROOT
BRANCH   1  24
HETATM   24  N2  UNL     1      -1.145  -6.744  21.082  1.00  0.00    -0.318 N 
HETATM   25  C7  UNL     1      -0.866  -5.567  22.005  1.00  0.00     0.160 C 
BRANCH  24  26
HETATM   26  C6  UNL     1      -1.663  -6.337  19.873  1.00  0.00     0.178 C 
HETATM   27  S1  UNL     1      -0.804  -4.991  19.219  1.00  0.00    -0.040 SA
BRANCH  26  28
HETATM   28  N1  UNL     1      -2.705  -6.735  19.045  1.00  0.00    -0.346 N 
ATOM     29  H1  UNL     1      -2.623  -6.368  18.097  1.00  0.00     0.167 HD
BRANCH  28  30
HETATM   30  C5  UNL     1      -3.849  -7.535  19.230  1.00  0.00     0.063 C 
BRANCH  30  31
HETATM   31  C4  UNL     1      -3.640  -8.907  18.588  1.00  0.00     0.044 C 
BRANCH  31  32
HETATM   32  C3  UNL     1      -3.500  -8.685  17.096  1.00  0.00     0.005 C 
BRANCH  32  33
HETATM   33  C2  UNL     1      -4.897  -8.366  16.575  1.00  0.00    -0.004 C 
HETATM   34  C1  UNL     1      -4.757  -7.165  15.672  1.00  0.00     0.005 C 
ENDBRANCH  32  33
ENDBRANCH  31  32
ENDBRANCH  30  31
ENDBRANCH  28  30
ENDBRANCH  26  28
ENDBRANCH  24  26
ENDBRANCH   1  24
TORSDOF 7
ENDMDL
MODEL 3
REMARK VINA RESULT: -7.441105817      1.903      3.457
REMARK  7 active torsions:
REMARK  status: ('A' for Active; 'I' for Inactive)
REMARK    1  A    between atoms: C2_2  and  C3_3 
REMARK    2  A    between atoms: C3_3  and  C4_4 
REMARK    3  A    between atoms: C4_4  and  C5_5 
REMARK    4  A    between atoms: C5_5  and  N1_6 
REMARK    5  A    between atoms: N1_6  and  C6_8 
REMARK    6  A    between atoms: C6_8  and  N2_10 
REMARK    7  A    between atoms: N2_10  and  C8_12 
ROOT
HETATM    1  C8  UNL     1      -0.624  -9.354  21.020  1.00  0.00     0.086 C 
HETATM    2  N3  UNL     1       0.670  -9.891  20.729  1.00  0.00    -0.369 N 
ATOM      3  H3  UNL     1       1.279  -9.668  19.942  1.00  0.00     0.161 HD
HETATM    4  C9  UNL     1       0.922 -10.848  21.838  1.00  0.00     0.041 A 
HETATM    5  C10 UNL     1       1.793 -10.407  22.895  1.00  0.00     0.033 C 
HETATM    6  C11 UNL     1       1.006  -9.939  24.044  1.00  0.00     0.013 C 
HETATM    7  C12 UNL     1      -0.107 -10.814  24.601  1.00  0.00    -0.031 C 
HETATM    8  C13 UNL     1       0.646 -11.420  25.794  1.00  0.00     0.016 C 
HETATM    9  C14 UNL     1      -1.126  -9.811  25.038  1.00  0.00     0.010 C 
HETATM   10  C15 UNL     1      -1.737  -9.050  23.919  1.00  0.00     0.007 C 
HETATM   11  C16 UNL     1      -2.264  -9.719  22.730  1.00  0.00     0.013 C 
HETATM   12  C17 UNL     1      -1.378 -10.426  21.786  1.00  0.00     0.065 C 
HETATM   13  C18 UNL     1      -0.350 -11.335  22.296  1.00  0.00     0.006 A 
HETATM   14  C19 UNL     1       0.502 -12.191  21.470  1.00  0.00     0.045 A 
HETATM   15  C20 UNL     1      -0.501 -11.878  23.683  1.00  0.00    -0.025 C 
HETATM   16  C21 UNL     1       0.397 -13.119  23.924  1.00  0.00     0.017 C 
HETATM   17  C22 UNL     1      -1.846 -12.505  23.737  1.00  0.00     0.018 C 
HETATM   18  C23 UNL     1      -2.581 -12.463  25.015  1.00  0.00     0.080 C 
HETATM   19  C24 UNL     1      -3.030 -11.182  25.526  1.00  0.00     0.135 C 
HETATM   20  O1  UNL     1      -4.210 -10.868  25.541  1.00  0.00    -0.297 OA
HETATM   21  C25 UNL     1      -2.124 -10.150  26.072  1.00  0.00     0.017 C 
HETATM   22  C26 UNL     1      -1.677 -10.634  27.410  1.00  0.00     0.023 C 
HETATM   23  C27 UNL     1      -2.908  -8.860  26.400  1.00  0.00     0.023 C 
ENDROOT
BRANCH   1  24
HETATM   24  N2  UNL     1      -1.267  -8.581  20.062  1.00  0.00    -0.318 N 
HETATM   25  C7  UNL     1      -1.175  -9.070  18.624  1.00  0.00     0.160 C 
BRANCH  24  26
HETATM   26  C6  UNL     1      -1.972  -7.403  20.160  1.00  0.00     0.178 C 
HETATM   27  S1  UNL     1      -1.227  -6.290  21.250  1.00  0.00    -0.040 SA
BRANCH  26  28
HETATM   28  N1  UNL     1      -3.134  -6.881  19.606  1.00  0.00    -0.346 N 
ATOM     29  H1  UNL     1      -3.180  -5.864  19.662  1.00  0.00     0.167 HD
BRANCH  28  30
HETATM   30  C5  UNL     1      -4.261  -7.452  18.984  1.00  0.00     0.063 C 
BRANCH  30  31
HETATM   31  C4  UNL     1      -4.242  -7.149  17.485  1.00  0.00     0.044 C 
BRANCH  31  32
HETATM   32  C3  UNL     1      -4.601  -8.432  16.766  1.00  0.00     0.005 C 
BRANCH  32  33
HETATM   33  C2  UNL     1      -5.360  -8.023  15.507  1.00  0.00    -0.004 C 
HETATM   34  C1  UNL     1      -5.296  -6.518  15.435  1.00  0.00     0.005 C 
ENDBRANCH  32  33
ENDBRANCH  31  32
ENDBRANCH  30  31
ENDBRANCH  28  30
ENDBRANCH  26  28
ENDBRANCH  24  26
ENDBRANCH   1  24
TORSDOF 7
ENDMDL
MODEL 4
REMARK VINA RESULT: -7.437753062      2.330      4.633
REMARK  7 active torsions:
REMARK  status: ('A' for Active; 'I' for Inactive)
REMARK    1  A    between atoms: C2_2  and  C3_3 
REMARK    2  A    between atoms: C3_3  and  C4_4 
REMARK    3  A    between atoms: C4_4  and  C5_5 
REMARK    4  A    between atoms: C5_5  and  N1_6 
REMARK    5  A    between atoms: N1_6  and  C6_8 
REMARK    6  A    between atoms: C6_8  and  N2_10 
REMARK    7  A    between atoms: N2_10  and  C8_12 
ROOT
HETATM    1  C8  UNL     1      -1.112  -9.381  20.209  1.00  0.00     0.086 C 
HETATM    2  N3  UNL     1       0.206  -9.738  19.781  1.00  0.00    -0.369 N 
ATOM      3  H3  UNL     1       0.668  -9.497  18.904  1.00  0.00     0.161 HD
HETATM    4  C9  UNL     1       0.748 -10.540  20.909  1.00  0.00     0.041 A 
HETATM    5  C10 UNL     1       1.660  -9.876  21.802  1.00  0.00     0.033 C 
HETATM    6  C11 UNL     1       0.957  -9.431  23.013  1.00  0.00     0.013 C 
HETATM    7  C12 UNL     1       0.081 -10.412  23.778  1.00  0.00    -0.031 C 
HETATM    8  C13 UNL     1       1.066 -10.784  24.895  1.00  0.00     0.016 C 
HETATM    9  C14 UNL     1      -1.026  -9.542  24.280  1.00  0.00     0.010 C 
HETATM   10  C15 UNL     1      -1.889  -8.988  23.205  1.00  0.00     0.007 C 
HETATM   11  C16 UNL     1      -2.443  -9.836  22.150  1.00  0.00     0.013 C 
HETATM   12  C17 UNL     1      -1.578 -10.482  21.145  1.00  0.00     0.065 C 
HETATM   13  C18 UNL     1      -0.359 -11.172  21.571  1.00  0.00     0.006 A 
HETATM   14  C19 UNL     1       0.512 -11.960  20.697  1.00  0.00     0.045 A 
HETATM   15  C20 UNL     1      -0.245 -11.603  23.000  1.00  0.00    -0.025 C 
HETATM   16  C21 UNL     1       0.867 -12.665  23.201  1.00  0.00     0.017 C 
HETATM   17  C22 UNL     1      -1.451 -12.421  23.283  1.00  0.00     0.018 C 
HETATM   18  C23 UNL     1      -2.018 -12.376  24.644  1.00  0.00     0.080 C 
HETATM   19  C24 UNL     1      -2.604 -11.138  25.121  1.00  0.00     0.135 C 
HETATM   20  O1  UNL     1      -3.808 -11.008  25.276  1.00  0.00    -0.297 OA
HETATM   21  C25 UNL     1      -1.818  -9.933  25.462  1.00  0.00     0.017 C 
HETATM   22  C26 UNL     1      -1.135 -10.219  26.757  1.00  0.00     0.023 C 
HETATM   23  C27 UNL     1      -2.756  -8.754  25.804  1.00  0.00     0.023 C 
ENDROOT
BRANCH   1  24
HETATM   24  N2  UNL     1      -1.987  -8.806  19.297  1.00  0.00    -0.318 N 
HETATM   25  C7  UNL     1      -2.433  -9.687  18.139  1.00  0.00     0.160 C 
BRANCH  24  26
HETATM   26  C6  UNL     1      -2.526  -7.542  19.219  1.00  0.00     0.178 C 
HETATM   27  S1  UNL     1      -4.228  -7.580  18.929  1.00  0.00    -0.040 SA
BRANCH  26  28
HETATM   28  N1  UNL     1      -2.049  -6.242  19.313  1.00  0.00    -0.346 N 
ATOM     29  H1  UNL     1      -2.642  -5.563  18.836  1.00  0.00     0.167 HD
BRANCH  28  30
HETATM   30  C5  UNL     1      -0.923  -5.656  19.924  1.00  0.00     0.063 C 
BRANCH  30  31
HETATM   31  C4  UNL     1      -0.998  -5.832  21.441  1.00  0.00     0.044 C 
BRANCH  31  32
HETATM   32  C3  UNL     1      -0.885  -4.453  22.057  1.00  0.00     0.005 C 
BRANCH  32  33
HETATM   33  C2  UNL     1       0.256  -4.523  23.066  1.00  0.00    -0.004 C 
HETATM   34  C1  UNL     1       0.268  -5.931  23.607  1.00  0.00     0.005 C 
ENDBRANCH  32  33
ENDBRANCH  31  32
ENDBRANCH  30  31
ENDBRANCH  28  30
ENDBRANCH  26  28
ENDBRANCH  24  26
ENDBRANCH   1  24
TORSDOF 7
ENDMDL
MODEL 5
REMARK VINA RESULT: -7.437637140      2.393      4.068
REMARK  7 active torsions:
REMARK  status: ('A' for Active; 'I' for Inactive)
REMARK    1  A    between atoms: C2_2  and  C3_3 
REMARK    2  A    between atoms: C3_3  and  C4_4 
REMARK    3  A    between atoms: C4_4  and  C5_5 
REMARK    4  A    between atoms: C5_5  and  N1_6 
REMARK    5  A    between atoms: N1_6  and  C6_8 
REMARK    6  A    between atoms: C6_8  and  N2_10 
REMARK    7  A    between atoms: N2_10  and  C8_12 
ROOT
HETATM    1  C8  UNL     1      -0.892  -8.004  21.955  1.00  0.00     0.086 C 
HETATM    2  N3  UNL     1      -0.291  -9.006  21.128  1.00  0.00    -0.369 N 
ATOM      3  H3  UNL     1       0.136  -8.888  20.209  1.00  0.00     0.161 HD
HETATM    4  C9  UNL     1      -0.431 -10.258  21.918  1.00  0.00     0.041 A 
HETATM    5  C10 UNL     1       0.736 -10.719  22.621  1.00  0.00     0.033 C 
HETATM    6  C11 UNL     1       0.672 -10.321  24.034  1.00  0.00     0.013 C 
HETATM    7  C12 UNL     1      -0.585 -10.611  24.840  1.00  0.00    -0.031 C 
HETATM    8  C13 UNL     1      -0.111 -11.877  25.568  1.00  0.00     0.016 C 
HETATM    9  C14 UNL     1      -0.662  -9.437  25.762  1.00  0.00     0.010 C 
HETATM   10  C15 UNL     1      -0.918  -8.147  25.070  1.00  0.00     0.007 C 
HETATM   11  C16 UNL     1      -1.989  -8.001  24.085  1.00  0.00     0.013 C 
HETATM   12  C17 UNL     1      -1.947  -8.706  22.791  1.00  0.00     0.065 C 
HETATM   13  C18 UNL     1      -1.597 -10.126  22.747  1.00  0.00     0.006 A 
HETATM   14  C19 UNL     1      -1.646 -10.970  21.552  1.00  0.00     0.045 A 
HETATM   15  C20 UNL     1      -1.734 -10.935  24.000  1.00  0.00    -0.025 C 
HETATM   16  C21 UNL     1      -1.743 -12.458  23.712  1.00  0.00     0.017 C 
HETATM   17  C22 UNL     1      -3.129 -10.741  24.467  1.00  0.00     0.018 C 
HETATM   18  C23 UNL     1      -3.384 -10.748  25.919  1.00  0.00     0.080 C 
HETATM   19  C24 UNL     1      -2.840  -9.678  26.734  1.00  0.00     0.135 C 
HETATM   20  O1  UNL     1      -3.550  -8.819  27.233  1.00  0.00    -0.297 OA
HETATM   21  C25 UNL     1      -1.402  -9.523  27.037  1.00  0.00     0.017 C 
HETATM   22  C26 UNL     1      -1.055 -10.582  28.030  1.00  0.00     0.023 C 
HETATM   23  C27 UNL     1      -1.149  -8.210  27.810  1.00  0.00     0.023 C 
ENDROOT
BRANCH   1  24
HETATM   24  N2  UNL     1      -1.129  -6.743  21.424  1.00  0.00    -0.318 N 
HETATM   25  C7  UNL     1      -0.916  -5.563  22.360  1.00  0.00     0.160 C 
BRANCH  24  26
HETATM   26  C6  UNL     1      -1.561  -6.341  20.180  1.00  0.00     0.178 C 
HETATM   27  S1  UNL     1      -0.743  -4.921  19.637  1.00  0.00    -0.040 SA
BRANCH  26  28
HETATM   28  N1  UNL     1      -2.490  -6.787  19.249  1.00  0.00    -0.346 N 
ATOM     29  H1  UNL     1      -2.248  -6.535  18.291  1.00  0.00     0.167 HD
BRANCH  28  30
HETATM   30  C5  UNL     1      -3.693  -7.513  19.341  1.00  0.00     0.063 C 
BRANCH  30  31
HETATM   31  C4  UNL     1      -3.449  -8.982  18.992  1.00  0.00     0.044 C 
BRANCH  31  32
HETATM   32  C3  UNL     1      -2.509  -9.008  17.804  1.00  0.00     0.005 C 
BRANCH  32  33
HETATM   33  C2  UNL     1      -1.647 -10.256  17.964  1.00  0.00    -0.004 C 
HETATM   34  C1  UNL     1      -0.213  -9.788  17.996  1.00  0.00     0.005 C 
ENDBRANCH  32  33
ENDBRANCH  31  32
ENDBRANCH  30  31
ENDBRANCH  28  30
ENDBRANCH  26  28
ENDBRANCH  24  26
ENDBRANCH   1  24
TORSDOF 7
ENDMDL
