MODEL 1
REMARK VINA RESULT: -8.649145081      0.000      0.000
REMARK  5 active torsions:
REMARK  status: ('A' for Active; 'I' for Inactive)
REMARK       I    between atoms: C2_2  and  N1_4 
REMARK    1  A    between atoms: N1_4  and  C3_6 
REMARK    2  A    between atoms: C17_20  and  C18_21 
REMARK    3  A    between atoms: C18_21  and  C20_23 
REMARK       I    between atoms: C20_23  and  N2_25 
REMARK    4  A    between atoms: N2_25  and  C21_27 
REMARK    5  A    between atoms: C21_27  and  C23_29 
ROOT
HETATM    1  C3  UNL     1       1.653  -1.592  22.505  1.00  0.00     0.088 C 
HETATM    2  C4  UNL     1       1.845  -2.565  21.386  1.00  0.00     0.026 C 
HETATM    3  C5  UNL     1       0.907  -3.715  21.354  1.00  0.00     0.016 C 
HETATM    4  C6  UNL     1       0.102  -3.926  22.599  1.00  0.00    -0.017 C 
HETATM    5  C7  UNL     1      -1.037  -2.911  22.597  1.00  0.00     0.020 C 
HETATM    6  C8  UNL     1       0.956  -3.638  23.762  1.00  0.00    -0.073 C 
HETATM    7  C9  UNL     1       1.152  -4.487  24.762  1.00  0.00    -0.023 C 
HETATM    8  C10 UNL     1       0.509  -5.837  24.796  1.00  0.00     0.033 C 
HETATM    9  C11 UNL     1       0.342  -6.278  23.358  1.00  0.00    -0.001 C 
HETATM   10  C12 UNL     1      -0.534  -5.296  22.650  1.00  0.00     0.003 C 
HETATM   11  C13 UNL     1      -0.709  -5.880  21.263  1.00  0.00     0.007 C 
HETATM   12  C14 UNL     1      -1.654  -7.070  21.425  1.00  0.00     0.010 C 
HETATM   13  C15 UNL     1      -1.256  -8.062  22.439  1.00  0.00    -0.032 C 
HETATM   14  C16 UNL     1      -2.260  -8.015  23.615  1.00  0.00     0.016 C 
HETATM   15  C17 UNL     1      -0.937  -9.431  22.022  1.00  0.00     0.028 C 
HETATM   16  C26 UNL     1       0.428  -9.237  21.349  1.00  0.00     0.010 C 
HETATM   17  C27 UNL     1       1.153  -8.446  22.408  1.00  0.00     0.006 C 
HETATM   18  C28 UNL     1       0.066  -7.696  23.147  1.00  0.00    -0.001 C 
HETATM   19  C29 UNL     1       1.626  -2.316  23.809  1.00  0.00     0.059 C 
ENDROOT
BRANCH  15  20
HETATM   20  C18 UNL     1      -1.749 -10.337  21.255  1.00  0.00    -0.011 C 
HETATM   21  C19 UNL     1      -1.669 -11.822  21.543  1.00  0.00     0.050 C 
BRANCH  20  22
HETATM   22  C20 UNL     1      -1.875 -10.210  19.802  1.00  0.00     0.244 C 
HETATM   23  O2  UNL     1      -1.223 -10.924  19.026  1.00  0.00    -0.268 OA
HETATM   24  N2  UNL     1      -2.758  -9.259  19.152  1.00  0.00    -0.353 N 
ATOM     25  H2  UNL     1      -3.326  -8.638  19.729  1.00  0.00     0.163 HD
BRANCH  24  26
HETATM   26  C21 UNL     1      -2.859  -9.162  17.729  1.00  0.00     0.084 C 
HETATM   27  C22 UNL     1      -3.565 -10.412  17.188  1.00  0.00     0.032 C 
BRANCH  26  28
HETATM   28  C23 UNL     1      -3.635  -7.978  17.246  1.00  0.00    -0.000 C 
HETATM   29  C24 UNL     1      -4.794  -8.322  16.341  1.00  0.00     0.011 C 
HETATM   30  C25 UNL     1      -4.235  -7.201  18.427  1.00  0.00     0.011 C 
ENDBRANCH  26  28
ENDBRANCH  24  26
ENDBRANCH  20  22
ENDBRANCH  15  20
BRANCH   1  31
HETATM   31  N1  UNL     1       2.800  -0.672  22.426  1.00  0.00    -0.356 N 
HETATM   32  C2  UNL     1       2.774   0.546  21.734  1.00  0.00     0.213 C 
HETATM   33  C1  UNL     1       3.971   1.427  21.696  1.00  0.00     0.117 C 
HETATM   34  O1  UNL     1       1.733   0.931  21.122  1.00  0.00    -0.274 OA
ATOM     35  H1  UNL     1       3.662  -0.937  22.902  1.00  0.00     0.162 HD
ENDBRANCH   1  31
TORSDOF 5
ENDMDL
MODEL 2
REMARK VINA RESULT: -8.493811004      4.869      7.948
REMARK  5 active torsions:
REMARK  status: ('A' for Active; 'I' for Inactive)
REMARK       I    between atoms: C2_2  and  N1_4 
REMARK    1  A    between atoms: N1_4  and  C3_6 
REMARK    2  A    between atoms: C17_20  and  C18_21 
REMARK    3  A    between atoms: C18_21  and  C20_23 
REMARK       I    between atoms: C20_23  and  N2_25 
REMARK    4  A    between atoms: N2_25  and  C21_27 
REMARK    5  A    between atoms: C21_27  and  C23_29 
ROOT
HETATM    1  C3  UNL     1      -3.558  -7.684  17.639  1.00  0.00     0.088 C 
HETATM    2  C4  UNL     1      -4.123  -7.980  18.992  1.00  0.00     0.026 C 
HETATM    3  C5  UNL     1      -3.135  -8.186  20.080  1.00  0.00     0.016 C 
HETATM    4  C6  UNL     1      -1.718  -8.381  19.636  1.00  0.00    -0.017 C 
HETATM    5  C7  UNL     1      -1.145  -7.012  19.285  1.00  0.00     0.020 C 
HETATM    6  C8  UNL     1      -1.720  -9.194  18.410  1.00  0.00    -0.073 C 
HETATM    7  C9  UNL     1      -1.026 -10.314  18.266  1.00  0.00    -0.023 C 
HETATM    8  C10 UNL     1      -0.163 -10.861  19.359  1.00  0.00     0.033 C 
HETATM    9  C11 UNL     1      -0.798 -10.445  20.668  1.00  0.00    -0.001 C 
HETATM   10  C12 UNL     1      -0.844  -8.952  20.729  1.00  0.00     0.003 C 
HETATM   11  C13 UNL     1      -1.405  -8.650  22.104  1.00  0.00     0.007 C 
HETATM   12  C14 UNL     1      -0.281  -8.962  23.093  1.00  0.00     0.010 C 
HETATM   13  C15 UNL     1       0.309 -10.306  22.977  1.00  0.00    -0.032 C 
HETATM   14  C16 UNL     1       1.763 -10.178  22.463  1.00  0.00     0.016 C 
HETATM   15  C17 UNL     1       0.186 -11.246  24.095  1.00  0.00     0.028 C 
HETATM   16  C26 UNL     1      -1.294 -11.642  24.002  1.00  0.00     0.010 C 
HETATM   17  C27 UNL     1      -1.398 -11.992  22.540  1.00  0.00     0.006 C 
HETATM   18  C28 UNL     1      -0.340 -11.151  21.861  1.00  0.00    -0.001 C 
HETATM   19  C29 UNL     1      -2.546  -8.718  17.274  1.00  0.00     0.059 C 
ENDROOT
BRANCH  15  20
HETATM   20  C18 UNL     1       0.565 -11.047  25.468  1.00  0.00    -0.011 C 
HETATM   21  C19 UNL     1       1.620 -11.946  26.079  1.00  0.00     0.050 C 
BRANCH  20  22
HETATM   22  C20 UNL     1      -0.434 -10.823  26.514  1.00  0.00     0.244 C 
HETATM   23  O2  UNL     1      -0.754 -11.716  27.312  1.00  0.00    -0.268 OA
HETATM   24  N2  UNL     1      -1.124  -9.561  26.710  1.00  0.00    -0.353 N 
ATOM     25  H2  UNL     1      -0.910  -8.780  26.089  1.00  0.00     0.163 HD
BRANCH  24  26
HETATM   26  C21 UNL     1      -2.094  -9.375  27.743  1.00  0.00     0.084 C 
HETATM   27  C22 UNL     1      -1.624  -8.253  28.679  1.00  0.00     0.032 C 
BRANCH  26  28
HETATM   28  C23 UNL     1      -3.453  -8.991  27.250  1.00  0.00    -0.000 C 
HETATM   29  C24 UNL     1      -3.703  -9.319  25.797  1.00  0.00     0.011 C 
HETATM   30  C25 UNL     1      -4.547  -9.720  28.044  1.00  0.00     0.011 C 
ENDBRANCH  26  28
ENDBRANCH  24  26
ENDBRANCH  20  22
ENDBRANCH  15  20
BRANCH   1  31
HETATM   31  N1  UNL     1      -4.708  -7.712  16.719  1.00  0.00    -0.356 N 
HETATM   32  C2  UNL     1      -4.994  -6.694  15.801  1.00  0.00     0.213 C 
HETATM   33  C1  UNL     1      -6.174  -6.787  14.901  1.00  0.00     0.117 C 
HETATM   34  O1  UNL     1      -4.258  -5.666  15.710  1.00  0.00    -0.274 OA
ATOM     35  H1  UNL     1      -5.331  -8.518  16.753  1.00  0.00     0.162 HD
ENDBRANCH   1  31
TORSDOF 5
ENDMDL
MODEL 3
REMARK VINA RESULT: -8.373069876      4.705      8.568
REMARK  5 active torsions:
REMARK  status: ('A' for Active; 'I' for Inactive)
REMARK       I    between atoms: C2_2  and  N1_4 
REMARK    1  A    between atoms: N1_4  and  C3_6 
REMARK    2  A    between atoms: C17_20  and  C18_21 
REMARK    3  A    between atoms: C18_21  and  C20_23 
REMARK       I    between atoms: C20_23  and  N2_25 
REMARK    4  A    between atoms: N2_25  and  C21_27 
REMARK    5  A    between atoms: C21_27  and  C23_29 
ROOT
HETATM    1  C3  UNL     1      -3.203  -8.089  17.560  1.00  0.00     0.088 C 
HETATM    2  C4  UNL     1      -3.988  -7.686  18.768  1.00  0.00     0.026 C 
HETATM    3  C5  UNL     1      -3.228  -7.602  20.040  1.00  0.00     0.016 C 
HETATM    4  C6  UNL     1      -1.866  -8.224  20.020  1.00  0.00    -0.017 C 
HETATM    5  C7  UNL     1      -0.920  -7.257  19.315  1.00  0.00     0.020 C 
HETATM    6  C8  UNL     1      -1.926  -9.457  19.219  1.00  0.00    -0.073 C 
HETATM    7  C9  UNL     1      -1.532 -10.643  19.659  1.00  0.00    -0.023 C 
HETATM    8  C10 UNL     1      -0.981 -10.837  21.036  1.00  0.00     0.033 C 
HETATM    9  C11 UNL     1      -1.644  -9.806  21.923  1.00  0.00    -0.001 C 
HETATM   10  C12 UNL     1      -1.310  -8.442  21.409  1.00  0.00     0.003 C 
HETATM   11  C13 UNL     1      -1.940  -7.498  22.414  1.00  0.00     0.007 C 
HETATM   12  C14 UNL     1      -1.065  -7.576  23.666  1.00  0.00     0.010 C 
HETATM   13  C15 UNL     1      -0.831  -8.931  24.192  1.00  0.00    -0.032 C 
HETATM   14  C16 UNL     1       0.658  -9.300  23.997  1.00  0.00     0.016 C 
HETATM   15  C17 UNL     1      -1.330  -9.282  25.526  1.00  0.00     0.028 C 
HETATM   16  C26 UNL     1      -2.838  -9.397  25.270  1.00  0.00     0.010 C 
HETATM   17  C27 UNL     1      -2.848 -10.296  24.059  1.00  0.00     0.006 C 
HETATM   18  C28 UNL     1      -1.534 -10.025  23.362  1.00  0.00    -0.001 C 
HETATM   19  C29 UNL     1      -2.455  -9.350  17.838  1.00  0.00     0.059 C 
ENDROOT
BRANCH  15  20
HETATM   20  C18 UNL     1      -1.084  -8.606  26.772  1.00  0.00    -0.011 C 
HETATM   21  C19 UNL     1       0.332  -8.203  27.125  1.00  0.00     0.050 C 
BRANCH  20  22
HETATM   22  C20 UNL     1      -1.704  -9.051  28.020  1.00  0.00     0.244 C 
HETATM   23  O2  UNL     1      -1.395 -10.126  28.554  1.00  0.00    -0.268 OA
HETATM   24  N2  UNL     1      -2.714  -8.290  28.734  1.00  0.00    -0.353 N 
ATOM     25  H2  UNL     1      -3.017  -7.394  28.352  1.00  0.00     0.163 HD
BRANCH  24  26
HETATM   26  C21 UNL     1      -3.298  -8.754  29.953  1.00  0.00     0.084 C 
HETATM   27  C22 UNL     1      -3.041  -7.722  31.059  1.00  0.00     0.032 C 
BRANCH  26  28
HETATM   28  C23 UNL     1      -4.778  -8.963  29.886  1.00  0.00    -0.000 C 
HETATM   29  C24 UNL     1      -5.566  -7.722  29.540  1.00  0.00     0.011 C 
HETATM   30  C25 UNL     1      -5.134 -10.004  28.815  1.00  0.00     0.011 C 
ENDBRANCH  26  28
ENDBRANCH  24  26
ENDBRANCH  20  22
ENDBRANCH  15  20
BRANCH   1  31
HETATM   31  N1  UNL     1      -4.199  -8.281  16.492  1.00  0.00    -0.356 N 
HETATM   32  C2  UNL     1      -4.792  -7.228  15.783  1.00  0.00     0.213 C 
HETATM   33  C1  UNL     1      -5.792  -7.495  14.716  1.00  0.00     0.117 C 
HETATM   34  O1  UNL     1      -4.496  -6.021  16.031  1.00  0.00    -0.274 OA
ATOM     35  H1  UNL     1      -4.471  -9.234  16.255  1.00  0.00     0.162 HD
ENDBRANCH   1  31
TORSDOF 5
ENDMDL
MODEL 4
REMARK VINA RESULT: -8.301474925      4.004      8.273
REMARK  5 active torsions:
REMARK  status: ('A' for Active; 'I' for Inactive)
REMARK       I    between atoms: C2_2  and  N1_4 
REMARK    1  A    between atoms: N1_4  and  C3_6 
REMARK    2  A    between atoms: C17_20  and  C18_21 
REMARK    3  A    between atoms: C18_21  and  C20_23 
REMARK       I    between atoms: C20_23  and  N2_25 
REMARK    4  A    between atoms: N2_25  and  C21_27 
REMARK    5  A    between atoms: C21_27  and  C23_29 
ROOT
HETATM    1  C3  UNL     1      -3.215  -7.884  17.445  1.00  0.00     0.088 C 
HETATM    2  C4  UNL     1      -4.006  -7.961  18.712  1.00  0.00     0.026 C 
HETATM    3  C5  UNL     1      -3.228  -7.874  19.973  1.00  0.00     0.016 C 
HETATM    4  C6  UNL     1      -1.747  -8.034  19.829  1.00  0.00    -0.017 C 
HETATM    5  C7  UNL     1      -1.181  -6.715  19.313  1.00  0.00     0.020 C 
HETATM    6  C8  UNL     1      -1.484  -9.064  18.811  1.00  0.00    -0.073 C 
HETATM    7  C9  UNL     1      -0.725 -10.131  19.019  1.00  0.00    -0.023 C 
HETATM    8  C10 UNL     1      -0.055 -10.386  20.333  1.00  0.00     0.033 C 
HETATM    9  C11 UNL     1      -0.941  -9.782  21.400  1.00  0.00    -0.001 C 
HETATM   10  C12 UNL     1      -1.065  -8.313  21.150  1.00  0.00     0.003 C 
HETATM   11  C13 UNL     1      -1.885  -7.801  22.317  1.00  0.00     0.007 C 
HETATM   12  C14 UNL     1      -0.950  -7.826  23.527  1.00  0.00     0.010 C 
HETATM   13  C15 UNL     1      -0.288  -9.115  23.789  1.00  0.00    -0.032 C 
HETATM   14  C16 UNL     1       1.228  -8.969  23.519  1.00  0.00     0.016 C 
HETATM   15  C17 UNL     1      -0.573  -9.832  25.036  1.00  0.00     0.028 C 
HETATM   16  C26 UNL     1      -1.990 -10.357  24.771  1.00  0.00     0.010 C 
HETATM   17  C27 UNL     1      -1.805 -10.987  23.414  1.00  0.00     0.006 C 
HETATM   18  C28 UNL     1      -0.680 -10.207  22.772  1.00  0.00    -0.001 C 
HETATM   19  C29 UNL     1      -2.106  -8.882  17.478  1.00  0.00     0.059 C 
ENDROOT
BRANCH  15  20
HETATM   20  C18 UNL     1      -0.464  -9.344  26.385  1.00  0.00    -0.011 C 
HETATM   21  C19 UNL     1      -1.724  -8.955  27.131  1.00  0.00     0.050 C 
BRANCH  20  22
HETATM   22  C20 UNL     1       0.554  -8.364  26.766  1.00  0.00     0.244 C 
HETATM   23  O2  UNL     1       1.700  -8.707  27.090  1.00  0.00    -0.268 OA
HETATM   24  N2  UNL     1       0.321  -6.932  26.795  1.00  0.00    -0.353 N 
ATOM     25  H2  UNL     1      -0.601  -6.577  26.539  1.00  0.00     0.163 HD
BRANCH  24  26
HETATM   26  C21 UNL     1       1.338  -6.001  27.170  1.00  0.00     0.084 C 
HETATM   27  C22 UNL     1       1.678  -5.113  25.965  1.00  0.00     0.032 C 
BRANCH  26  28
HETATM   28  C23 UNL     1       0.955  -5.088  28.291  1.00  0.00    -0.000 C 
HETATM   29  C24 UNL     1       0.408  -3.753  27.846  1.00  0.00     0.011 C 
HETATM   30  C25 UNL     1      -0.137  -5.725  29.164  1.00  0.00     0.011 C 
ENDBRANCH  26  28
ENDBRANCH  24  26
ENDBRANCH  20  22
ENDBRANCH  15  20
BRANCH   1  31
HETATM   31  N1  UNL     1      -4.171  -8.180  16.366  1.00  0.00    -0.356 N 
HETATM   32  C2  UNL     1      -4.845  -7.196  15.632  1.00  0.00     0.213 C 
HETATM   33  C1  UNL     1      -5.799  -7.567  14.554  1.00  0.00     0.117 C 
HETATM   34  O1  UNL     1      -4.662  -5.963  15.864  1.00  0.00    -0.274 OA
ATOM     35  H1  UNL     1      -4.354  -9.158  16.141  1.00  0.00     0.162 HD
ENDBRANCH   1  31
TORSDOF 5
ENDMDL
MODEL 5
REMARK VINA RESULT: -8.172474731      3.960      8.071
REMARK  5 active torsions:
REMARK  status: ('A' for Active; 'I' for Inactive)
REMARK       I    between atoms: C2_2  and  N1_4 
REMARK    1  A    between atoms: N1_4  and  C3_6 
REMARK    2  A    between atoms: C17_20  and  C18_21 
REMARK    3  A    between atoms: C18_21  and  C20_23 
REMARK       I    between atoms: C20_23  and  N2_25 
REMARK    4  A    between atoms: N2_25  and  C21_27 
REMARK    5  A    between atoms: C21_27  and  C23_29 
ROOT
HETATM    1  C3  UNL     1      -3.225  -7.955  17.458  1.00  0.00     0.088 C 
HETATM    2  C4  UNL     1      -4.005  -8.179  18.714  1.00  0.00     0.026 C 
HETATM    3  C5  UNL     1      -3.216  -8.232  19.971  1.00  0.00     0.016 C 
HETATM    4  C6  UNL     1      -1.735  -8.367  19.797  1.00  0.00    -0.017 C 
HETATM    5  C7  UNL     1      -1.180  -6.994  19.428  1.00  0.00     0.020 C 
HETATM    6  C8  UNL     1      -1.477  -9.273  18.667  1.00  0.00    -0.073 C 
HETATM    7  C9  UNL     1      -0.711 -10.353  18.746  1.00  0.00    -0.023 C 
HETATM    8  C10 UNL     1      -0.029 -10.751  20.017  1.00  0.00     0.033 C 
HETATM    9  C11 UNL     1      -0.907 -10.276  21.153  1.00  0.00    -0.001 C 
HETATM   10  C12 UNL     1      -1.040  -8.789  21.072  1.00  0.00     0.003 C 
HETATM   11  C13 UNL     1      -1.851  -8.417  22.296  1.00  0.00     0.007 C 
HETATM   12  C14 UNL     1      -0.906  -8.574  23.488  1.00  0.00     0.010 C 
HETATM   13  C15 UNL     1      -0.236  -9.881  23.597  1.00  0.00    -0.032 C 
HETATM   14  C16 UNL     1       1.277  -9.697  23.332  1.00  0.00     0.016 C 
HETATM   15  C17 UNL     1      -0.506 -10.735  24.757  1.00  0.00     0.028 C 
HETATM   16  C26 UNL     1      -1.924 -11.235  24.446  1.00  0.00     0.010 C 
HETATM   17  C27 UNL     1      -1.749 -11.706  23.025  1.00  0.00     0.006 C 
HETATM   18  C28 UNL     1      -0.632 -10.853  22.466  1.00  0.00    -0.001 C 
HETATM   19  C29 UNL     1      -2.112  -8.945  17.368  1.00  0.00     0.059 C 
ENDROOT
BRANCH  15  20
HETATM   20  C18 UNL     1      -0.388 -10.403  26.151  1.00  0.00    -0.011 C 
HETATM   21  C19 UNL     1      -1.169 -11.207  27.169  1.00  0.00     0.050 C 
BRANCH  20  22
HETATM   22  C20 UNL     1      -0.425  -9.015  26.614  1.00  0.00     0.244 C 
HETATM   23  O2  UNL     1      -1.472  -8.491  27.020  1.00  0.00    -0.268 OA
HETATM   24  N2  UNL     1       0.737  -8.145  26.641  1.00  0.00    -0.353 N 
ATOM     25  H2  UNL     1       1.634  -8.510  26.321  1.00  0.00     0.163 HD
BRANCH  24  26
HETATM   26  C21 UNL     1       0.666  -6.793  27.101  1.00  0.00     0.084 C 
HETATM   27  C22 UNL     1       1.304  -6.701  28.494  1.00  0.00     0.032 C 
BRANCH  26  28
HETATM   28  C23 UNL     1       1.378  -5.808  26.229  1.00  0.00    -0.000 C 
HETATM   29  C24 UNL     1       0.963  -5.850  24.778  1.00  0.00     0.011 C 
HETATM   30  C25 UNL     1       1.116  -4.371  26.704  1.00  0.00     0.011 C 
ENDBRANCH  26  28
ENDBRANCH  24  26
ENDBRANCH  20  22
ENDBRANCH  15  20
BRANCH   1  31
HETATM   31  N1  UNL     1      -4.190  -8.132  16.360  1.00  0.00    -0.356 N 
HETATM   32  C2  UNL     1      -4.819  -7.070  15.698  1.00  0.00     0.213 C 
HETATM   33  C1  UNL     1      -5.785  -7.323  14.596  1.00  0.00     0.117 C 
HETATM   34  O1  UNL     1      -4.583  -5.866  16.017  1.00  0.00    -0.274 OA
ATOM     35  H1  UNL     1      -4.414  -9.083  16.066  1.00  0.00     0.162 HD
ENDBRANCH   1  31
TORSDOF 5
ENDMDL
