MODEL 1
REMARK VINA RESULT: -6.558558175      0.000      0.000
REMARK  15 active torsions:
REMARK  status: ('A' for Active; 'I' for Inactive)
REMARK    1  A    between atoms: C2_2  and  C3_3 
REMARK    2  A    between atoms: C3_3  and  C4_4 
REMARK    3  A    between atoms: C4_4  and  C5_5 
REMARK    4  A    between atoms: C9_10  and  O2_11 
REMARK    5  A    between atoms: O2_11  and  C10_12 
REMARK    6  A    between atoms: C12_15  and  O4_16 
REMARK    7  A    between atoms: O4_16  and  C13_17 
REMARK    8  A    between atoms: C16_21  and  O6_22 
REMARK    9  A    between atoms: C17_24  and  C18_25 
REMARK   10  A    between atoms: C18_25  and  C20_27 
REMARK   11  A    between atoms: C18_25  and  C23_32 
REMARK   12  A    between atoms: C20_27  and  O7_28 
REMARK   13  A    between atoms: O7_28  and  C21_29 
REMARK   14  A    between atoms: C23_32  and  C24_33 
REMARK   15  A    between atoms: C24_33  and  O9_34 
ROOT
HETATM    1  C5  UNL     1     -12.177 -34.564  21.221  1.00  0.00     0.074 C 
HETATM    2  C6  UNL     1     -13.444 -34.391  20.420  1.00  0.00     0.047 C 
HETATM    3  O1  UNL     1     -11.953 -35.976  20.994  1.00  0.00    -0.371 OA
HETATM    4  C7  UNL     1     -10.657 -36.083  21.421  1.00  0.00     0.160 C 
HETATM    5  C8  UNL     1     -10.112 -37.471  21.066  1.00  0.00     0.070 C 
HETATM    6  C9  UNL     1      -8.598 -37.353  21.282  1.00  0.00     0.164 C 
HETATM    7  C12 UNL     1      -8.124 -36.428  20.217  1.00  0.00     0.164 C 
HETATM    8  C15 UNL     1      -8.627 -35.008  20.576  1.00  0.00     0.076 C 
HETATM    9  C16 UNL     1     -10.060 -35.014  20.482  1.00  0.00     0.093 C 
HETATM   10  C17 UNL     1     -10.963 -33.887  20.685  1.00  0.00     0.068 C 
ENDROOT
BRANCH  10  11
HETATM   11  C18 UNL     1     -10.547 -32.586  21.212  1.00  0.00    -0.010 C 
HETATM   12  C19 UNL     1      -9.542 -31.915  20.228  1.00  0.00     0.018 C 
BRANCH  11  13
HETATM   13  C20 UNL     1      -9.746 -32.558  22.494  1.00  0.00     0.188 C 
BRANCH  13  14
HETATM   14  O7  UNL     1      -8.792 -31.460  22.425  1.00  0.00    -0.321 OA
BRANCH  14  15
HETATM   15  C21 UNL     1      -8.231 -30.943  23.553  1.00  0.00     0.254 C 
HETATM   16  C22 UNL     1      -7.227 -31.747  24.304  1.00  0.00     0.126 C 
HETATM   17  O8  UNL     1      -8.533 -29.814  23.977  1.00  0.00    -0.266 OA
ENDBRANCH  14  15
ENDBRANCH  13  14
ENDBRANCH  11  13
BRANCH  11  18
HETATM   18  C23 UNL     1     -11.612 -31.548  21.350  1.00  0.00     0.050 C 
BRANCH  18  19
HETATM   19  C24 UNL     1     -11.879 -30.639  22.386  1.00  0.00     0.065 C 
HETATM   20  C25 UNL     1     -13.229 -29.861  22.276  1.00  0.00     0.065 C 
HETATM   21  C26 UNL     1     -12.924 -28.781  23.266  1.00  0.00    -0.028 C 
HETATM   22  C27 UNL     1     -12.117 -29.286  24.186  1.00  0.00    -0.028 C 
HETATM   23  C28 UNL     1     -11.853 -30.741  23.829  1.00  0.00     0.065 C 
BRANCH  19  24
HETATM   24  O9  UNL     1     -11.015 -29.500  22.117  1.00  0.00    -0.389 OA
ATOM     25  H9  UNL     1     -10.536 -29.358  22.925  1.00  0.00     0.210 HD
ENDBRANCH  19  24
ENDBRANCH  18  19
ENDBRANCH  11  18
ENDBRANCH  10  11
BRANCH   1  26
HETATM   26  C4  UNL     1     -12.460 -34.571  22.633  1.00  0.00     0.118 C 
BRANCH  26  27
HETATM   27  C3  UNL     1     -13.155 -35.558  23.108  1.00  0.00    -0.180 C 
BRANCH  27  28
HETATM   28  C2  UNL     1     -13.829 -36.506  23.746  1.00  0.00     0.075 C 
HETATM   29  C1  UNL     1     -14.905 -37.158  23.011  1.00  0.00     0.017 C 
ENDBRANCH  27  28
ENDBRANCH  26  27
ENDBRANCH   1  26
BRANCH   9  30
HETATM   30  O6  UNL     1     -10.343 -35.620  19.214  1.00  0.00    -0.387 OA
ATOM     31  H6  UNL     1      -9.484 -35.967  19.007  1.00  0.00     0.210 HD
ENDBRANCH   9  30
BRANCH   7  32
HETATM   32  O4  UNL     1      -6.748 -36.425  20.010  1.00  0.00    -0.314 OA
BRANCH  32  33
HETATM   33  C13 UNL     1      -6.172 -37.049  18.917  1.00  0.00     0.255 C 
HETATM   34  C14 UNL     1      -4.767 -36.811  18.511  1.00  0.00     0.126 C 
HETATM   35  O5  UNL     1      -6.926 -37.851  18.270  1.00  0.00    -0.266 OA
ENDBRANCH  32  33
ENDBRANCH   7  32
BRANCH   6  36
HETATM   36  O2  UNL     1      -7.964 -38.589  21.332  1.00  0.00    -0.314 OA
BRANCH  36  37
HETATM   37  C10 UNL     1      -7.159 -38.999  22.401  1.00  0.00     0.255 C 
HETATM   38  C11 UNL     1      -7.795 -39.613  23.602  1.00  0.00     0.126 C 
HETATM   39  O3  UNL     1      -5.930 -38.817  22.270  1.00  0.00    -0.266 OA
ENDBRANCH  36  37
ENDBRANCH   6  36
TORSDOF 15
ENDMDL
MODEL 2
REMARK VINA RESULT: -6.472692164      2.162      5.056
REMARK  15 active torsions:
REMARK  status: ('A' for Active; 'I' for Inactive)
REMARK    1  A    between atoms: C2_2  and  C3_3 
REMARK    2  A    between atoms: C3_3  and  C4_4 
REMARK    3  A    between atoms: C4_4  and  C5_5 
REMARK    4  A    between atoms: C9_10  and  O2_11 
REMARK    5  A    between atoms: O2_11  and  C10_12 
REMARK    6  A    between atoms: C12_15  and  O4_16 
REMARK    7  A    between atoms: O4_16  and  C13_17 
REMARK    8  A    between atoms: C16_21  and  O6_22 
REMARK    9  A    between atoms: C17_24  and  C18_25 
REMARK   10  A    between atoms: C18_25  and  C20_27 
REMARK   11  A    between atoms: C18_25  and  C23_32 
REMARK   12  A    between atoms: C20_27  and  O7_28 
REMARK   13  A    between atoms: O7_28  and  C21_29 
REMARK   14  A    between atoms: C23_32  and  C24_33 
REMARK   15  A    between atoms: C24_33  and  O9_34 
ROOT
HETATM    1  C5  UNL     1     -10.485 -30.593  22.605  1.00  0.00     0.074 C 
HETATM    2  C6  UNL     1     -10.427 -29.338  21.767  1.00  0.00     0.047 C 
HETATM    3  O1  UNL     1     -11.510 -31.308  21.874  1.00  0.00    -0.371 OA
HETATM    4  C7  UNL     1     -11.347 -32.561  22.401  1.00  0.00     0.160 C 
HETATM    5  C8  UNL     1     -12.191 -33.566  21.609  1.00  0.00     0.070 C 
HETATM    6  C9  UNL     1     -11.676 -34.938  22.063  1.00  0.00     0.164 C 
HETATM    7  C12 UNL     1     -10.293 -35.033  21.526  1.00  0.00     0.164 C 
HETATM    8  C15 UNL     1      -9.410 -34.055  22.340  1.00  0.00     0.076 C 
HETATM    9  C16 UNL     1      -9.852 -32.720  22.052  1.00  0.00     0.093 C 
HETATM   10  C17 UNL     1      -9.286 -31.474  22.553  1.00  0.00     0.068 C 
ENDROOT
BRANCH  10  11
HETATM   11  C18 UNL     1      -8.267 -31.399  23.602  1.00  0.00    -0.010 C 
HETATM   12  C19 UNL     1      -6.943 -30.826  23.011  1.00  0.00     0.018 C 
BRANCH  11  13
HETATM   13  C20 UNL     1      -7.768 -32.691  24.207  1.00  0.00     0.188 C 
BRANCH  13  14
HETATM   14  O7  UNL     1      -6.313 -32.696  24.162  1.00  0.00    -0.321 OA
BRANCH  14  15
HETATM   15  C21 UNL     1      -5.615 -33.864  24.096  1.00  0.00     0.254 C 
HETATM   16  C22 UNL     1      -4.132 -33.839  24.232  1.00  0.00     0.126 C 
HETATM   17  O8  UNL     1      -6.182 -34.957  23.926  1.00  0.00    -0.266 OA
ENDBRANCH  14  15
ENDBRANCH  13  14
ENDBRANCH  11  13
BRANCH  11  18
HETATM   18  C23 UNL     1      -8.545 -30.472  24.741  1.00  0.00     0.050 C 
BRANCH  18  19
HETATM   19  C24 UNL     1      -7.671 -29.788  25.600  1.00  0.00     0.065 C 
HETATM   20  C25 UNL     1      -8.272 -29.356  26.975  1.00  0.00     0.065 C 
HETATM   21  C26 UNL     1      -7.219 -28.361  27.355  1.00  0.00    -0.028 C 
HETATM   22  C27 UNL     1      -6.072 -28.761  26.831  1.00  0.00    -0.028 C 
HETATM   23  C28 UNL     1      -6.329 -30.053  26.072  1.00  0.00     0.065 C 
BRANCH  19  24
HETATM   24  O9  UNL     1      -7.568 -28.448  25.042  1.00  0.00    -0.389 OA
ATOM     25  H9  UNL     1      -7.585 -27.867  25.793  1.00  0.00     0.210 HD
ENDBRANCH  19  24
ENDBRANCH  18  19
ENDBRANCH  11  18
ENDBRANCH  10  11
BRANCH   1  26
HETATM   26  C4  UNL     1     -11.175 -30.349  23.845  1.00  0.00     0.118 C 
BRANCH  26  27
HETATM   27  C3  UNL     1     -12.004 -29.353  23.894  1.00  0.00    -0.180 C 
BRANCH  27  28
HETATM   28  C2  UNL     1     -12.957 -28.438  24.023  1.00  0.00     0.075 C 
HETATM   29  C1  UNL     1     -13.949 -28.366  22.959  1.00  0.00     0.017 C 
ENDBRANCH  27  28
ENDBRANCH  26  27
ENDBRANCH   1  26
BRANCH   9  30
HETATM   30  O6  UNL     1      -9.931 -32.658  20.622  1.00  0.00    -0.387 OA
ATOM     31  H6  UNL     1      -9.184 -33.201  20.397  1.00  0.00     0.210 HD
ENDBRANCH   9  30
BRANCH   7  32
HETATM   32  O4  UNL     1      -9.745 -36.312  21.531  1.00  0.00    -0.314 OA
BRANCH  32  33
HETATM   33  C13 UNL     1      -9.539 -37.023  20.362  1.00  0.00     0.255 C 
HETATM   34  C14 UNL     1      -9.135 -36.372  19.092  1.00  0.00     0.126 C 
HETATM   35  O5  UNL     1      -9.718 -38.285  20.436  1.00  0.00    -0.266 OA
ENDBRANCH  32  33
ENDBRANCH   7  32
BRANCH   6  36
HETATM   36  O2  UNL     1     -12.531 -35.976  21.712  1.00  0.00    -0.314 OA
BRANCH  36  37
HETATM   37  C10 UNL     1     -12.933 -36.979  22.601  1.00  0.00     0.255 C 
HETATM   38  C11 UNL     1     -13.924 -36.658  23.668  1.00  0.00     0.126 C 
HETATM   39  O3  UNL     1     -12.417 -38.106  22.435  1.00  0.00    -0.266 OA
ENDBRANCH  36  37
ENDBRANCH   6  36
TORSDOF 15
ENDMDL
MODEL 3
REMARK VINA RESULT: -6.177132441      4.877      9.140
REMARK  15 active torsions:
REMARK  status: ('A' for Active; 'I' for Inactive)
REMARK    1  A    between atoms: C2_2  and  C3_3 
REMARK    2  A    between atoms: C3_3  and  C4_4 
REMARK    3  A    between atoms: C4_4  and  C5_5 
REMARK    4  A    between atoms: C9_10  and  O2_11 
REMARK    5  A    between atoms: O2_11  and  C10_12 
REMARK    6  A    between atoms: C12_15  and  O4_16 
REMARK    7  A    between atoms: O4_16  and  C13_17 
REMARK    8  A    between atoms: C16_21  and  O6_22 
REMARK    9  A    between atoms: C17_24  and  C18_25 
REMARK   10  A    between atoms: C18_25  and  C20_27 
REMARK   11  A    between atoms: C18_25  and  C23_32 
REMARK   12  A    between atoms: C20_27  and  O7_28 
REMARK   13  A    between atoms: O7_28  and  C21_29 
REMARK   14  A    between atoms: C23_32  and  C24_33 
REMARK   15  A    between atoms: C24_33  and  O9_34 
ROOT
HETATM    1  C5  UNL     1      -1.947 -35.368  21.432  1.00  0.00     0.074 C 
HETATM    2  C6  UNL     1      -0.581 -36.008  21.473  1.00  0.00     0.047 C 
HETATM    3  O1  UNL     1      -2.621 -36.319  20.574  1.00  0.00    -0.371 OA
HETATM    4  C7  UNL     1      -3.922 -35.953  20.790  1.00  0.00     0.160 C 
HETATM    5  C8  UNL     1      -4.858 -36.981  20.144  1.00  0.00     0.070 C 
HETATM    6  C9  UNL     1      -6.240 -36.657  20.726  1.00  0.00     0.164 C 
HETATM    7  C12 UNL     1      -6.149 -37.014  22.167  1.00  0.00     0.164 C 
HETATM    8  C15 UNL     1      -5.240 -35.964  22.851  1.00  0.00     0.076 C 
HETATM    9  C16 UNL     1      -3.914 -36.120  22.323  1.00  0.00     0.093 C 
HETATM   10  C17 UNL     1      -2.718 -35.381  22.707  1.00  0.00     0.068 C 
ENDROOT
BRANCH  10  11
HETATM   11  C18 UNL     1      -2.723 -34.207  23.581  1.00  0.00    -0.010 C 
HETATM   12  C19 UNL     1      -2.921 -34.653  25.062  1.00  0.00     0.018 C 
BRANCH  11  13
HETATM   13  C20 UNL     1      -3.852 -33.213  23.434  1.00  0.00     0.188 C 
BRANCH  13  14
HETATM   14  O7  UNL     1      -4.213 -32.717  24.754  1.00  0.00    -0.321 OA
BRANCH  14  15
HETATM   15  C21 UNL     1      -5.020 -31.630  24.901  1.00  0.00     0.254 C 
HETATM   16  C22 UNL     1      -4.619 -30.542  25.836  1.00  0.00     0.126 C 
HETATM   17  O8  UNL     1      -6.088 -31.518  24.275  1.00  0.00    -0.266 OA
ENDBRANCH  14  15
ENDBRANCH  13  14
ENDBRANCH  11  13
BRANCH  11  18
HETATM   18  C23 UNL     1      -1.458 -33.414  23.645  1.00  0.00     0.050 C 
BRANCH  18  19
HETATM   19  C24 UNL     1      -0.240 -33.683  24.287  1.00  0.00     0.065 C 
HETATM   20  C25 UNL     1       0.178 -32.672  25.402  1.00  0.00     0.065 C 
HETATM   21  C26 UNL     1       1.620 -33.061  25.502  1.00  0.00    -0.028 C 
HETATM   22  C27 UNL     1       1.716 -34.349  25.215  1.00  0.00    -0.028 C 
HETATM   23  C28 UNL     1       0.319 -34.865  24.907  1.00  0.00     0.065 C 
BRANCH  19  24
HETATM   24  O9  UNL     1       0.783 -33.295  23.328  1.00  0.00    -0.389 OA
ATOM     25  H9  UNL     1       1.392 -32.758  23.822  1.00  0.00     0.210 HD
ENDBRANCH  19  24
ENDBRANCH  18  19
ENDBRANCH  11  18
ENDBRANCH  10  11
BRANCH   1  26
HETATM   26  C4  UNL     1      -1.943 -34.207  20.580  1.00  0.00     0.118 C 
BRANCH  26  27
HETATM   27  C3  UNL     1      -0.801 -33.655  20.310  1.00  0.00    -0.180 C 
BRANCH  27  28
HETATM   28  C2  UNL     1       0.279 -32.956  19.985  1.00  0.00     0.075 C 
HETATM   29  C1  UNL     1       1.480 -33.713  19.656  1.00  0.00     0.017 C 
ENDBRANCH  27  28
ENDBRANCH  26  27
ENDBRANCH   1  26
BRANCH   9  30
HETATM   30  O6  UNL     1      -3.646 -37.526  22.411  1.00  0.00    -0.387 OA
ATOM     31  H6  UNL     1      -4.442 -37.814  22.844  1.00  0.00     0.210 HD
ENDBRANCH   9  30
BRANCH   7  32
HETATM   32  O4  UNL     1      -7.370 -37.114  22.827  1.00  0.00    -0.314 OA
BRANCH  32  33
HETATM   33  C13 UNL     1      -8.024 -38.325  22.976  1.00  0.00     0.255 C 
HETATM   34  C14 UNL     1      -9.416 -38.542  22.515  1.00  0.00     0.126 C 
HETATM   35  O5  UNL     1      -7.355 -39.256  23.537  1.00  0.00    -0.266 OA
ENDBRANCH  32  33
ENDBRANCH   7  32
BRANCH   6  36
HETATM   36  O2  UNL     1      -7.276 -37.258  20.020  1.00  0.00    -0.314 OA
BRANCH  36  37
HETATM   37  C10 UNL     1      -8.325 -36.543  19.432  1.00  0.00     0.255 C 
HETATM   38  C11 UNL     1      -8.942 -35.406  20.174  1.00  0.00     0.126 C 
HETATM   39  O3  UNL     1      -8.682 -36.919  18.294  1.00  0.00    -0.266 OA
ENDBRANCH  36  37
ENDBRANCH   6  36
TORSDOF 15
ENDMDL
MODEL 4
REMARK VINA RESULT: -6.075732478      9.192     12.914
REMARK  15 active torsions:
REMARK  status: ('A' for Active; 'I' for Inactive)
REMARK    1  A    between atoms: C2_2  and  C3_3 
REMARK    2  A    between atoms: C3_3  and  C4_4 
REMARK    3  A    between atoms: C4_4  and  C5_5 
REMARK    4  A    between atoms: C9_10  and  O2_11 
REMARK    5  A    between atoms: O2_11  and  C10_12 
REMARK    6  A    between atoms: C12_15  and  O4_16 
REMARK    7  A    between atoms: O4_16  and  C13_17 
REMARK    8  A    between atoms: C16_21  and  O6_22 
REMARK    9  A    between atoms: C17_24  and  C18_25 
REMARK   10  A    between atoms: C18_25  and  C20_27 
REMARK   11  A    between atoms: C18_25  and  C23_32 
REMARK   12  A    between atoms: C20_27  and  O7_28 
REMARK   13  A    between atoms: O7_28  and  C21_29 
REMARK   14  A    between atoms: C23_32  and  C24_33 
REMARK   15  A    between atoms: C24_33  and  O9_34 
ROOT
HETATM    1  C5  UNL     1       1.971 -32.988  25.350  1.00  0.00     0.074 C 
HETATM    2  C6  UNL     1       1.138 -31.827  25.837  1.00  0.00     0.047 C 
HETATM    3  O1  UNL     1       1.709 -33.923  26.424  1.00  0.00    -0.371 OA
HETATM    4  C7  UNL     1       2.171 -35.078  25.850  1.00  0.00     0.160 C 
HETATM    5  C8  UNL     1       1.793 -36.275  26.729  1.00  0.00     0.070 C 
HETATM    6  C9  UNL     1       2.056 -37.499  25.842  1.00  0.00     0.164 C 
HETATM    7  C12 UNL     1       1.033 -37.425  24.764  1.00  0.00     0.164 C 
HETATM    8  C15 UNL     1       1.418 -36.247  23.837  1.00  0.00     0.076 C 
HETATM    9  C16 UNL     1       1.282 -35.032  24.591  1.00  0.00     0.093 C 
HETATM   10  C17 UNL     1       1.491 -33.670  24.116  1.00  0.00     0.068 C 
ENDROOT
BRANCH  10  11
HETATM   11  C18 UNL     1       2.067 -33.334  22.813  1.00  0.00    -0.010 C 
HETATM   12  C19 UNL     1       3.495 -33.948  22.693  1.00  0.00     0.018 C 
BRANCH  11  13
HETATM   13  C20 UNL     1       2.360 -31.882  22.514  1.00  0.00     0.188 C 
BRANCH  13  14
HETATM   14  O7  UNL     1       2.436 -31.707  21.071  1.00  0.00    -0.321 OA
BRANCH  14  15
HETATM   15  C21 UNL     1       3.410 -30.941  20.505  1.00  0.00     0.254 C 
HETATM   16  C22 UNL     1       4.481 -31.596  19.704  1.00  0.00     0.126 C 
HETATM   17  O8  UNL     1       3.432 -29.706  20.638  1.00  0.00    -0.266 OA
ENDBRANCH  14  15
ENDBRANCH  13  14
ENDBRANCH  11  13
BRANCH  11  18
HETATM   18  C23 UNL     1       1.372 -33.887  21.611  1.00  0.00     0.050 C 
BRANCH  18  19
HETATM   19  C24 UNL     1       0.019 -33.857  21.239  1.00  0.00     0.065 C 
HETATM   20  C25 UNL     1      -0.501 -35.112  20.469  1.00  0.00     0.065 C 
HETATM   21  C26 UNL     1      -1.764 -34.514  19.932  1.00  0.00    -0.028 C 
HETATM   22  C27 UNL     1      -2.188 -33.610  20.800  1.00  0.00    -0.028 C 
HETATM   23  C28 UNL     1      -1.203 -33.575  21.958  1.00  0.00     0.065 C 
BRANCH  19  24
HETATM   24  O9  UNL     1      -0.039 -32.941  20.110  1.00  0.00    -0.389 OA
ATOM     25  H9  UNL     1       0.323 -33.428  19.379  1.00  0.00     0.210 HD
ENDBRANCH  19  24
ENDBRANCH  18  19
ENDBRANCH  11  18
ENDBRANCH  10  11
BRANCH   1  26
HETATM   26  C4  UNL     1       3.373 -32.737  25.561  1.00  0.00     0.118 C 
BRANCH  26  27
HETATM   27  C3  UNL     1       3.711 -31.626  26.140  1.00  0.00    -0.180 C 
BRANCH  27  28
HETATM   28  C2  UNL     1       4.206 -30.562  26.758  1.00  0.00     0.075 C 
HETATM   29  C1  UNL     1       5.372 -29.931  26.153  1.00  0.00     0.017 C 
ENDBRANCH  27  28
ENDBRANCH  26  27
ENDBRANCH   1  26
BRANCH   9  30
HETATM   30  O6  UNL     1      -0.011 -35.123  25.204  1.00  0.00    -0.387 OA
ATOM     31  H6  UNL     1      -0.547 -34.783  24.498  1.00  0.00     0.210 HD
ENDBRANCH   9  30
BRANCH   7  32
HETATM   32  O4  UNL     1       0.867 -38.596  24.031  1.00  0.00    -0.314 OA
BRANCH  32  33
HETATM   33  C13 UNL     1      -0.100 -38.710  23.047  1.00  0.00     0.255 C 
HETATM   34  C14 UNL     1       0.235 -38.792  21.605  1.00  0.00     0.126 C 
HETATM   35  O5  UNL     1      -1.310 -38.742  23.453  1.00  0.00    -0.266 OA
ENDBRANCH  32  33
ENDBRANCH   7  32
BRANCH   6  36
HETATM   36  O2  UNL     1       2.090 -38.688  26.561  1.00  0.00    -0.314 OA
BRANCH  36  37
HETATM   37  C10 UNL     1       2.519 -38.772  27.891  1.00  0.00     0.255 C 
HETATM   38  C11 UNL     1       3.975 -38.671  28.197  1.00  0.00     0.126 C 
HETATM   39  O3  UNL     1       1.627 -38.933  28.751  1.00  0.00    -0.266 OA
ENDBRANCH  36  37
ENDBRANCH   6  36
TORSDOF 15
ENDMDL
MODEL 5
REMARK VINA RESULT: -5.980889301      7.658     11.978
REMARK  15 active torsions:
REMARK  status: ('A' for Active; 'I' for Inactive)
REMARK    1  A    between atoms: C2_2  and  C3_3 
REMARK    2  A    between atoms: C3_3  and  C4_4 
REMARK    3  A    between atoms: C4_4  and  C5_5 
REMARK    4  A    between atoms: C9_10  and  O2_11 
REMARK    5  A    between atoms: O2_11  and  C10_12 
REMARK    6  A    between atoms: C12_15  and  O4_16 
REMARK    7  A    between atoms: O4_16  and  C13_17 
REMARK    8  A    between atoms: C16_21  and  O6_22 
REMARK    9  A    between atoms: C17_24  and  C18_25 
REMARK   10  A    between atoms: C18_25  and  C20_27 
REMARK   11  A    between atoms: C18_25  and  C23_32 
REMARK   12  A    between atoms: C20_27  and  O7_28 
REMARK   13  A    between atoms: O7_28  and  C21_29 
REMARK   14  A    between atoms: C23_32  and  C24_33 
REMARK   15  A    between atoms: C24_33  and  O9_34 
ROOT
HETATM    1  C5  UNL     1      -1.588 -34.245  22.417  1.00  0.00     0.074 C 
HETATM    2  C6  UNL     1      -3.093 -34.256  22.299  1.00  0.00     0.047 C 
HETATM    3  O1  UNL     1      -1.452 -33.313  23.517  1.00  0.00    -0.371 OA
HETATM    4  C7  UNL     1      -0.145 -33.539  23.859  1.00  0.00     0.160 C 
HETATM    5  C8  UNL     1       0.176 -32.811  25.169  1.00  0.00     0.070 C 
HETATM    6  C9  UNL     1       1.522 -33.399  25.612  1.00  0.00     0.164 C 
HETATM    7  C12 UNL     1       1.230 -34.812  25.974  1.00  0.00     0.164 C 
HETATM    8  C15 UNL     1       0.943 -35.579  24.660  1.00  0.00     0.076 C 
HETATM    9  C16 UNL     1      -0.273 -35.057  24.103  1.00  0.00     0.093 C 
HETATM   10  C17 UNL     1      -0.957 -35.506  22.897  1.00  0.00     0.068 C 
ENDROOT
BRANCH  10  11
HETATM   11  C18 UNL     1      -0.393 -36.461  21.941  1.00  0.00    -0.010 C 
HETATM   12  C19 UNL     1       0.010 -37.773  22.682  1.00  0.00     0.018 C 
BRANCH  11  13
HETATM   13  C20 UNL     1       0.911 -36.109  21.264  1.00  0.00     0.188 C 
BRANCH  13  14
HETATM   14  O7  UNL     1       0.723 -36.179  19.822  1.00  0.00    -0.321 OA
BRANCH  14  15
HETATM   15  C21 UNL     1       1.363 -35.315  18.986  1.00  0.00     0.254 C 
HETATM   16  C22 UNL     1       2.198 -34.224  19.562  1.00  0.00     0.126 C 
HETATM   17  O8  UNL     1       1.270 -35.409  17.750  1.00  0.00    -0.266 OA
ENDBRANCH  14  15
ENDBRANCH  13  14
ENDBRANCH  11  13
BRANCH  11  18
HETATM   18  C23 UNL     1      -1.310 -36.960  20.872  1.00  0.00     0.050 C 
BRANCH  18  19
HETATM   19  C24 UNL     1      -2.333 -37.920  20.916  1.00  0.00     0.065 C 
HETATM   20  C25 UNL     1      -3.638 -37.558  20.138  1.00  0.00     0.065 C 
HETATM   21  C26 UNL     1      -4.539 -38.576  20.765  1.00  0.00    -0.028 C 
HETATM   22  C27 UNL     1      -3.806 -39.632  21.078  1.00  0.00    -0.028 C 
HETATM   23  C28 UNL     1      -2.370 -39.345  20.665  1.00  0.00     0.065 C 
BRANCH  19  24
HETATM   24  O9  UNL     1      -2.903 -37.801  22.249  1.00  0.00    -0.389 OA
ATOM     25  H9  UNL     1      -3.745 -37.381  22.120  1.00  0.00     0.210 HD
ENDBRANCH  19  24
ENDBRANCH  18  19
ENDBRANCH  11  18
ENDBRANCH  10  11
BRANCH   1  26
HETATM   26  C4  UNL     1      -0.996 -33.477  21.353  1.00  0.00     0.118 C 
BRANCH  26  27
HETATM   27  C3  UNL     1      -1.614 -33.442  20.213  1.00  0.00    -0.180 C 
BRANCH  27  28
HETATM   28  C2  UNL     1      -2.096 -33.374  18.978  1.00  0.00     0.075 C 
HETATM   29  C1  UNL     1      -2.268 -34.634  18.268  1.00  0.00     0.017 C 
ENDBRANCH  27  28
ENDBRANCH  26  27
ENDBRANCH   1  26
BRANCH   9  30
HETATM   30  O6  UNL     1      -1.204 -35.048  25.194  1.00  0.00    -0.387 OA
ATOM     31  H6  UNL     1      -1.237 -35.978  25.383  1.00  0.00     0.210 HD
ENDBRANCH   9  30
BRANCH   7  32
HETATM   32  O4  UNL     1       2.225 -35.448  26.709  1.00  0.00    -0.314 OA
BRANCH  32  33
HETATM   33  C13 UNL     1       1.991 -35.943  27.980  1.00  0.00     0.255 C 
HETATM   34  C14 UNL     1       1.978 -37.395  28.281  1.00  0.00     0.126 C 
HETATM   35  O5  UNL     1       1.784 -35.072  28.890  1.00  0.00    -0.266 OA
ENDBRANCH  32  33
ENDBRANCH   7  32
BRANCH   6  36
HETATM   36  O2  UNL     1       2.142 -32.640  26.598  1.00  0.00    -0.314 OA
BRANCH  36  37
HETATM   37  C10 UNL     1       3.339 -31.944  26.397  1.00  0.00     0.255 C 
HETATM   38  C11 UNL     1       3.736 -31.556  25.013  1.00  0.00     0.126 C 
HETATM   39  O3  UNL     1       4.010 -31.690  27.420  1.00  0.00    -0.266 OA
ENDBRANCH  36  37
ENDBRANCH   6  36
TORSDOF 15
ENDMDL
