MODEL 1
REMARK VINA RESULT: -7.713111492      0.000      0.000
REMARK  11 active torsions:
REMARK  status: ('A' for Active; 'I' for Inactive)
REMARK    1  A    between atoms: C2_2  and  C3_3 
REMARK    2  A    between atoms: C3_3  and  C4_4 
REMARK    3  A    between atoms: C4_4  and  C5_5 
REMARK    4  A    between atoms: C5_5  and  C6_6 
REMARK    5  A    between atoms: C6_6  and  O2_8 
REMARK    6  A    between atoms: O2_8  and  C7_9 
REMARK    7  A    between atoms: C9_11  and  O3_12 
REMARK    8  A    between atoms: O3_12  and  C10_13 
REMARK    9  A    between atoms: C25_32  and  C26_33 
REMARK   10  A    between atoms: C26_33  and  O8_34 
REMARK   11  A    between atoms: C27_36  and  O9_37 
ROOT
HETATM    1  C7  UNL     1      -9.536 -31.081  21.756  1.00  0.00     0.167 C 
HETATM    2  C8  UNL     1      -9.438 -32.588  21.797  1.00  0.00     0.096 C 
HETATM    3  C9  UNL     1     -10.151 -33.067  20.531  1.00  0.00     0.266 C 
HETATM    4  O7  UNL     1     -11.023 -32.153  20.017  1.00  0.00    -0.351 OA
HETATM    5  C25 UNL     1     -11.763 -31.384  20.849  1.00  0.00     0.179 C 
HETATM    6  C27 UNL     1     -10.987 -30.743  21.992  1.00  0.00     0.179 C 
ENDROOT
BRANCH   3   7
HETATM    7  O3  UNL     1     -10.675 -34.320  20.673  1.00  0.00    -0.331 OA
BRANCH   7   8
HETATM    8  C10 UNL     1      -9.700 -35.351  20.762  1.00  0.00     0.267 C 
HETATM    9  C11 UNL     1      -9.823 -36.006  22.073  1.00  0.00     0.065 C 
HETATM   10  C12 UNL     1      -9.788 -37.445  22.261  1.00  0.00    -0.009 C 
HETATM   11  C13 UNL     1     -11.264 -37.930  22.232  1.00  0.00     0.010 C 
HETATM   12  C14 UNL     1      -9.008 -38.355  21.419  1.00  0.00     0.010 C 
HETATM   13  C15 UNL     1      -8.078 -39.106  22.376  1.00  0.00    -0.013 C 
HETATM   14  C20 UNL     1      -8.196 -37.828  20.323  1.00  0.00     0.053 C 
HETATM   15  C16 UNL     1      -7.546 -40.372  21.761  1.00  0.00     0.010 C 
HETATM   16  C17 UNL     1      -7.016 -38.267  22.978  1.00  0.00     0.005 C 
HETATM   17  C18 UNL     1      -6.501 -37.177  22.109  1.00  0.00     0.001 C 
HETATM   18  C19 UNL     1      -6.888 -37.211  20.693  1.00  0.00     0.018 C 
HETATM   19  C21 UNL     1      -8.005 -38.627  19.054  1.00  0.00     0.183 C 
HETATM   20  C22 UNL     1      -8.964 -36.995  19.316  1.00  0.00     0.216 C 
HETATM   21  O4  UNL     1      -7.160 -37.685  18.385  1.00  0.00    -0.231 OA
HETATM   22  C23 UNL     1      -9.292 -38.191  18.446  1.00  0.00     0.081 C 
HETATM   23  O5  UNL     1      -7.858 -36.546  18.600  1.00  0.00    -0.199 OA
HETATM   24  C24 UNL     1     -10.526 -38.932  18.571  1.00  0.00     0.018 C 
HETATM   25  O6  UNL     1      -9.925 -36.232  19.759  1.00  0.00    -0.321 OA
ENDBRANCH   7   8
ENDBRANCH   3   7
BRANCH   1  26
HETATM   26  O2  UNL     1      -8.661 -30.439  22.626  1.00  0.00    -0.313 OA
BRANCH  26  27
HETATM   27  C6  UNL     1      -8.656 -30.512  23.984  1.00  0.00     0.259 C 
HETATM   28  O1  UNL     1      -9.536 -29.882  24.619  1.00  0.00    -0.265 OA
BRANCH  27  29
HETATM   29  C5  UNL     1      -7.665 -31.299  24.704  1.00  0.00     0.111 C 
BRANCH  29  30
HETATM   30  C4  UNL     1      -6.280 -30.763  24.742  1.00  0.00     0.010 C 
BRANCH  30  31
HETATM   31  C3  UNL     1      -6.093 -29.423  25.351  1.00  0.00     0.000 C 
BRANCH  31  32
HETATM   32  C2  UNL     1      -6.465 -29.556  26.834  1.00  0.00    -0.005 C 
HETATM   33  C1  UNL     1      -7.509 -28.534  27.228  1.00  0.00     0.005 C 
ENDBRANCH  31  32
ENDBRANCH  30  31
ENDBRANCH  29  30
ENDBRANCH  27  29
ENDBRANCH  26  27
ENDBRANCH   1  26
BRANCH   5  34
HETATM   34  C26 UNL     1     -13.046 -31.999  21.360  1.00  0.00     0.198 C 
BRANCH  34  35
HETATM   35  O8  UNL     1     -13.531 -33.037  20.611  1.00  0.00    -0.398 OA
ATOM     36  H8  UNL     1     -14.361 -33.393  20.906  1.00  0.00     0.209 HD
ENDBRANCH  34  35
ENDBRANCH   5  34
BRANCH   6  37
HETATM   37  O9  UNL     1     -11.156 -29.387  22.078  1.00  0.00    -0.390 OA
ATOM     38  H9  UNL     1     -12.002 -29.180  22.460  1.00  0.00     0.210 HD
ENDBRANCH   6  37
TORSDOF 11
ENDMDL
MODEL 2
REMARK VINA RESULT: -7.698087373      1.400      1.713
REMARK  11 active torsions:
REMARK  status: ('A' for Active; 'I' for Inactive)
REMARK    1  A    between atoms: C2_2  and  C3_3 
REMARK    2  A    between atoms: C3_3  and  C4_4 
REMARK    3  A    between atoms: C4_4  and  C5_5 
REMARK    4  A    between atoms: C5_5  and  C6_6 
REMARK    5  A    between atoms: C6_6  and  O2_8 
REMARK    6  A    between atoms: O2_8  and  C7_9 
REMARK    7  A    between atoms: C9_11  and  O3_12 
REMARK    8  A    between atoms: O3_12  and  C10_13 
REMARK    9  A    between atoms: C25_32  and  C26_33 
REMARK   10  A    between atoms: C26_33  and  O8_34 
REMARK   11  A    between atoms: C27_36  and  O9_37 
ROOT
HETATM    1  C7  UNL     1     -10.607 -31.001  21.961  1.00  0.00     0.167 C 
HETATM    2  C8  UNL     1     -10.098 -32.178  22.758  1.00  0.00     0.096 C 
HETATM    3  C9  UNL     1      -9.714 -33.229  21.713  1.00  0.00     0.266 C 
HETATM    4  O7  UNL     1     -10.329 -33.049  20.509  1.00  0.00    -0.351 OA
HETATM    5  C25 UNL     1     -11.612 -32.620  20.463  1.00  0.00     0.179 C 
HETATM    6  C27 UNL     1     -11.923 -31.431  21.362  1.00  0.00     0.179 C 
ENDROOT
BRANCH   3   7
HETATM    7  O3  UNL     1      -9.802 -34.501  22.200  1.00  0.00    -0.331 OA
BRANCH   7   8
HETATM    8  C10 UNL     1      -8.973 -35.440  21.526  1.00  0.00     0.267 C 
HETATM    9  C11 UNL     1      -8.136 -36.130  22.519  1.00  0.00     0.065 C 
HETATM   10  C12 UNL     1      -7.906 -37.564  22.521  1.00  0.00    -0.009 C 
HETATM   11  C13 UNL     1      -8.979 -38.182  23.460  1.00  0.00     0.010 C 
HETATM   12  C14 UNL     1      -7.860 -38.380  21.306  1.00  0.00     0.010 C 
HETATM   13  C15 UNL     1      -6.489 -39.063  21.320  1.00  0.00    -0.013 C 
HETATM   14  C20 UNL     1      -8.040 -37.758  19.994  1.00  0.00     0.053 C 
HETATM   15  C16 UNL     1      -6.450 -40.261  20.411  1.00  0.00     0.010 C 
HETATM   16  C17 UNL     1      -5.348 -38.142  21.109  1.00  0.00     0.005 C 
HETATM   17  C18 UNL     1      -5.620 -36.991  20.208  1.00  0.00     0.001 C 
HETATM   18  C19 UNL     1      -6.865 -37.031  19.430  1.00  0.00     0.018 C 
HETATM   19  C21 UNL     1      -8.721 -38.510  18.873  1.00  0.00     0.183 C 
HETATM   20  C22 UNL     1      -9.331 -36.979  19.841  1.00  0.00     0.216 C 
HETATM   21  O4  UNL     1      -8.609 -37.481  17.885  1.00  0.00    -0.231 OA
HETATM   22  C23 UNL     1     -10.098 -38.182  19.332  1.00  0.00     0.081 C 
HETATM   23  O5  UNL     1      -9.034 -36.415  18.603  1.00  0.00    -0.199 OA
HETATM   24  C24 UNL     1     -10.876 -39.035  20.200  1.00  0.00     0.018 C 
HETATM   25  O6  UNL     1      -9.772 -36.317  20.875  1.00  0.00    -0.321 OA
ENDBRANCH   7   8
ENDBRANCH   3   7
BRANCH   1  26
HETATM   26  O2  UNL     1     -10.683 -29.820  22.692  1.00  0.00    -0.313 OA
BRANCH  26  27
HETATM   27  C6  UNL     1     -11.006 -29.690  24.007  1.00  0.00     0.259 C 
HETATM   28  O1  UNL     1     -12.187 -29.929  24.357  1.00  0.00    -0.265 OA
BRANCH  27  29
HETATM   29  C5  UNL     1     -10.021 -29.287  25.001  1.00  0.00     0.111 C 
BRANCH  29  30
HETATM   30  C4  UNL     1      -8.593 -29.368  24.602  1.00  0.00     0.010 C 
BRANCH  30  31
HETATM   31  C3  UNL     1      -7.746 -30.350  25.323  1.00  0.00     0.000 C 
BRANCH  31  32
HETATM   32  C2  UNL     1      -6.625 -29.552  26.002  1.00  0.00    -0.005 C 
HETATM   33  C1  UNL     1      -7.156 -28.747  27.167  1.00  0.00     0.005 C 
ENDBRANCH  31  32
ENDBRANCH  30  31
ENDBRANCH  29  30
ENDBRANCH  27  29
ENDBRANCH  26  27
ENDBRANCH   1  26
BRANCH   5  34
HETATM   34  C26 UNL     1     -12.676 -33.683  20.603  1.00  0.00     0.198 C 
BRANCH  34  35
HETATM   35  O8  UNL     1     -13.959 -33.250  20.408  1.00  0.00    -0.398 OA
ATOM     36  H8  UNL     1     -14.381 -33.578  19.623  1.00  0.00     0.209 HD
ENDBRANCH  34  35
ENDBRANCH   5  34
BRANCH   6  37
HETATM   37  O9  UNL     1     -12.516 -30.386  20.705  1.00  0.00    -0.390 OA
ATOM     38  H9  UNL     1     -13.092 -29.908  21.291  1.00  0.00     0.210 HD
ENDBRANCH   6  37
TORSDOF 11
ENDMDL
MODEL 3
REMARK VINA RESULT: -7.628484624      1.898      3.170
REMARK  11 active torsions:
REMARK  status: ('A' for Active; 'I' for Inactive)
REMARK    1  A    between atoms: C2_2  and  C3_3 
REMARK    2  A    between atoms: C3_3  and  C4_4 
REMARK    3  A    between atoms: C4_4  and  C5_5 
REMARK    4  A    between atoms: C5_5  and  C6_6 
REMARK    5  A    between atoms: C6_6  and  O2_8 
REMARK    6  A    between atoms: O2_8  and  C7_9 
REMARK    7  A    between atoms: C9_11  and  O3_12 
REMARK    8  A    between atoms: O3_12  and  C10_13 
REMARK    9  A    between atoms: C25_32  and  C26_33 
REMARK   10  A    between atoms: C26_33  and  O8_34 
REMARK   11  A    between atoms: C27_36  and  O9_37 
ROOT
HETATM    1  C7  UNL     1     -11.264 -32.689  22.051  1.00  0.00     0.167 C 
HETATM    2  C8  UNL     1     -11.182 -34.107  22.563  1.00  0.00     0.096 C 
HETATM    3  C9  UNL     1     -10.922 -34.963  21.321  1.00  0.00     0.266 C 
HETATM    4  O7  UNL     1     -11.293 -34.359  20.156  1.00  0.00    -0.351 OA
HETATM    5  C25 UNL     1     -12.409 -33.596  20.116  1.00  0.00     0.179 C 
HETATM    6  C27 UNL     1     -12.545 -32.598  21.258  1.00  0.00     0.179 C 
ENDROOT
BRANCH   3   7
HETATM    7  O3  UNL     1     -11.390 -36.238  21.462  1.00  0.00    -0.331 OA
BRANCH   7   8
HETATM    8  C10 UNL     1     -10.399 -37.244  21.291  1.00  0.00     0.267 C 
HETATM    9  C11 UNL     1     -10.190 -37.462  19.852  1.00  0.00     0.065 C 
HETATM   10  C12 UNL     1      -8.881 -37.593  19.239  1.00  0.00    -0.009 C 
HETATM   11  C13 UNL     1      -8.473 -36.172  18.761  1.00  0.00     0.010 C 
HETATM   12  C14 UNL     1      -7.723 -38.181  19.915  1.00  0.00     0.010 C 
HETATM   13  C15 UNL     1      -7.269 -39.340  19.023  1.00  0.00    -0.013 C 
HETATM   14  C20 UNL     1      -7.848 -38.687  21.282  1.00  0.00     0.053 C 
HETATM   15  C16 UNL     1      -5.854 -39.755  19.321  1.00  0.00     0.010 C 
HETATM   16  C17 UNL     1      -8.209 -40.484  18.985  1.00  0.00     0.005 C 
HETATM   17  C18 UNL     1      -8.952 -40.736  20.247  1.00  0.00     0.001 C 
HETATM   18  C19 UNL     1      -8.495 -40.023  21.446  1.00  0.00     0.018 C 
HETATM   19  C21 UNL     1      -6.686 -38.597  22.245  1.00  0.00     0.183 C 
HETATM   20  C22 UNL     1      -8.357 -37.671  22.283  1.00  0.00     0.216 C 
HETATM   21  O4  UNL     1      -7.337 -39.222  23.356  1.00  0.00    -0.231 OA
HETATM   22  C23 UNL     1      -6.964 -37.187  22.632  1.00  0.00     0.081 C 
HETATM   23  O5  UNL     1      -8.514 -38.555  23.347  1.00  0.00    -0.199 OA
HETATM   24  C24 UNL     1      -6.351 -36.047  21.992  1.00  0.00     0.018 C 
HETATM   25  O6  UNL     1      -9.260 -36.817  21.885  1.00  0.00    -0.321 OA
ENDBRANCH   7   8
ENDBRANCH   3   7
BRANCH   1  26
HETATM   26  O2  UNL     1     -11.152 -31.726  23.048  1.00  0.00    -0.313 OA
BRANCH  26  27
HETATM   27  C6  UNL     1     -10.403 -30.590  23.009  1.00  0.00     0.259 C 
HETATM   28  O1  UNL     1     -10.410 -29.907  21.956  1.00  0.00    -0.265 OA
BRANCH  27  29
HETATM   29  C5  UNL     1      -9.608 -30.159  24.150  1.00  0.00     0.111 C 
BRANCH  29  30
HETATM   30  C4  UNL     1      -8.334 -30.882  24.392  1.00  0.00     0.010 C 
BRANCH  30  31
HETATM   31  C3  UNL     1      -7.409 -30.302  25.397  1.00  0.00     0.000 C 
BRANCH  31  32
HETATM   32  C2  UNL     1      -7.981 -28.931  25.784  1.00  0.00    -0.005 C 
HETATM   33  C1  UNL     1      -7.532 -28.524  27.170  1.00  0.00     0.005 C 
ENDBRANCH  31  32
ENDBRANCH  30  31
ENDBRANCH  29  30
ENDBRANCH  27  29
ENDBRANCH  26  27
ENDBRANCH   1  26
BRANCH   5  34
HETATM   34  C26 UNL     1     -13.712 -34.330  19.897  1.00  0.00     0.198 C 
BRANCH  34  35
HETATM   35  O8  UNL     1     -14.830 -33.542  19.895  1.00  0.00    -0.398 OA
ATOM     36  H8  UNL     1     -15.650 -34.007  19.782  1.00  0.00     0.209 HD
ENDBRANCH  34  35
ENDBRANCH   5  34
BRANCH   6  37
HETATM   37  O9  UNL     1     -12.761 -31.311  20.840  1.00  0.00    -0.390 OA
ATOM     38  H9  UNL     1     -12.092 -30.732  21.188  1.00  0.00     0.210 HD
ENDBRANCH   6  37
TORSDOF 11
ENDMDL
MODEL 4
REMARK VINA RESULT: -7.583355610      1.962      3.109
REMARK  11 active torsions:
REMARK  status: ('A' for Active; 'I' for Inactive)
REMARK    1  A    between atoms: C2_2  and  C3_3 
REMARK    2  A    between atoms: C3_3  and  C4_4 
REMARK    3  A    between atoms: C4_4  and  C5_5 
REMARK    4  A    between atoms: C5_5  and  C6_6 
REMARK    5  A    between atoms: C6_6  and  O2_8 
REMARK    6  A    between atoms: O2_8  and  C7_9 
REMARK    7  A    between atoms: C9_11  and  O3_12 
REMARK    8  A    between atoms: O3_12  and  C10_13 
REMARK    9  A    between atoms: C25_32  and  C26_33 
REMARK   10  A    between atoms: C26_33  and  O8_34 
REMARK   11  A    between atoms: C27_36  and  O9_37 
ROOT
HETATM    1  C7  UNL     1     -10.152 -31.068  21.641  1.00  0.00     0.167 C 
HETATM    2  C8  UNL     1      -9.762 -32.262  22.478  1.00  0.00     0.096 C 
HETATM    3  C9  UNL     1      -9.443 -33.367  21.468  1.00  0.00     0.266 C 
HETATM    4  O7  UNL     1     -10.012 -33.169  20.245  1.00  0.00    -0.351 OA
HETATM    5  C25 UNL     1     -11.253 -32.637  20.156  1.00  0.00     0.179 C 
HETATM    6  C27 UNL     1     -11.486 -31.403  21.018  1.00  0.00     0.179 C 
ENDROOT
BRANCH   3   7
HETATM    7  O3  UNL     1      -9.647 -34.616  21.983  1.00  0.00    -0.331 OA
BRANCH   7   8
HETATM    8  C10 UNL     1      -8.883 -35.636  21.353  1.00  0.00     0.267 C 
HETATM    9  C11 UNL     1      -8.038 -36.288  22.365  1.00  0.00     0.065 C 
HETATM   10  C12 UNL     1      -7.867 -37.726  22.466  1.00  0.00    -0.009 C 
HETATM   11  C13 UNL     1      -8.928 -38.226  23.486  1.00  0.00     0.010 C 
HETATM   12  C14 UNL     1      -7.900 -38.631  21.315  1.00  0.00     0.010 C 
HETATM   13  C15 UNL     1      -6.559 -39.369  21.332  1.00  0.00    -0.013 C 
HETATM   14  C20 UNL     1      -8.105 -38.099  19.968  1.00  0.00     0.053 C 
HETATM   15  C16 UNL     1      -6.604 -40.632  20.515  1.00  0.00     0.010 C 
HETATM   16  C17 UNL     1      -5.390 -38.517  21.013  1.00  0.00     0.005 C 
HETATM   17  C18 UNL     1      -5.649 -37.425  20.039  1.00  0.00     0.001 C 
HETATM   18  C19 UNL     1      -6.923 -37.467  19.309  1.00  0.00     0.018 C 
HETATM   19  C21 UNL     1      -8.858 -38.901  18.930  1.00  0.00     0.183 C 
HETATM   20  C22 UNL     1      -9.367 -37.278  19.801  1.00  0.00     0.216 C 
HETATM   21  O4  UNL     1      -8.741 -37.952  17.865  1.00  0.00    -0.231 OA
HETATM   22  C23 UNL     1     -10.202 -38.480  19.411  1.00  0.00     0.081 C 
HETATM   23  O5  UNL     1      -9.095 -36.820  18.515  1.00  0.00    -0.199 OA
HETATM   24  C24 UNL     1     -10.981 -39.233  20.367  1.00  0.00     0.018 C 
HETATM   25  O6  UNL     1      -9.742 -36.523  20.797  1.00  0.00    -0.321 OA
ENDBRANCH   7   8
ENDBRANCH   3   7
BRANCH   1  26
HETATM   26  O2  UNL     1     -10.147 -29.866  22.341  1.00  0.00    -0.313 OA
BRANCH  26  27
HETATM   27  C6  UNL     1     -10.149 -29.706  23.692  1.00  0.00     0.259 C 
HETATM   28  O1  UNL     1      -9.049 -29.705  24.295  1.00  0.00    -0.265 OA
BRANCH  27  29
HETATM   29  C5  UNL     1     -11.388 -29.538  24.441  1.00  0.00     0.111 C 
BRANCH  29  30
HETATM   30  C4  UNL     1     -12.596 -29.164  23.663  1.00  0.00     0.010 C 
BRANCH  30  31
HETATM   31  C3  UNL     1     -13.265 -27.890  24.026  1.00  0.00     0.000 C 
BRANCH  31  32
HETATM   32  C2  UNL     1     -14.227 -27.554  22.879  1.00  0.00    -0.005 C 
HETATM   33  C1  UNL     1     -14.639 -28.801  22.128  1.00  0.00     0.005 C 
ENDBRANCH  31  32
ENDBRANCH  30  31
ENDBRANCH  29  30
ENDBRANCH  27  29
ENDBRANCH  26  27
ENDBRANCH   1  26
BRANCH   5  34
HETATM   34  C26 UNL     1     -12.405 -33.605  20.294  1.00  0.00     0.198 C 
BRANCH  34  35
HETATM   35  O8  UNL     1     -13.599 -33.040  20.653  1.00  0.00    -0.398 OA
ATOM     36  H8  UNL     1     -13.775 -33.028  21.586  1.00  0.00     0.209 HD
ENDBRANCH  34  35
ENDBRANCH   5  34
BRANCH   6  37
HETATM   37  O9  UNL     1     -11.974 -30.330  20.322  1.00  0.00    -0.390 OA
ATOM     38  H9  UNL     1     -12.595 -29.844  20.852  1.00  0.00     0.210 HD
ENDBRANCH   6  37
TORSDOF 11
ENDMDL
MODEL 5
REMARK VINA RESULT: -7.541819238      1.579      2.448
REMARK  11 active torsions:
REMARK  status: ('A' for Active; 'I' for Inactive)
REMARK    1  A    between atoms: C2_2  and  C3_3 
REMARK    2  A    between atoms: C3_3  and  C4_4 
REMARK    3  A    between atoms: C4_4  and  C5_5 
REMARK    4  A    between atoms: C5_5  and  C6_6 
REMARK    5  A    between atoms: C6_6  and  O2_8 
REMARK    6  A    between atoms: O2_8  and  C7_9 
REMARK    7  A    between atoms: C9_11  and  O3_12 
REMARK    8  A    between atoms: O3_12  and  C10_13 
REMARK    9  A    between atoms: C25_32  and  C26_33 
REMARK   10  A    between atoms: C26_33  and  O8_34 
REMARK   11  A    between atoms: C27_36  and  O9_37 
ROOT
HETATM    1  C7  UNL     1     -10.024 -32.466  21.841  1.00  0.00     0.167 C 
HETATM    2  C8  UNL     1      -9.688 -33.938  21.804  1.00  0.00     0.096 C 
HETATM    3  C9  UNL     1      -9.738 -34.319  20.322  1.00  0.00     0.266 C 
HETATM    4  O7  UNL     1     -10.477 -33.461  19.563  1.00  0.00    -0.351 OA
HETATM    5  C25 UNL     1     -11.611 -32.921  20.066  1.00  0.00     0.179 C 
HETATM    6  C27 UNL     1     -11.483 -32.355  21.473  1.00  0.00     0.179 C 
ENDROOT
BRANCH   3   7
HETATM    7  O3  UNL     1     -10.046 -35.637  20.136  1.00  0.00    -0.331 OA
BRANCH   7   8
HETATM    8  C10 UNL     1      -9.091 -36.539  20.680  1.00  0.00     0.267 C 
HETATM    9  C11 UNL     1      -9.533 -37.916  20.408  1.00  0.00     0.065 C 
HETATM   10  C12 UNL     1      -8.649 -38.966  19.935  1.00  0.00    -0.009 C 
HETATM   11  C13 UNL     1      -8.751 -38.963  18.385  1.00  0.00     0.010 C 
HETATM   12  C14 UNL     1      -7.230 -39.052  20.285  1.00  0.00     0.010 C 
HETATM   13  C15 UNL     1      -7.049 -40.425  20.938  1.00  0.00    -0.013 C 
HETATM   14  C20 UNL     1      -6.627 -38.051  21.165  1.00  0.00     0.053 C 
HETATM   15  C16 UNL     1      -5.607 -40.858  20.943  1.00  0.00     0.010 C 
HETATM   16  C17 UNL     1      -7.694 -40.558  22.265  1.00  0.00     0.005 C 
HETATM   17  C18 UNL     1      -7.721 -39.319  23.084  1.00  0.00     0.001 C 
HETATM   18  C19 UNL     1      -6.892 -38.196  22.627  1.00  0.00     0.018 C 
HETATM   19  C21 UNL     1      -5.186 -37.632  20.979  1.00  0.00     0.183 C 
HETATM   20  C22 UNL     1      -6.782 -36.622  20.688  1.00  0.00     0.216 C 
HETATM   21  O4  UNL     1      -5.140 -36.699  22.064  1.00  0.00    -0.231 OA
HETATM   22  C23 UNL     1      -5.488 -36.651  19.901  1.00  0.00     0.081 C 
HETATM   23  O5  UNL     1      -6.283 -36.012  21.836  1.00  0.00    -0.199 OA
HETATM   24  C24 UNL     1      -5.438 -36.971  18.493  1.00  0.00     0.018 C 
HETATM   25  O6  UNL     1      -7.896 -36.291  20.094  1.00  0.00    -0.321 OA
ENDBRANCH   7   8
ENDBRANCH   3   7
BRANCH   1  26
HETATM   26  O2  UNL     1      -9.699 -31.847  23.043  1.00  0.00    -0.313 OA
BRANCH  26  27
HETATM   27  C6  UNL     1      -8.920 -30.744  23.212  1.00  0.00     0.259 C 
HETATM   28  O1  UNL     1      -9.365 -29.635  22.831  1.00  0.00    -0.265 OA
BRANCH  27  29
HETATM   29  C5  UNL     1      -7.598 -30.827  23.820  1.00  0.00     0.111 C 
BRANCH  29  30
HETATM   30  C4  UNL     1      -7.484 -30.398  25.237  1.00  0.00     0.010 C 
BRANCH  30  31
HETATM   31  C3  UNL     1      -6.132 -30.024  25.721  1.00  0.00     0.000 C 
BRANCH  31  32
HETATM   32  C2  UNL     1      -6.327 -29.298  27.059  1.00  0.00    -0.005 C 
HETATM   33  C1  UNL     1      -7.646 -28.557  27.091  1.00  0.00     0.005 C 
ENDBRANCH  31  32
ENDBRANCH  30  31
ENDBRANCH  29  30
ENDBRANCH  27  29
ENDBRANCH  26  27
ENDBRANCH   1  26
BRANCH   5  34
HETATM   34  C26 UNL     1     -12.861 -33.761  19.945  1.00  0.00     0.198 C 
BRANCH  34  35
HETATM   35  O8  UNL     1     -14.003 -33.177  20.421  1.00  0.00    -0.398 OA
ATOM     36  H8  UNL     1     -14.812 -33.603  20.163  1.00  0.00     0.209 HD
ENDBRANCH  34  35
ENDBRANCH   5  34
BRANCH   6  37
HETATM   37  O9  UNL     1     -11.909 -31.057  21.585  1.00  0.00    -0.390 OA
ATOM     38  H9  UNL     1     -12.856 -31.011  21.523  1.00  0.00     0.210 HD
ENDBRANCH   6  37
TORSDOF 11
ENDMDL
