MODEL 1
REMARK VINA RESULT: -8.469920833      0.000      0.000
REMARK  10 active torsions:
REMARK  status: ('A' for Active; 'I' for Inactive)
REMARK    1  A    between atoms: C2_2  and  C3_3 
REMARK    2  A    between atoms: C3_3  and  C4_5 
REMARK    3  A    between atoms: C4_5  and  O2_6 
REMARK    4  A    between atoms: C9_15  and  C11_17 
REMARK    5  A    between atoms: C11_17  and  O7_19 
REMARK    6  A    between atoms: O7_19  and  C12_20 
REMARK    7  A    between atoms: C12_20  and  C14_22 
REMARK    8  A    between atoms: C15_23  and  C17_26 
REMARK    9  A    between atoms: C17_26  and  C18_27 
REMARK   10  A    between atoms: C28_37  and  O8_38 
ROOT
HETATM    1  C14 UNL     1      -9.616 -30.620  22.110  1.00  0.00     0.023 C 
HETATM    2  C15 UNL     1     -10.202 -30.297  23.229  1.00  0.00     0.021 C 
HETATM    3  C16 UNL     1      -9.351 -29.869  24.319  1.00  0.00     0.095 C 
HETATM    4  N1  UNL     1      -8.637 -29.543  25.188  1.00  0.00    -0.192 NA
ENDROOT
BRANCH   2   5
HETATM    5  C17 UNL     1     -11.637 -30.371  23.428  1.00  0.00     0.053 C 
BRANCH   5   6
HETATM    6  C18 UNL     1     -12.332 -29.069  23.186  1.00  0.00    -0.018 C 
HETATM    7  C19 UNL     1     -13.581 -29.343  22.317  1.00  0.00     0.010 C 
HETATM    8  C20 UNL     1     -12.814 -28.373  24.420  1.00  0.00     0.010 C 
ENDBRANCH   5   6
ENDBRANCH   2   5
BRANCH   1   9
HETATM    9  C12 UNL     1     -10.239 -31.081  20.870  1.00  0.00     0.151 C 
HETATM   10  C13 UNL     1     -10.604 -29.909  19.991  1.00  0.00     0.044 C 
BRANCH   9  11
HETATM   11  O7  UNL     1     -11.416 -31.810  21.163  1.00  0.00    -0.312 OA
BRANCH  11  12
HETATM   12  C11 UNL     1     -11.891 -32.829  20.360  1.00  0.00     0.270 C 
HETATM   13  O6  UNL     1     -12.057 -32.565  19.144  1.00  0.00    -0.264 OA
BRANCH  12  14
HETATM   14  C9  UNL     1     -12.166 -34.139  20.980  1.00  0.00     0.072 C 
HETATM   15  C8  UNL     1     -11.189 -35.211  20.647  1.00  0.00     0.158 C 
HETATM   16  O5  UNL     1     -10.309 -34.880  19.612  1.00  0.00    -0.312 OA
HETATM   17  C24 UNL     1     -10.364 -35.664  21.851  1.00  0.00    -0.009 C 
HETATM   18  C7  UNL     1      -9.294 -35.749  19.272  1.00  0.00     0.289 C 
HETATM   19  C6  UNL     1      -8.655 -36.573  20.291  1.00  0.00     0.233 C 
HETATM   20  O4  UNL     1      -8.901 -35.843  18.072  1.00  0.00    -0.262 OA
HETATM   21  O3  UNL     1      -8.147 -37.803  19.799  1.00  0.00    -0.336 OA
HETATM   22  C26 UNL     1      -9.639 -36.891  21.381  1.00  0.00     0.038 C 
HETATM   23  C5  UNL     1      -7.737 -38.796  20.653  1.00  0.00     0.085 C 
HETATM   24  C2  UNL     1      -6.648 -39.530  20.515  1.00  0.00     0.018 C 
HETATM   25  C28 UNL     1      -8.642 -39.038  21.838  1.00  0.00     0.175 C 
HETATM   26  C1  UNL     1      -6.361 -40.580  21.557  1.00  0.00     0.055 C 
HETATM   27  C27 UNL     1      -8.916 -37.655  22.437  1.00  0.00     0.047 C 
HETATM   28  C23 UNL     1     -11.264 -36.083  22.993  1.00  0.00     0.012 C 
HETATM   29  C25 UNL     1      -9.414 -34.619  22.345  1.00  0.00     0.018 C 
HETATM   30  C22 UNL     1     -12.498 -35.256  23.127  1.00  0.00     0.002 C 
HETATM   31  C21 UNL     1     -12.370 -33.927  22.461  1.00  0.00     0.022 C 
HETATM   32  C10 UNL     1     -13.534 -34.574  20.428  1.00  0.00     0.029 C 
BRANCH  24  33
HETATM   33  C3  UNL     1      -5.696 -39.410  19.438  1.00  0.00     0.180 C 
HETATM   34  O1  UNL     1      -5.385 -40.380  18.715  1.00  0.00    -0.290 OA
BRANCH  33  35
HETATM   35  C4  UNL     1      -5.061 -38.101  19.171  1.00  0.00     0.247 C 
BRANCH  35  36
HETATM   36  O2  UNL     1      -5.683 -37.446  18.096  1.00  0.00    -0.393 OA
ATOM     37  H2  UNL     1      -5.417 -36.535  18.049  1.00  0.00     0.209 HD
ENDBRANCH  35  36
ENDBRANCH  33  35
ENDBRANCH  24  33
BRANCH  25  38
HETATM   38  O8  UNL     1      -9.854 -39.470  21.307  1.00  0.00    -0.389 OA
ATOM     39  H8  UNL     1     -10.486 -39.394  22.012  1.00  0.00     0.210 HD
ENDBRANCH  25  38
ENDBRANCH  12  14
ENDBRANCH  11  12
ENDBRANCH   9  11
ENDBRANCH   1   9
TORSDOF 10
ENDMDL
MODEL 2
REMARK VINA RESULT: -8.415863851      1.064      1.851
REMARK  10 active torsions:
REMARK  status: ('A' for Active; 'I' for Inactive)
REMARK    1  A    between atoms: C2_2  and  C3_3 
REMARK    2  A    between atoms: C3_3  and  C4_5 
REMARK    3  A    between atoms: C4_5  and  O2_6 
REMARK    4  A    between atoms: C9_15  and  C11_17 
REMARK    5  A    between atoms: C11_17  and  O7_19 
REMARK    6  A    between atoms: O7_19  and  C12_20 
REMARK    7  A    between atoms: C12_20  and  C14_22 
REMARK    8  A    between atoms: C15_23  and  C17_26 
REMARK    9  A    between atoms: C17_26  and  C18_27 
REMARK   10  A    between atoms: C28_37  and  O8_38 
ROOT
HETATM    1  C14 UNL     1     -10.877 -30.249  22.268  1.00  0.00     0.023 C 
HETATM    2  C15 UNL     1     -10.528 -29.664  23.380  1.00  0.00     0.021 C 
HETATM    3  C16 UNL     1     -11.585 -29.347  24.317  1.00  0.00     0.095 C 
HETATM    4  N1  UNL     1     -12.461 -29.088  25.049  1.00  0.00    -0.192 NA
ENDROOT
BRANCH   2   5
HETATM    5  C17 UNL     1      -9.159 -29.304  23.696  1.00  0.00     0.053 C 
BRANCH   5   6
HETATM    6  C18 UNL     1      -8.702 -29.835  25.017  1.00  0.00    -0.018 C 
HETATM    7  C19 UNL     1      -7.702 -30.984  24.755  1.00  0.00     0.010 C 
HETATM    8  C20 UNL     1      -7.994 -28.842  25.884  1.00  0.00     0.010 C 
ENDBRANCH   5   6
ENDBRANCH   2   5
BRANCH   1   9
HETATM    9  C12 UNL     1     -10.014 -30.670  21.165  1.00  0.00     0.151 C 
HETATM   10  C13 UNL     1     -10.330 -29.886  19.914  1.00  0.00     0.044 C 
BRANCH   9  11
HETATM   11  O7  UNL     1     -10.210 -32.046  20.898  1.00  0.00    -0.312 OA
BRANCH  11  12
HETATM   12  C11 UNL     1     -11.395 -32.556  20.405  1.00  0.00     0.270 C 
HETATM   13  O6  UNL     1     -11.964 -31.899  19.499  1.00  0.00    -0.264 OA
BRANCH  12  14
HETATM   14  C9  UNL     1     -11.903 -33.821  20.970  1.00  0.00     0.072 C 
HETATM   15  C8  UNL     1     -11.112 -35.030  20.617  1.00  0.00     0.158 C 
HETATM   16  O5  UNL     1     -10.161 -34.819  19.614  1.00  0.00    -0.312 OA
HETATM   17  C24 UNL     1     -10.407 -35.656  21.821  1.00  0.00    -0.009 C 
HETATM   18  C7  UNL     1      -9.299 -35.836  19.263  1.00  0.00     0.289 C 
HETATM   19  C6  UNL     1      -8.835 -36.789  20.263  1.00  0.00     0.233 C 
HETATM   20  O4  UNL     1      -8.895 -35.955  18.068  1.00  0.00    -0.262 OA
HETATM   21  O3  UNL     1      -8.528 -38.071  19.736  1.00  0.00    -0.336 OA
HETATM   22  C26 UNL     1      -9.887 -36.972  21.320  1.00  0.00     0.038 C 
HETATM   23  C5  UNL     1      -8.314 -39.147  20.561  1.00  0.00     0.085 C 
HETATM   24  C2  UNL     1      -7.361 -40.049  20.419  1.00  0.00     0.018 C 
HETATM   25  C28 UNL     1      -9.278 -39.270  21.718  1.00  0.00     0.175 C 
HETATM   26  C1  UNL     1      -7.282 -41.166  21.426  1.00  0.00     0.055 C 
HETATM   27  C27 UNL     1      -9.331 -37.881  22.362  1.00  0.00     0.047 C 
HETATM   28  C23 UNL     1     -11.395 -35.954  22.928  1.00  0.00     0.012 C 
HETATM   29  C25 UNL     1      -9.308 -34.803  22.372  1.00  0.00     0.018 C 
HETATM   30  C22 UNL     1     -12.475 -34.935  23.067  1.00  0.00     0.002 C 
HETATM   31  C21 UNL     1     -12.107 -33.626  22.453  1.00  0.00     0.022 C 
HETATM   32  C10 UNL     1     -13.310 -34.000  20.374  1.00  0.00     0.029 C 
BRANCH  24  33
HETATM   33  C3  UNL     1      -6.375 -40.056  19.367  1.00  0.00     0.180 C 
HETATM   34  O1  UNL     1      -6.269 -41.004  18.561  1.00  0.00    -0.290 OA
BRANCH  33  35
HETATM   35  C4  UNL     1      -5.452 -38.909  19.228  1.00  0.00     0.247 C 
BRANCH  35  36
HETATM   36  O2  UNL     1      -5.944 -37.971  18.306  1.00  0.00    -0.393 OA
ATOM     37  H2  UNL     1      -6.889 -38.036  18.222  1.00  0.00     0.209 HD
ENDBRANCH  35  36
ENDBRANCH  33  35
ENDBRANCH  24  33
BRANCH  25  38
HETATM   38  O8  UNL     1     -10.531 -39.473  21.146  1.00  0.00    -0.389 OA
ATOM     39  H8  UNL     1     -11.133 -38.937  21.648  1.00  0.00     0.210 HD
ENDBRANCH  25  38
ENDBRANCH  12  14
ENDBRANCH  11  12
ENDBRANCH   9  11
ENDBRANCH   1   9
TORSDOF 10
ENDMDL
MODEL 3
REMARK VINA RESULT: -8.398338297      0.976      1.797
REMARK  10 active torsions:
REMARK  status: ('A' for Active; 'I' for Inactive)
REMARK    1  A    between atoms: C2_2  and  C3_3 
REMARK    2  A    between atoms: C3_3  and  C4_5 
REMARK    3  A    between atoms: C4_5  and  O2_6 
REMARK    4  A    between atoms: C9_15  and  C11_17 
REMARK    5  A    between atoms: C11_17  and  O7_19 
REMARK    6  A    between atoms: O7_19  and  C12_20 
REMARK    7  A    between atoms: C12_20  and  C14_22 
REMARK    8  A    between atoms: C15_23  and  C17_26 
REMARK    9  A    between atoms: C17_26  and  C18_27 
REMARK   10  A    between atoms: C28_37  and  O8_38 
ROOT
HETATM    1  C14 UNL     1     -11.918 -29.851  22.385  1.00  0.00     0.023 C 
HETATM    2  C15 UNL     1     -11.619 -29.639  23.636  1.00  0.00     0.021 C 
HETATM    3  C16 UNL     1     -12.398 -28.644  24.340  1.00  0.00     0.095 C 
HETATM    4  N1  UNL     1     -13.034 -27.822  24.881  1.00  0.00    -0.192 NA
ENDROOT
BRANCH   2   5
HETATM    5  C17 UNL     1     -10.543 -30.326  24.325  1.00  0.00     0.053 C 
BRANCH   5   6
HETATM    6  C18 UNL     1      -9.195 -29.749  24.034  1.00  0.00    -0.018 C 
HETATM    7  C19 UNL     1      -8.655 -29.106  25.332  1.00  0.00     0.010 C 
HETATM    8  C20 UNL     1      -8.167 -30.742  23.590  1.00  0.00     0.010 C 
ENDBRANCH   5   6
ENDBRANCH   2   5
BRANCH   1   9
HETATM    9  C12 UNL     1     -11.291 -30.792  21.457  1.00  0.00     0.151 C 
HETATM   10  C13 UNL     1     -10.566 -30.052  20.359  1.00  0.00     0.044 C 
BRANCH   9  11
HETATM   11  O7  UNL     1     -12.277 -31.620  20.870  1.00  0.00    -0.312 OA
BRANCH  11  12
HETATM   12  C11 UNL     1     -11.978 -32.793  20.205  1.00  0.00     0.270 C 
HETATM   13  O6  UNL     1     -11.498 -32.686  19.050  1.00  0.00    -0.264 OA
BRANCH  12  14
HETATM   14  C9  UNL     1     -12.240 -34.073  20.890  1.00  0.00     0.072 C 
HETATM   15  C8  UNL     1     -11.260 -35.154  20.600  1.00  0.00     0.158 C 
HETATM   16  O5  UNL     1     -10.392 -34.870  19.541  1.00  0.00    -0.312 OA
HETATM   17  C24 UNL     1     -10.421 -35.545  21.816  1.00  0.00    -0.009 C 
HETATM   18  C7  UNL     1      -9.376 -35.749  19.234  1.00  0.00     0.289 C 
HETATM   19  C6  UNL     1      -8.722 -36.520  20.284  1.00  0.00     0.233 C 
HETATM   20  O4  UNL     1      -8.994 -35.899  18.035  1.00  0.00    -0.262 OA
HETATM   21  O3  UNL     1      -8.212 -37.769  19.847  1.00  0.00    -0.336 OA
HETATM   22  C26 UNL     1      -9.694 -36.790  21.398  1.00  0.00     0.038 C 
HETATM   23  C5  UNL     1      -7.789 -38.718  20.744  1.00  0.00     0.085 C 
HETATM   24  C2  UNL     1      -6.697 -39.452  20.631  1.00  0.00     0.018 C 
HETATM   25  C28 UNL     1      -8.681 -38.906  21.948  1.00  0.00     0.175 C 
HETATM   26  C1  UNL     1      -6.393 -40.449  21.719  1.00  0.00     0.055 C 
HETATM   27  C27 UNL     1      -8.956 -37.497  22.483  1.00  0.00     0.047 C 
HETATM   28  C23 UNL     1     -11.307 -35.912  22.986  1.00  0.00     0.012 C 
HETATM   29  C25 UNL     1      -9.472 -34.472  22.249  1.00  0.00     0.018 C 
HETATM   30  C22 UNL     1     -12.545 -35.086  23.092  1.00  0.00     0.002 C 
HETATM   31  C21 UNL     1     -12.430 -33.790  22.362  1.00  0.00     0.022 C 
HETATM   32  C10 UNL     1     -13.611 -34.541  20.374  1.00  0.00     0.029 C 
BRANCH  24  33
HETATM   33  C3  UNL     1      -5.756 -39.379  19.540  1.00  0.00     0.180 C 
HETATM   34  O1  UNL     1      -5.462 -40.376  18.847  1.00  0.00    -0.290 OA
BRANCH  33  35
HETATM   35  C4  UNL     1      -5.112 -38.087  19.220  1.00  0.00     0.247 C 
BRANCH  35  36
HETATM   36  O2  UNL     1      -5.761 -37.446  18.152  1.00  0.00    -0.393 OA
ATOM     37  H2  UNL     1      -5.603 -37.900  17.333  1.00  0.00     0.209 HD
ENDBRANCH  35  36
ENDBRANCH  33  35
ENDBRANCH  24  33
BRANCH  25  38
HETATM   38  O8  UNL     1      -9.895 -39.369  21.451  1.00  0.00    -0.389 OA
ATOM     39  H8  UNL     1     -10.208 -40.005  22.084  1.00  0.00     0.210 HD
ENDBRANCH  25  38
ENDBRANCH  12  14
ENDBRANCH  11  12
ENDBRANCH   9  11
ENDBRANCH   1   9
TORSDOF 10
ENDMDL
MODEL 4
REMARK VINA RESULT: -8.084790071      3.550      6.324
REMARK  10 active torsions:
REMARK  status: ('A' for Active; 'I' for Inactive)
REMARK    1  A    between atoms: C2_2  and  C3_3 
REMARK    2  A    between atoms: C3_3  and  C4_5 
REMARK    3  A    between atoms: C4_5  and  O2_6 
REMARK    4  A    between atoms: C9_15  and  C11_17 
REMARK    5  A    between atoms: C11_17  and  O7_19 
REMARK    6  A    between atoms: O7_19  and  C12_20 
REMARK    7  A    between atoms: C12_20  and  C14_22 
REMARK    8  A    between atoms: C15_23  and  C17_26 
REMARK    9  A    between atoms: C17_26  and  C18_27 
REMARK   10  A    between atoms: C28_37  and  O8_38 
ROOT
HETATM    1  C14 UNL     1     -10.740 -31.097  22.825  1.00  0.00     0.023 C 
HETATM    2  C15 UNL     1     -10.445 -30.079  23.585  1.00  0.00     0.021 C 
HETATM    3  C16 UNL     1     -11.539 -29.441  24.285  1.00  0.00     0.095 C 
HETATM    4  N1  UNL     1     -12.446 -28.934  24.826  1.00  0.00    -0.192 NA
ENDROOT
BRANCH   2   5
HETATM    5  C17 UNL     1      -9.099 -29.559  23.733  1.00  0.00     0.053 C 
BRANCH   5   6
HETATM    6  C18 UNL     1      -8.422 -30.027  24.981  1.00  0.00    -0.018 C 
HETATM    7  C19 UNL     1      -7.149 -30.804  24.576  1.00  0.00     0.010 C 
HETATM    8  C20 UNL     1      -7.981 -28.936  25.906  1.00  0.00     0.010 C 
ENDBRANCH   5   6
ENDBRANCH   2   5
BRANCH   1   9
HETATM    9  C12 UNL     1      -9.830 -31.909  22.017  1.00  0.00     0.151 C 
HETATM   10  C13 UNL     1      -9.933 -31.532  20.559  1.00  0.00     0.044 C 
BRANCH   9  11
HETATM   11  O7  UNL     1     -10.158 -33.280  22.154  1.00  0.00    -0.312 OA
BRANCH  11  12
HETATM   12  C11 UNL     1      -9.236 -34.242  22.517  1.00  0.00     0.270 C 
HETATM   13  O6  UNL     1      -8.347 -33.898  23.334  1.00  0.00    -0.264 OA
BRANCH  12  14
HETATM   14  C9  UNL     1      -9.358 -35.588  21.926  1.00  0.00     0.072 C 
HETATM   15  C8  UNL     1     -10.681 -36.241  22.115  1.00  0.00     0.158 C 
HETATM   16  O5  UNL     1     -11.515 -35.588  23.028  1.00  0.00    -0.312 OA
HETATM   17  C24 UNL     1     -11.451 -36.424  20.808  1.00  0.00    -0.009 C 
HETATM   18  C7  UNL     1     -12.803 -36.038  23.221  1.00  0.00     0.289 C 
HETATM   19  C6  UNL     1     -13.554 -36.626  22.118  1.00  0.00     0.233 C 
HETATM   20  O4  UNL     1     -13.355 -35.946  24.358  1.00  0.00    -0.262 OA
HETATM   21  O3  UNL     1     -14.517 -37.585  22.526  1.00  0.00    -0.336 OA
HETATM   22  C26 UNL     1     -12.612 -37.306  21.166  1.00  0.00     0.038 C 
HETATM   23  C5  UNL     1     -15.135 -38.405  21.616  1.00  0.00     0.085 C 
HETATM   24  C2  UNL     1     -16.419 -38.710  21.600  1.00  0.00     0.018 C 
HETATM   25  C28 UNL     1     -14.227 -38.988  20.558  1.00  0.00     0.175 C 
HETATM   26  C1  UNL     1     -16.919 -39.632  20.519  1.00  0.00     0.055 C 
HETATM   27  C27 UNL     1     -13.414 -37.809  20.015  1.00  0.00     0.047 C 
HETATM   28  C23 UNL     1     -10.615 -37.170  19.791  1.00  0.00     0.012 C 
HETATM   29  C25 UNL     1     -11.905 -35.133  20.203  1.00  0.00     0.018 C 
HETATM   30  C22 UNL     1      -9.164 -36.828  19.830  1.00  0.00     0.002 C 
HETATM   31  C21 UNL     1      -8.905 -35.514  20.487  1.00  0.00     0.022 C 
HETATM   32  C10 UNL     1      -8.309 -36.450  22.649  1.00  0.00     0.029 C 
BRANCH  24  33
HETATM   33  C3  UNL     1     -17.399 -38.227  22.542  1.00  0.00     0.180 C 
HETATM   34  O1  UNL     1     -18.264 -38.976  23.044  1.00  0.00    -0.290 OA
BRANCH  33  35
HETATM   35  C4  UNL     1     -17.389 -36.802  22.936  1.00  0.00     0.247 C 
BRANCH  35  36
HETATM   36  O2  UNL     1     -16.584 -36.594  24.067  1.00  0.00    -0.393 OA
ATOM     37  H2  UNL     1     -16.017 -37.340  24.227  1.00  0.00     0.209 HD
ENDBRANCH  35  36
ENDBRANCH  33  35
ENDBRANCH  24  33
BRANCH  25  38
HETATM   38  O8  UNL     1     -13.321 -39.794  21.241  1.00  0.00    -0.389 OA
ATOM     39  H8  UNL     1     -13.028 -40.443  20.612  1.00  0.00     0.210 HD
ENDBRANCH  25  38
ENDBRANCH  12  14
ENDBRANCH  11  12
ENDBRANCH   9  11
ENDBRANCH   1   9
TORSDOF 10
ENDMDL
MODEL 5
REMARK VINA RESULT: -7.735723259      1.018      2.082
REMARK  10 active torsions:
REMARK  status: ('A' for Active; 'I' for Inactive)
REMARK    1  A    between atoms: C2_2  and  C3_3 
REMARK    2  A    between atoms: C3_3  and  C4_5 
REMARK    3  A    between atoms: C4_5  and  O2_6 
REMARK    4  A    between atoms: C9_15  and  C11_17 
REMARK    5  A    between atoms: C11_17  and  O7_19 
REMARK    6  A    between atoms: O7_19  and  C12_20 
REMARK    7  A    between atoms: C12_20  and  C14_22 
REMARK    8  A    between atoms: C15_23  and  C17_26 
REMARK    9  A    between atoms: C17_26  and  C18_27 
REMARK   10  A    between atoms: C28_37  and  O8_38 
ROOT
HETATM    1  C14 UNL     1     -10.383 -30.530  22.566  1.00  0.00     0.023 C 
HETATM    2  C15 UNL     1      -9.381 -30.461  23.398  1.00  0.00     0.021 C 
HETATM    3  C16 UNL     1      -9.581 -29.690  24.606  1.00  0.00     0.095 C 
HETATM    4  N1  UNL     1      -9.765 -29.047  25.567  1.00  0.00    -0.192 NA
ENDROOT
BRANCH   2   5
HETATM    5  C17 UNL     1      -8.097 -31.090  23.153  1.00  0.00     0.053 C 
BRANCH   5   6
HETATM    6  C18 UNL     1      -7.365 -31.438  24.410  1.00  0.00    -0.018 C 
HETATM    7  C19 UNL     1      -6.891 -32.906  24.301  1.00  0.00     0.010 C 
HETATM    8  C20 UNL     1      -6.145 -30.614  24.677  1.00  0.00     0.010 C 
ENDBRANCH   5   6
ENDBRANCH   2   5
BRANCH   1   9
HETATM    9  C12 UNL     1     -10.441 -31.236  21.286  1.00  0.00     0.151 C 
HETATM   10  C13 UNL     1     -10.081 -30.308  20.150  1.00  0.00     0.044 C 
BRANCH   9  11
HETATM   11  O7  UNL     1     -11.749 -31.731  21.068  1.00  0.00    -0.312 OA
BRANCH  11  12
HETATM   12  C11 UNL     1     -12.016 -32.827  20.271  1.00  0.00     0.270 C 
HETATM   13  O6  UNL     1     -12.025 -32.638  19.029  1.00  0.00    -0.264 OA
BRANCH  12  14
HETATM   14  C9  UNL     1     -12.270 -34.124  20.925  1.00  0.00     0.072 C 
HETATM   15  C8  UNL     1     -11.277 -35.189  20.617  1.00  0.00     0.158 C 
HETATM   16  O5  UNL     1     -10.404 -34.872  19.572  1.00  0.00    -0.312 OA
HETATM   17  C24 UNL     1     -10.443 -35.598  21.831  1.00  0.00    -0.009 C 
HETATM   18  C7  UNL     1      -9.377 -35.733  19.253  1.00  0.00     0.289 C 
HETATM   19  C6  UNL     1      -8.723 -36.521  20.291  1.00  0.00     0.233 C 
HETATM   20  O4  UNL     1      -8.984 -35.853  18.054  1.00  0.00    -0.262 OA
HETATM   21  O3  UNL     1      -8.197 -37.755  19.830  1.00  0.00    -0.336 OA
HETATM   22  C26 UNL     1      -9.701 -36.826  21.391  1.00  0.00     0.038 C 
HETATM   23  C5  UNL     1      -7.771 -38.720  20.708  1.00  0.00     0.085 C 
HETATM   24  C2  UNL     1      -6.671 -39.440  20.588  1.00  0.00     0.018 C 
HETATM   25  C28 UNL     1      -8.670 -38.944  21.901  1.00  0.00     0.175 C 
HETATM   26  C1  UNL     1      -6.365 -40.457  21.655  1.00  0.00     0.055 C 
HETATM   27  C27 UNL     1      -8.964 -37.550  22.465  1.00  0.00     0.047 C 
HETATM   28  C23 UNL     1     -11.335 -36.000  22.985  1.00  0.00     0.012 C 
HETATM   29  C25 UNL     1      -9.509 -34.525  22.295  1.00  0.00     0.018 C 
HETATM   30  C22 UNL     1     -12.582 -35.190  23.101  1.00  0.00     0.002 C 
HETATM   31  C21 UNL     1     -12.475 -33.877  22.400  1.00  0.00     0.022 C 
HETATM   32  C10 UNL     1     -13.633 -34.594  20.387  1.00  0.00     0.029 C 
BRANCH  24  33
HETATM   33  C3  UNL     1      -5.723 -39.333  19.506  1.00  0.00     0.180 C 
HETATM   34  O1  UNL     1      -5.416 -40.311  18.791  1.00  0.00    -0.290 OA
BRANCH  33  35
HETATM   35  C4  UNL     1      -5.086 -38.028  19.223  1.00  0.00     0.247 C 
BRANCH  35  36
HETATM   36  O2  UNL     1      -5.700 -37.390  18.133  1.00  0.00    -0.393 OA
ATOM     37  H2  UNL     1      -5.701 -37.948  17.364  1.00  0.00     0.209 HD
ENDBRANCH  35  36
ENDBRANCH  33  35
ENDBRANCH  24  33
BRANCH  25  38
HETATM   38  O8  UNL     1      -9.875 -39.408  21.384  1.00  0.00    -0.389 OA
ATOM     39  H8  UNL     1     -10.493 -39.381  22.105  1.00  0.00     0.210 HD
ENDBRANCH  25  38
ENDBRANCH  12  14
ENDBRANCH  11  12
ENDBRANCH   9  11
ENDBRANCH   1   9
TORSDOF 10
ENDMDL
