MODEL 1
REMARK VINA RESULT: -7.911963597      0.000      0.000
REMARK  2 active torsions:
REMARK  status: ('A' for Active; 'I' for Inactive)
REMARK    1  A    between atoms: N1_2  and  N2_3 
REMARK    2  A    between atoms: C2_4  and  O1_5 
ROOT
HETATM    1  N2  UNL     1      -8.205  -8.509  19.462  1.00  0.00    -0.241 N 
HETATM    2  C2  UNL     1      -9.188  -9.316  20.096  1.00  0.00     0.249 C 
HETATM    3  N3  UNL     1      -9.068 -10.555  19.799  1.00  0.00    -0.330 N 
ATOM      4  H3  UNL     1      -9.672 -11.299  20.146  1.00  0.00     0.165 HD
HETATM    5  C3  UNL     1      -7.980 -10.740  18.922  1.00  0.00     0.220 C 
HETATM    6  N4  UNL     1      -8.311 -11.521  17.727  1.00  0.00    -0.352 N 
ATOM      7  H4  UNL     1      -9.241 -11.931  17.648  1.00  0.00     0.163 HD
HETATM    8  C4  UNL     1      -7.365 -11.726  16.662  1.00  0.00     0.119 A 
HETATM    9  N5  UNL     1      -7.958 -12.308  15.599  1.00  0.00    -0.294 N 
ATOM     10  H5  UNL     1      -8.951 -12.536  15.638  1.00  0.00     0.172 HD
HETATM   11  C5  UNL     1      -7.258 -12.589  14.495  1.00  0.00     0.330 A 
HETATM   12  O2  UNL     1      -7.851 -13.138  13.512  1.00  0.00    -0.246 OA
HETATM   13  N6  UNL     1      -5.938 -12.314  14.376  1.00  0.00    -0.270 N 
HETATM   14  C6  UNL     1      -5.272 -12.658  13.140  1.00  0.00     0.164 C 
HETATM   15  C7  UNL     1      -5.328 -11.736  15.421  1.00  0.00     0.262 A 
HETATM   16  O3  UNL     1      -4.091 -11.469  15.331  1.00  0.00    -0.267 OA
HETATM   17  C8  UNL     1      -6.021 -11.433  16.574  1.00  0.00     0.063 A 
HETATM   18  C9  UNL     1      -5.193 -10.800  17.624  1.00  0.00     0.124 C 
HETATM   19  S2  UNL     1      -5.897  -9.227  18.207  1.00  0.00    -0.133 SA
HETATM   20  C10 UNL     1      -7.665  -9.344  18.424  1.00  0.00     0.211 C 
ENDROOT
BRANCH   1  21
HETATM   21  N1  UNL     1      -7.902  -7.202  19.839  1.00  0.00    -0.139 NA
HETATM   22  C1  UNL     1      -6.704  -7.133  20.640  1.00  0.00     0.159 C 
ENDBRANCH   1  21
BRANCH   2  23
HETATM   23  O1  UNL     1     -10.201  -8.859  20.961  1.00  0.00    -0.231 OA
HETATM   24  S1  UNL     1     -11.798  -8.508  20.393  1.00  0.00     0.103 SA
ENDBRANCH   2  23
TORSDOF 2
ENDMDL
MODEL 2
REMARK VINA RESULT: -6.489195575      4.852      7.376
REMARK  2 active torsions:
REMARK  status: ('A' for Active; 'I' for Inactive)
REMARK    1  A    between atoms: N1_2  and  N2_3 
REMARK    2  A    between atoms: C2_4  and  O1_5 
ROOT
HETATM    1  N2  UNL     1     -10.150  -9.082  20.474  1.00  0.00    -0.241 N 
HETATM    2  C2  UNL     1      -8.771  -8.827  20.245  1.00  0.00     0.249 C 
HETATM    3  N3  UNL     1      -8.046  -9.866  20.423  1.00  0.00    -0.330 N 
ATOM      4  H3  UNL     1      -7.033  -9.898  20.312  1.00  0.00     0.165 HD
HETATM    5  C3  UNL     1      -8.853 -10.961  20.795  1.00  0.00     0.220 C 
HETATM    6  N4  UNL     1      -8.381 -11.662  21.993  1.00  0.00    -0.352 N 
ATOM      7  H4  UNL     1      -7.497 -11.378  22.414  1.00  0.00     0.163 HD
HETATM    8  C4  UNL     1      -9.127 -12.737  22.593  1.00  0.00     0.119 A 
HETATM    9  N5  UNL     1      -8.591 -13.088  23.780  1.00  0.00    -0.294 N 
ATOM     10  H5  UNL     1      -7.765 -12.600  24.125  1.00  0.00     0.172 HD
HETATM   11  C5  UNL     1      -9.130 -14.071  24.510  1.00  0.00     0.330 A 
HETATM   12  O2  UNL     1      -8.597 -14.375  25.624  1.00  0.00    -0.246 OA
HETATM   13  N6  UNL     1     -10.225 -14.760  24.111  1.00  0.00    -0.270 N 
HETATM   14  C6  UNL     1     -10.731 -15.805  24.973  1.00  0.00     0.164 C 
HETATM   15  C7  UNL     1     -10.774 -14.427  22.935  1.00  0.00     0.262 A 
HETATM   16  O3  UNL     1     -11.801 -15.061  22.543  1.00  0.00    -0.267 OA
HETATM   17  C8  UNL     1     -10.243 -13.419  22.158  1.00  0.00     0.063 A 
HETATM   18  C9  UNL     1     -10.974 -13.187  20.893  1.00  0.00     0.124 C 
HETATM   19  S2  UNL     1     -11.477 -11.450  20.695  1.00  0.00    -0.133 SA
HETATM   20  C10 UNL     1     -10.175 -10.331  21.184  1.00  0.00     0.211 C 
ENDROOT
BRANCH   1  21
HETATM   21  N1  UNL     1     -11.181  -8.242  20.059  1.00  0.00    -0.139 NA
HETATM   22  C1  UNL     1     -11.808  -7.565  21.169  1.00  0.00     0.159 C 
ENDBRANCH   1  21
BRANCH   2  23
HETATM   23  O1  UNL     1      -8.209  -7.592  19.865  1.00  0.00    -0.231 OA
HETATM   24  S1  UNL     1      -6.595  -7.150  20.304  1.00  0.00     0.103 SA
ENDBRANCH   2  23
TORSDOF 2
ENDMDL
MODEL 3
REMARK VINA RESULT: -6.417031149      4.619      7.213
REMARK  2 active torsions:
REMARK  status: ('A' for Active; 'I' for Inactive)
REMARK    1  A    between atoms: N1_2  and  N2_3 
REMARK    2  A    between atoms: C2_4  and  O1_5 
ROOT
HETATM    1  N2  UNL     1      -8.321  -9.587  20.234  1.00  0.00    -0.241 N 
HETATM    2  C2  UNL     1      -6.906  -9.523  20.343  1.00  0.00     0.249 C 
HETATM    3  N3  UNL     1      -6.396 -10.627  20.741  1.00  0.00    -0.330 N 
ATOM      4  H3  UNL     1      -5.400 -10.792  20.886  1.00  0.00     0.165 HD
HETATM    5  C3  UNL     1      -7.412 -11.582  20.952  1.00  0.00     0.220 C 
HETATM    6  N4  UNL     1      -7.343 -12.239  22.259  1.00  0.00    -0.352 N 
ATOM      7  H4  UNL     1      -6.555 -12.035  22.873  1.00  0.00     0.163 HD
HETATM    8  C4  UNL     1      -8.352 -13.164  22.704  1.00  0.00     0.119 A 
HETATM    9  N5  UNL     1      -8.170 -13.486  24.001  1.00  0.00    -0.294 N 
ATOM     10  H5  UNL     1      -7.391 -13.078  24.517  1.00  0.00     0.172 HD
HETATM   11  C5  UNL     1      -8.999 -14.334  24.618  1.00  0.00     0.330 A 
HETATM   12  O2  UNL     1      -8.796 -14.615  25.843  1.00  0.00    -0.246 OA
HETATM   13  N6  UNL     1     -10.052 -14.912  23.993  1.00  0.00    -0.270 N 
HETATM   14  C6  UNL     1     -10.890 -15.816  24.749  1.00  0.00     0.164 C 
HETATM   15  C7  UNL     1     -10.252 -14.607  22.704  1.00  0.00     0.262 A 
HETATM   16  O3  UNL     1     -11.233 -15.137  22.098  1.00  0.00    -0.267 OA
HETATM   17  C8  UNL     1      -9.415 -13.736  22.038  1.00  0.00     0.063 A 
HETATM   18  C9  UNL     1      -9.783 -13.513  20.622  1.00  0.00     0.124 C 
HETATM   19  S2  UNL     1      -9.978 -11.748  20.227  1.00  0.00    -0.133 SA
HETATM   20  C10 UNL     1      -8.688 -10.765  20.972  1.00  0.00     0.211 C 
ENDROOT
BRANCH   1  21
HETATM   21  N1  UNL     1      -9.096  -8.660  19.540  1.00  0.00    -0.139 NA
HETATM   22  C1  UNL     1     -10.249  -8.242  20.299  1.00  0.00     0.159 C 
ENDBRANCH   1  21
BRANCH   2  23
HETATM   23  O1  UNL     1      -6.104  -8.401  20.059  1.00  0.00    -0.231 OA
HETATM   24  S1  UNL     1      -6.526  -6.814  20.604  1.00  0.00     0.103 SA
ENDBRANCH   2  23
TORSDOF 2
ENDMDL
MODEL 4
REMARK VINA RESULT: -6.188829939      4.865      7.409
REMARK  2 active torsions:
REMARK  status: ('A' for Active; 'I' for Inactive)
REMARK    1  A    between atoms: N1_2  and  N2_3 
REMARK    2  A    between atoms: C2_4  and  O1_5 
ROOT
HETATM    1  N2  UNL     1      -9.694 -15.665  21.079  1.00  0.00    -0.241 N 
HETATM    2  C2  UNL     1      -8.934 -16.143  22.181  1.00  0.00     0.249 C 
HETATM    3  N3  UNL     1      -8.486 -15.194  22.914  1.00  0.00    -0.330 N 
ATOM      4  H3  UNL     1      -7.918 -15.320  23.751  1.00  0.00     0.165 HD
HETATM    5  C3  UNL     1      -8.893 -13.948  22.394  1.00  0.00     0.220 C 
HETATM    6  N4  UNL     1      -7.797 -12.989  22.233  1.00  0.00    -0.352 N 
ATOM      7  H4  UNL     1      -6.867 -13.242  22.567  1.00  0.00     0.163 HD
HETATM    8  C4  UNL     1      -7.991 -11.702  21.618  1.00  0.00     0.119 A 
HETATM    9  N5  UNL     1      -6.810 -11.085  21.413  1.00  0.00    -0.294 N 
ATOM     10  H5  UNL     1      -5.944 -11.547  21.691  1.00  0.00     0.172 HD
HETATM   11  C5  UNL     1      -6.759  -9.873  20.851  1.00  0.00     0.330 A 
HETATM   12  O2  UNL     1      -5.627  -9.321  20.673  1.00  0.00    -0.246 OA
HETATM   13  N6  UNL     1      -7.868  -9.203  20.459  1.00  0.00    -0.270 N 
HETATM   14  C6  UNL     1      -7.707  -7.897  19.859  1.00  0.00     0.164 C 
HETATM   15  C7  UNL     1      -9.054  -9.798  20.652  1.00  0.00     0.262 A 
HETATM   16  O3  UNL     1     -10.106  -9.187  20.292  1.00  0.00    -0.267 OA
HETATM   17  C8  UNL     1      -9.141 -11.047  21.230  1.00  0.00     0.063 A 
HETATM   18  C9  UNL     1     -10.525 -11.551  21.368  1.00  0.00     0.124 C 
HETATM   19  S2  UNL     1     -10.741 -13.194  20.618  1.00  0.00    -0.133 SA
HETATM   20  C10 UNL     1      -9.365 -14.269  20.991  1.00  0.00     0.211 C 
ENDROOT
BRANCH   1  21
HETATM   21  N1  UNL     1     -10.547 -16.458  20.314  1.00  0.00    -0.139 NA
HETATM   22  C1  UNL     1      -9.910 -16.931  19.109  1.00  0.00     0.159 C 
ENDBRANCH   1  21
BRANCH   2  23
HETATM   23  O1  UNL     1      -8.671 -17.493  22.481  1.00  0.00    -0.231 OA
HETATM   24  S1  UNL     1      -7.339 -18.344  21.775  1.00  0.00     0.103 SA
ENDBRANCH   2  23
TORSDOF 2
ENDMDL
MODEL 5
REMARK VINA RESULT: -6.177918034      3.792      7.266
REMARK  2 active torsions:
REMARK  status: ('A' for Active; 'I' for Inactive)
REMARK    1  A    between atoms: N1_2  and  N2_3 
REMARK    2  A    between atoms: C2_4  and  O1_5 
ROOT
HETATM    1  N2  UNL     1      -7.524  -9.206  19.654  1.00  0.00    -0.241 N 
HETATM    2  C2  UNL     1      -6.616 -10.067  18.982  1.00  0.00     0.249 C 
HETATM    3  N3  UNL     1      -6.882 -11.304  19.175  1.00  0.00    -0.330 N 
ATOM      4  H3  UNL     1      -6.354 -12.083  18.784  1.00  0.00     0.165 HD
HETATM    5  C3  UNL     1      -8.014 -11.432  20.006  1.00  0.00     0.220 C 
HETATM    6  N4  UNL     1      -7.813 -12.336  21.142  1.00  0.00    -0.352 N 
ATOM      7  H4  UNL     1      -6.938 -12.854  21.211  1.00  0.00     0.163 HD
HETATM    8  C4  UNL     1      -8.812 -12.514  22.162  1.00  0.00     0.119 A 
HETATM    9  N5  UNL     1      -8.325 -13.240  23.189  1.00  0.00    -0.294 N 
ATOM     10  H5  UNL     1      -7.362 -13.576  23.157  1.00  0.00     0.172 HD
HETATM   11  C5  UNL     1      -9.089 -13.525  24.249  1.00  0.00     0.330 A 
HETATM   12  O2  UNL     1      -8.595 -14.212  25.199  1.00  0.00    -0.246 OA
HETATM   13  N6  UNL     1     -10.374 -13.112  24.356  1.00  0.00    -0.270 N 
HETATM   14  C6  UNL     1     -11.116 -13.473  25.543  1.00  0.00     0.164 C 
HETATM   15  C7  UNL     1     -10.879 -12.389  23.346  1.00  0.00     0.262 A 
HETATM   16  O3  UNL     1     -12.082 -11.991  23.426  1.00  0.00    -0.267 OA
HETATM   17  C8  UNL     1     -10.118 -12.078  22.239  1.00  0.00     0.063 A 
HETATM   18  C9  UNL     1     -10.834 -11.276  21.224  1.00  0.00     0.124 C 
HETATM   19  S2  UNL     1      -9.939  -9.753  20.788  1.00  0.00    -0.133 SA
HETATM   20  C10 UNL     1      -8.188 -10.052  20.607  1.00  0.00     0.211 C 
ENDROOT
BRANCH   1  21
HETATM   21  N1  UNL     1      -7.667  -7.848  19.377  1.00  0.00    -0.139 NA
HETATM   22  C1  UNL     1      -6.793  -7.035  20.187  1.00  0.00     0.159 C 
ENDBRANCH   1  21
BRANCH   2  23
HETATM   23  O1  UNL     1      -5.528  -9.663  18.183  1.00  0.00    -0.231 OA
HETATM   24  S1  UNL     1      -4.963 -10.620  16.857  1.00  0.00     0.103 SA
ENDBRANCH   2  23
TORSDOF 2
ENDMDL
