MODEL 1
REMARK VINA RESULT: -7.558158179      0.000      0.000
REMARK  4 active torsions:
REMARK  status: ('A' for Active; 'I' for Inactive)
REMARK    1  A    between atoms: C2_2  and  O2_4 
REMARK    2  A    between atoms: O2_4  and  C3_5 
REMARK    3  A    between atoms: C9_21  and  N6_22 
REMARK    4  A    between atoms: N7_27  and  O4_28 
ROOT
HETATM    1  C3  UNL     1      -7.405  -9.363  19.269  1.00  0.00     0.229 C 
HETATM    2  C4  UNL     1      -6.299  -8.393  19.036  1.00  0.00     0.205 C 
HETATM    3  N1  UNL     1      -5.163  -9.017  19.681  1.00  0.00    -0.136 NA
HETATM    4  N2  UNL     1      -5.670  -9.897  20.626  1.00  0.00    -0.301 N 
ATOM      5  H2  UNL     1      -5.115 -10.313  21.373  1.00  0.00     0.182 HD
HETATM    6  C5  UNL     1      -6.907 -10.125  20.449  1.00  0.00     0.109 C 
HETATM    7  C6  UNL     1      -7.920 -10.912  21.138  1.00  0.00     0.078 A 
HETATM    8  N3  UNL     1      -7.617 -11.980  21.888  1.00  0.00    -0.332 N 
ATOM      9  H3  UNL     1      -6.642 -12.265  21.989  1.00  0.00     0.168 HD
HETATM   10  C7  UNL     1      -8.600 -12.695  22.523  1.00  0.00     0.177 A 
HETATM   11  S1  UNL     1      -8.569 -14.075  23.533  1.00  0.00     0.011 SA
HETATM   12  C8  UNL     1     -10.245 -14.191  23.803  1.00  0.00     0.306 A 
HETATM   13  O3  UNL     1     -10.911 -15.041  24.501  1.00  0.00    -0.258 OA
HETATM   14  N4  UNL     1     -10.726 -13.169  23.105  1.00  0.00    -0.250 N 
ATOM     15  H4  UNL     1     -11.729 -12.982  23.079  1.00  0.00     0.191 HD
HETATM   16  N5  UNL     1      -9.895 -12.411  22.456  1.00  0.00    -0.213 N 
HETATM   17  C9  UNL     1     -10.244 -11.318  21.692  1.00  0.00     0.137 A 
HETATM   18  C10 UNL     1      -9.256 -10.596  21.054  1.00  0.00     0.056 A 
HETATM   19  C11 UNL     1      -9.634  -9.410  20.235  1.00  0.00     0.138 C 
HETATM   20  N7  UNL     1      -8.625  -8.680  19.629  1.00  0.00    -0.227 N 
ENDROOT
BRANCH   1  21
HETATM   21  O2  UNL     1      -7.666 -10.090  18.136  1.00  0.00    -0.280 OA
BRANCH  21  22
HETATM   22  C2  UNL     1      -6.867 -10.464  17.095  1.00  0.00     0.257 C 
HETATM   23  C1  UNL     1      -6.070 -11.733  17.217  1.00  0.00     0.126 C 
HETATM   24  O1  UNL     1      -6.822  -9.754  16.091  1.00  0.00    -0.266 OA
ENDBRANCH  21  22
ENDBRANCH   1  21
BRANCH  20  25
HETATM   25  O4  UNL     1      -8.499  -7.402  19.895  1.00  0.00    -0.285 OA
ATOM     26  H4  UNL     1      -7.648  -7.134  20.223  1.00  0.00     0.245 HD
ENDBRANCH  20  25
BRANCH  17  27
HETATM   27  N6  UNL     1     -11.460 -10.946  21.550  1.00  0.00    -0.383 N 
ATOM     28  H62 UNL     1     -11.656  -9.952  21.434  1.00  0.00     0.157 HD
ATOM     29  H61 UNL     1     -12.234 -11.611  21.548  1.00  0.00     0.157 HD
ENDBRANCH  17  27
TORSDOF 4
ENDMDL
MODEL 2
REMARK VINA RESULT: -7.208907718      3.748      6.284
REMARK  4 active torsions:
REMARK  status: ('A' for Active; 'I' for Inactive)
REMARK    1  A    between atoms: C2_2  and  O2_4 
REMARK    2  A    between atoms: O2_4  and  C3_5 
REMARK    3  A    between atoms: C9_21  and  N6_22 
REMARK    4  A    between atoms: N7_27  and  O4_28 
ROOT
HETATM    1  C3  UNL     1      -6.972  -8.487  19.921  1.00  0.00     0.229 C 
HETATM    2  C4  UNL     1      -7.818  -7.423  20.531  1.00  0.00     0.205 C 
HETATM    3  N1  UNL     1      -9.155  -7.761  20.088  1.00  0.00    -0.136 NA
HETATM    4  N2  UNL     1      -9.016  -8.533  18.943  1.00  0.00    -0.301 N 
ATOM      5  H2  UNL     1      -9.777  -8.734  18.295  1.00  0.00     0.182 HD
HETATM    6  C5  UNL     1      -7.829  -8.960  18.798  1.00  0.00     0.109 C 
HETATM    7  C6  UNL     1      -7.133  -9.756  17.795  1.00  0.00     0.078 A 
HETATM    8  N3  UNL     1      -7.768 -10.628  17.000  1.00  0.00    -0.332 N 
ATOM      9  H3  UNL     1      -8.777 -10.750  17.090  1.00  0.00     0.168 HD
HETATM   10  C7  UNL     1      -7.078 -11.358  16.067  1.00  0.00     0.177 A 
HETATM   11  S1  UNL     1      -7.558 -12.529  14.916  1.00  0.00     0.011 SA
HETATM   12  C8  UNL     1      -6.021 -12.835  14.254  1.00  0.00     0.306 A 
HETATM   13  O3  UNL     1      -5.673 -13.641  13.314  1.00  0.00    -0.258 OA
HETATM   14  N4  UNL     1      -5.235 -12.024  14.952  1.00  0.00    -0.250 N 
ATOM     15  H4  UNL     1      -4.231 -11.989  14.771  1.00  0.00     0.191 HD
HETATM   16  N5  UNL     1      -5.768 -11.276  15.870  1.00  0.00    -0.213 N 
HETATM   17  C9  UNL     1      -5.082 -10.388  16.672  1.00  0.00     0.137 A 
HETATM   18  C10 UNL     1      -5.774  -9.652  17.610  1.00  0.00     0.056 A 
HETATM   19  C11 UNL     1      -5.033  -8.687  18.471  1.00  0.00     0.138 C 
HETATM   20  N7  UNL     1      -5.752  -7.934  19.385  1.00  0.00    -0.227 N 
ENDROOT
BRANCH   1  21
HETATM   21  O2  UNL     1      -6.616  -9.424  20.857  1.00  0.00    -0.280 OA
BRANCH  21  22
HETATM   22  C2  UNL     1      -6.907 -10.752  20.968  1.00  0.00     0.257 C 
HETATM   23  C1  UNL     1      -8.233 -11.154  21.550  1.00  0.00     0.126 C 
HETATM   24  O1  UNL     1      -6.078 -11.579  20.589  1.00  0.00    -0.266 OA
ENDBRANCH  21  22
ENDBRANCH   1  21
BRANCH  20  25
HETATM   25  O4  UNL     1      -5.704  -6.624  19.328  1.00  0.00    -0.285 OA
ATOM     26  H4  UNL     1      -4.843  -6.253  19.169  1.00  0.00     0.245 HD
ENDBRANCH  20  25
BRANCH  17  27
HETATM   27  N6  UNL     1      -3.817 -10.223  16.577  1.00  0.00    -0.383 N 
ATOM     28  H62 UNL     1      -3.228 -11.043  16.430  1.00  0.00     0.157 HD
ATOM     29  H61 UNL     1      -3.383  -9.301  16.642  1.00  0.00     0.157 HD
ENDBRANCH  17  27
TORSDOF 4
ENDMDL
MODEL 3
REMARK VINA RESULT: -6.874093164      3.754      6.330
REMARK  4 active torsions:
REMARK  status: ('A' for Active; 'I' for Inactive)
REMARK    1  A    between atoms: C2_2  and  O2_4 
REMARK    2  A    between atoms: O2_4  and  C3_5 
REMARK    3  A    between atoms: C9_21  and  N6_22 
REMARK    4  A    between atoms: N7_27  and  O4_28 
ROOT
HETATM    1  C3  UNL     1      -8.094 -10.686  19.965  1.00  0.00     0.229 C 
HETATM    2  C4  UNL     1      -7.795 -10.531  21.417  1.00  0.00     0.205 C 
HETATM    3  N1  UNL     1      -6.398 -10.150  21.433  1.00  0.00    -0.136 NA
HETATM    4  N2  UNL     1      -5.847 -10.591  20.239  1.00  0.00    -0.301 N 
ATOM      5  H2  UNL     1      -4.844 -10.657  20.064  1.00  0.00     0.182 HD
HETATM    6  C5  UNL     1      -6.737 -10.905  19.390  1.00  0.00     0.109 C 
HETATM    7  C6  UNL     1      -6.729 -11.442  18.036  1.00  0.00     0.078 A 
HETATM    8  N3  UNL     1      -5.694 -11.278  17.202  1.00  0.00    -0.332 N 
ATOM      9  H3  UNL     1      -4.873 -10.758  17.513  1.00  0.00     0.168 HD
HETATM   10  C7  UNL     1      -5.723 -11.800  15.934  1.00  0.00     0.177 A 
HETATM   11  S1  UNL     1      -4.605 -11.781  14.640  1.00  0.00     0.011 SA
HETATM   12  C8  UNL     1      -5.535 -12.673  13.529  1.00  0.00     0.306 A 
HETATM   13  O3  UNL     1      -5.264 -13.026  12.322  1.00  0.00    -0.258 OA
HETATM   14  N4  UNL     1      -6.643 -12.930  14.214  1.00  0.00    -0.250 N 
ATOM     15  H4  UNL     1      -7.403 -13.464  13.792  1.00  0.00     0.191 HD
HETATM   16  N5  UNL     1      -6.740 -12.489  15.432  1.00  0.00    -0.213 N 
HETATM   17  C9  UNL     1      -7.824 -12.677  16.263  1.00  0.00     0.137 A 
HETATM   18  C10 UNL     1      -7.796 -12.153  17.539  1.00  0.00     0.056 A 
HETATM   19  C11 UNL     1      -8.965 -12.364  18.439  1.00  0.00     0.138 C 
HETATM   20  N7  UNL     1      -8.903 -11.858  19.726  1.00  0.00    -0.227 N 
ENDROOT
BRANCH   1  21
HETATM   21  O2  UNL     1      -8.795  -9.606  19.492  1.00  0.00    -0.280 OA
BRANCH  21  22
HETATM   22  C2  UNL     1      -9.161  -8.433  20.084  1.00  0.00     0.257 C 
HETATM   23  C1  UNL     1     -10.536  -8.323  20.679  1.00  0.00     0.126 C 
HETATM   24  O1  UNL     1      -8.356  -7.502  20.112  1.00  0.00    -0.266 OA
ENDBRANCH  21  22
ENDBRANCH   1  21
BRANCH  20  25
HETATM   25  O4  UNL     1      -9.039 -12.668  20.749  1.00  0.00    -0.285 OA
ATOM     26  H4  UNL     1      -8.823 -13.578  20.582  1.00  0.00     0.245 HD
ENDBRANCH  20  25
BRANCH  17  27
HETATM   27  N6  UNL     1      -8.864 -13.323  15.890  1.00  0.00    -0.383 N 
ATOM     28  H62 UNL     1      -9.218 -14.066  16.493  1.00  0.00     0.157 HD
ATOM     29  H61 UNL     1      -9.347 -13.116  15.016  1.00  0.00     0.157 HD
ENDBRANCH  17  27
TORSDOF 4
ENDMDL
MODEL 4
REMARK VINA RESULT: -6.722806226      3.935      5.427
REMARK  4 active torsions:
REMARK  status: ('A' for Active; 'I' for Inactive)
REMARK    1  A    between atoms: C2_2  and  O2_4 
REMARK    2  A    between atoms: O2_4  and  C3_5 
REMARK    3  A    between atoms: C9_21  and  N6_22 
REMARK    4  A    between atoms: N7_27  and  O4_28 
ROOT
HETATM    1  C3  UNL     1      -6.620  -9.600  18.667  1.00  0.00     0.229 C 
HETATM    2  C4  UNL     1      -5.300  -8.974  18.964  1.00  0.00     0.205 C 
HETATM    3  N1  UNL     1      -4.664  -8.901  17.665  1.00  0.00    -0.136 NA
HETATM    4  N2  UNL     1      -5.270  -9.858  16.865  1.00  0.00    -0.301 N 
ATOM      5  H2  UNL     1      -4.890 -10.182  15.976  1.00  0.00     0.182 HD
HETATM    6  C5  UNL     1      -6.355 -10.283  17.370  1.00  0.00     0.109 C 
HETATM    7  C6  UNL     1      -7.349 -11.279  16.992  1.00  0.00     0.078 A 
HETATM    8  N3  UNL     1      -7.552 -11.649  15.721  1.00  0.00    -0.332 N 
ATOM      9  H3  UNL     1      -6.996 -11.225  14.978  1.00  0.00     0.168 HD
HETATM   10  C7  UNL     1      -8.496 -12.591  15.405  1.00  0.00     0.177 A 
HETATM   11  S1  UNL     1      -9.004 -13.282  13.925  1.00  0.00     0.011 SA
HETATM   12  C8  UNL     1     -10.193 -14.321  14.560  1.00  0.00     0.306 A 
HETATM   13  O3  UNL     1     -10.973 -15.147  13.957  1.00  0.00    -0.258 OA
HETATM   14  N4  UNL     1     -10.129 -14.077  15.864  1.00  0.00    -0.250 N 
ATOM     15  H4  UNL     1     -10.742 -14.567  16.515  1.00  0.00     0.191 HD
HETATM   16  N5  UNL     1      -9.271 -13.202  16.293  1.00  0.00    -0.213 N 
HETATM   17  C9  UNL     1      -9.091 -12.845  17.612  1.00  0.00     0.137 A 
HETATM   18  C10 UNL     1      -8.140 -11.898  17.932  1.00  0.00     0.056 A 
HETATM   19  C11 UNL     1      -7.940 -11.518  19.359  1.00  0.00     0.138 C 
HETATM   20  N7  UNL     1      -6.958 -10.590  19.662  1.00  0.00    -0.227 N 
ENDROOT
BRANCH   1  21
HETATM   21  O2  UNL     1      -7.619  -8.660  18.673  1.00  0.00    -0.280 OA
BRANCH  21  22
HETATM   22  C2  UNL     1      -8.197  -7.958  19.690  1.00  0.00     0.257 C 
HETATM   23  C1  UNL     1      -9.512  -8.435  20.240  1.00  0.00     0.126 C 
HETATM   24  O1  UNL     1      -7.627  -6.958  20.125  1.00  0.00    -0.266 OA
ENDBRANCH  21  22
ENDBRANCH   1  21
BRANCH  20  25
HETATM   25  O4  UNL     1      -5.992 -10.912  20.489  1.00  0.00    -0.285 OA
ATOM     26  H4  UNL     1      -6.262 -11.103  21.380  1.00  0.00     0.245 HD
ENDBRANCH  20  25
BRANCH  17  27
HETATM   27  N6  UNL     1      -9.780 -13.362  18.559  1.00  0.00    -0.383 N 
ATOM     28  H62 UNL     1      -9.343 -13.476  19.474  1.00  0.00     0.157 HD
ATOM     29  H61 UNL     1     -10.746 -13.660  18.426  1.00  0.00     0.157 HD
ENDBRANCH  17  27
TORSDOF 4
ENDMDL
MODEL 5
REMARK VINA RESULT: -6.513072062      3.597      6.744
REMARK  4 active torsions:
REMARK  status: ('A' for Active; 'I' for Inactive)
REMARK    1  A    between atoms: C2_2  and  O2_4 
REMARK    2  A    between atoms: O2_4  and  C3_5 
REMARK    3  A    between atoms: C9_21  and  N6_22 
REMARK    4  A    between atoms: N7_27  and  O4_28 
ROOT
HETATM    1  C3  UNL     1      -8.619 -11.846  20.361  1.00  0.00     0.229 C 
HETATM    2  C4  UNL     1      -9.796 -11.445  21.184  1.00  0.00     0.205 C 
HETATM    3  N1  UNL     1     -10.926 -11.855  20.375  1.00  0.00    -0.136 NA
HETATM    4  N2  UNL     1     -10.476 -11.932  19.065  1.00  0.00    -0.301 N 
ATOM      5  H2  UNL     1     -11.092 -11.985  18.254  1.00  0.00     0.182 HD
HETATM    6  C5  UNL     1      -9.208 -11.928  18.995  1.00  0.00     0.109 C 
HETATM    7  C6  UNL     1      -8.234 -11.954  17.913  1.00  0.00     0.078 A 
HETATM    8  N3  UNL     1      -8.508 -12.474  16.709  1.00  0.00    -0.332 N 
ATOM      9  H3  UNL     1      -9.430 -12.871  16.529  1.00  0.00     0.168 HD
HETATM   10  C7  UNL     1      -7.564 -12.478  15.714  1.00  0.00     0.177 A 
HETATM   11  S1  UNL     1      -7.575 -13.045  14.100  1.00  0.00     0.011 SA
HETATM   12  C8  UNL     1      -5.980 -12.607  13.700  1.00  0.00     0.306 A 
HETATM   13  O3  UNL     1      -5.335 -12.758  12.597  1.00  0.00    -0.258 OA
HETATM   14  N4  UNL     1      -5.536 -12.055  14.824  1.00  0.00    -0.250 N 
ATOM     15  H4  UNL     1      -4.586 -11.690  14.884  1.00  0.00     0.191 HD
HETATM   16  N5  UNL     1      -6.337 -11.989  15.844  1.00  0.00    -0.213 N 
HETATM   17  C9  UNL     1      -6.020 -11.447  17.071  1.00  0.00     0.137 A 
HETATM   18  C10 UNL     1      -6.968 -11.440  18.072  1.00  0.00     0.056 A 
HETATM   19  C11 UNL     1      -6.627 -10.846  19.396  1.00  0.00     0.138 C 
HETATM   20  N7  UNL     1      -7.604 -10.820  20.377  1.00  0.00    -0.227 N 
ENDROOT
BRANCH   1  21
HETATM   21  O2  UNL     1      -8.047 -12.992  20.853  1.00  0.00    -0.280 OA
BRANCH  21  22
HETATM   22  C2  UNL     1      -8.305 -13.725  21.974  1.00  0.00     0.257 C 
HETATM   23  C1  UNL     1      -9.375 -14.779  21.917  1.00  0.00     0.126 C 
HETATM   24  O1  UNL     1      -7.657 -13.502  22.996  1.00  0.00    -0.266 OA
ENDBRANCH  21  22
ENDBRANCH   1  21
BRANCH  20  25
HETATM   25  O4  UNL     1      -7.968  -9.674  20.901  1.00  0.00    -0.285 OA
ATOM     26  H4  UNL     1      -7.271  -9.038  21.017  1.00  0.00     0.245 HD
ENDBRANCH  20  25
BRANCH  17  27
HETATM   27  N6  UNL     1      -4.868 -10.947  17.317  1.00  0.00    -0.383 N 
ATOM     28  H62 UNL     1      -4.070 -11.265  16.766  1.00  0.00     0.157 HD
ATOM     29  H61 UNL     1      -4.725 -10.244  18.042  1.00  0.00     0.157 HD
ENDBRANCH  17  27
TORSDOF 4
ENDMDL
