MODEL 1
REMARK VINA RESULT: -7.088593567      0.000      0.000
REMARK  3 active torsions:
REMARK  status: ('A' for Active; 'I' for Inactive)
REMARK    1  A    between atoms: C5_11  and  C6_12 
REMARK    2  A    between atoms: C7_17  and  N6_18 
REMARK    3  A    between atoms: C8_23  and  N8_24 
ROOT
HETATM    1  C1  UNL     1     -11.933 -15.404  20.514  1.00  0.00     0.074 C 
HETATM    2  C2  UNL     1     -11.341 -14.077  20.692  1.00  0.00     0.067 A 
HETATM    3  N1  UNL     1     -11.729 -13.318  21.730  1.00  0.00    -0.298 N 
ATOM      4  H1  UNL     1     -12.431 -13.682  22.375  1.00  0.00     0.187 HD
HETATM    5  N2  UNL     1     -11.235 -12.129  21.937  1.00  0.00    -0.251 N 
ATOM      6  H2  UNL     1     -11.565 -11.592  22.739  1.00  0.00     0.191 HD
HETATM    7  C3  UNL     1     -10.286 -11.573  21.109  1.00  0.00     0.347 A 
HETATM    8  O1  UNL     1      -9.908 -10.446  21.413  1.00  0.00    -0.245 OA
HETATM    9  N3  UNL     1      -9.865 -12.283  20.068  1.00  0.00    -0.241 N 
HETATM   10  C4  UNL     1      -8.953 -12.018  19.053  1.00  0.00     0.111 A 
HETATM   11  C5  UNL     1      -8.122 -11.007  18.664  1.00  0.00     0.085 A 
HETATM   12  S1  UNL     1      -7.421 -11.667  17.205  1.00  0.00    -0.008 SA
HETATM   13  N9  UNL     1      -8.179 -13.121  17.171  1.00  0.00    -0.310 N 
ATOM     14  H9  UNL     1      -8.078 -13.864  16.480  1.00  0.00     0.176 HD
HETATM   15  C9  UNL     1      -8.959 -13.108  18.256  1.00  0.00     0.144 A 
HETATM   16  N10 UNL     1      -9.828 -14.037  18.735  1.00  0.00    -0.319 N 
HETATM   17  C10 UNL     1     -10.127 -15.338  18.182  1.00  0.00     0.159 C 
HETATM   18  C11 UNL     1     -10.386 -13.534  19.847  1.00  0.00     0.144 A 
ENDROOT
BRANCH  11  19
HETATM   19  C6  UNL     1      -7.753  -9.679  19.119  1.00  0.00     0.113 A 
HETATM   20  N4  UNL     1      -8.416  -8.570  19.101  1.00  0.00    -0.281 N 
HETATM   21  N5  UNL     1      -8.035  -7.449  19.626  1.00  0.00    -0.132 N 
ATOM     22  H4  UNL     1      -9.320  -8.577  18.629  1.00  0.00     0.187 HD
HETATM   23  C7  UNL     1      -6.857  -7.313  20.278  1.00  0.00     0.692 A 
ATOM     24  H5  UNL     1      -8.647  -6.637  19.545  1.00  0.00     0.205 HD
HETATM   25  N7  UNL     1      -6.120  -8.433  20.333  1.00  0.00    -0.174 N 
HETATM   26  C8  UNL     1      -6.508  -9.586  19.793  1.00  0.00     0.144 A 
ATOM     27  H7  UNL     1      -5.220  -8.398  20.811  1.00  0.00     0.186 HD
BRANCH  23  28
HETATM   28  N6  UNL     1      -6.482  -6.198  20.799  1.00  0.00    -0.233 N 
ATOM     29  H62 UNL     1      -6.480  -5.317  20.287  1.00  0.00     0.174 HD
ATOM     30  H61 UNL     1      -6.161  -6.127  21.765  1.00  0.00     0.174 HD
ENDBRANCH  23  28
BRANCH  26  31
HETATM   31  N8  UNL     1      -5.732 -10.642  19.878  1.00  0.00    -0.383 N 
ATOM     32  H82 UNL     1      -6.039 -11.531  19.483  1.00  0.00     0.157 HD
ATOM     33  H81 UNL     1      -4.828 -10.570  20.344  1.00  0.00     0.157 HD
ENDBRANCH  26  31
ENDBRANCH  11  19
TORSDOF 3
ENDMDL
MODEL 2
REMARK VINA RESULT: -6.957174899      4.469      8.082
REMARK  3 active torsions:
REMARK  status: ('A' for Active; 'I' for Inactive)
REMARK    1  A    between atoms: C5_11  and  C6_12 
REMARK    2  A    between atoms: C7_17  and  N6_18 
REMARK    3  A    between atoms: C8_23  and  N8_24 
ROOT
HETATM    1  C1  UNL     1      -4.790 -10.841  16.492  1.00  0.00     0.074 C 
HETATM    2  C2  UNL     1      -5.804 -11.472  15.644  1.00  0.00     0.067 A 
HETATM    3  N1  UNL     1      -5.577 -11.591  14.326  1.00  0.00    -0.298 N 
ATOM      4  H1  UNL     1      -4.700 -11.240  13.940  1.00  0.00     0.187 HD
HETATM    5  N2  UNL     1      -6.445 -12.144  13.525  1.00  0.00    -0.251 N 
ATOM      6  H2  UNL     1      -6.225 -12.210  12.531  1.00  0.00     0.191 HD
HETATM    7  C3  UNL     1      -7.648 -12.642  13.974  1.00  0.00     0.347 A 
HETATM    8  O1  UNL     1      -8.375 -13.132  13.116  1.00  0.00    -0.245 OA
HETATM    9  N3  UNL     1      -7.921 -12.551  15.271  1.00  0.00    -0.241 N 
HETATM   10  C4  UNL     1      -9.023 -12.927  16.030  1.00  0.00     0.111 A 
HETATM   11  C5  UNL     1     -10.239 -13.518  15.844  1.00  0.00     0.085 A 
HETATM   12  S1  UNL     1     -10.896 -13.495  17.463  1.00  0.00    -0.008 SA
HETATM   13  N9  UNL     1      -9.652 -12.777  18.253  1.00  0.00    -0.310 N 
ATOM     14  H9  UNL     1      -9.585 -12.551  19.246  1.00  0.00     0.176 HD
HETATM   15  C9  UNL     1      -8.744 -12.554  17.297  1.00  0.00     0.144 A 
HETATM   16  N10 UNL     1      -7.518 -11.969  17.357  1.00  0.00    -0.319 N 
HETATM   17  C10 UNL     1      -6.846 -11.437  18.521  1.00  0.00     0.159 C 
HETATM   18  C11 UNL     1      -7.010 -11.966  16.115  1.00  0.00     0.144 A 
ENDROOT
BRANCH  11  19
HETATM   19  C6  UNL     1     -11.013 -14.070  14.746  1.00  0.00     0.113 A 
HETATM   20  N4  UNL     1     -10.784 -15.091  13.986  1.00  0.00    -0.281 N 
HETATM   21  N5  UNL     1     -11.590 -15.568  13.092  1.00  0.00    -0.132 N 
ATOM     22  H4  UNL     1      -9.887 -15.563  14.101  1.00  0.00     0.187 HD
HETATM   23  C7  UNL     1     -12.808 -15.029  12.848  1.00  0.00     0.692 A 
ATOM     24  H5  UNL     1     -11.296 -16.380  12.551  1.00  0.00     0.205 HD
HETATM   25  N7  UNL     1     -13.107 -13.964  13.607  1.00  0.00    -0.174 N 
HETATM   26  C8  UNL     1     -12.279 -13.471  14.526  1.00  0.00     0.144 A 
ATOM     27  H7  UNL     1     -14.010 -13.510  13.473  1.00  0.00     0.186 HD
BRANCH  23  28
HETATM   28  N6  UNL     1     -13.607 -15.505  11.960  1.00  0.00    -0.233 N 
ATOM     29  H62 UNL     1     -13.614 -16.488  11.686  1.00  0.00     0.174 HD
ATOM     30  H61 UNL     1     -14.289 -14.925  11.470  1.00  0.00     0.174 HD
ENDBRANCH  23  28
BRANCH  26  31
HETATM   31  N8  UNL     1     -12.634 -12.420  15.229  1.00  0.00    -0.383 N 
ATOM     32  H82 UNL     1     -12.112 -12.171  16.070  1.00  0.00     0.157 HD
ATOM     33  H81 UNL     1     -13.433 -11.859  14.934  1.00  0.00     0.157 HD
ENDBRANCH  26  31
ENDBRANCH  11  19
TORSDOF 3
ENDMDL
MODEL 3
REMARK VINA RESULT: -6.943772240      2.435      4.386
REMARK  3 active torsions:
REMARK  status: ('A' for Active; 'I' for Inactive)
REMARK    1  A    between atoms: C5_11  and  C6_12 
REMARK    2  A    between atoms: C7_17  and  N6_18 
REMARK    3  A    between atoms: C8_23  and  N8_24 
ROOT
HETATM    1  C1  UNL     1      -8.318 -13.930  13.903  1.00  0.00     0.074 C 
HETATM    2  C2  UNL     1      -7.851 -12.817  14.732  1.00  0.00     0.067 A 
HETATM    3  N1  UNL     1      -6.944 -11.960  14.233  1.00  0.00    -0.298 N 
ATOM      4  H1  UNL     1      -6.599 -12.102  13.284  1.00  0.00     0.187 HD
HETATM    5  N2  UNL     1      -6.494 -10.953  14.928  1.00  0.00    -0.251 N 
ATOM      6  H2  UNL     1      -5.805 -10.331  14.503  1.00  0.00     0.191 HD
HETATM    7  C3  UNL     1      -6.915 -10.699  16.214  1.00  0.00     0.347 A 
HETATM    8  O1  UNL     1      -6.410  -9.722  16.758  1.00  0.00    -0.245 OA
HETATM    9  N3  UNL     1      -7.813 -11.515  16.755  1.00  0.00    -0.241 N 
HETATM   10  C4  UNL     1      -8.420 -11.553  18.005  1.00  0.00     0.111 A 
HETATM   11  C5  UNL     1      -8.403 -10.845  19.171  1.00  0.00     0.085 A 
HETATM   12  S1  UNL     1      -9.519 -11.760  20.157  1.00  0.00    -0.008 SA
HETATM   13  N9  UNL     1      -9.932 -12.932  19.088  1.00  0.00    -0.310 N 
ATOM     14  H9  UNL     1     -10.577 -13.710  19.227  1.00  0.00     0.176 HD
HETATM   15  C9  UNL     1      -9.229 -12.634  17.990  1.00  0.00     0.144 A 
HETATM   16  N10 UNL     1      -9.154 -13.263  16.787  1.00  0.00    -0.319 N 
HETATM   17  C10 UNL     1      -9.861 -14.450  16.362  1.00  0.00     0.159 C 
HETATM   18  C11 UNL     1      -8.286 -12.579  16.026  1.00  0.00     0.144 A 
ENDROOT
BRANCH  11  19
HETATM   19  C6  UNL     1      -7.740  -9.672  19.710  1.00  0.00     0.113 A 
HETATM   20  N4  UNL     1      -6.511  -9.489  20.065  1.00  0.00    -0.281 N 
HETATM   21  N5  UNL     1      -5.988  -8.366  20.444  1.00  0.00    -0.132 N 
ATOM     22  H4  UNL     1      -5.896 -10.302  20.045  1.00  0.00     0.187 HD
HETATM   23  C7  UNL     1      -6.701  -7.217  20.510  1.00  0.00     0.692 A 
ATOM     24  H5  UNL     1      -5.002  -8.347  20.702  1.00  0.00     0.205 HD
HETATM   25  N7  UNL     1      -7.989  -7.340  20.153  1.00  0.00    -0.174 N 
HETATM   26  C8  UNL     1      -8.528  -8.494  19.765  1.00  0.00     0.144 A 
ATOM     27  H7  UNL     1      -8.582  -6.511  20.181  1.00  0.00     0.186 HD
BRANCH  23  28
HETATM   28  N6  UNL     1      -6.180  -6.102  20.887  1.00  0.00    -0.233 N 
ATOM     29  H62 UNL     1      -6.620  -5.485  21.569  1.00  0.00     0.174 HD
ATOM     30  H61 UNL     1      -5.289  -5.765  20.523  1.00  0.00     0.174 HD
ENDBRANCH  23  28
BRANCH  26  31
HETATM   31  N8  UNL     1      -9.799  -8.544  19.436  1.00  0.00    -0.383 N 
ATOM     32  H82 UNL     1     -10.282  -9.442  19.409  1.00  0.00     0.157 HD
ATOM     33  H81 UNL     1     -10.296  -7.684  19.203  1.00  0.00     0.157 HD
ENDBRANCH  26  31
ENDBRANCH  11  19
TORSDOF 3
ENDMDL
MODEL 4
REMARK VINA RESULT: -6.912749095      4.113      7.941
REMARK  3 active torsions:
REMARK  status: ('A' for Active; 'I' for Inactive)
REMARK    1  A    between atoms: C5_11  and  C6_12 
REMARK    2  A    between atoms: C7_17  and  N6_18 
REMARK    3  A    between atoms: C8_23  and  N8_24 
ROOT
HETATM    1  C1  UNL     1      -4.497 -10.931  16.494  1.00  0.00     0.074 C 
HETATM    2  C2  UNL     1      -5.551 -11.608  15.736  1.00  0.00     0.067 A 
HETATM    3  N1  UNL     1      -5.348 -11.891  14.438  1.00  0.00    -0.298 N 
ATOM      4  H1  UNL     1      -4.462 -11.630  14.007  1.00  0.00     0.187 HD
HETATM    5  N2  UNL     1      -6.252 -12.492  13.715  1.00  0.00    -0.251 N 
ATOM      6  H2  UNL     1      -6.049 -12.684  12.734  1.00  0.00     0.191 HD
HETATM    7  C3  UNL     1      -7.470 -12.876  14.230  1.00  0.00     0.347 A 
HETATM    8  O1  UNL     1      -8.232 -13.427  13.442  1.00  0.00    -0.245 OA
HETATM    9  N3  UNL     1      -7.721 -12.620  15.509  1.00  0.00    -0.241 N 
HETATM   10  C4  UNL     1      -8.828 -12.852  16.317  1.00  0.00     0.111 A 
HETATM   11  C5  UNL     1     -10.073 -13.402  16.212  1.00  0.00     0.085 A 
HETATM   12  S1  UNL     1     -10.705 -13.158  17.823  1.00  0.00    -0.008 SA
HETATM   13  N9  UNL     1      -9.418 -12.413  18.512  1.00  0.00    -0.310 N 
ATOM     14  H9  UNL     1      -9.327 -12.076  19.471  1.00  0.00     0.176 HD
HETATM   15  C9  UNL     1      -8.514 -12.347  17.529  1.00  0.00     0.144 A 
HETATM   16  N10 UNL     1      -7.262 -11.819  17.510  1.00  0.00    -0.319 N 
HETATM   17  C10 UNL     1      -6.550 -11.187  18.597  1.00  0.00     0.159 C 
HETATM   18  C11 UNL     1      -6.772 -11.985  16.272  1.00  0.00     0.144 A 
ENDROOT
BRANCH  11  19
HETATM   19  C6  UNL     1     -10.887 -14.041  15.194  1.00  0.00     0.113 A 
HETATM   20  N4  UNL     1     -11.127 -13.697  13.971  1.00  0.00    -0.281 N 
HETATM   21  N5  UNL     1     -11.792 -14.392  13.103  1.00  0.00    -0.132 N 
ATOM     22  H4  UNL     1     -10.761 -12.796  13.662  1.00  0.00     0.187 HD
HETATM   23  C7  UNL     1     -12.325 -15.601  13.393  1.00  0.00     0.692 A 
ATOM     24  H5  UNL     1     -11.917 -14.012  12.165  1.00  0.00     0.205 HD
HETATM   25  N7  UNL     1     -12.110 -16.017  14.651  1.00  0.00    -0.174 N 
HETATM   26  C8  UNL     1     -11.428 -15.304  15.545  1.00  0.00     0.144 A 
ATOM     27  H7  UNL     1     -12.486 -16.921  14.935  1.00  0.00     0.186 HD
BRANCH  23  28
HETATM   28  N6  UNL     1     -12.984 -16.290  12.529  1.00  0.00    -0.233 N 
ATOM     29  H62 UNL     1     -12.901 -16.147  11.523  1.00  0.00     0.174 HD
ATOM     30  H61 UNL     1     -13.636 -17.027  12.799  1.00  0.00     0.174 HD
ENDBRANCH  23  28
BRANCH  26  31
HETATM   31  N8  UNL     1     -11.261 -15.769  16.762  1.00  0.00    -0.383 N 
ATOM     32  H82 UNL     1     -10.780 -16.657  16.905  1.00  0.00     0.157 HD
ATOM     33  H81 UNL     1     -11.618 -15.241  17.559  1.00  0.00     0.157 HD
ENDBRANCH  26  31
ENDBRANCH  11  19
TORSDOF 3
ENDMDL
MODEL 5
REMARK VINA RESULT: -6.856500962      2.672      5.377
REMARK  3 active torsions:
REMARK  status: ('A' for Active; 'I' for Inactive)
REMARK    1  A    between atoms: C5_11  and  C6_12 
REMARK    2  A    between atoms: C7_17  and  N6_18 
REMARK    3  A    between atoms: C8_23  and  N8_24 
ROOT
HETATM    1  C1  UNL     1      -5.897 -12.172  14.635  1.00  0.00     0.074 C 
HETATM    2  C2  UNL     1      -6.892 -12.268  15.705  1.00  0.00     0.067 A 
HETATM    3  N1  UNL     1      -8.049 -12.908  15.471  1.00  0.00    -0.298 N 
ATOM      4  H1  UNL     1      -8.212 -13.316  14.550  1.00  0.00     0.187 HD
HETATM    5  N2  UNL     1      -8.970 -13.023  16.387  1.00  0.00    -0.251 N 
ATOM      6  H2  UNL     1      -9.832 -13.519  16.158  1.00  0.00     0.191 HD
HETATM    7  C3  UNL     1      -8.820 -12.500  17.651  1.00  0.00     0.347 A 
HETATM    8  O1  UNL     1      -9.763 -12.674  18.416  1.00  0.00    -0.245 OA
HETATM    9  N3  UNL     1      -7.692 -11.858  17.937  1.00  0.00    -0.241 N 
HETATM   10  C4  UNL     1      -7.239 -11.211  19.081  1.00  0.00     0.111 A 
HETATM   11  C5  UNL     1      -7.677 -10.946  20.346  1.00  0.00     0.085 A 
HETATM   12  S1  UNL     1      -6.347 -10.016  20.993  1.00  0.00    -0.008 SA
HETATM   13  N9  UNL     1      -5.352 -10.017  19.690  1.00  0.00    -0.310 N 
ATOM     14  H9  UNL     1      -4.433  -9.583  19.601  1.00  0.00     0.176 HD
HETATM   15  C9  UNL     1      -6.022 -10.716  18.768  1.00  0.00     0.144 A 
HETATM   16  N10 UNL     1      -5.700 -11.032  17.486  1.00  0.00    -0.319 N 
HETATM   17  C10 UNL     1      -4.491 -10.697  16.768  1.00  0.00     0.159 C 
HETATM   18  C11 UNL     1      -6.722 -11.733  16.972  1.00  0.00     0.144 A 
ENDROOT
BRANCH  11  19
HETATM   19  C6  UNL     1      -8.850 -11.212  21.159  1.00  0.00     0.113 A 
HETATM   20  N4  UNL     1     -10.063 -10.779  21.051  1.00  0.00    -0.281 N 
HETATM   21  N5  UNL     1     -11.071 -11.156  21.773  1.00  0.00    -0.132 N 
ATOM     22  H4  UNL     1     -10.244 -10.077  20.334  1.00  0.00     0.187 HD
HETATM   23  C7  UNL     1     -10.958 -12.081  22.755  1.00  0.00     0.692 A 
ATOM     24  H5  UNL     1     -11.984 -10.739  21.594  1.00  0.00     0.205 HD
HETATM   25  N7  UNL     1      -9.720 -12.571  22.917  1.00  0.00    -0.174 N 
HETATM   26  C8  UNL     1      -8.682 -12.185  22.177  1.00  0.00     0.144 A 
ATOM     27  H7  UNL     1      -9.566 -13.273  23.640  1.00  0.00     0.186 HD
BRANCH  23  28
HETATM   28  N6  UNL     1     -11.960 -12.454  23.469  1.00  0.00    -0.233 N 
ATOM     29  H62 UNL     1     -11.862 -13.009  24.319  1.00  0.00     0.174 HD
ATOM     30  H61 UNL     1     -12.922 -12.215  23.230  1.00  0.00     0.174 HD
ENDBRANCH  23  28
BRANCH  26  31
HETATM   31  N8  UNL     1      -7.494 -12.702  22.395  1.00  0.00    -0.383 N 
ATOM     32  H82 UNL     1      -7.410 -13.677  22.683  1.00  0.00     0.157 HD
ATOM     33  H81 UNL     1      -6.662 -12.124  22.281  1.00  0.00     0.157 HD
ENDBRANCH  26  31
ENDBRANCH  11  19
TORSDOF 3
ENDMDL
