MODEL 1
REMARK VINA RESULT: -6.006044812      0.000      0.000
REMARK  11 active torsions:
REMARK  status: ('A' for Active; 'I' for Inactive)
REMARK    1  A    between atoms: C4_6  and  O1_7 
REMARK    2  A    between atoms: C5_9  and  C6_10 
REMARK       I    between atoms: N3_15  and  C10_17 
REMARK    3  A    between atoms: C10_17  and  C11_19 
REMARK    4  A    between atoms: C12_23  and  S3_24 
REMARK    5  A    between atoms: C12_23  and  C15_34 
REMARK    6  A    between atoms: S3_24  and  N4_25 
REMARK    7  A    between atoms: N4_25  and  N5_26 
REMARK    8  A    between atoms: N5_26  and  C13_27 
REMARK    9  A    between atoms: N5_26  and  N6_30 
REMARK   10  A    between atoms: C13_27  and  C14_28 
REMARK   11  A    between atoms: N6_30  and  O3_32 
ROOT
HETATM    1  C6  UNL     1       1.984   0.106  -0.252  1.00  0.00    -0.001 C 
HETATM    2  C7  UNL     1       0.892   0.290   0.743  1.00  0.00     0.183 C 
HETATM    3  C8  UNL     1       0.165  -0.984   0.824  1.00  0.00     0.075 C 
HETATM    4  N2  UNL     1      -0.372  -2.007   0.913  1.00  0.00    -0.196 NA
HETATM    5  C9  UNL     1      -0.101   1.304   0.295  1.00  0.00     0.082 C 
HETATM    6  N3  UNL     1      -1.008   1.775   1.097  1.00  0.00    -0.322 N 
ATOM      7  H3  UNL     1      -1.648   2.469   0.711  1.00  0.00     0.169 HD
HETATM    8  C10 UNL     1      -1.190   1.426   2.432  1.00  0.00     0.236 C 
HETATM    9  O2  UNL     1      -0.293   1.656   3.273  1.00  0.00    -0.272 OA
HETATM   10  S1  UNL     1      -0.088   1.961  -1.367  1.00  0.00    -0.040 SA
HETATM   11  S2  UNL     1       1.936   2.221  -1.933  1.00  0.00    -0.054 SA
HETATM   12  C12 UNL     1       2.852   1.222  -0.632  1.00  0.00     0.188 C 
ENDROOT
BRANCH   1  13
HETATM   13  C5  UNL     1       2.504  -1.280  -0.314  1.00  0.00     0.029 A 
HETATM   14  C2  UNL     1       2.242  -2.252  -1.270  1.00  0.00    -0.032 A 
HETATM   15  C1  UNL     1       1.604  -2.002  -2.569  1.00  0.00     0.050 C 
HETATM   16  C3  UNL     1       2.782  -3.439  -0.828  1.00  0.00     0.097 A 
HETATM   17  N1  UNL     1       3.376  -3.262   0.361  1.00  0.00    -0.346 N 
HETATM   18  C4  UNL     1       3.205  -1.956   0.663  1.00  0.00     0.151 A 
ATOM     19  H1  UNL     1       3.857  -3.966   0.921  1.00  0.00     0.167 HD
BRANCH  18  20
HETATM   20  O1  UNL     1       3.716  -1.457   1.847  1.00  0.00    -0.345 OA
ATOM     21  H1  UNL     1       3.128  -1.267   2.568  1.00  0.00     0.219 HD
ENDBRANCH  18  20
ENDBRANCH   1  13
BRANCH  12  22
HETATM   22  S3  UNL     1       3.056   2.515   0.662  1.00  0.00    -0.002 SA
BRANCH  22  23
HETATM   23  N4  UNL     1       2.968   4.058  -0.252  1.00  0.00    -0.044 NA
BRANCH  23  24
HETATM   24  N5  UNL     1       4.201   4.672  -0.364  1.00  0.00    -0.206 N 
BRANCH  24  25
HETATM   25  C13 UNL     1       4.545   5.772   0.488  1.00  0.00     0.183 C 
BRANCH  25  26
HETATM   26  C14 UNL     1       3.263   6.330   1.090  1.00  0.00     0.138 C 
HETATM   27 CL2  UNL     1       3.038   5.642   2.725  1.00  0.00    -0.129 Cl
ENDBRANCH  25  26
ENDBRANCH  24  25
BRANCH  24  28
HETATM   28  N6  UNL     1       5.143   4.214  -1.273  1.00  0.00    -0.196 N 
ATOM     29  H6  UNL     1       4.839   4.049  -2.233  1.00  0.00     0.217 HD
BRANCH  28  30
HETATM   30  O3  UNL     1       6.332   3.991  -0.995  1.00  0.00    -0.273 OA
ATOM     31  H3  UNL     1       6.679   3.132  -0.781  1.00  0.00     0.246 HD
ENDBRANCH  28  30
ENDBRANCH  24  28
ENDBRANCH  23  24
ENDBRANCH  22  23
ENDBRANCH  12  22
BRANCH  12  32
HETATM   32  C15 UNL     1       4.180   0.918  -1.197  1.00  0.00     0.267 C 
HETATM   33  N7  UNL     1       5.363   1.023  -0.471  1.00  0.00    -0.059 NA
HETATM   34  O4  UNL     1       4.237   0.542  -2.408  1.00  0.00    -0.274 OA
ENDBRANCH  12  32
BRANCH   8  35
HETATM   35  C11 UNL     1      -2.444   0.783   2.882  1.00  0.00     0.217 C 
HETATM   36 CL1  UNL     1      -3.310   0.082   1.490  1.00  0.00    -0.121 Cl
ENDBRANCH   8  35
TORSDOF 11
ENDMDL
MODEL 2
REMARK VINA RESULT: -5.994682235      1.443      1.698
REMARK  11 active torsions:
REMARK  status: ('A' for Active; 'I' for Inactive)
REMARK    1  A    between atoms: C4_6  and  O1_7 
REMARK    2  A    between atoms: C5_9  and  C6_10 
REMARK       I    between atoms: N3_15  and  C10_17 
REMARK    3  A    between atoms: C10_17  and  C11_19 
REMARK    4  A    between atoms: C12_23  and  S3_24 
REMARK    5  A    between atoms: C12_23  and  C15_34 
REMARK    6  A    between atoms: S3_24  and  N4_25 
REMARK    7  A    between atoms: N4_25  and  N5_26 
REMARK    8  A    between atoms: N5_26  and  C13_27 
REMARK    9  A    between atoms: N5_26  and  N6_30 
REMARK   10  A    between atoms: C13_27  and  C14_28 
REMARK   11  A    between atoms: N6_30  and  O3_32 
ROOT
HETATM    1  C6  UNL     1       1.723  -0.052  -0.260  1.00  0.00    -0.001 C 
HETATM    2  C7  UNL     1       0.506  -0.035   0.597  1.00  0.00     0.183 C 
HETATM    3  C8  UNL     1      -0.094  -1.373   0.520  1.00  0.00     0.075 C 
HETATM    4  N2  UNL     1      -0.532  -2.446   0.489  1.00  0.00    -0.196 NA
HETATM    5  C9  UNL     1      -0.523   0.908   0.078  1.00  0.00     0.082 C 
HETATM    6  N3  UNL     1      -1.564   1.241   0.782  1.00  0.00    -0.322 N 
ATOM      7  H3  UNL     1      -2.219   1.895   0.353  1.00  0.00     0.169 HD
HETATM    8  C10 UNL     1      -1.871   0.793   2.063  1.00  0.00     0.236 C 
HETATM    9  O2  UNL     1      -1.110   1.052   3.021  1.00  0.00    -0.272 OA
HETATM   10  S1  UNL     1      -0.374   1.666  -1.534  1.00  0.00    -0.040 SA
HETATM   11  S2  UNL     1       1.667   2.150  -1.823  1.00  0.00    -0.054 SA
HETATM   12  C12 UNL     1       2.514   1.161  -0.469  1.00  0.00     0.188 C 
ENDROOT
BRANCH   1  13
HETATM   13  C5  UNL     1       2.383  -1.377  -0.325  1.00  0.00     0.029 A 
HETATM   14  C2  UNL     1       2.274  -2.342  -1.317  1.00  0.00    -0.032 A 
HETATM   15  C1  UNL     1       1.685  -2.119  -2.645  1.00  0.00     0.050 C 
HETATM   16  C3  UNL     1       2.907  -3.481  -0.874  1.00  0.00     0.097 A 
HETATM   17  N1  UNL     1       3.415  -3.281   0.350  1.00  0.00    -0.346 N 
HETATM   18  C4  UNL     1       3.096  -2.008   0.673  1.00  0.00     0.151 A 
ATOM     19  H1  UNL     1       3.934  -3.950   0.919  1.00  0.00     0.167 HD
BRANCH  18  20
HETATM   20  O1  UNL     1       3.490  -1.495   1.896  1.00  0.00    -0.345 OA
ATOM     21  H1  UNL     1       3.042  -1.774   2.687  1.00  0.00     0.219 HD
ENDBRANCH  18  20
ENDBRANCH   1  13
BRANCH  12  22
HETATM   22  S3  UNL     1       2.428   2.384   0.904  1.00  0.00    -0.002 SA
BRANCH  22  23
HETATM   23  N4  UNL     1       1.985   3.920   0.087  1.00  0.00    -0.044 NA
BRANCH  23  24
HETATM   24  N5  UNL     1       2.871   4.941   0.374  1.00  0.00    -0.206 N 
BRANCH  24  25
HETATM   25  C13 UNL     1       4.241   4.851  -0.038  1.00  0.00     0.183 C 
BRANCH  25  26
HETATM   26  C14 UNL     1       4.874   6.229   0.104  1.00  0.00     0.138 C 
HETATM   27 CL2  UNL     1       6.652   6.069   0.005  1.00  0.00    -0.129 Cl
ENDBRANCH  25  26
ENDBRANCH  24  25
BRANCH  24  28
HETATM   28  N6  UNL     1       2.447   6.087   1.030  1.00  0.00    -0.196 N 
ATOM     29  H6  UNL     1       2.888   6.972   0.779  1.00  0.00     0.217 HD
BRANCH  28  30
HETATM   30  O3  UNL     1       1.565   6.106   1.903  1.00  0.00    -0.273 OA
ATOM     31  H3  UNL     1       1.211   6.899   2.289  1.00  0.00     0.246 HD
ENDBRANCH  28  30
ENDBRANCH  24  28
ENDBRANCH  23  24
ENDBRANCH  22  23
ENDBRANCH  12  22
BRANCH  12  32
HETATM   32  C15 UNL     1       3.924   1.019  -0.875  1.00  0.00     0.267 C 
HETATM   33  N7  UNL     1       4.976   0.918   0.032  1.00  0.00    -0.059 NA
HETATM   34  O4  UNL     1       4.183   0.989  -2.117  1.00  0.00    -0.274 OA
ENDBRANCH  12  32
BRANCH   8  35
HETATM   35  C11 UNL     1      -3.098   0.008   2.317  1.00  0.00     0.217 C 
HETATM   36 CL1  UNL     1      -3.702  -0.700   0.795  1.00  0.00    -0.121 Cl
ENDBRANCH   8  35
TORSDOF 11
ENDMDL
MODEL 3
REMARK VINA RESULT: -5.651186166      2.955      5.064
REMARK  11 active torsions:
REMARK  status: ('A' for Active; 'I' for Inactive)
REMARK    1  A    between atoms: C4_6  and  O1_7 
REMARK    2  A    between atoms: C5_9  and  C6_10 
REMARK       I    between atoms: N3_15  and  C10_17 
REMARK    3  A    between atoms: C10_17  and  C11_19 
REMARK    4  A    between atoms: C12_23  and  S3_24 
REMARK    5  A    between atoms: C12_23  and  C15_34 
REMARK    6  A    between atoms: S3_24  and  N4_25 
REMARK    7  A    between atoms: N4_25  and  N5_26 
REMARK    8  A    between atoms: N5_26  and  C13_27 
REMARK    9  A    between atoms: N5_26  and  N6_30 
REMARK   10  A    between atoms: C13_27  and  C14_28 
REMARK   11  A    between atoms: N6_30  and  O3_32 
ROOT
HETATM    1  C6  UNL     1       0.391   0.892  -0.329  1.00  0.00    -0.001 C 
HETATM    2  C7  UNL     1       1.290  -0.213  -0.762  1.00  0.00     0.183 C 
HETATM    3  C8  UNL     1       0.566  -0.981  -1.784  1.00  0.00     0.075 C 
HETATM    4  N2  UNL     1       0.004  -1.552  -2.621  1.00  0.00    -0.196 NA
HETATM    5  C9  UNL     1       1.571  -1.165   0.347  1.00  0.00     0.082 C 
HETATM    6  N3  UNL     1       2.497  -2.072   0.253  1.00  0.00    -0.322 N 
ATOM      7  H3  UNL     1       2.627  -2.682   1.059  1.00  0.00     0.169 HD
HETATM    8  C10 UNL     1       3.327  -2.292  -0.842  1.00  0.00     0.236 C 
HETATM    9  O2  UNL     1       4.126  -1.405  -1.216  1.00  0.00    -0.272 OA
HETATM   10  S1  UNL     1       0.675  -1.098   1.892  1.00  0.00    -0.040 SA
HETATM   11  S2  UNL     1       0.386   0.944   2.372  1.00  0.00    -0.054 SA
HETATM   12  C12 UNL     1       0.782   1.802   0.748  1.00  0.00     0.188 C 
ENDROOT
BRANCH   1  13
HETATM   13  C5  UNL     1      -0.519   1.369  -1.397  1.00  0.00     0.029 A 
HETATM   14  C2  UNL     1      -1.816   0.954  -1.667  1.00  0.00    -0.032 A 
HETATM   15  C1  UNL     1      -2.643   0.143  -0.764  1.00  0.00     0.050 C 
HETATM   16  C3  UNL     1      -2.207   1.527  -2.856  1.00  0.00     0.097 A 
HETATM   17  N1  UNL     1      -1.219   2.288  -3.349  1.00  0.00    -0.346 N 
HETATM   18  C4  UNL     1      -0.205   2.188  -2.461  1.00  0.00     0.151 A 
ATOM     19  H1  UNL     1      -1.231   2.829  -4.213  1.00  0.00     0.167 HD
BRANCH  18  20
HETATM   20  O1  UNL     1       0.974   2.874  -2.693  1.00  0.00    -0.345 OA
ATOM     21  H1  UNL     1       1.805   2.426  -2.582  1.00  0.00     0.219 HD
ENDBRANCH  18  20
ENDBRANCH   1  13
BRANCH  12  22
HETATM   22  S3  UNL     1       2.598   2.021   0.952  1.00  0.00    -0.002 SA
BRANCH  22  23
HETATM   23  N4  UNL     1       3.141   2.635  -0.647  1.00  0.00    -0.044 NA
BRANCH  23  24
HETATM   24  N5  UNL     1       4.499   2.466  -0.839  1.00  0.00    -0.206 N 
BRANCH  24  25
HETATM   25  C13 UNL     1       5.353   3.600  -1.030  1.00  0.00     0.183 C 
BRANCH  25  26
HETATM   26  C14 UNL     1       4.686   4.813  -0.396  1.00  0.00     0.138 C 
HETATM   27 CL2  UNL     1       5.902   6.107  -0.188  1.00  0.00    -0.129 Cl
ENDBRANCH  25  26
ENDBRANCH  24  25
BRANCH  24  28
HETATM   28  N6  UNL     1       5.068   1.201  -0.812  1.00  0.00    -0.196 N 
ATOM     29  H6  UNL     1       4.986   0.623  -1.648  1.00  0.00     0.217 HD
BRANCH  28  30
HETATM   30  O3  UNL     1       5.671   0.727   0.164  1.00  0.00    -0.273 OA
ATOM     31  H3  UNL     1       5.973  -0.173   0.221  1.00  0.00     0.246 HD
ENDBRANCH  28  30
ENDBRANCH  24  28
ENDBRANCH  23  24
ENDBRANCH  22  23
ENDBRANCH  12  22
BRANCH  12  32
HETATM   32  C15 UNL     1       0.146   3.131   0.811  1.00  0.00     0.267 C 
HETATM   33  N7  UNL     1       0.660   4.257   0.173  1.00  0.00    -0.059 NA
HETATM   34  O4  UNL     1      -0.925   3.244   1.483  1.00  0.00    -0.274 OA
ENDBRANCH  12  32
BRANCH   8  35
HETATM   35  C11 UNL     1       3.286  -3.574  -1.579  1.00  0.00     0.217 C 
HETATM   36 CL1  UNL     1       3.013  -3.276  -3.316  1.00  0.00    -0.121 Cl
ENDBRANCH   8  35
TORSDOF 11
ENDMDL
MODEL 4
REMARK VINA RESULT: -5.609505342      2.406      2.863
REMARK  11 active torsions:
REMARK  status: ('A' for Active; 'I' for Inactive)
REMARK    1  A    between atoms: C4_6  and  O1_7 
REMARK    2  A    between atoms: C5_9  and  C6_10 
REMARK       I    between atoms: N3_15  and  C10_17 
REMARK    3  A    between atoms: C10_17  and  C11_19 
REMARK    4  A    between atoms: C12_23  and  S3_24 
REMARK    5  A    between atoms: C12_23  and  C15_34 
REMARK    6  A    between atoms: S3_24  and  N4_25 
REMARK    7  A    between atoms: N4_25  and  N5_26 
REMARK    8  A    between atoms: N5_26  and  C13_27 
REMARK    9  A    between atoms: N5_26  and  N6_30 
REMARK   10  A    between atoms: C13_27  and  C14_28 
REMARK   11  A    between atoms: N6_30  and  O3_32 
ROOT
HETATM    1  C6  UNL     1       0.666   0.233   0.120  1.00  0.00    -0.001 C 
HETATM    2  C7  UNL     1       0.702  -0.075   1.576  1.00  0.00     0.183 C 
HETATM    3  C8  UNL     1       1.310  -1.404   1.720  1.00  0.00     0.075 C 
HETATM    4  N2  UNL     1       1.833  -2.433   1.824  1.00  0.00    -0.196 NA
HETATM    5  C9  UNL     1      -0.666  -0.183   2.154  1.00  0.00     0.082 C 
HETATM    6  N3  UNL     1      -0.866  -0.229   3.437  1.00  0.00    -0.322 N 
ATOM      7  H3  UNL     1      -1.834  -0.300   3.749  1.00  0.00     0.169 HD
HETATM    8  C10 UNL     1       0.112  -0.190   4.426  1.00  0.00     0.236 C 
HETATM    9  O2  UNL     1       0.842   0.817   4.552  1.00  0.00    -0.272 OA
HETATM   10  S1  UNL     1      -2.122  -0.223   1.117  1.00  0.00    -0.040 SA
HETATM   11  S2  UNL     1      -1.809   1.139  -0.473  1.00  0.00    -0.054 SA
HETATM   12  C12 UNL     1       0.039   1.460  -0.375  1.00  0.00     0.188 C 
ENDROOT
BRANCH   1  13
HETATM   13  C5  UNL     1       1.777  -0.381  -0.644  1.00  0.00     0.029 A 
HETATM   14  C2  UNL     1       1.738  -1.501  -1.463  1.00  0.00    -0.032 A 
HETATM   15  C1  UNL     1       0.510  -2.141  -1.953  1.00  0.00     0.050 C 
HETATM   16  C3  UNL     1       3.031  -1.817  -1.813  1.00  0.00     0.097 A 
HETATM   17  N1  UNL     1       3.887  -0.948  -1.256  1.00  0.00    -0.346 N 
HETATM   18  C4  UNL     1       3.121  -0.084  -0.553  1.00  0.00     0.151 A 
ATOM     19  H1  UNL     1       4.903  -0.940  -1.344  1.00  0.00     0.167 HD
BRANCH  18  20
HETATM   20  O1  UNL     1       3.722   0.948   0.144  1.00  0.00    -0.345 OA
ATOM     21  H1  UNL     1       3.182   1.615   0.553  1.00  0.00     0.219 HD
ENDBRANCH  18  20
ENDBRANCH   1  13
BRANCH  12  22
HETATM   22  S3  UNL     1       0.045   2.863   0.817  1.00  0.00    -0.002 SA
BRANCH  22  23
HETATM   23  N4  UNL     1       1.734   2.905   1.426  1.00  0.00    -0.044 NA
BRANCH  23  24
HETATM   24  N5  UNL     1       2.387   4.072   1.079  1.00  0.00    -0.206 N 
BRANCH  24  25
HETATM   25  C13 UNL     1       2.285   5.237   1.907  1.00  0.00     0.183 C 
BRANCH  25  26
HETATM   26  C14 UNL     1       2.462   6.466   1.026  1.00  0.00     0.138 C 
HETATM   27 CL2  UNL     1       4.091   7.151   1.298  1.00  0.00    -0.129 Cl
ENDBRANCH  25  26
ENDBRANCH  24  25
BRANCH  24  28
HETATM   28  N6  UNL     1       3.184   4.129  -0.055  1.00  0.00    -0.196 N 
ATOM     29  H6  UNL     1       2.839   4.658  -0.855  1.00  0.00     0.217 HD
BRANCH  28  30
HETATM   30  O3  UNL     1       4.291   3.576  -0.160  1.00  0.00    -0.273 OA
ATOM     31  H3  UNL     1       4.985   3.872  -0.737  1.00  0.00     0.246 HD
ENDBRANCH  28  30
ENDBRANCH  24  28
ENDBRANCH  23  24
ENDBRANCH  22  23
ENDBRANCH  12  22
BRANCH  12  32
HETATM   32  C15 UNL     1       0.446   1.973  -1.696  1.00  0.00     0.267 C 
HETATM   33  N7  UNL     1       1.702   2.513  -1.954  1.00  0.00    -0.059 NA
HETATM   34  O4  UNL     1      -0.400   1.914  -2.641  1.00  0.00    -0.274 OA
ENDBRANCH  12  32
BRANCH   8  35
HETATM   35  C11 UNL     1       0.305  -1.332   5.346  1.00  0.00     0.217 C 
HETATM   36 CL1  UNL     1      -0.413  -2.810   4.651  1.00  0.00    -0.121 Cl
ENDBRANCH   8  35
TORSDOF 11
ENDMDL
MODEL 5
REMARK VINA RESULT: -5.592269750      2.472      2.903
REMARK  11 active torsions:
REMARK  status: ('A' for Active; 'I' for Inactive)
REMARK    1  A    between atoms: C4_6  and  O1_7 
REMARK    2  A    between atoms: C5_9  and  C6_10 
REMARK       I    between atoms: N3_15  and  C10_17 
REMARK    3  A    between atoms: C10_17  and  C11_19 
REMARK    4  A    between atoms: C12_23  and  S3_24 
REMARK    5  A    between atoms: C12_23  and  C15_34 
REMARK    6  A    between atoms: S3_24  and  N4_25 
REMARK    7  A    between atoms: N4_25  and  N5_26 
REMARK    8  A    between atoms: N5_26  and  C13_27 
REMARK    9  A    between atoms: N5_26  and  N6_30 
REMARK   10  A    between atoms: C13_27  and  C14_28 
REMARK   11  A    between atoms: N6_30  and  O3_32 
ROOT
HETATM    1  C6  UNL     1       1.007   0.499   0.031  1.00  0.00    -0.001 C 
HETATM    2  C7  UNL     1       0.858   0.175   1.476  1.00  0.00     0.183 C 
HETATM    3  C8  UNL     1       1.392  -1.179   1.671  1.00  0.00     0.075 C 
HETATM    4  N2  UNL     1       1.858  -2.229   1.821  1.00  0.00    -0.196 NA
HETATM    5  C9  UNL     1      -0.573   0.117   1.885  1.00  0.00     0.082 C 
HETATM    6  N3  UNL     1      -0.925   0.067   3.135  1.00  0.00    -0.322 N 
ATOM      7  H3  UNL     1      -1.925   0.032   3.330  1.00  0.00     0.169 HD
HETATM    8  C10 UNL     1      -0.071   0.056   4.234  1.00  0.00     0.236 C 
HETATM    9  O2  UNL     1       0.679   1.032   4.460  1.00  0.00    -0.272 OA
HETATM   10  S1  UNL     1      -1.895   0.147   0.684  1.00  0.00    -0.040 SA
HETATM   11  S2  UNL     1      -1.342   1.511  -0.838  1.00  0.00    -0.054 SA
HETATM   12  C12 UNL     1       0.493   1.755  -0.517  1.00  0.00     0.188 C 
ENDROOT
BRANCH   1  13
HETATM   13  C5  UNL     1       2.176  -0.152  -0.605  1.00  0.00     0.029 A 
HETATM   14  C2  UNL     1       2.193  -1.271  -1.428  1.00  0.00    -0.032 A 
HETATM   15  C1  UNL     1       1.007  -1.870  -2.054  1.00  0.00     0.050 C 
HETATM   16  C3  UNL     1       3.506  -1.630  -1.631  1.00  0.00     0.097 A 
HETATM   17  N1  UNL     1       4.321  -0.789  -0.978  1.00  0.00    -0.346 N 
HETATM   18  C4  UNL     1       3.510   0.100  -0.363  1.00  0.00     0.151 A 
ATOM     19  H1  UNL     1       5.341  -0.815  -0.952  1.00  0.00     0.167 HD
BRANCH  18  20
HETATM   20  O1  UNL     1       4.063   1.113   0.400  1.00  0.00    -0.345 OA
ATOM     21  H1  UNL     1       3.556   1.897   0.576  1.00  0.00     0.219 HD
ENDBRANCH  18  20
ENDBRANCH   1  13
BRANCH  12  22
HETATM   22  S3  UNL     1       0.412   3.145   0.687  1.00  0.00    -0.002 SA
BRANCH  22  23
HETATM   23  N4  UNL     1       2.125   3.411   1.155  1.00  0.00    -0.044 NA
BRANCH  23  24
HETATM   24  N5  UNL     1       2.600   4.637   0.729  1.00  0.00    -0.206 N 
BRANCH  24  25
HETATM   25  C13 UNL     1       3.888   4.742   0.110  1.00  0.00     0.183 C 
BRANCH  25  26
HETATM   26  C14 UNL     1       4.466   6.112   0.438  1.00  0.00     0.138 C 
HETATM   27 CL2  UNL     1       6.189   6.149  -0.037  1.00  0.00    -0.129 Cl
ENDBRANCH  25  26
ENDBRANCH  24  25
BRANCH  24  28
HETATM   28  N6  UNL     1       1.827   5.781   0.856  1.00  0.00    -0.196 N 
ATOM     29  H6  UNL     1       1.513   6.242   0.002  1.00  0.00     0.217 HD
BRANCH  28  30
HETATM   30  O3  UNL     1       1.491   6.281   1.942  1.00  0.00    -0.273 OA
ATOM     31  H3  UNL     1       2.092   6.461   2.656  1.00  0.00     0.246 HD
ENDBRANCH  28  30
ENDBRANCH  24  28
ENDBRANCH  23  24
ENDBRANCH  22  23
ENDBRANCH  12  22
BRANCH  12  32
HETATM   32  C15 UNL     1       1.074   2.264  -1.773  1.00  0.00     0.267 C 
HETATM   33  N7  UNL     1       2.442   2.418  -1.977  1.00  0.00    -0.059 NA
HETATM   34  O4  UNL     1       0.277   2.576  -2.711  1.00  0.00    -0.274 OA
ENDBRANCH  12  32
BRANCH   8  35
HETATM   35  C11 UNL     1      -0.034  -1.102   5.153  1.00  0.00     0.217 C 
HETATM   36 CL1  UNL     1      -0.780  -2.526   4.380  1.00  0.00    -0.121 Cl
ENDBRANCH   8  35
TORSDOF 11
ENDMDL
