MODEL 1
REMARK VINA RESULT: -8.004183484      0.000      0.000
REMARK  14 active torsions:
REMARK  status: ('A' for Active; 'I' for Inactive)
REMARK    1  A    between atoms: C2_2  and  N1_5 
REMARK       I    between atoms: N1_5  and  C5_7 
REMARK    2  A    between atoms: C5_7  and  O2_9 
REMARK    3  A    between atoms: O2_9  and  N2_10 
REMARK    4  A    between atoms: N2_10  and  C6_11 
REMARK    5  A    between atoms: C6_11  and  C7_12 
REMARK    6  A    between atoms: C6_11  and  C17_36 
REMARK    7  A    between atoms: C7_12  and  C8_14 
REMARK    8  A    between atoms: C8_14  and  C9_17 
REMARK    9  A    between atoms: C9_17  and  C10_19 
REMARK   10  A    between atoms: C10_19  and  O5_20 
REMARK   11  A    between atoms: C10_19  and  N3_22 
REMARK   12  A    between atoms: N3_22  and  C11_24 
REMARK   13  A    between atoms: C14_27  and  N4_28 
REMARK   14  A    between atoms: C16_32  and  N5_33 
ROOT
HETATM    1  C8  UNL     1       5.534   2.410  -1.867  1.00  0.00     0.368 C 
HETATM    2  F1  UNL     1       6.906   2.372  -1.731  1.00  0.00    -0.188 F 
HETATM    3  F2  UNL     1       5.266   2.010  -3.164  1.00  0.00    -0.188 F 
ENDROOT
BRANCH   1   4
HETATM    4  C7  UNL     1       5.060   3.778  -1.595  1.00  0.00     0.234 C 
HETATM    5  O3  UNL     1       4.342   4.315  -2.455  1.00  0.00    -0.288 OA
BRANCH   4   6
HETATM    6  C6  UNL     1       5.389   4.546  -0.366  1.00  0.00     0.240 C 
BRANCH   6   7
HETATM    7  N2  UNL     1       6.378   5.588  -0.651  1.00  0.00    -0.070 NA
BRANCH   7   8
HETATM    8  O2  UNL     1       7.600   4.928  -0.639  1.00  0.00    -0.188 OA
BRANCH   8   9
HETATM    9  C5  UNL     1       8.791   5.536  -0.377  1.00  0.00     0.379 C 
HETATM   10  N1  UNL     1       8.953   6.579   0.597  1.00  0.00    -0.328 N 
ATOM     11  H1  UNL     1       8.131   6.881   1.121  1.00  0.00     0.165 HD
HETATM   12  O1  UNL     1       9.808   5.171  -1.014  1.00  0.00    -0.237 OA
BRANCH  10  13
HETATM   13  C2  UNL     1      10.197   7.213   0.870  1.00  0.00     0.024 C 
HETATM   14  C1  UNL     1      11.387   6.335   0.562  1.00  0.00     0.037 C 
HETATM   15  C3  UNL     1      10.279   8.479   0.039  1.00  0.00     0.037 C 
HETATM   16  C4  UNL     1      10.257   7.594   2.326  1.00  0.00     0.037 C 
ENDBRANCH  10  13
ENDBRANCH   8   9
ENDBRANCH   7   8
ENDBRANCH   6   7
BRANCH   6  17
HETATM   17  C17 UNL     1       4.164   5.138   0.249  1.00  0.00     0.081 A 
HETATM   18  C18 UNL     1       3.954   6.435   0.687  1.00  0.00     0.037 A 
HETATM   19  C19 UNL     1       2.652   6.461   1.172  1.00  0.00     0.027 A 
HETATM   20  C20 UNL     1       2.140   5.214   1.012  1.00  0.00     0.142 A 
HETATM   21  O10 UNL     1       3.041   4.466   0.473  1.00  0.00    -0.325 OA
ENDBRANCH   6  17
ENDBRANCH   4   6
ENDBRANCH   1   4
BRANCH   1  22
HETATM   22  C9  UNL     1       4.963   1.409  -0.897  1.00  0.00     0.253 C 
HETATM   23  O4  UNL     1       5.581   1.150   0.107  1.00  0.00    -0.286 OA
BRANCH  22  24
HETATM   24  C10 UNL     1       3.664   0.771  -1.206  1.00  0.00     0.296 C 
BRANCH  24  25
HETATM   25  O5  UNL     1       3.672  -0.542  -0.699  1.00  0.00    -0.369 OA
ATOM     26  H5  UNL     1       3.067  -1.070  -1.207  1.00  0.00     0.212 HD
ENDBRANCH  24  25
BRANCH  24  27
HETATM   27  N3  UNL     1       2.516   1.503  -0.710  1.00  0.00    -0.356 N 
ATOM     28  H3  UNL     1       2.581   1.958   0.201  1.00  0.00     0.162 HD
BRANCH  27  29
HETATM   29  C11 UNL     1       1.304   1.614  -1.440  1.00  0.00     0.063 A 
HETATM   30  C12 UNL     1       1.066   2.776  -2.189  1.00  0.00     0.034 A 
HETATM   31  C13 UNL     1      -0.080   2.906  -2.909  1.00  0.00     0.038 A 
HETATM   32  C14 UNL     1      -1.027   1.907  -2.924  1.00  0.00     0.105 A 
HETATM   33  C15 UNL     1      -0.799   0.775  -2.199  1.00  0.00     0.074 A 
HETATM   34  C16 UNL     1       0.378   0.595  -1.434  1.00  0.00     0.131 A 
BRANCH  32  35
HETATM   35  N4  UNL     1      -2.231   2.079  -3.699  1.00  0.00    -0.116 N 
HETATM   36  O6  UNL     1      -2.272   2.902  -4.610  1.00  0.00    -0.532 OA
HETATM   37  O7  UNL     1      -3.298   1.288  -3.366  1.00  0.00    -0.532 OA
ENDBRANCH  32  35
BRANCH  34  38
HETATM   38  N5  UNL     1       0.498  -0.611  -0.711  1.00  0.00    -0.113 N 
HETATM   39  O8  UNL     1       0.836  -0.489   0.512  1.00  0.00    -0.532 OA
HETATM   40  O9  UNL     1       0.308  -1.867  -1.143  1.00  0.00    -0.532 OA
ENDBRANCH  34  38
ENDBRANCH  27  29
ENDBRANCH  24  27
ENDBRANCH  22  24
ENDBRANCH   1  22
TORSDOF 14
ENDMDL
MODEL 2
REMARK VINA RESULT: -7.730155218      3.263      9.389
REMARK  14 active torsions:
REMARK  status: ('A' for Active; 'I' for Inactive)
REMARK    1  A    between atoms: C2_2  and  N1_5 
REMARK       I    between atoms: N1_5  and  C5_7 
REMARK    2  A    between atoms: C5_7  and  O2_9 
REMARK    3  A    between atoms: O2_9  and  N2_10 
REMARK    4  A    between atoms: N2_10  and  C6_11 
REMARK    5  A    between atoms: C6_11  and  C7_12 
REMARK    6  A    between atoms: C6_11  and  C17_36 
REMARK    7  A    between atoms: C7_12  and  C8_14 
REMARK    8  A    between atoms: C8_14  and  C9_17 
REMARK    9  A    between atoms: C9_17  and  C10_19 
REMARK   10  A    between atoms: C10_19  and  O5_20 
REMARK   11  A    between atoms: C10_19  and  N3_22 
REMARK   12  A    between atoms: N3_22  and  C11_24 
REMARK   13  A    between atoms: C14_27  and  N4_28 
REMARK   14  A    between atoms: C16_32  and  N5_33 
ROOT
HETATM    1  C8  UNL     1       4.499   6.733   0.882  1.00  0.00     0.368 C 
HETATM    2  F1  UNL     1       5.198   6.470   2.042  1.00  0.00    -0.188 F 
HETATM    3  F2  UNL     1       4.259   8.094   0.879  1.00  0.00    -0.188 F 
ENDROOT
BRANCH   1   4
HETATM    4  C7  UNL     1       3.255   5.944   0.881  1.00  0.00     0.234 C 
HETATM    5  O3  UNL     1       2.242   6.477   1.365  1.00  0.00    -0.288 OA
BRANCH   4   6
HETATM    6  C6  UNL     1       3.140   4.564   0.342  1.00  0.00     0.240 C 
BRANCH   6   7
HETATM    7  N2  UNL     1       4.264   3.736   0.786  1.00  0.00    -0.070 NA
BRANCH   7   8
HETATM    8  O2  UNL     1       4.520   2.886  -0.280  1.00  0.00    -0.188 OA
BRANCH   8   9
HETATM    9  C5  UNL     1       4.278   1.545  -0.260  1.00  0.00     0.379 C 
HETATM   10  N1  UNL     1       3.032   0.957  -0.664  1.00  0.00    -0.328 N 
ATOM     11  H1  UNL     1       2.287   1.577  -0.984  1.00  0.00     0.165 HD
HETATM   12  O1  UNL     1       5.187   0.773   0.129  1.00  0.00    -0.237 OA
BRANCH  10  13
HETATM   13  C2  UNL     1       2.779  -0.443  -0.643  1.00  0.00     0.024 C 
HETATM   14  C1  UNL     1       2.692  -1.006   0.757  1.00  0.00     0.037 C 
HETATM   15  C3  UNL     1       1.475  -0.704  -1.370  1.00  0.00     0.037 C 
HETATM   16  C4  UNL     1       3.883  -1.163  -1.371  1.00  0.00     0.037 C 
ENDBRANCH  10  13
ENDBRANCH   8   9
ENDBRANCH   7   8
ENDBRANCH   6   7
BRANCH   6  17
HETATM   17  C17 UNL     1       1.840   3.937   0.724  1.00  0.00     0.081 A 
HETATM   18  C18 UNL     1       0.740   3.669  -0.074  1.00  0.00     0.037 A 
HETATM   19  C19 UNL     1      -0.199   3.084   0.767  1.00  0.00     0.027 A 
HETATM   20  C20 UNL     1       0.355   3.023   2.005  1.00  0.00     0.142 A 
HETATM   21  O10 UNL     1       1.541   3.526   1.950  1.00  0.00    -0.325 OA
ENDBRANCH   6  17
ENDBRANCH   4   6
ENDBRANCH   1   4
BRANCH   1  22
HETATM   22  C9  UNL     1       5.400   6.372  -0.270  1.00  0.00     0.253 C 
HETATM   23  O4  UNL     1       5.009   6.559  -1.398  1.00  0.00    -0.286 OA
BRANCH  22  24
HETATM   24  C10 UNL     1       6.733   5.796   0.014  1.00  0.00     0.296 C 
BRANCH  24  25
HETATM   25  O5  UNL     1       6.731   4.440  -0.364  1.00  0.00    -0.369 OA
ATOM     26  H5  UNL     1       6.335   3.929   0.331  1.00  0.00     0.212 HD
ENDBRANCH  24  25
BRANCH  24  27
HETATM   27  N3  UNL     1       7.827   6.503  -0.620  1.00  0.00    -0.356 N 
ATOM     28  H3  UNL     1       7.678   6.907  -1.545  1.00  0.00     0.162 HD
BRANCH  27  29
HETATM   29  C11 UNL     1       9.098   6.656  -0.009  1.00  0.00     0.063 A 
HETATM   30  C12 UNL     1       9.296   7.712   0.892  1.00  0.00     0.034 A 
HETATM   31  C13 UNL     1      10.499   7.876   1.504  1.00  0.00     0.038 A 
HETATM   32  C14 UNL     1      11.545   7.016   1.259  1.00  0.00     0.105 A 
HETATM   33  C15 UNL     1      11.357   5.986   0.385  1.00  0.00     0.074 A 
HETATM   34  C16 UNL     1      10.123   5.775  -0.276  1.00  0.00     0.131 A 
BRANCH  32  35
HETATM   35  N4  UNL     1      12.807   7.220   1.926  1.00  0.00    -0.116 N 
HETATM   36  O6  UNL     1      13.258   8.354   2.068  1.00  0.00    -0.532 OA
HETATM   37  O7  UNL     1      13.454   6.102   2.379  1.00  0.00    -0.532 OA
ENDBRANCH  32  35
BRANCH  34  38
HETATM   38  N5  UNL     1      10.050   4.687  -1.171  1.00  0.00    -0.113 N 
HETATM   39  O8  UNL     1      11.143   4.063  -1.370  1.00  0.00    -0.532 OA
HETATM   40  O9  UNL     1       8.983   4.227  -1.842  1.00  0.00    -0.532 OA
ENDBRANCH  34  38
ENDBRANCH  27  29
ENDBRANCH  24  27
ENDBRANCH  22  24
ENDBRANCH   1  22
TORSDOF 14
ENDMDL
MODEL 3
REMARK VINA RESULT: -7.676408682      1.638      2.465
REMARK  14 active torsions:
REMARK  status: ('A' for Active; 'I' for Inactive)
REMARK    1  A    between atoms: C2_2  and  N1_5 
REMARK       I    between atoms: N1_5  and  C5_7 
REMARK    2  A    between atoms: C5_7  and  O2_9 
REMARK    3  A    between atoms: O2_9  and  N2_10 
REMARK    4  A    between atoms: N2_10  and  C6_11 
REMARK    5  A    between atoms: C6_11  and  C7_12 
REMARK    6  A    between atoms: C6_11  and  C17_36 
REMARK    7  A    between atoms: C7_12  and  C8_14 
REMARK    8  A    between atoms: C8_14  and  C9_17 
REMARK    9  A    between atoms: C9_17  and  C10_19 
REMARK   10  A    between atoms: C10_19  and  O5_20 
REMARK   11  A    between atoms: C10_19  and  N3_22 
REMARK   12  A    between atoms: N3_22  and  C11_24 
REMARK   13  A    between atoms: C14_27  and  N4_28 
REMARK   14  A    between atoms: C16_32  and  N5_33 
ROOT
HETATM    1  C8  UNL     1       5.579   2.506  -1.779  1.00  0.00     0.368 C 
HETATM    2  F1  UNL     1       6.926   2.366  -1.518  1.00  0.00    -0.188 F 
HETATM    3  F2  UNL     1       5.410   2.168  -3.110  1.00  0.00    -0.188 F 
ENDROOT
BRANCH   1   4
HETATM    4  C7  UNL     1       5.175   3.894  -1.498  1.00  0.00     0.234 C 
HETATM    5  O3  UNL     1       4.482   4.471  -2.354  1.00  0.00    -0.288 OA
BRANCH   4   6
HETATM    6  C6  UNL     1       5.545   4.639  -0.267  1.00  0.00     0.240 C 
BRANCH   6   7
HETATM    7  N2  UNL     1       6.509   5.699  -0.568  1.00  0.00    -0.070 NA
BRANCH   7   8
HETATM    8  O2  UNL     1       7.735   5.054  -0.636  1.00  0.00    -0.188 OA
BRANCH   8   9
HETATM    9  C5  UNL     1       8.925   5.643  -0.325  1.00  0.00     0.379 C 
HETATM   10  N1  UNL     1       9.062   6.687   0.650  1.00  0.00    -0.328 N 
ATOM     11  H1  UNL     1       8.224   7.005   1.138  1.00  0.00     0.165 HD
HETATM   12  O1  UNL     1       9.962   5.258  -0.917  1.00  0.00    -0.237 OA
BRANCH  10  13
HETATM   13  C2  UNL     1      10.304   7.302   0.974  1.00  0.00     0.024 C 
HETATM   14  C1  UNL     1      11.493   6.409   0.704  1.00  0.00     0.037 C 
HETATM   15  C3  UNL     1      10.435   8.572   0.157  1.00  0.00     0.037 C 
HETATM   16  C4  UNL     1      10.315   7.671   2.434  1.00  0.00     0.037 C 
ENDBRANCH  10  13
ENDBRANCH   8   9
ENDBRANCH   7   8
ENDBRANCH   6   7
BRANCH   6  17
HETATM   17  C17 UNL     1       4.339   5.200   0.411  1.00  0.00     0.081 A 
HETATM   18  C18 UNL     1       3.958   6.525   0.546  1.00  0.00     0.037 A 
HETATM   19  C19 UNL     1       2.764   6.502   1.257  1.00  0.00     0.027 A 
HETATM   20  C20 UNL     1       2.478   5.200   1.516  1.00  0.00     0.142 A 
HETATM   21  O10 UNL     1       3.410   4.466   1.013  1.00  0.00    -0.325 OA
ENDBRANCH   6  17
ENDBRANCH   4   6
ENDBRANCH   1   4
BRANCH   1  22
HETATM   22  C9  UNL     1       4.852   1.516  -0.906  1.00  0.00     0.253 C 
HETATM   23  O4  UNL     1       5.463   0.948  -0.033  1.00  0.00    -0.286 OA
BRANCH  22  24
HETATM   24  C10 UNL     1       3.413   1.269  -1.147  1.00  0.00     0.296 C 
BRANCH  24  25
HETATM   25  O5  UNL     1       3.235  -0.090  -1.468  1.00  0.00    -0.369 OA
ATOM     26  H5  UNL     1       2.402  -0.381  -1.115  1.00  0.00     0.212 HD
ENDBRANCH  24  25
BRANCH  24  27
HETATM   27  N3  UNL     1       2.557   1.650  -0.041  1.00  0.00    -0.356 N 
ATOM     28  H3  UNL     1       2.912   2.314   0.647  1.00  0.00     0.162 HD
BRANCH  27  29
HETATM   29  C11 UNL     1       1.245   1.137   0.122  1.00  0.00     0.063 A 
HETATM   30  C12 UNL     1       1.041   0.058   0.994  1.00  0.00     0.034 A 
HETATM   31  C13 UNL     1      -0.208  -0.447   1.181  1.00  0.00     0.038 A 
HETATM   32  C14 UNL     1      -1.296   0.086   0.527  1.00  0.00     0.105 A 
HETATM   33  C15 UNL     1      -1.103   1.137  -0.320  1.00  0.00     0.074 A 
HETATM   34  C16 UNL     1       0.178   1.695  -0.547  1.00  0.00     0.131 A 
BRANCH  32  35
HETATM   35  N4  UNL     1      -2.606  -0.475   0.750  1.00  0.00    -0.116 N 
HETATM   36  O6  UNL     1      -3.212  -0.244   1.794  1.00  0.00    -0.532 OA
HETATM   37  O7  UNL     1      -3.120  -1.259  -0.248  1.00  0.00    -0.532 OA
ENDBRANCH  32  35
BRANCH  34  38
HETATM   38  N5  UNL     1       0.259   2.771  -1.458  1.00  0.00    -0.113 N 
HETATM   39  O8  UNL     1       0.799   3.834  -1.007  1.00  0.00    -0.532 OA
HETATM   40  O9  UNL     1      -0.161   2.821  -2.731  1.00  0.00    -0.532 OA
ENDBRANCH  34  38
ENDBRANCH  27  29
ENDBRANCH  24  27
ENDBRANCH  22  24
ENDBRANCH   1  22
TORSDOF 14
ENDMDL
MODEL 4
REMARK VINA RESULT: -7.673869775      1.643      2.395
REMARK  14 active torsions:
REMARK  status: ('A' for Active; 'I' for Inactive)
REMARK    1  A    between atoms: C2_2  and  N1_5 
REMARK       I    between atoms: N1_5  and  C5_7 
REMARK    2  A    between atoms: C5_7  and  O2_9 
REMARK    3  A    between atoms: O2_9  and  N2_10 
REMARK    4  A    between atoms: N2_10  and  C6_11 
REMARK    5  A    between atoms: C6_11  and  C7_12 
REMARK    6  A    between atoms: C6_11  and  C17_36 
REMARK    7  A    between atoms: C7_12  and  C8_14 
REMARK    8  A    between atoms: C8_14  and  C9_17 
REMARK    9  A    between atoms: C9_17  and  C10_19 
REMARK   10  A    between atoms: C10_19  and  O5_20 
REMARK   11  A    between atoms: C10_19  and  N3_22 
REMARK   12  A    between atoms: N3_22  and  C11_24 
REMARK   13  A    between atoms: C14_27  and  N4_28 
REMARK   14  A    between atoms: C16_32  and  N5_33 
ROOT
HETATM    1  C8  UNL     1       5.655   2.491  -1.732  1.00  0.00     0.368 C 
HETATM    2  F1  UNL     1       7.002   2.428  -1.441  1.00  0.00    -0.188 F 
HETATM    3  F2  UNL     1       5.537   2.171  -3.072  1.00  0.00    -0.188 F 
ENDROOT
BRANCH   1   4
HETATM    4  C7  UNL     1       5.161   3.847  -1.434  1.00  0.00     0.234 C 
HETATM    5  O3  UNL     1       4.204   4.265  -2.107  1.00  0.00    -0.288 OA
BRANCH   4   6
HETATM    6  C6  UNL     1       5.735   4.734  -0.389  1.00  0.00     0.240 C 
BRANCH   6   7
HETATM    7  N2  UNL     1       6.784   5.588  -0.949  1.00  0.00    -0.070 NA
BRANCH   7   8
HETATM    8  O2  UNL     1       7.973   4.959  -0.608  1.00  0.00    -0.188 OA
BRANCH   8   9
HETATM    9  C5  UNL     1       9.121   5.621  -0.290  1.00  0.00     0.379 C 
HETATM   10  N1  UNL     1       9.186   6.676   0.681  1.00  0.00    -0.328 N 
ATOM     11  H1  UNL     1       8.326   6.945   1.160  1.00  0.00     0.165 HD
HETATM   12  O1  UNL     1      10.185   5.297  -0.871  1.00  0.00    -0.237 OA
BRANCH  10  13
HETATM   13  C2  UNL     1      10.385   7.366   1.013  1.00  0.00     0.024 C 
HETATM   14  C1  UNL     1      11.627   6.540   0.773  1.00  0.00     0.037 C 
HETATM   15  C3  UNL     1      10.454   8.631   0.178  1.00  0.00     0.037 C 
HETATM   16  C4  UNL     1      10.354   7.757   2.467  1.00  0.00     0.037 C 
ENDBRANCH  10  13
ENDBRANCH   8   9
ENDBRANCH   7   8
ENDBRANCH   6   7
BRANCH   6  17
HETATM   17  C17 UNL     1       4.676   5.559   0.264  1.00  0.00     0.081 A 
HETATM   18  C18 UNL     1       3.507   5.141   0.879  1.00  0.00     0.037 A 
HETATM   19  C19 UNL     1       2.879   6.300   1.320  1.00  0.00     0.027 A 
HETATM   20  C20 UNL     1       3.671   7.344   0.963  1.00  0.00     0.142 A 
HETATM   21  O10 UNL     1       4.708   6.884   0.351  1.00  0.00    -0.325 OA
ENDBRANCH   6  17
ENDBRANCH   4   6
ENDBRANCH   1   4
BRANCH   1  22
HETATM   22  C9  UNL     1       4.970   1.442  -0.895  1.00  0.00     0.253 C 
HETATM   23  O4  UNL     1       5.311   1.297   0.254  1.00  0.00    -0.286 OA
BRANCH  22  24
HETATM   24  C10 UNL     1       3.903   0.620  -1.508  1.00  0.00     0.296 C 
BRANCH  24  25
HETATM   25  O5  UNL     1       3.676  -0.506  -0.694  1.00  0.00    -0.369 OA
ATOM     26  H5  UNL     1       3.554  -1.267  -1.250  1.00  0.00     0.212 HD
ENDBRANCH  24  25
BRANCH  24  27
HETATM   27  N3  UNL     1       2.668   1.338  -1.744  1.00  0.00    -0.356 N 
ATOM     28  H3  UNL     1       2.541   1.815  -2.637  1.00  0.00     0.162 HD
BRANCH  27  29
HETATM   29  C11 UNL     1       1.626   1.406  -0.783  1.00  0.00     0.063 A 
HETATM   30  C12 UNL     1       1.699   2.372   0.231  1.00  0.00     0.034 A 
HETATM   31  C13 UNL     1       0.709   2.470   1.159  1.00  0.00     0.038 A 
HETATM   32  C14 UNL     1      -0.382   1.632   1.125  1.00  0.00     0.105 A 
HETATM   33  C15 UNL     1      -0.459   0.693   0.139  1.00  0.00     0.074 A 
HETATM   34  C16 UNL     1       0.547   0.552  -0.847  1.00  0.00     0.131 A 
BRANCH  32  35
HETATM   35  N4  UNL     1      -1.413   1.764   2.125  1.00  0.00    -0.116 N 
HETATM   36  O6  UNL     1      -1.459   0.988   3.076  1.00  0.00    -0.532 OA
HETATM   37  O7  UNL     1      -2.313   2.782   1.953  1.00  0.00    -0.532 OA
ENDBRANCH  32  35
BRANCH  34  38
HETATM   38  N5  UNL     1       0.369  -0.466  -1.808  1.00  0.00    -0.113 N 
HETATM   39  O8  UNL     1      -0.740  -0.442  -2.436  1.00  0.00    -0.532 OA
HETATM   40  O9  UNL     1       1.211  -1.455  -2.143  1.00  0.00    -0.532 OA
ENDBRANCH  34  38
ENDBRANCH  27  29
ENDBRANCH  24  27
ENDBRANCH  22  24
ENDBRANCH   1  22
TORSDOF 14
ENDMDL
MODEL 5
REMARK VINA RESULT: -7.654346054      3.266      8.996
REMARK  14 active torsions:
REMARK  status: ('A' for Active; 'I' for Inactive)
REMARK    1  A    between atoms: C2_2  and  N1_5 
REMARK       I    between atoms: N1_5  and  C5_7 
REMARK    2  A    between atoms: C5_7  and  O2_9 
REMARK    3  A    between atoms: O2_9  and  N2_10 
REMARK    4  A    between atoms: N2_10  and  C6_11 
REMARK    5  A    between atoms: C6_11  and  C7_12 
REMARK    6  A    between atoms: C6_11  and  C17_36 
REMARK    7  A    between atoms: C7_12  and  C8_14 
REMARK    8  A    between atoms: C8_14  and  C9_17 
REMARK    9  A    between atoms: C9_17  and  C10_19 
REMARK   10  A    between atoms: C10_19  and  O5_20 
REMARK   11  A    between atoms: C10_19  and  N3_22 
REMARK   12  A    between atoms: N3_22  and  C11_24 
REMARK   13  A    between atoms: C14_27  and  N4_28 
REMARK   14  A    between atoms: C16_32  and  N5_33 
ROOT
HETATM    1  C8  UNL     1       2.814   0.641  -0.497  1.00  0.00     0.368 C 
HETATM    2  F1  UNL     1       3.088   0.848  -1.832  1.00  0.00    -0.188 F 
HETATM    3  F2  UNL     1       4.039   0.600   0.143  1.00  0.00    -0.188 F 
ENDROOT
BRANCH   1   4
HETATM    4  C7  UNL     1       2.063  -0.618  -0.349  1.00  0.00     0.234 C 
HETATM    5  O3  UNL     1       0.843  -0.585  -0.585  1.00  0.00    -0.288 OA
BRANCH   4   6
HETATM    6  C6  UNL     1       2.671  -1.911   0.061  1.00  0.00     0.240 C 
BRANCH   6   7
HETATM    7  N2  UNL     1       1.813  -2.608   1.021  1.00  0.00    -0.070 NA
BRANCH   7   8
HETATM    8  O2  UNL     1       2.108  -2.027   2.247  1.00  0.00    -0.188 OA
BRANCH   8   9
HETATM    9  C5  UNL     1       1.176  -1.466   3.067  1.00  0.00     0.379 C 
HETATM   10  N1  UNL     1       0.210  -0.499   2.627  1.00  0.00    -0.328 N 
ATOM     11  H1  UNL     1       0.222  -0.217   1.646  1.00  0.00     0.165 HD
HETATM   12  O1  UNL     1       1.151  -1.806   4.275  1.00  0.00    -0.237 OA
BRANCH  10  13
HETATM   13  C2  UNL     1      -0.763   0.087   3.484  1.00  0.00     0.024 C 
HETATM   14  C1  UNL     1      -1.658  -0.935   4.146  1.00  0.00     0.037 C 
HETATM   15  C3  UNL     1      -0.040   0.886   4.551  1.00  0.00     0.037 C 
HETATM   16  C4  UNL     1      -1.630   1.028   2.689  1.00  0.00     0.037 C 
ENDBRANCH  10  13
ENDBRANCH   8   9
ENDBRANCH   7   8
ENDBRANCH   6   7
BRANCH   6  17
HETATM   17  C17 UNL     1       2.953  -2.778  -1.121  1.00  0.00     0.081 A 
HETATM   18  C18 UNL     1       2.806  -2.484  -2.466  1.00  0.00     0.037 A 
HETATM   19  C19 UNL     1       3.204  -3.628  -3.146  1.00  0.00     0.027 A 
HETATM   20  C20 UNL     1       3.567  -4.543  -2.211  1.00  0.00     0.142 A 
HETATM   21  O10 UNL     1       3.411  -4.022  -1.043  1.00  0.00    -0.325 OA
ENDBRANCH   6  17
ENDBRANCH   4   6
ENDBRANCH   1   4
BRANCH   1  22
HETATM   22  C9  UNL     1       2.026   1.831  -0.014  1.00  0.00     0.253 C 
HETATM   23  O4  UNL     1       1.443   1.756   1.041  1.00  0.00    -0.286 OA
BRANCH  22  24
HETATM   24  C10 UNL     1       1.989   3.052  -0.848  1.00  0.00     0.296 C 
BRANCH  24  25
HETATM   25  O5  UNL     1       0.663   3.273  -1.268  1.00  0.00    -0.369 OA
ATOM     26  H5  UNL     1       0.249   3.881  -0.667  1.00  0.00     0.212 HD
ENDBRANCH  24  25
BRANCH  24  27
HETATM   27  N3  UNL     1       2.520   4.230  -0.192  1.00  0.00    -0.356 N 
ATOM     28  H3  UNL     1       1.881   4.831   0.329  1.00  0.00     0.162 HD
BRANCH  27  29
HETATM   29  C11 UNL     1       3.894   4.582  -0.245  1.00  0.00     0.063 A 
HETATM   30  C12 UNL     1       4.798   3.700  -0.854  1.00  0.00     0.034 A 
HETATM   31  C13 UNL     1       6.119   4.016  -0.931  1.00  0.00     0.038 A 
HETATM   32  C14 UNL     1       6.598   5.200  -0.420  1.00  0.00     0.105 A 
HETATM   33  C15 UNL     1       5.721   6.062   0.171  1.00  0.00     0.074 A 
HETATM   34  C16 UNL     1       4.339   5.777   0.276  1.00  0.00     0.131 A 
BRANCH  32  35
HETATM   35  N4  UNL     1       8.004   5.502  -0.519  1.00  0.00    -0.116 N 
HETATM   36  O6  UNL     1       8.732   4.839  -1.255  1.00  0.00    -0.532 OA
HETATM   37  O7  UNL     1       8.466   6.547   0.236  1.00  0.00    -0.532 OA
ENDBRANCH  32  35
BRANCH  34  38
HETATM   38  N5  UNL     1       3.530   6.736   0.923  1.00  0.00    -0.113 N 
HETATM   39  O8  UNL     1       4.153   7.600   1.623  1.00  0.00    -0.532 OA
HETATM   40  O9  UNL     1       2.194   6.853   0.901  1.00  0.00    -0.532 OA
ENDBRANCH  34  38
ENDBRANCH  27  29
ENDBRANCH  24  27
ENDBRANCH  22  24
ENDBRANCH   1  22
TORSDOF 14
ENDMDL
