MODEL 1
REMARK VINA RESULT: -7.123302908      0.000      0.000
REMARK  13 active torsions:
REMARK  status: ('A' for Active; 'I' for Inactive)
REMARK    1  A    between atoms: C2_2  and  C3_3 
REMARK    2  A    between atoms: C3_3  and  C5_5 
REMARK    3  A    between atoms: C5_5  and  N1_6 
REMARK    4  A    between atoms: C5_5  and  C12_20 
REMARK       I    between atoms: N1_6  and  C6_8 
REMARK    5  A    between atoms: C6_8  and  O2_10 
REMARK    6  A    between atoms: O2_10  and  C7_11 
REMARK    7  A    between atoms: C7_11  and  C8_12 
REMARK    8  A    between atoms: C12_20  and  N4_21 
REMARK    9  A    between atoms: C12_20  and  C18_36 
REMARK   10  A    between atoms: N4_21  and  C13_23 
REMARK   11  A    between atoms: C16_30  and  N7_31 
REMARK   12  A    between atoms: C18_36  and  O7_38 
REMARK   13  A    between atoms: O7_38  and  C19_39 
ROOT
HETATM    1  C12 UNL     1       2.292   0.976  -0.597  1.00  0.00     0.109 C 
ENDROOT
BRANCH   1   2
HETATM    2  C5  UNL     1       0.881   1.516  -0.518  1.00  0.00     0.146 C 
BRANCH   2   3
HETATM    3  C3  UNL     1       0.040   1.361  -1.719  1.00  0.00     0.010 C 
HETATM    4  C4  UNL     1      -1.386   0.989  -1.560  1.00  0.00     0.012 C 
BRANCH   3   5
HETATM    5  C2  UNL     1       0.010   2.708  -2.479  1.00  0.00     0.002 C 
HETATM    6  C1  UNL     1      -1.056   2.713  -3.526  1.00  0.00     0.005 C 
ENDBRANCH   3   5
ENDBRANCH   2   3
BRANCH   2   7
HETATM    7  N1  UNL     1       0.288   1.134   0.725  1.00  0.00    -0.326 N 
HETATM    8  C6  UNL     1      -0.380   1.949   1.661  1.00  0.00     0.361 C 
HETATM    9  O1  UNL     1      -0.556   3.190   1.519  1.00  0.00    -0.238 OA
ATOM     10  H1  UNL     1       0.358   0.145   0.964  1.00  0.00     0.165 HD
BRANCH   8  11
HETATM   11  O2  UNL     1      -0.889   1.382   2.814  1.00  0.00    -0.299 OA
BRANCH  11  12
HETATM   12  C7  UNL     1      -0.559   0.072   3.194  1.00  0.00     0.222 C 
BRANCH  12  13
HETATM   13  C8  UNL     1      -0.171   0.046   4.635  1.00  0.00    -0.003 A 
HETATM   14  C9  UNL     1      -0.515   1.066   5.499  1.00  0.00     0.099 A 
HETATM   15  N2  UNL     1      -0.142   1.004   6.787  1.00  0.00    -0.361 N 
HETATM   16  C10 UNL     1       0.571  -0.064   7.229  1.00  0.00     0.180 A 
ATOM     17  H2  UNL     1      -0.393   1.755   7.431  1.00  0.00     0.166 HD
HETATM   18  N3  UNL     1       0.908  -1.056   6.400  1.00  0.00    -0.361 N 
HETATM   19  C11 UNL     1       0.548  -1.023   5.098  1.00  0.00     0.099 A 
ATOM     20  H3  UNL     1       1.444  -1.848   6.754  1.00  0.00     0.166 HD
ENDBRANCH  12  13
ENDBRANCH  11  12
ENDBRANCH   8  11
ENDBRANCH   2   7
ENDBRANCH   1   2
BRANCH   1  21
HETATM   21  N4  UNL     1       3.230   1.556   0.277  1.00  0.00    -0.347 N 
ATOM     22  H4  UNL     1       3.474   1.052   1.130  1.00  0.00     0.166 HD
BRANCH  21  23
HETATM   23  C13 UNL     1       3.849   2.799   0.032  1.00  0.00     0.127 A 
HETATM   24  C14 UNL     1       4.841   2.987  -0.912  1.00  0.00     0.148 A 
HETATM   25  N5  UNL     1       5.345   1.875  -1.659  1.00  0.00    -0.080 NA
HETATM   26  N6  UNL     1       5.404   4.176  -1.159  1.00  0.00    -0.331 N 
HETATM   27  C15 UNL     1       5.016   5.257  -0.482  1.00  0.00     0.142 A 
ATOM     28  H6  UNL     1       6.134   4.255  -1.868  1.00  0.00     0.168 HD
HETATM   29 CL1  UNL     1       5.741   6.844  -0.781  1.00  0.00    -0.062 Cl
HETATM   30  C16 UNL     1       4.033   5.172   0.481  1.00  0.00     0.193 A 
HETATM   31  C17 UNL     1       3.456   3.945   0.733  1.00  0.00     0.237 A 
HETATM   32  O5  UNL     1       2.555   3.870   1.617  1.00  0.00    -0.283 OA
BRANCH  30  33
HETATM   33  N7  UNL     1       3.615   6.337   1.207  1.00  0.00    -0.108 N 
HETATM   34  O3  UNL     1       4.326   6.837   2.089  1.00  0.00    -0.532 OA
HETATM   35  O4  UNL     1       2.393   6.864   0.875  1.00  0.00    -0.532 OA
ENDBRANCH  30  33
ENDBRANCH  21  23
ENDBRANCH   1  21
BRANCH   1  36
HETATM   36  C18 UNL     1       2.336  -0.470  -0.830  1.00  0.00     0.309 C 
HETATM   37  O6  UNL     1       1.620  -1.266  -0.189  1.00  0.00    -0.258 OA
BRANCH  36  38
HETATM   38  O7  UNL     1       3.169  -1.062  -1.776  1.00  0.00    -0.302 OA
BRANCH  38  39
HETATM   39  C19 UNL     1       3.457  -2.442  -1.694  1.00  0.00     0.293 C 
HETATM   40 CL2  UNL     1       3.023  -3.266  -3.206  1.00  0.00    -0.101 Cl
ENDBRANCH  38  39
ENDBRANCH  36  38
ENDBRANCH   1  36
TORSDOF 13
ENDMDL
MODEL 2
REMARK VINA RESULT: -7.115158864      0.959      1.351
REMARK  13 active torsions:
REMARK  status: ('A' for Active; 'I' for Inactive)
REMARK    1  A    between atoms: C2_2  and  C3_3 
REMARK    2  A    between atoms: C3_3  and  C5_5 
REMARK    3  A    between atoms: C5_5  and  N1_6 
REMARK    4  A    between atoms: C5_5  and  C12_20 
REMARK       I    between atoms: N1_6  and  C6_8 
REMARK    5  A    between atoms: C6_8  and  O2_10 
REMARK    6  A    between atoms: O2_10  and  C7_11 
REMARK    7  A    between atoms: C7_11  and  C8_12 
REMARK    8  A    between atoms: C12_20  and  N4_21 
REMARK    9  A    between atoms: C12_20  and  C18_36 
REMARK   10  A    between atoms: N4_21  and  C13_23 
REMARK   11  A    between atoms: C16_30  and  N7_31 
REMARK   12  A    between atoms: C18_36  and  O7_38 
REMARK   13  A    between atoms: O7_38  and  C19_39 
ROOT
HETATM    1  C12 UNL     1       2.268   1.019  -0.776  1.00  0.00     0.109 C 
ENDROOT
BRANCH   1   2
HETATM    2  C5  UNL     1       0.835   1.482  -0.633  1.00  0.00     0.146 C 
BRANCH   2   3
HETATM    3  C3  UNL     1      -0.040   1.313  -1.808  1.00  0.00     0.010 C 
HETATM    4  C4  UNL     1      -1.456   0.922  -1.604  1.00  0.00     0.012 C 
BRANCH   3   5
HETATM    5  C2  UNL     1      -0.112   2.658  -2.568  1.00  0.00     0.002 C 
HETATM    6  C1  UNL     1      -1.200   2.642  -3.592  1.00  0.00     0.005 C 
ENDBRANCH   3   5
ENDBRANCH   2   3
BRANCH   2   7
HETATM    7  N1  UNL     1       0.309   1.039   0.619  1.00  0.00    -0.326 N 
HETATM    8  C6  UNL     1      -0.380   1.790   1.593  1.00  0.00     0.361 C 
HETATM    9  O1  UNL     1      -0.639   3.019   1.483  1.00  0.00    -0.238 OA
ATOM     10  H1  UNL     1       0.450   0.052   0.836  1.00  0.00     0.165 HD
BRANCH   8  11
HETATM   11  O2  UNL     1      -0.813   1.170   2.749  1.00  0.00    -0.299 OA
BRANCH  11  12
HETATM   12  C7  UNL     1      -0.382  -0.121   3.095  1.00  0.00     0.222 C 
BRANCH  12  13
HETATM   13  C8  UNL     1      -0.007  -0.159   4.538  1.00  0.00    -0.003 A 
HETATM   14  C9  UNL     1       0.624  -1.251   5.097  1.00  0.00     0.099 A 
HETATM   15  N2  UNL     1       0.942  -1.244   6.402  1.00  0.00    -0.361 N 
HETATM   16  C10 UNL     1       0.638  -0.159   7.161  1.00  0.00     0.180 A 
ATOM     17  H2  UNL     1       1.408  -2.048   6.821  1.00  0.00     0.166 HD
HETATM   18  N3  UNL     1       0.027   0.903   6.627  1.00  0.00    -0.361 N 
HETATM   19  C11 UNL     1      -0.305   0.926   5.319  1.00  0.00     0.099 A 
ATOM     20  H3  UNL     1      -0.191   1.707   7.216  1.00  0.00     0.166 HD
ENDBRANCH  12  13
ENDBRANCH  11  12
ENDBRANCH   8  11
ENDBRANCH   2   7
ENDBRANCH   1   2
BRANCH   1  21
HETATM   21  N4  UNL     1       3.190   1.556   0.141  1.00  0.00    -0.347 N 
ATOM     22  H4  UNL     1       3.401   1.022   0.985  1.00  0.00     0.166 HD
BRANCH  21  23
HETATM   23  C13 UNL     1       3.836   2.795  -0.048  1.00  0.00     0.127 A 
HETATM   24  C14 UNL     1       4.871   2.990  -0.943  1.00  0.00     0.148 A 
HETATM   25  N5  UNL     1       5.392   1.887  -1.693  1.00  0.00    -0.080 NA
HETATM   26  N6  UNL     1       5.462   4.174  -1.138  1.00  0.00    -0.331 N 
HETATM   27  C15 UNL     1       5.058   5.246  -0.454  1.00  0.00     0.142 A 
ATOM     28  H6  UNL     1       6.222   4.259  -1.812  1.00  0.00     0.168 HD
HETATM   29 CL1  UNL     1       5.818   6.829  -0.684  1.00  0.00    -0.062 Cl
HETATM   30  C16 UNL     1       4.033   5.154   0.463  1.00  0.00     0.193 A 
HETATM   31  C17 UNL     1       3.428   3.931   0.662  1.00  0.00     0.237 A 
HETATM   32  O5  UNL     1       2.489   3.849   1.504  1.00  0.00    -0.283 OA
BRANCH  30  33
HETATM   33  N7  UNL     1       3.599   6.309   1.197  1.00  0.00    -0.108 N 
HETATM   34  O3  UNL     1       4.288   6.791   2.107  1.00  0.00    -0.532 OA
HETATM   35  O4  UNL     1       2.390   6.847   0.839  1.00  0.00    -0.532 OA
ENDBRANCH  30  33
ENDBRANCH  21  23
ENDBRANCH   1  21
BRANCH   1  36
HETATM   36  C18 UNL     1       2.375  -0.395  -1.148  1.00  0.00     0.309 C 
HETATM   37  O6  UNL     1       3.342  -0.834  -1.804  1.00  0.00    -0.258 OA
BRANCH  36  38
HETATM   38  O7  UNL     1       1.419  -1.346  -0.803  1.00  0.00    -0.302 OA
BRANCH  38  39
HETATM   39  C19 UNL     1       1.771  -2.421   0.042  1.00  0.00     0.293 C 
HETATM   40 CL2  UNL     1       2.471  -1.825   1.561  1.00  0.00    -0.101 Cl
ENDBRANCH  38  39
ENDBRANCH  36  38
ENDBRANCH   1  36
TORSDOF 13
ENDMDL
MODEL 3
REMARK VINA RESULT: -7.103113113      2.512      3.778
REMARK  13 active torsions:
REMARK  status: ('A' for Active; 'I' for Inactive)
REMARK    1  A    between atoms: C2_2  and  C3_3 
REMARK    2  A    between atoms: C3_3  and  C5_5 
REMARK    3  A    between atoms: C5_5  and  N1_6 
REMARK    4  A    between atoms: C5_5  and  C12_20 
REMARK       I    between atoms: N1_6  and  C6_8 
REMARK    5  A    between atoms: C6_8  and  O2_10 
REMARK    6  A    between atoms: O2_10  and  C7_11 
REMARK    7  A    between atoms: C7_11  and  C8_12 
REMARK    8  A    between atoms: C12_20  and  N4_21 
REMARK    9  A    between atoms: C12_20  and  C18_36 
REMARK   10  A    between atoms: N4_21  and  C13_23 
REMARK   11  A    between atoms: C16_30  and  N7_31 
REMARK   12  A    between atoms: C18_36  and  O7_38 
REMARK   13  A    between atoms: O7_38  and  C19_39 
ROOT
HETATM    1  C12 UNL     1       1.434   1.133  -1.199  1.00  0.00     0.109 C 
ENDROOT
BRANCH   1   2
HETATM    2  C5  UNL     1       2.082  -0.164  -0.768  1.00  0.00     0.146 C 
BRANCH   2   3
HETATM    3  C3  UNL     1       3.417  -0.457  -1.321  1.00  0.00     0.010 C 
HETATM    4  C4  UNL     1       4.614  -0.241  -0.473  1.00  0.00     0.012 C 
BRANCH   3   5
HETATM    5  C2  UNL     1       3.475  -1.955  -1.704  1.00  0.00     0.002 C 
HETATM    6  C1  UNL     1       2.256  -2.365  -2.465  1.00  0.00     0.005 C 
ENDBRANCH   3   5
ENDBRANCH   2   3
BRANCH   2   7
HETATM    7  N1  UNL     1       1.929  -0.333   0.642  1.00  0.00    -0.326 N 
HETATM    8  C6  UNL     1       1.316  -1.399   1.333  1.00  0.00     0.361 C 
HETATM    9  O1  UNL     1       0.796  -2.400   0.769  1.00  0.00    -0.238 OA
ATOM     10  H1  UNL     1       2.311   0.412   1.223  1.00  0.00     0.165 HD
BRANCH   8  11
HETATM   11  O2  UNL     1       1.270  -1.377   2.713  1.00  0.00    -0.299 OA
BRANCH  11  12
HETATM   12  C7  UNL     1       0.104  -1.010   3.403  1.00  0.00     0.222 C 
BRANCH  12  13
HETATM   13  C8  UNL     1      -0.500   0.198   2.768  1.00  0.00    -0.003 A 
HETATM   14  C9  UNL     1       0.070   1.449   2.898  1.00  0.00     0.099 A 
HETATM   15  N2  UNL     1      -0.509   2.510   2.311  1.00  0.00    -0.361 N 
HETATM   16  C10 UNL     1      -1.650   2.342   1.594  1.00  0.00     0.180 A 
ATOM     17  H2  UNL     1      -0.093   3.437   2.404  1.00  0.00     0.166 HD
HETATM   18  N3  UNL     1      -2.207   1.134   1.463  1.00  0.00    -0.361 N 
HETATM   19  C11 UNL     1      -1.650   0.048   2.041  1.00  0.00     0.099 A 
ATOM     20  H3  UNL     1      -3.064   1.032   0.920  1.00  0.00     0.166 HD
ENDBRANCH  12  13
ENDBRANCH  11  12
ENDBRANCH   8  11
ENDBRANCH   2   7
ENDBRANCH   1   2
BRANCH   1  21
HETATM   21  N4  UNL     1       2.229   2.000  -1.970  1.00  0.00    -0.347 N 
ATOM     22  H4  UNL     1       2.195   1.914  -2.986  1.00  0.00     0.166 HD
BRANCH  21  23
HETATM   23  C13 UNL     1       3.070   2.983  -1.407  1.00  0.00     0.127 A 
HETATM   24  C14 UNL     1       4.354   3.236  -1.849  1.00  0.00     0.148 A 
HETATM   25  N5  UNL     1       4.928   2.437  -2.891  1.00  0.00    -0.080 NA
HETATM   26  N6  UNL     1       5.137   4.189  -1.330  1.00  0.00    -0.331 N 
HETATM   27  C15 UNL     1       4.690   4.955  -0.333  1.00  0.00     0.142 A 
ATOM     28  H6  UNL     1       6.078   4.330  -1.697  1.00  0.00     0.168 HD
HETATM   29 CL1  UNL     1       5.698   6.223   0.380  1.00  0.00    -0.062 Cl
HETATM   30  C16 UNL     1       3.422   4.780   0.178  1.00  0.00     0.193 A 
HETATM   31  C17 UNL     1       2.620   3.796  -0.359  1.00  0.00     0.237 A 
HETATM   32  O5  UNL     1       1.457   3.637   0.112  1.00  0.00    -0.283 OA
BRANCH  30  33
HETATM   33  N7  UNL     1       2.943   5.607   1.249  1.00  0.00    -0.108 N 
HETATM   34  O3  UNL     1       3.082   5.272   2.434  1.00  0.00    -0.532 OA
HETATM   35  O4  UNL     1       2.327   6.779   0.893  1.00  0.00    -0.532 OA
ENDBRANCH  30  33
ENDBRANCH  21  23
ENDBRANCH   1  21
BRANCH   1  36
HETATM   36  C18 UNL     1       0.016   0.976  -1.538  1.00  0.00     0.309 C 
HETATM   37  O6  UNL     1      -0.652  -0.004  -1.152  1.00  0.00    -0.258 OA
BRANCH  36  38
HETATM   38  O7  UNL     1      -0.687   1.899  -2.308  1.00  0.00    -0.302 OA
BRANCH  38  39
HETATM   39  C19 UNL     1      -1.723   1.459  -3.160  1.00  0.00     0.293 C 
HETATM   40 CL2  UNL     1      -2.065   2.670  -4.413  1.00  0.00    -0.101 Cl
ENDBRANCH  38  39
ENDBRANCH  36  38
ENDBRANCH   1  36
TORSDOF 13
ENDMDL
MODEL 4
REMARK VINA RESULT: -7.081301927      1.987      3.232
REMARK  13 active torsions:
REMARK  status: ('A' for Active; 'I' for Inactive)
REMARK    1  A    between atoms: C2_2  and  C3_3 
REMARK    2  A    between atoms: C3_3  and  C5_5 
REMARK    3  A    between atoms: C5_5  and  N1_6 
REMARK    4  A    between atoms: C5_5  and  C12_20 
REMARK       I    between atoms: N1_6  and  C6_8 
REMARK    5  A    between atoms: C6_8  and  O2_10 
REMARK    6  A    between atoms: O2_10  and  C7_11 
REMARK    7  A    between atoms: C7_11  and  C8_12 
REMARK    8  A    between atoms: C12_20  and  N4_21 
REMARK    9  A    between atoms: C12_20  and  C18_36 
REMARK   10  A    between atoms: N4_21  and  C13_23 
REMARK   11  A    between atoms: C16_30  and  N7_31 
REMARK   12  A    between atoms: C18_36  and  O7_38 
REMARK   13  A    between atoms: O7_38  and  C19_39 
ROOT
HETATM    1  C12 UNL     1       1.372   1.742  -1.039  1.00  0.00     0.109 C 
ENDROOT
BRANCH   1   2
HETATM    2  C5  UNL     1       1.758   0.306  -0.766  1.00  0.00     0.146 C 
BRANCH   2   3
HETATM    3  C3  UNL     1       3.033  -0.162  -1.339  1.00  0.00     0.010 C 
HETATM    4  C4  UNL     1       4.226  -0.259  -0.465  1.00  0.00     0.012 C 
BRANCH   3   5
HETATM    5  C2  UNL     1       2.832  -1.595  -1.886  1.00  0.00     0.002 C 
HETATM    6  C1  UNL     1       3.643  -2.586  -1.115  1.00  0.00     0.005 C 
ENDBRANCH   3   5
ENDBRANCH   2   3
BRANCH   2   7
HETATM    7  N1  UNL     1       1.532   0.001   0.612  1.00  0.00    -0.326 N 
HETATM    8  C6  UNL     1       0.799  -1.071   1.162  1.00  0.00     0.361 C 
HETATM    9  O1  UNL     1       0.215  -1.952   0.475  1.00  0.00    -0.238 OA
ATOM     10  H1  UNL     1       1.957   0.641   1.284  1.00  0.00     0.165 HD
BRANCH   8  11
HETATM   11  O2  UNL     1       0.700  -1.192   2.534  1.00  0.00    -0.299 OA
BRANCH  11  12
HETATM   12  C7  UNL     1      -0.378  -0.638   3.243  1.00  0.00     0.222 C 
BRANCH  12  13
HETATM   13  C8  UNL     1       0.002  -0.451   4.674  1.00  0.00    -0.003 A 
HETATM   14  C9  UNL     1      -0.237   0.734   5.341  1.00  0.00     0.099 A 
HETATM   15  N2  UNL     1       0.124   0.860   6.628  1.00  0.00    -0.361 N 
HETATM   16  C10 UNL     1       0.723  -0.181   7.263  1.00  0.00     0.180 A 
ATOM     17  H2  UNL     1      -0.051   1.733   7.126  1.00  0.00     0.166 HD
HETATM   18  N3  UNL     1       0.958  -1.331   6.625  1.00  0.00    -0.361 N 
HETATM   19  C11 UNL     1       0.607  -1.489   5.331  1.00  0.00     0.099 A 
ATOM     20  H3  UNL     1       1.409  -2.099   7.122  1.00  0.00     0.166 HD
ENDBRANCH  12  13
ENDBRANCH  11  12
ENDBRANCH   8  11
ENDBRANCH   2   7
ENDBRANCH   1   2
BRANCH   1  21
HETATM   21  N4  UNL     1       2.244   2.476  -1.863  1.00  0.00    -0.347 N 
ATOM     22  H4  UNL     1       2.145   2.388  -2.875  1.00  0.00     0.166 HD
BRANCH  21  23
HETATM   23  C13 UNL     1       3.251   3.326  -1.360  1.00  0.00     0.127 A 
HETATM   24  C14 UNL     1       4.556   3.319  -1.812  1.00  0.00     0.148 A 
HETATM   25  N5  UNL     1       4.971   2.368  -2.799  1.00  0.00    -0.080 NA
HETATM   26  N6  UNL     1       5.500   4.148  -1.350  1.00  0.00    -0.331 N 
HETATM   27  C15 UNL     1       5.204   5.042  -0.405  1.00  0.00     0.142 A 
ATOM     28  H6  UNL     1       6.448   4.096  -1.722  1.00  0.00     0.168 HD
HETATM   29 CL1  UNL     1       6.427   6.152   0.232  1.00  0.00    -0.062 Cl
HETATM   30  C16 UNL     1       3.928   5.127   0.112  1.00  0.00     0.193 A 
HETATM   31  C17 UNL     1       2.960   4.270  -0.366  1.00  0.00     0.237 A 
HETATM   32  O5  UNL     1       1.791   4.350   0.110  1.00  0.00    -0.283 OA
BRANCH  30  33
HETATM   33  N7  UNL     1       3.612   6.090   1.127  1.00  0.00    -0.108 N 
HETATM   34  O3  UNL     1       3.474   5.757   2.312  1.00  0.00    -0.532 OA
HETATM   35  O4  UNL     1       3.470   7.391   0.718  1.00  0.00    -0.532 OA
ENDBRANCH  30  33
ENDBRANCH  21  23
ENDBRANCH   1  21
BRANCH   1  36
HETATM   36  C18 UNL     1      -0.075   1.924  -1.194  1.00  0.00     0.309 C 
HETATM   37  O6  UNL     1      -0.881   1.604  -0.298  1.00  0.00    -0.258 OA
BRANCH  36  38
HETATM   38  O7  UNL     1      -0.654   2.462  -2.340  1.00  0.00    -0.302 OA
BRANCH  38  39
HETATM   39  C19 UNL     1      -1.428   1.641  -3.189  1.00  0.00     0.293 C 
HETATM   40 CL2  UNL     1      -2.100   2.584  -4.536  1.00  0.00    -0.101 Cl
ENDBRANCH  38  39
ENDBRANCH  36  38
ENDBRANCH   1  36
TORSDOF 13
ENDMDL
MODEL 5
REMARK VINA RESULT: -7.057584322      2.102      3.371
REMARK  13 active torsions:
REMARK  status: ('A' for Active; 'I' for Inactive)
REMARK    1  A    between atoms: C2_2  and  C3_3 
REMARK    2  A    between atoms: C3_3  and  C5_5 
REMARK    3  A    between atoms: C5_5  and  N1_6 
REMARK    4  A    between atoms: C5_5  and  C12_20 
REMARK       I    between atoms: N1_6  and  C6_8 
REMARK    5  A    between atoms: C6_8  and  O2_10 
REMARK    6  A    between atoms: O2_10  and  C7_11 
REMARK    7  A    between atoms: C7_11  and  C8_12 
REMARK    8  A    between atoms: C12_20  and  N4_21 
REMARK    9  A    between atoms: C12_20  and  C18_36 
REMARK   10  A    between atoms: N4_21  and  C13_23 
REMARK   11  A    between atoms: C16_30  and  N7_31 
REMARK   12  A    between atoms: C18_36  and  O7_38 
REMARK   13  A    between atoms: O7_38  and  C19_39 
ROOT
HETATM    1  C12 UNL     1       1.543   1.637  -1.265  1.00  0.00     0.109 C 
ENDROOT
BRANCH   1   2
HETATM    2  C5  UNL     1       1.940   0.222  -0.909  1.00  0.00     0.146 C 
BRANCH   2   3
HETATM    3  C3  UNL     1       3.237  -0.256  -1.423  1.00  0.00     0.010 C 
HETATM    4  C4  UNL     1       4.392  -0.348  -0.497  1.00  0.00     0.012 C 
BRANCH   3   5
HETATM    5  C2  UNL     1       3.055  -1.693  -1.965  1.00  0.00     0.002 C 
HETATM    6  C1  UNL     1       3.766  -2.688  -1.107  1.00  0.00     0.005 C 
ENDBRANCH   3   5
ENDBRANCH   2   3
BRANCH   2   7
HETATM    7  N1  UNL     1       1.680  -0.017   0.476  1.00  0.00    -0.326 N 
HETATM    8  C6  UNL     1       0.965  -1.083   1.061  1.00  0.00     0.361 C 
HETATM    9  O1  UNL     1       0.433  -2.019   0.405  1.00  0.00    -0.238 OA
ATOM     10  H1  UNL     1       2.061   0.673   1.125  1.00  0.00     0.165 HD
BRANCH   8  11
HETATM   11  O2  UNL     1       0.825  -1.134   2.434  1.00  0.00    -0.299 OA
BRANCH  11  12
HETATM   12  C7  UNL     1      -0.434  -1.278   3.038  1.00  0.00     0.222 C 
BRANCH  12  13
HETATM   13  C8  UNL     1      -0.541  -0.358   4.208  1.00  0.00    -0.003 A 
HETATM   14  C9  UNL     1      -1.667   0.408   4.431  1.00  0.00     0.099 A 
HETATM   15  N2  UNL     1      -1.719   1.224   5.496  1.00  0.00    -0.361 N 
HETATM   16  C10 UNL     1      -0.661   1.288   6.345  1.00  0.00     0.180 A 
ATOM     17  H2  UNL     1      -2.549   1.793   5.667  1.00  0.00     0.166 HD
HETATM   18  N3  UNL     1       0.433   0.550   6.137  1.00  0.00    -0.361 N 
HETATM   19  C11 UNL     1       0.516  -0.281   5.076  1.00  0.00     0.099 A 
ATOM     20  H3  UNL     1       1.216   0.614   6.788  1.00  0.00     0.166 HD
ENDBRANCH  12  13
ENDBRANCH  11  12
ENDBRANCH   8  11
ENDBRANCH   2   7
ENDBRANCH   1   2
BRANCH   1  21
HETATM   21  N4  UNL     1       2.460   2.363  -2.046  1.00  0.00    -0.347 N 
ATOM     22  H4  UNL     1       2.422   2.259  -3.060  1.00  0.00     0.166 HD
BRANCH  21  23
HETATM   23  C13 UNL     1       3.429   3.228  -1.496  1.00  0.00     0.127 A 
HETATM   24  C14 UNL     1       4.752   3.247  -1.894  1.00  0.00     0.148 A 
HETATM   25  N5  UNL     1       5.225   2.310  -2.869  1.00  0.00    -0.080 NA
HETATM   26  N6  UNL     1       5.660   4.089  -1.388  1.00  0.00    -0.331 N 
HETATM   27  C15 UNL     1       5.309   4.971  -0.450  1.00  0.00     0.142 A 
ATOM     28  H6  UNL     1       6.624   4.057  -1.720  1.00  0.00     0.168 HD
HETATM   29 CL1  UNL     1       6.485   6.098   0.244  1.00  0.00    -0.062 Cl
HETATM   30  C16 UNL     1       4.012   5.030   0.014  1.00  0.00     0.193 A 
HETATM   31  C17 UNL     1       3.080   4.159  -0.510  1.00  0.00     0.237 A 
HETATM   32  O5  UNL     1       1.892   4.215  -0.082  1.00  0.00    -0.283 OA
BRANCH  30  33
HETATM   33  N7  UNL     1       3.637   5.980   1.021  1.00  0.00    -0.108 N 
HETATM   34  O3  UNL     1       3.460   5.637   2.198  1.00  0.00    -0.532 OA
HETATM   35  O4  UNL     1       3.485   7.281   0.614  1.00  0.00    -0.532 OA
ENDBRANCH  30  33
ENDBRANCH  21  23
ENDBRANCH   1  21
BRANCH   1  36
HETATM   36  C18 UNL     1       0.109   1.774  -1.539  1.00  0.00     0.309 C 
HETATM   37  O6  UNL     1      -0.351   2.738  -2.184  1.00  0.00    -0.258 OA
BRANCH  36  38
HETATM   38  O7  UNL     1      -0.839   0.851  -1.106  1.00  0.00    -0.302 OA
BRANCH  38  39
HETATM   39  C19 UNL     1      -1.795   1.228  -0.138  1.00  0.00     0.293 C 
HETATM   40 CL2  UNL     1      -1.024   2.101   1.203  1.00  0.00    -0.101 Cl
ENDBRANCH  38  39
ENDBRANCH  36  38
ENDBRANCH   1  36
TORSDOF 13
ENDMDL
