MODEL 1
REMARK VINA RESULT: -6.334051390      0.000      0.000
REMARK  3 active torsions:
REMARK  status: ('A' for Active; 'I' for Inactive)
REMARK    1  A    between atoms: C2_2  and  N1_3 
REMARK       I    between atoms: N1_3  and  C3_5 
REMARK    2  A    between atoms: C3_5  and  C4_7 
REMARK    3  A    between atoms: C6_9  and  N2_10 
REMARK       I    between atoms: N2_10  and  C7_12 
REMARK       I    between atoms: C7_12  and  N3_14 
REMARK       I    between atoms: N5_26  and  C16_28 
ROOT
HETATM    1  C4  UNL     1     221.398  -1.693  18.953  1.00  0.00     0.131 C 
HETATM    2  C5  UNL     1     220.227  -1.365  18.139  1.00  0.00     0.058 C 
HETATM    3  C6  UNL     1     219.390  -2.431  17.542  1.00  0.00     0.081 A 
HETATM    4  C9  UNL     1     218.343  -2.991  18.371  1.00  0.00    -0.027 A 
HETATM    5  C10 UNL     1     218.371  -3.819  19.414  1.00  0.00     0.037 C 
HETATM    6  C11 UNL     1     219.562  -4.435  20.063  1.00  0.00     0.044 A 
HETATM    7  N4  UNL     1     219.376  -5.509  20.849  1.00  0.00    -0.365 N 
ATOM      8  H4  UNL     1     218.487  -5.963  21.059  1.00  0.00     0.165 HD
HETATM    9  C12 UNL     1     220.591  -5.868  21.306  1.00  0.00     0.089 A 
HETATM   10  C13 UNL     1     221.568  -5.037  20.824  1.00  0.00     0.032 A 
HETATM   11  C14 UNL     1     220.911  -4.125  20.032  1.00  0.00     0.015 A 
HETATM   12  C15 UNL     1     221.661  -3.072  19.352  1.00  0.00     0.037 C 
HETATM   13  N5  UNL     1     222.845  -3.565  19.083  1.00  0.00    -0.329 N 
ATOM     14  H5  UNL     1     223.026  -4.529  19.363  1.00  0.00     0.168 HD
HETATM   15  C16 UNL     1     223.881  -2.879  18.444  1.00  0.00     0.217 C 
HETATM   16  C17 UNL     1     223.977  -2.947  16.945  1.00  0.00     0.117 C 
HETATM   17  O3  UNL     1     224.769  -2.191  19.010  1.00  0.00    -0.274 OA
HETATM   18  C18 UNL     1     217.916  -2.075  17.279  1.00  0.00     0.146 A 
HETATM   19 CL1  UNL     1     217.396  -0.438  17.762  1.00  0.00    -0.117 Cl
ENDROOT
BRANCH   3  20
HETATM   20  N2  UNL     1     219.983  -3.193  16.472  1.00  0.00    -0.328 N 
HETATM   21  C7  UNL     1     220.598  -2.523  15.396  1.00  0.00     0.316 C 
HETATM   22  O2  UNL     1     220.622  -1.282  15.341  1.00  0.00    -0.247 OA
HETATM   23  N3  UNL     1     221.215  -3.252  14.329  1.00  0.00    -0.347 N 
HETATM   24  C8  UNL     1     221.851  -2.586  13.215  1.00  0.00     0.151 C 
ATOM     25  H3  UNL     1     221.205  -4.271  14.356  1.00  0.00     0.163 HD
ATOM     26  H2  UNL     1     219.959  -4.213  16.493  1.00  0.00     0.165 HD
ENDBRANCH   3  20
BRANCH   1  27
HETATM   27  C3  UNL     1     221.444  -0.740  20.108  1.00  0.00     0.227 C 
HETATM   28  N1  UNL     1     222.598  -0.422  20.818  1.00  0.00    -0.361 N 
ATOM     29  H1  UNL     1     223.482  -0.854  20.551  1.00  0.00     0.162 HD
HETATM   30  O1  UNL     1     220.367  -0.197  20.451  1.00  0.00    -0.273 OA
BRANCH  28  31
HETATM   31  C2  UNL     1     222.576   0.503  21.919  1.00  0.00     0.118 C 
HETATM   32  C1  UNL     1     223.381  -0.044  23.086  1.00  0.00     0.026 C 
ENDBRANCH  28  31
ENDBRANCH   1  27
TORSDOF 3
ENDMDL
MODEL 2
REMARK VINA RESULT: -6.217602165      2.715      5.447
REMARK  3 active torsions:
REMARK  status: ('A' for Active; 'I' for Inactive)
REMARK    1  A    between atoms: C2_2  and  N1_3 
REMARK       I    between atoms: N1_3  and  C3_5 
REMARK    2  A    between atoms: C3_5  and  C4_7 
REMARK    3  A    between atoms: C6_9  and  N2_10 
REMARK       I    between atoms: N2_10  and  C7_12 
REMARK       I    between atoms: C7_12  and  N3_14 
REMARK       I    between atoms: N5_26  and  C16_28 
ROOT
HETATM    1  C4  UNL     1     221.444  -3.589  19.313  1.00  0.00     0.131 C 
HETATM    2  C5  UNL     1     220.869  -4.923  19.131  1.00  0.00     0.058 C 
HETATM    3  C6  UNL     1     219.406  -5.141  19.207  1.00  0.00     0.081 A 
HETATM    4  C9  UNL     1     218.642  -4.923  17.997  1.00  0.00    -0.027 A 
HETATM    5  C10 UNL     1     218.282  -3.814  17.351  1.00  0.00     0.037 C 
HETATM    6  C11 UNL     1     218.587  -2.402  17.714  1.00  0.00     0.044 A 
HETATM    7  N4  UNL     1     217.845  -1.427  17.162  1.00  0.00    -0.365 N 
ATOM      8  H4  UNL     1     217.075  -1.546  16.505  1.00  0.00     0.165 HD
HETATM    9  C12 UNL     1     218.317  -0.262  17.647  1.00  0.00     0.089 A 
HETATM   10  C13 UNL     1     219.361  -0.470  18.511  1.00  0.00     0.032 A 
HETATM   11  C14 UNL     1     219.532  -1.834  18.552  1.00  0.00     0.015 A 
HETATM   12  C15 UNL     1     220.581  -2.414  19.386  1.00  0.00     0.037 C 
HETATM   13  N5  UNL     1     220.725  -1.621  20.420  1.00  0.00    -0.329 N 
ATOM     14  H5  UNL     1     220.120  -0.801  20.468  1.00  0.00     0.168 HD
HETATM   15  C16 UNL     1     221.639  -1.805  21.461  1.00  0.00     0.217 C 
HETATM   16  C17 UNL     1     221.213  -2.600  22.663  1.00  0.00     0.117 C 
HETATM   17  O3  UNL     1     222.814  -1.361  21.497  1.00  0.00    -0.274 OA
HETATM   18  C18 UNL     1     218.852  -6.336  18.411  1.00  0.00     0.146 A 
HETATM   19 CL1  UNL     1     220.037  -7.281  17.470  1.00  0.00    -0.117 Cl
ENDROOT
BRANCH   3  20
HETATM   20  N2  UNL     1     218.801  -5.003  20.508  1.00  0.00    -0.328 N 
HETATM   21  C7  UNL     1     219.380  -5.647  21.619  1.00  0.00     0.316 C 
HETATM   22  O2  UNL     1     220.396  -6.352  21.496  1.00  0.00    -0.247 OA
HETATM   23  N3  UNL     1     218.815  -5.512  22.927  1.00  0.00    -0.347 N 
HETATM   24  C8  UNL     1     219.392  -6.165  24.082  1.00  0.00     0.151 C 
ATOM     25  H3  UNL     1     217.981  -4.938  23.049  1.00  0.00     0.163 HD
ATOM     26  H2  UNL     1     217.958  -4.441  20.625  1.00  0.00     0.165 HD
ENDBRANCH   3  20
BRANCH   1  27
HETATM   27  C3  UNL     1     222.560  -3.424  18.328  1.00  0.00     0.227 C 
HETATM   28  N1  UNL     1     223.624  -2.542  18.487  1.00  0.00    -0.361 N 
ATOM     29  H1  UNL     1     223.666  -1.959  19.323  1.00  0.00     0.162 HD
HETATM   30  O1  UNL     1     222.526  -4.132  17.293  1.00  0.00    -0.273 OA
BRANCH  28  31
HETATM   31  C2  UNL     1     224.666  -2.430  17.503  1.00  0.00     0.118 C 
HETATM   32  C1  UNL     1     226.031  -2.547  18.160  1.00  0.00     0.026 C 
ENDBRANCH  28  31
ENDBRANCH   1  27
TORSDOF 3
ENDMDL
MODEL 3
REMARK VINA RESULT: -6.210625871      2.658      5.045
REMARK  3 active torsions:
REMARK  status: ('A' for Active; 'I' for Inactive)
REMARK    1  A    between atoms: C2_2  and  N1_3 
REMARK       I    between atoms: N1_3  and  C3_5 
REMARK    2  A    between atoms: C3_5  and  C4_7 
REMARK    3  A    between atoms: C6_9  and  N2_10 
REMARK       I    between atoms: N2_10  and  C7_12 
REMARK       I    between atoms: C7_12  and  N3_14 
REMARK       I    between atoms: N5_26  and  C16_28 
ROOT
HETATM    1  C4  UNL     1     219.260  -2.587  18.752  1.00  0.00     0.131 C 
HETATM    2  C5  UNL     1     219.169  -3.614  19.790  1.00  0.00     0.058 C 
HETATM    3  C6  UNL     1     219.551  -5.018  19.511  1.00  0.00     0.081 A 
HETATM    4  C9  UNL     1     220.950  -5.361  19.650  1.00  0.00    -0.027 A 
HETATM    5  C10 UNL     1     222.019  -5.090  18.901  1.00  0.00     0.037 C 
HETATM    6  C11 UNL     1     222.076  -4.305  17.637  1.00  0.00     0.044 A 
HETATM    7  N4  UNL     1     223.154  -4.447  16.846  1.00  0.00    -0.365 N 
ATOM      8  H4  UNL     1     223.960  -5.047  17.018  1.00  0.00     0.165 HD
HETATM    9  C12 UNL     1     222.962  -3.641  15.784  1.00  0.00     0.089 A 
HETATM   10  C13 UNL     1     221.767  -2.976  15.875  1.00  0.00     0.032 A 
HETATM   11  C14 UNL     1     221.204  -3.399  17.056  1.00  0.00     0.015 A 
HETATM   12  C15 UNL     1     219.906  -2.878  17.475  1.00  0.00     0.037 C 
HETATM   13  N5  UNL     1     219.227  -2.629  16.383  1.00  0.00    -0.329 N 
ATOM     14  H5  UNL     1     219.681  -2.834  15.493  1.00  0.00     0.168 HD
HETATM   15  C16 UNL     1     217.932  -2.105  16.336  1.00  0.00     0.217 C 
HETATM   16  C17 UNL     1     216.768  -3.055  16.339  1.00  0.00     0.117 C 
HETATM   17  O3  UNL     1     217.633  -0.884  16.290  1.00  0.00    -0.274 OA
HETATM   18  C18 UNL     1     220.033  -5.846  20.716  1.00  0.00     0.146 A 
HETATM   19 CL1  UNL     1     220.106  -4.999  22.284  1.00  0.00    -0.117 Cl
ENDROOT
BRANCH   3  20
HETATM   20  N2  UNL     1     218.683  -5.759  18.630  1.00  0.00    -0.328 N 
HETATM   21  C7  UNL     1     217.295  -5.774  18.869  1.00  0.00     0.316 C 
HETATM   22  O2  UNL     1     216.803  -5.174  19.840  1.00  0.00    -0.247 OA
HETATM   23  N3  UNL     1     216.405  -6.483  18.001  1.00  0.00    -0.347 N 
HETATM   24  C8  UNL     1     214.977  -6.513  18.226  1.00  0.00     0.151 C 
ATOM     25  H3  UNL     1     216.790  -6.982  17.199  1.00  0.00     0.163 HD
ATOM     26  H2  UNL     1     219.072  -6.270  17.838  1.00  0.00     0.165 HD
ENDBRANCH   3  20
BRANCH   1  27
HETATM   27  C3  UNL     1     219.775  -1.330  19.384  1.00  0.00     0.227 C 
HETATM   28  N1  UNL     1     220.811  -1.284  20.311  1.00  0.00    -0.361 N 
ATOM     29  H1  UNL     1     221.265  -2.153  20.593  1.00  0.00     0.162 HD
HETATM   30  O1  UNL     1     219.230  -0.251  19.049  1.00  0.00    -0.273 OA
BRANCH  28  31
HETATM   31  C2  UNL     1     221.259  -0.044  20.882  1.00  0.00     0.118 C 
HETATM   32  C1  UNL     1     221.300  -0.142  22.399  1.00  0.00     0.026 C 
ENDBRANCH  28  31
ENDBRANCH   1  27
TORSDOF 3
ENDMDL
MODEL 4
REMARK VINA RESULT: -6.109349069      1.477      1.683
REMARK  3 active torsions:
REMARK  status: ('A' for Active; 'I' for Inactive)
REMARK    1  A    between atoms: C2_2  and  N1_3 
REMARK       I    between atoms: N1_3  and  C3_5 
REMARK    2  A    between atoms: C3_5  and  C4_7 
REMARK    3  A    between atoms: C6_9  and  N2_10 
REMARK       I    between atoms: N2_10  and  C7_12 
REMARK       I    between atoms: C7_12  and  N3_14 
REMARK       I    between atoms: N5_26  and  C16_28 
ROOT
HETATM    1  C4  UNL     1     221.069  -2.302  18.812  1.00  0.00     0.131 C 
HETATM    2  C5  UNL     1     220.483  -1.495  17.741  1.00  0.00     0.058 C 
HETATM    3  C6  UNL     1     219.723  -2.127  16.638  1.00  0.00     0.081 A 
HETATM    4  C9  UNL     1     218.317  -2.387  16.868  1.00  0.00    -0.027 A 
HETATM    5  C10 UNL     1     217.682  -3.292  17.611  1.00  0.00     0.037 C 
HETATM    6  C11 UNL     1     218.278  -4.355  18.469  1.00  0.00     0.044 A 
HETATM    7  N4  UNL     1     217.499  -5.385  18.842  1.00  0.00    -0.365 N 
ATOM      8  H4  UNL     1     216.519  -5.526  18.599  1.00  0.00     0.165 HD
HETATM    9  C12 UNL     1     218.265  -6.193  19.600  1.00  0.00     0.089 A 
HETATM   10  C13 UNL     1     219.538  -5.698  19.724  1.00  0.00     0.032 A 
HETATM   11  C14 UNL     1     219.544  -4.527  19.003  1.00  0.00     0.015 A 
HETATM   12  C15 UNL     1     220.761  -3.725  18.923  1.00  0.00     0.037 C 
HETATM   13  N5  UNL     1     221.770  -4.559  18.983  1.00  0.00    -0.329 N 
ATOM     14  H5  UNL     1     221.551  -5.553  19.059  1.00  0.00     0.168 HD
HETATM   15  C16 UNL     1     223.120  -4.201  18.950  1.00  0.00     0.217 C 
HETATM   16  C17 UNL     1     223.814  -4.118  17.620  1.00  0.00     0.117 C 
HETATM   17  O3  UNL     1     223.835  -3.934  19.950  1.00  0.00    -0.274 OA
HETATM   18  C18 UNL     1     218.650  -1.256  15.961  1.00  0.00     0.146 A 
HETATM   19 CL1  UNL     1     218.434   0.390  16.616  1.00  0.00    -0.117 Cl
ENDROOT
BRANCH   3  20
HETATM   20  N2  UNL     1     220.484  -2.913  15.699  1.00  0.00    -0.328 N 
HETATM   21  C7  UNL     1     221.689  -2.403  15.178  1.00  0.00     0.316 C 
HETATM   22  O2  UNL     1     222.102  -1.276  15.498  1.00  0.00    -0.247 OA
HETATM   23  N3  UNL     1     222.478  -3.168  14.260  1.00  0.00    -0.347 N 
HETATM   24  C8  UNL     1     223.717  -2.665  13.712  1.00  0.00     0.151 C 
ATOM     25  H3  UNL     1     222.155  -4.095  13.984  1.00  0.00     0.163 HD
ATOM     26  H2  UNL     1     220.151  -3.834  15.413  1.00  0.00     0.165 HD
ENDBRANCH   3  20
BRANCH   1  27
HETATM   27  C3  UNL     1     220.878  -1.569  20.105  1.00  0.00     0.227 C 
HETATM   28  N1  UNL     1     221.539  -1.881  21.289  1.00  0.00    -0.361 N 
ATOM     29  H1  UNL     1     222.201  -2.656  21.300  1.00  0.00     0.162 HD
HETATM   30  O1  UNL     1     220.068  -0.611  20.112  1.00  0.00    -0.273 OA
BRANCH  28  31
HETATM   31  C2  UNL     1     221.311  -1.137  22.498  1.00  0.00     0.118 C 
HETATM   32  C1  UNL     1     222.444  -0.151  22.736  1.00  0.00     0.026 C 
ENDBRANCH  28  31
ENDBRANCH   1  27
TORSDOF 3
ENDMDL
MODEL 5
REMARK VINA RESULT: -6.076754405      2.970      5.894
REMARK  3 active torsions:
REMARK  status: ('A' for Active; 'I' for Inactive)
REMARK    1  A    between atoms: C2_2  and  N1_3 
REMARK       I    between atoms: N1_3  and  C3_5 
REMARK    2  A    between atoms: C3_5  and  C4_7 
REMARK    3  A    between atoms: C6_9  and  N2_10 
REMARK       I    between atoms: N2_10  and  C7_12 
REMARK       I    between atoms: C7_12  and  N3_14 
REMARK       I    between atoms: N5_26  and  C16_28 
ROOT
HETATM    1  C4  UNL     1     219.322  -3.383  19.963  1.00  0.00     0.131 C 
HETATM    2  C5  UNL     1     220.579  -2.641  20.069  1.00  0.00     0.058 C 
HETATM    3  C6  UNL     1     221.884  -3.324  19.917  1.00  0.00     0.081 A 
HETATM    4  C9  UNL     1     222.390  -3.491  18.571  1.00  0.00    -0.027 A 
HETATM    5  C10 UNL     1     222.032  -4.296  17.572  1.00  0.00     0.037 C 
HETATM    6  C11 UNL     1     220.942  -5.312  17.558  1.00  0.00     0.044 A 
HETATM    7  N4  UNL     1     220.969  -6.265  16.612  1.00  0.00    -0.365 N 
ATOM      8  H4  UNL     1     221.671  -6.376  15.880  1.00  0.00     0.165 HD
HETATM    9  C12 UNL     1     219.890  -7.044  16.817  1.00  0.00     0.089 A 
HETATM   10  C13 UNL     1     219.159  -6.607  17.891  1.00  0.00     0.032 A 
HETATM   11  C14 UNL     1     219.830  -5.503  18.362  1.00  0.00     0.015 A 
HETATM   12  C15 UNL     1     219.317  -4.773  19.518  1.00  0.00     0.037 C 
HETATM   13  N5  UNL     1     218.713  -5.650  20.282  1.00  0.00    -0.329 N 
ATOM     14  H5  UNL     1     218.712  -6.621  19.969  1.00  0.00     0.168 HD
HETATM   15  C16 UNL     1     218.070  -5.366  21.490  1.00  0.00     0.217 C 
HETATM   16  C17 UNL     1     218.864  -5.431  22.764  1.00  0.00     0.117 C 
HETATM   17  O3  UNL     1     216.860  -5.052  21.624  1.00  0.00    -0.274 OA
HETATM   18  C18 UNL     1     223.053  -2.459  19.413  1.00  0.00     0.146 A 
HETATM   19 CL1  UNL     1     222.677  -0.755  19.040  1.00  0.00    -0.117 Cl
ENDROOT
BRANCH   3  20
HETATM   20  N2  UNL     1     222.267  -4.225  20.976  1.00  0.00    -0.328 N 
HETATM   21  C7  UNL     1     222.326  -3.755  22.303  1.00  0.00     0.316 C 
HETATM   22  O2  UNL     1     222.072  -2.571  22.578  1.00  0.00    -0.247 OA
HETATM   23  N3  UNL     1     222.682  -4.630  23.379  1.00  0.00    -0.347 N 
HETATM   24  C8  UNL     1     222.750  -4.171  24.748  1.00  0.00     0.151 C 
ATOM     25  H3  UNL     1     222.895  -5.606  23.173  1.00  0.00     0.163 HD
ATOM     26  H2  UNL     1     222.494  -5.197  20.766  1.00  0.00     0.165 HD
ENDBRANCH   3  20
BRANCH   1  27
HETATM   27  C3  UNL     1     218.343  -2.535  19.211  1.00  0.00     0.227 C 
HETATM   28  N1  UNL     1     218.549  -1.198  18.884  1.00  0.00    -0.361 N 
ATOM     29  H1  UNL     1     219.419  -0.746  19.165  1.00  0.00     0.162 HD
HETATM   30  O1  UNL     1     217.266  -3.073  18.855  1.00  0.00    -0.273 OA
BRANCH  28  31
HETATM   31  C2  UNL     1     217.568  -0.437  18.159  1.00  0.00     0.118 C 
HETATM   32  C1  UNL     1     218.158   0.090  16.861  1.00  0.00     0.026 C 
ENDBRANCH  28  31
ENDBRANCH   1  27
TORSDOF 3
ENDMDL
