MODEL 1
REMARK VINA RESULT: -7.316055135      0.000      0.000
REMARK  7 active torsions:
REMARK  status: ('A' for Active; 'I' for Inactive)
REMARK       I    between atoms: C2_2  and  N1_4 
REMARK    1  A    between atoms: N1_4  and  N2_6 
REMARK    2  A    between atoms: N2_6  and  C3_8 
REMARK    3  A    between atoms: C3_8  and  O2_9 
REMARK    4  A    between atoms: C3_8  and  N3_11 
REMARK    5  A    between atoms: C4_13  and  O3_14 
REMARK    6  A    between atoms: C4_13  and  C5_16 
REMARK    7  A    between atoms: N5_25  and  C11_27 
ROOT
HETATM    1  C5  UNL     1     217.369  -6.007  19.911  1.00  0.00     0.060 A 
HETATM    2  C6  UNL     1     217.843  -6.142  21.224  1.00  0.00     0.040 A 
HETATM    3  C7  UNL     1     217.152  -6.959  22.083  1.00  0.00     0.034 A 
HETATM    4 BR1  UNL     1     217.722  -7.207  23.903  1.00  0.00    -0.049 Br
HETATM    5  C8  UNL     1     216.028  -7.609  21.626  1.00  0.00     0.024 A 
HETATM    6  C9  UNL     1     215.280  -8.499  22.562  1.00  0.00     0.069 C 
HETATM    7  N4  UNL     1     215.588  -7.464  20.356  1.00  0.00    -0.344 N 
ATOM      8  H4  UNL     1     214.751  -7.963  20.059  1.00  0.00     0.167 HD
HETATM    9  C10 UNL     1     216.229  -6.678  19.480  1.00  0.00     0.116 A 
HETATM   10  N5  UNL     1     215.836  -6.504  18.294  1.00  0.00    -0.367 N 
ATOM     11  H5  UNL     1     216.407  -5.867  17.738  1.00  0.00     0.162 HD
ENDROOT
BRANCH   1  12
HETATM   12  C4  UNL     1     218.178  -5.139  19.069  1.00  0.00     0.157 C 
HETATM   13  N3  UNL     1     219.398  -5.281  18.487  1.00  0.00    -0.301 N 
ATOM     14  H3  UNL     1     219.629  -4.531  17.836  1.00  0.00     0.171 HD
BRANCH  13  15
HETATM   15  C3  UNL     1     220.388  -6.238  18.603  1.00  0.00     0.238 C 
BRANCH  15  16
HETATM   16  N2  UNL     1     221.417  -6.335  19.543  1.00  0.00    -0.263 N 
ATOM     17  H2  UNL     1     222.142  -7.047  19.452  1.00  0.00     0.190 HD
BRANCH  16  18
HETATM   18  N1  UNL     1     221.431  -5.419  20.630  1.00  0.00    -0.267 N 
HETATM   19  C2  UNL     1     221.294  -5.878  21.957  1.00  0.00     0.232 C 
HETATM   20  C1  UNL     1     221.313  -4.892  23.075  1.00  0.00     0.119 C 
HETATM   21  O1  UNL     1     221.157  -7.094  22.202  1.00  0.00    -0.272 OA
ATOM     22  H1  UNL     1     221.541  -4.421  20.449  1.00  0.00     0.190 HD
ENDBRANCH  16  18
ENDBRANCH  15  16
BRANCH  15  23
HETATM   23  O2  UNL     1     220.392  -7.198  17.720  1.00  0.00    -0.331 OA
ATOM     24  H2  UNL     1     220.239  -6.901  16.831  1.00  0.00     0.221 HD
ENDBRANCH  15  23
ENDBRANCH  13  15
BRANCH  12  25
HETATM   25  O3  UNL     1     217.562  -3.990  18.853  1.00  0.00    -0.345 OA
ATOM     26  H3  UNL     1     217.288  -3.511  19.626  1.00  0.00     0.219 HD
ENDBRANCH  12  25
ENDBRANCH   1  12
BRANCH  10  27
HETATM   27  C11 UNL     1     214.716  -7.063  17.612  1.00  0.00     0.021 C 
HETATM   28  C12 UNL     1     214.339  -8.442  18.045  1.00  0.00     0.037 C 
HETATM   29  C13 UNL     1     215.110  -7.134  16.128  1.00  0.00     0.037 C 
HETATM   30  C14 UNL     1     213.482  -6.198  17.688  1.00  0.00     0.037 C 
ENDBRANCH  10  27
TORSDOF 7
ENDMDL
MODEL 2
REMARK VINA RESULT: -7.151570173      1.913      2.474
REMARK  7 active torsions:
REMARK  status: ('A' for Active; 'I' for Inactive)
REMARK       I    between atoms: C2_2  and  N1_4 
REMARK    1  A    between atoms: N1_4  and  N2_6 
REMARK    2  A    between atoms: N2_6  and  C3_8 
REMARK    3  A    between atoms: C3_8  and  O2_9 
REMARK    4  A    between atoms: C3_8  and  N3_11 
REMARK    5  A    between atoms: C4_13  and  O3_14 
REMARK    6  A    between atoms: C4_13  and  C5_16 
REMARK    7  A    between atoms: N5_25  and  C11_27 
ROOT
HETATM    1  C5  UNL     1     217.101  -5.731  20.117  1.00  0.00     0.060 A 
HETATM    2  C6  UNL     1     217.541  -5.902  21.438  1.00  0.00     0.040 A 
HETATM    3  C7  UNL     1     216.960  -6.888  22.194  1.00  0.00     0.034 A 
HETATM    4 BR1  UNL     1     217.493  -7.198  24.015  1.00  0.00    -0.049 Br
HETATM    5  C8  UNL     1     215.974  -7.666  21.630  1.00  0.00     0.024 A 
HETATM    6  C9  UNL     1     215.345  -8.740  22.454  1.00  0.00     0.069 C 
HETATM    7  N4  UNL     1     215.564  -7.484  20.355  1.00  0.00    -0.344 N 
ATOM      8  H4  UNL     1     214.830  -8.082  19.977  1.00  0.00     0.167 HD
HETATM    9  C10 UNL     1     216.102  -6.535  19.577  1.00  0.00     0.116 A 
HETATM   10  N5  UNL     1     215.731  -6.324  18.389  1.00  0.00    -0.367 N 
ATOM     11  H5  UNL     1     216.212  -5.560  17.915  1.00  0.00     0.162 HD
ENDROOT
BRANCH   1  12
HETATM   12  C4  UNL     1     217.791  -4.678  19.388  1.00  0.00     0.157 C 
HETATM   13  N3  UNL     1     218.579  -4.674  18.281  1.00  0.00    -0.301 N 
ATOM     14  H3  UNL     1     218.800  -3.738  17.940  1.00  0.00     0.171 HD
BRANCH  13  15
HETATM   15  C3  UNL     1     219.142  -5.685  17.525  1.00  0.00     0.238 C 
BRANCH  15  16
HETATM   16  N2  UNL     1     220.443  -6.195  17.561  1.00  0.00    -0.263 N 
ATOM     17  H2  UNL     1     220.652  -7.055  18.068  1.00  0.00     0.190 HD
BRANCH  16  18
HETATM   18  N1  UNL     1     221.467  -5.487  16.876  1.00  0.00    -0.267 N 
HETATM   19  C2  UNL     1     222.075  -4.357  17.463  1.00  0.00     0.232 C 
HETATM   20  C1  UNL     1     223.148  -3.637  16.719  1.00  0.00     0.119 C 
HETATM   21  O1  UNL     1     221.724  -3.957  18.592  1.00  0.00    -0.272 OA
ATOM     22  H1  UNL     1     221.766  -5.799  15.952  1.00  0.00     0.190 HD
ENDBRANCH  16  18
ENDBRANCH  15  16
BRANCH  15  23
HETATM   23  O2  UNL     1     218.376  -6.262  16.641  1.00  0.00    -0.331 OA
ATOM     24  H2  UNL     1     217.889  -7.003  16.981  1.00  0.00     0.221 HD
ENDBRANCH  15  23
ENDBRANCH  13  15
BRANCH  12  25
HETATM   25  O3  UNL     1     217.580  -3.502  19.955  1.00  0.00    -0.345 OA
ATOM     26  H3  UNL     1     217.185  -2.838  19.402  1.00  0.00     0.219 HD
ENDBRANCH  12  25
ENDBRANCH   1  12
BRANCH  10  27
HETATM   27  C11 UNL     1     214.743  -6.992  17.610  1.00  0.00     0.021 C 
HETATM   28  C12 UNL     1     215.094  -7.176  16.170  1.00  0.00     0.037 C 
HETATM   29  C13 UNL     1     213.483  -6.111  17.671  1.00  0.00     0.037 C 
HETATM   30  C14 UNL     1     214.353  -8.338  18.170  1.00  0.00     0.037 C 
ENDBRANCH  10  27
TORSDOF 7
ENDMDL
MODEL 3
REMARK VINA RESULT: -7.134603178      1.510      1.572
REMARK  7 active torsions:
REMARK  status: ('A' for Active; 'I' for Inactive)
REMARK       I    between atoms: C2_2  and  N1_4 
REMARK    1  A    between atoms: N1_4  and  N2_6 
REMARK    2  A    between atoms: N2_6  and  C3_8 
REMARK    3  A    between atoms: C3_8  and  O2_9 
REMARK    4  A    between atoms: C3_8  and  N3_11 
REMARK    5  A    between atoms: C4_13  and  O3_14 
REMARK    6  A    between atoms: C4_13  and  C5_16 
REMARK    7  A    between atoms: N5_25  and  C11_27 
ROOT
HETATM    1  C5  UNL     1     217.454  -5.460  18.973  1.00  0.00     0.060 A 
HETATM    2  C6  UNL     1     218.210  -5.382  20.152  1.00  0.00     0.040 A 
HETATM    3  C7  UNL     1     217.802  -6.120  21.235  1.00  0.00     0.034 A 
HETATM    4 BR1  UNL     1     218.771  -6.078  22.896  1.00  0.00    -0.049 Br
HETATM    5  C8  UNL     1     216.676  -6.903  21.122  1.00  0.00     0.024 A 
HETATM    6  C9  UNL     1     216.236  -7.707  22.300  1.00  0.00     0.069 C 
HETATM    7  N4  UNL     1     215.962  -6.962  19.976  1.00  0.00    -0.344 N 
ATOM      8  H4  UNL     1     215.133  -7.555  19.935  1.00  0.00     0.167 HD
HETATM    9  C10 UNL     1     216.320  -6.261  18.892  1.00  0.00     0.116 A 
HETATM   10  N5  UNL     1     215.667  -6.278  17.812  1.00  0.00    -0.367 N 
ATOM     11  H5  UNL     1     216.040  -5.685  17.071  1.00  0.00     0.162 HD
ENDROOT
BRANCH   1  12
HETATM   12  C4  UNL     1     217.976  -4.661  17.875  1.00  0.00     0.157 C 
HETATM   13  N3  UNL     1     218.985  -4.849  16.984  1.00  0.00    -0.301 N 
ATOM     14  H3  UNL     1     219.008  -4.151  16.240  1.00  0.00     0.171 HD
BRANCH  13  15
HETATM   15  C3  UNL     1     219.987  -5.796  16.886  1.00  0.00     0.238 C 
BRANCH  15  16
HETATM   16  N2  UNL     1     220.998  -6.108  17.798  1.00  0.00    -0.263 N 
ATOM     17  H2  UNL     1     221.188  -7.077  18.055  1.00  0.00     0.190 HD
BRANCH  16  18
HETATM   18  N1  UNL     1     221.756  -5.045  18.360  1.00  0.00    -0.267 N 
HETATM   19  C2  UNL     1     222.060  -5.031  19.738  1.00  0.00     0.232 C 
HETATM   20  C1  UNL     1     222.857  -3.902  20.298  1.00  0.00     0.119 C 
HETATM   21  O1  UNL     1     221.668  -5.949  20.489  1.00  0.00    -0.272 OA
ATOM     22  H1  UNL     1     222.084  -4.286  17.763  1.00  0.00     0.190 HD
ENDBRANCH  16  18
ENDBRANCH  15  16
BRANCH  15  23
HETATM   23  O2  UNL     1     220.022  -6.512  15.798  1.00  0.00    -0.331 OA
ATOM     24  H2  UNL     1     219.942  -7.446  15.951  1.00  0.00     0.221 HD
ENDBRANCH  15  23
ENDBRANCH  13  15
BRANCH  12  25
HETATM   25  O3  UNL     1     217.300  -3.531  17.756  1.00  0.00    -0.345 OA
ATOM     26  H3  UNL     1     216.710  -3.321  18.471  1.00  0.00     0.219 HD
ENDBRANCH  12  25
ENDBRANCH   1  12
BRANCH  10  27
HETATM   27  C11 UNL     1     214.487  -7.000  17.471  1.00  0.00     0.021 C 
HETATM   28  C12 UNL     1     214.376  -8.355  18.090  1.00  0.00     0.037 C 
HETATM   29  C13 UNL     1     214.527  -7.189  15.946  1.00  0.00     0.037 C 
HETATM   30  C14 UNL     1     213.217  -6.245  17.777  1.00  0.00     0.037 C 
ENDBRANCH  10  27
TORSDOF 7
ENDMDL
MODEL 4
REMARK VINA RESULT: -6.872548829      2.744      4.379
REMARK  7 active torsions:
REMARK  status: ('A' for Active; 'I' for Inactive)
REMARK       I    between atoms: C2_2  and  N1_4 
REMARK    1  A    between atoms: N1_4  and  N2_6 
REMARK    2  A    between atoms: N2_6  and  C3_8 
REMARK    3  A    between atoms: C3_8  and  O2_9 
REMARK    4  A    between atoms: C3_8  and  N3_11 
REMARK    5  A    between atoms: C4_13  and  O3_14 
REMARK    6  A    between atoms: C4_13  and  C5_16 
REMARK    7  A    between atoms: N5_25  and  C11_27 
ROOT
HETATM    1  C5  UNL     1     217.526  -5.878  20.015  1.00  0.00     0.060 A 
HETATM    2  C6  UNL     1     218.902  -5.638  20.145  1.00  0.00     0.040 A 
HETATM    3  C7  UNL     1     219.704  -5.851  19.052  1.00  0.00     0.034 A 
HETATM    4 BR1  UNL     1     221.602  -5.553  19.131  1.00  0.00    -0.049 Br
HETATM    5  C8  UNL     1     219.130  -6.289  17.880  1.00  0.00     0.024 A 
HETATM    6  C9  UNL     1     220.004  -6.517  16.692  1.00  0.00     0.069 C 
HETATM    7  N4  UNL     1     217.802  -6.515  17.777  1.00  0.00    -0.344 N 
ATOM      8  H4  UNL     1     217.418  -6.840  16.890  1.00  0.00     0.167 HD
HETATM    9  C10 UNL     1     216.977  -6.321  18.816  1.00  0.00     0.116 A 
HETATM   10  N5  UNL     1     215.736  -6.539  18.762  1.00  0.00    -0.367 N 
ATOM     11  H5  UNL     1     215.228  -6.366  19.630  1.00  0.00     0.162 HD
ENDROOT
BRANCH   1  12
HETATM   12  C4  UNL     1     216.756  -5.603  21.218  1.00  0.00     0.157 C 
HETATM   13  N3  UNL     1     216.102  -6.397  22.108  1.00  0.00    -0.301 N 
ATOM     14  H3  UNL     1     215.770  -5.898  22.933  1.00  0.00     0.171 HD
BRANCH  13  15
HETATM   15  C3  UNL     1     215.798  -7.745  22.117  1.00  0.00     0.238 C 
BRANCH  15  16
HETATM   16  N2  UNL     1     216.313  -8.760  22.927  1.00  0.00    -0.263 N 
ATOM     17  H2  UNL     1     216.441  -9.704  22.563  1.00  0.00     0.190 HD
BRANCH  16  18
HETATM   18  N1  UNL     1     216.654  -8.447  24.271  1.00  0.00    -0.267 N 
HETATM   19  C2  UNL     1     217.874  -7.806  24.571  1.00  0.00     0.232 C 
HETATM   20  C1  UNL     1     218.203  -7.490  25.991  1.00  0.00     0.119 C 
HETATM   21  O1  UNL     1     218.677  -7.503  23.664  1.00  0.00    -0.272 OA
ATOM     22  H1  UNL     1     216.011  -8.688  25.026  1.00  0.00     0.190 HD
ENDBRANCH  16  18
ENDBRANCH  15  16
BRANCH  15  23
HETATM   23  O2  UNL     1     214.912  -8.159  21.255  1.00  0.00    -0.331 OA
ATOM     24  H2  UNL     1     214.027  -7.874  21.448  1.00  0.00     0.221 HD
ENDBRANCH  15  23
ENDBRANCH  13  15
BRANCH  12  25
HETATM   25  O3  UNL     1     216.709  -4.303  21.457  1.00  0.00    -0.345 OA
ATOM     26  H3  UNL     1     216.371  -3.762  20.753  1.00  0.00     0.219 HD
ENDBRANCH  12  25
ENDBRANCH   1  12
BRANCH  10  27
HETATM   27  C11 UNL     1     214.936  -6.991  17.673  1.00  0.00     0.021 C 
HETATM   28  C12 UNL     1     215.599  -6.930  16.336  1.00  0.00     0.037 C 
HETATM   29  C13 UNL     1     213.713  -6.060  17.626  1.00  0.00     0.037 C 
HETATM   30  C14 UNL     1     214.404  -8.390  17.865  1.00  0.00     0.037 C 
ENDBRANCH  10  27
TORSDOF 7
ENDMDL
MODEL 5
REMARK VINA RESULT: -6.739843385      2.804      4.594
REMARK  7 active torsions:
REMARK  status: ('A' for Active; 'I' for Inactive)
REMARK       I    between atoms: C2_2  and  N1_4 
REMARK    1  A    between atoms: N1_4  and  N2_6 
REMARK    2  A    between atoms: N2_6  and  C3_8 
REMARK    3  A    between atoms: C3_8  and  O2_9 
REMARK    4  A    between atoms: C3_8  and  N3_11 
REMARK    5  A    between atoms: C4_13  and  O3_14 
REMARK    6  A    between atoms: C4_13  and  C5_16 
REMARK    7  A    between atoms: N5_25  and  C11_27 
ROOT
HETATM    1  C5  UNL     1     217.892  -6.062  18.944  1.00  0.00     0.060 A 
HETATM    2  C6  UNL     1     218.580  -5.962  20.162  1.00  0.00     0.040 A 
HETATM    3  C7  UNL     1     217.950  -6.397  21.301  1.00  0.00     0.034 A 
HETATM    4 BR1  UNL     1     218.810  -6.300  23.019  1.00  0.00    -0.049 Br
HETATM    5  C8  UNL     1     216.677  -6.911  21.204  1.00  0.00     0.024 A 
HETATM    6  C9  UNL     1     215.995  -7.386  22.444  1.00  0.00     0.069 C 
HETATM    7  N4  UNL     1     216.031  -6.997  20.020  1.00  0.00    -0.344 N 
ATOM      8  H4  UNL     1     215.088  -7.383  19.993  1.00  0.00     0.167 HD
HETATM    9  C10 UNL     1     216.605  -6.586  18.880  1.00  0.00     0.116 A 
HETATM   10  N5  UNL     1     216.025  -6.633  17.760  1.00  0.00    -0.367 N 
ATOM     11  H5  UNL     1     216.569  -6.273  16.976  1.00  0.00     0.162 HD
ENDROOT
BRANCH   1  12
HETATM   12  C4  UNL     1     218.647  -5.597  17.791  1.00  0.00     0.157 C 
HETATM   13  N3  UNL     1     218.524  -4.523  16.968  1.00  0.00    -0.301 N 
ATOM     14  H3  UNL     1     219.309  -4.407  16.327  1.00  0.00     0.171 HD
BRANCH  13  15
HETATM   15  C3  UNL     1     217.547  -3.555  16.827  1.00  0.00     0.238 C 
BRANCH  15  16
HETATM   16  N2  UNL     1     217.578  -2.209  17.203  1.00  0.00    -0.263 N 
ATOM     17  H2  UNL     1     217.480  -1.939  18.182  1.00  0.00     0.190 HD
BRANCH  16  18
HETATM   18  N1  UNL     1     217.748  -1.226  16.191  1.00  0.00    -0.267 N 
HETATM   19  C2  UNL     1     216.628  -0.621  15.583  1.00  0.00     0.232 C 
HETATM   20  C1  UNL     1     216.840   0.408  14.525  1.00  0.00     0.119 C 
HETATM   21  O1  UNL     1     215.469  -0.938  15.921  1.00  0.00    -0.272 OA
ATOM     22  H1  UNL     1     218.688  -0.955  15.902  1.00  0.00     0.190 HD
ENDBRANCH  16  18
ENDBRANCH  15  16
BRANCH  15  23
HETATM   23  O2  UNL     1     216.426  -3.920  16.272  1.00  0.00    -0.331 OA
ATOM     24  H2  UNL     1     216.402  -3.785  15.332  1.00  0.00     0.221 HD
ENDBRANCH  15  23
ENDBRANCH  13  15
BRANCH  12  25
HETATM   25  O3  UNL     1     219.649  -6.419  17.527  1.00  0.00    -0.345 OA
ATOM     26  H3  UNL     1     220.273  -6.120  16.877  1.00  0.00     0.219 HD
ENDBRANCH  12  25
ENDBRANCH   1  12
BRANCH  10  27
HETATM   27  C11 UNL     1     214.727  -7.115  17.425  1.00  0.00     0.021 C 
HETATM   28  C12 UNL     1     214.348  -8.408  18.069  1.00  0.00     0.037 C 
HETATM   29  C13 UNL     1     214.734  -7.339  15.903  1.00  0.00     0.037 C 
HETATM   30  C14 UNL     1     213.631  -6.117  17.706  1.00  0.00     0.037 C 
ENDBRANCH  10  27
TORSDOF 7
ENDMDL
