MODEL 1
REMARK VINA RESULT: -7.613235915      0.000      0.000
REMARK  6 active torsions:
REMARK  status: ('A' for Active; 'I' for Inactive)
REMARK    1  A    between atoms: C2_2  and  C3_3 
REMARK    2  A    between atoms: C2_2  and  C4_5 
REMARK       I    between atoms: C4_5  and  N1_7 
REMARK    3  A    between atoms: N1_7  and  N2_9 
REMARK       I    between atoms: N2_9  and  C5_11 
REMARK       I    between atoms: C5_11  and  N3_13 
REMARK    4  A    between atoms: N3_13  and  N4_15 
REMARK    5  A    between atoms: N4_15  and  C6_17 
REMARK    6  A    between atoms: C6_17  and  C7_19 
ROOT
HETATM    1  N2  UNL     1     221.385  -5.561  17.235  1.00  0.00    -0.247 N 
ATOM      2  H2  UNL     1     221.570  -6.530  17.492  1.00  0.00     0.192 HD
HETATM    3  C5  UNL     1     220.060  -5.224  16.847  1.00  0.00     0.353 C 
HETATM    4  O3  UNL     1     219.797  -4.033  16.527  1.00  0.00    -0.244 OA
HETATM    5  N3  UNL     1     219.087  -6.258  16.838  1.00  0.00    -0.249 N 
ATOM      6  H3  UNL     1     219.345  -7.209  17.103  1.00  0.00     0.192 HD
ENDROOT
BRANCH   5   7
HETATM    7  N4  UNL     1     217.784  -5.964  16.465  1.00  0.00    -0.286 N 
ATOM      8  H4  UNL     1     217.502  -6.183  15.509  1.00  0.00     0.188 HD
BRANCH   7   9
HETATM    9  C6  UNL     1     216.821  -5.384  17.320  1.00  0.00     0.126 C 
HETATM   10  S1  UNL     1     216.382  -3.854  16.964  1.00  0.00    -0.058 SA
BRANCH   9  11
HETATM   11  C7  UNL     1     216.304  -6.166  18.423  1.00  0.00     0.011 A 
HETATM   12  C8  UNL     1     215.218  -7.041  18.277  1.00  0.00     0.016 A 
HETATM   13  C9  UNL     1     214.744  -7.784  19.337  1.00  0.00     0.009 A 
HETATM   14  C10 UNL     1     215.326  -7.692  20.588  1.00  0.00    -0.044 A 
HETATM   15  C11 UNL     1     214.765  -8.528  21.706  1.00  0.00     0.049 C 
HETATM   16  C12 UNL     1     216.389  -6.836  20.737  1.00  0.00     0.023 A 
HETATM   17 BR1  UNL     1     217.194  -6.708  22.473  1.00  0.00    -0.050 Br
HETATM   18  C13 UNL     1     216.869  -6.085  19.664  1.00  0.00    -0.031 A 
HETATM   19  C14 UNL     1     218.000  -5.201  19.915  1.00  0.00     0.050 C 
ENDBRANCH   9  11
ENDBRANCH   7   9
ENDBRANCH   5   7
BRANCH   1  20
HETATM   20  N1  UNL     1     222.447  -4.667  17.290  1.00  0.00    -0.262 N 
HETATM   21  C4  UNL     1     223.123  -4.453  18.506  1.00  0.00     0.268 C 
HETATM   22  O2  UNL     1     222.704  -5.119  19.525  1.00  0.00    -0.266 OA
ATOM     23  H1  UNL     1     222.737  -4.166  16.450  1.00  0.00     0.190 HD
BRANCH  21  24
HETATM   24  C2  UNL     1     224.232  -3.553  18.689  1.00  0.00     0.045 C 
HETATM   25  C1  UNL     1     224.748  -2.647  17.614  1.00  0.00     0.057 C 
BRANCH  24  26
HETATM   26  C3  UNL     1     224.846  -3.485  19.853  1.00  0.00     0.271 C 
HETATM   27  O1  UNL     1     225.243  -3.725  21.025  1.00  0.00    -0.302 OA
ENDBRANCH  24  26
ENDBRANCH  21  24
ENDBRANCH   1  20
TORSDOF 6
ENDMDL
MODEL 2
REMARK VINA RESULT: -7.469082233      1.319      1.482
REMARK  6 active torsions:
REMARK  status: ('A' for Active; 'I' for Inactive)
REMARK    1  A    between atoms: C2_2  and  C3_3 
REMARK    2  A    between atoms: C2_2  and  C4_5 
REMARK       I    between atoms: C4_5  and  N1_7 
REMARK    3  A    between atoms: N1_7  and  N2_9 
REMARK       I    between atoms: N2_9  and  C5_11 
REMARK       I    between atoms: C5_11  and  N3_13 
REMARK    4  A    between atoms: N3_13  and  N4_15 
REMARK    5  A    between atoms: N4_15  and  C6_17 
REMARK    6  A    between atoms: C6_17  and  C7_19 
ROOT
HETATM    1  N2  UNL     1     222.176  -5.031  17.379  1.00  0.00    -0.247 N 
ATOM      2  H2  UNL     1     222.358  -5.902  17.877  1.00  0.00     0.192 HD
HETATM    3  C5  UNL     1     220.848  -4.796  16.928  1.00  0.00     0.353 C 
HETATM    4  O3  UNL     1     220.588  -3.728  16.313  1.00  0.00    -0.244 OA
HETATM    5  N3  UNL     1     219.870  -5.790  17.196  1.00  0.00    -0.249 N 
ATOM      6  H3  UNL     1     220.125  -6.641  17.696  1.00  0.00     0.192 HD
ENDROOT
BRANCH   5   7
HETATM    7  N4  UNL     1     218.565  -5.593  16.771  1.00  0.00    -0.286 N 
ATOM      8  H4  UNL     1     218.318  -5.907  15.832  1.00  0.00     0.188 HD
BRANCH   7   9
HETATM    9  C6  UNL     1     217.554  -4.988  17.551  1.00  0.00     0.126 C 
HETATM   10  S1  UNL     1     217.240  -3.422  17.220  1.00  0.00    -0.058 SA
BRANCH   9  11
HETATM   11  C7  UNL     1     216.885  -5.780  18.562  1.00  0.00     0.011 A 
HETATM   12  C8  UNL     1     215.732  -6.528  18.287  1.00  0.00     0.016 A 
HETATM   13  C9  UNL     1     215.112  -7.281  19.260  1.00  0.00     0.009 A 
HETATM   14  C10 UNL     1     215.608  -7.325  20.550  1.00  0.00    -0.044 A 
HETATM   15  C11 UNL     1     214.889  -8.166  21.569  1.00  0.00     0.049 C 
HETATM   16  C12 UNL     1     216.737  -6.594  20.826  1.00  0.00     0.023 A 
HETATM   17 BR1  UNL     1     217.423  -6.655  22.616  1.00  0.00    -0.050 Br
HETATM   18  C13 UNL     1     217.364  -5.833  19.840  1.00  0.00    -0.031 A 
HETATM   19  C14 UNL     1     218.555  -5.086  20.224  1.00  0.00     0.050 C 
ENDBRANCH   9  11
ENDBRANCH   7   9
ENDBRANCH   5   7
BRANCH   1  20
HETATM   20  N1  UNL     1     223.243  -4.162  17.191  1.00  0.00    -0.262 N 
HETATM   21  C4  UNL     1     224.081  -3.835  18.274  1.00  0.00     0.268 C 
HETATM   22  O2  UNL     1     223.801  -4.377  19.406  1.00  0.00    -0.266 OA
ATOM     23  H1  UNL     1     223.418  -3.761  16.270  1.00  0.00     0.190 HD
BRANCH  21  24
HETATM   24  C2  UNL     1     225.212  -2.946  18.204  1.00  0.00     0.045 C 
HETATM   25  C1  UNL     1     226.573  -3.296  18.718  1.00  0.00     0.057 C 
BRANCH  24  26
HETATM   26  C3  UNL     1     225.085  -1.753  17.656  1.00  0.00     0.271 C 
HETATM   27  O1  UNL     1     225.144  -0.514  17.434  1.00  0.00    -0.302 OA
ENDBRANCH  24  26
ENDBRANCH  21  24
ENDBRANCH   1  20
TORSDOF 6
ENDMDL
MODEL 3
REMARK VINA RESULT: -7.467849045      1.727      2.243
REMARK  6 active torsions:
REMARK  status: ('A' for Active; 'I' for Inactive)
REMARK    1  A    between atoms: C2_2  and  C3_3 
REMARK    2  A    between atoms: C2_2  and  C4_5 
REMARK       I    between atoms: C4_5  and  N1_7 
REMARK    3  A    between atoms: N1_7  and  N2_9 
REMARK       I    between atoms: N2_9  and  C5_11 
REMARK       I    between atoms: C5_11  and  N3_13 
REMARK    4  A    between atoms: N3_13  and  N4_15 
REMARK    5  A    between atoms: N4_15  and  C6_17 
REMARK    6  A    between atoms: C6_17  and  C7_19 
ROOT
HETATM    1  N2  UNL     1     222.439  -4.596  17.048  1.00  0.00    -0.247 N 
ATOM      2  H2  UNL     1     222.600  -4.290  16.089  1.00  0.00     0.192 HD
HETATM    3  C5  UNL     1     221.135  -5.052  17.384  1.00  0.00     0.353 C 
HETATM    4  O3  UNL     1     220.904  -5.441  18.560  1.00  0.00    -0.244 OA
HETATM    5  N3  UNL     1     220.146  -5.046  16.365  1.00  0.00    -0.249 N 
ATOM      6  H3  UNL     1     220.377  -4.720  15.426  1.00  0.00     0.192 HD
ENDROOT
BRANCH   5   7
HETATM    7  N4  UNL     1     218.864  -5.485  16.657  1.00  0.00    -0.286 N 
ATOM      8  H4  UNL     1     218.555  -6.363  16.239  1.00  0.00     0.188 HD
BRANCH   7   9
HETATM    9  C6  UNL     1     217.957  -4.798  17.495  1.00  0.00     0.126 C 
HETATM   10  S1  UNL     1     217.791  -3.201  17.209  1.00  0.00    -0.058 SA
BRANCH   9  11
HETATM   11  C7  UNL     1     217.256  -5.541  18.521  1.00  0.00     0.011 A 
HETATM   12  C8  UNL     1     217.632  -5.494  19.870  1.00  0.00     0.016 A 
HETATM   13  C9  UNL     1     216.947  -6.202  20.835  1.00  0.00     0.009 A 
HETATM   14  C10 UNL     1     215.859  -6.988  20.503  1.00  0.00    -0.044 A 
HETATM   15  C11 UNL     1     215.152  -7.737  21.599  1.00  0.00     0.049 C 
HETATM   16  C12 UNL     1     215.486  -7.039  19.183  1.00  0.00     0.023 A 
HETATM   17 BR1  UNL     1     213.978  -8.130  18.724  1.00  0.00    -0.050 Br
HETATM   18  C13 UNL     1     216.179  -6.321  18.207  1.00  0.00    -0.031 A 
HETATM   19  C14 UNL     1     215.714  -6.437  16.832  1.00  0.00     0.050 C 
ENDBRANCH   9  11
ENDBRANCH   7   9
ENDBRANCH   5   7
BRANCH   1  20
HETATM   20  N1  UNL     1     223.510  -4.536  17.931  1.00  0.00    -0.262 N 
HETATM   21  C4  UNL     1     224.225  -3.334  18.085  1.00  0.00     0.268 C 
HETATM   22  O2  UNL     1     223.833  -2.332  17.380  1.00  0.00    -0.266 OA
ATOM     23  H1  UNL     1     223.777  -5.362  18.466  1.00  0.00     0.190 HD
BRANCH  21  24
HETATM   24  C2  UNL     1     225.352  -3.150  18.964  1.00  0.00     0.045 C 
HETATM   25  C1  UNL     1     226.735  -2.837  18.483  1.00  0.00     0.057 C 
BRANCH  24  26
HETATM   26  C3  UNL     1     225.197  -3.243  20.270  1.00  0.00     0.271 C 
HETATM   27  O1  UNL     1     225.200  -3.660  21.460  1.00  0.00    -0.302 OA
ENDBRANCH  24  26
ENDBRANCH  21  24
ENDBRANCH   1  20
TORSDOF 6
ENDMDL
MODEL 4
REMARK VINA RESULT: -7.459781731      1.543      2.179
REMARK  6 active torsions:
REMARK  status: ('A' for Active; 'I' for Inactive)
REMARK    1  A    between atoms: C2_2  and  C3_3 
REMARK    2  A    between atoms: C2_2  and  C4_5 
REMARK       I    between atoms: C4_5  and  N1_7 
REMARK    3  A    between atoms: N1_7  and  N2_9 
REMARK       I    between atoms: N2_9  and  C5_11 
REMARK       I    between atoms: C5_11  and  N3_13 
REMARK    4  A    between atoms: N3_13  and  N4_15 
REMARK    5  A    between atoms: N4_15  and  C6_17 
REMARK    6  A    between atoms: C6_17  and  C7_19 
ROOT
HETATM    1  N2  UNL     1     221.415  -4.906  16.605  1.00  0.00    -0.247 N 
ATOM      2  H2  UNL     1     221.189  -4.504  15.696  1.00  0.00     0.192 HD
HETATM    3  C5  UNL     1     220.390  -5.623  17.281  1.00  0.00     0.353 C 
HETATM    4  O3  UNL     1     220.638  -6.137  18.405  1.00  0.00    -0.244 OA
HETATM    5  N3  UNL     1     219.123  -5.725  16.649  1.00  0.00    -0.249 N 
ATOM      6  H3  UNL     1     218.966  -5.292  15.738  1.00  0.00     0.192 HD
ENDROOT
BRANCH   5   7
HETATM    7  N4  UNL     1     218.101  -6.418  17.279  1.00  0.00    -0.286 N 
ATOM      8  H4  UNL     1     218.041  -7.424  17.123  1.00  0.00     0.188 HD
BRANCH   7   9
HETATM    9  C6  UNL     1     217.137  -5.823  18.124  1.00  0.00     0.126 C 
HETATM   10  S1  UNL     1     216.151  -4.730  17.422  1.00  0.00    -0.058 SA
BRANCH   9  11
HETATM   11  C7  UNL     1     217.092  -6.216  19.517  1.00  0.00     0.011 A 
HETATM   12  C8  UNL     1     218.034  -5.769  20.453  1.00  0.00     0.016 A 
HETATM   13  C9  UNL     1     217.971  -6.148  21.777  1.00  0.00     0.009 A 
HETATM   14  C10 UNL     1     216.970  -6.988  22.230  1.00  0.00    -0.044 A 
HETATM   15  C11 UNL     1     216.953  -7.367  23.686  1.00  0.00     0.049 C 
HETATM   16  C12 UNL     1     216.045  -7.431  21.318  1.00  0.00     0.023 A 
HETATM   17 BR1  UNL     1     214.659  -8.597  21.946  1.00  0.00    -0.050 Br
HETATM   18  C13 UNL     1     216.109  -7.046  19.978  1.00  0.00    -0.031 A 
HETATM   19  C14 UNL     1     215.087  -7.566  19.080  1.00  0.00     0.050 C 
ENDBRANCH   9  11
ENDBRANCH   7   9
ENDBRANCH   5   7
BRANCH   1  20
HETATM   20  N1  UNL     1     222.702  -4.714  17.092  1.00  0.00    -0.262 N 
HETATM   21  C4  UNL     1     223.103  -3.437  17.528  1.00  0.00     0.268 C 
HETATM   22  O2  UNL     1     222.229  -2.497  17.447  1.00  0.00    -0.266 OA
ATOM     23  H1  UNL     1     223.354  -5.496  17.134  1.00  0.00     0.190 HD
BRANCH  21  24
HETATM   24  C2  UNL     1     224.407  -3.113  18.047  1.00  0.00     0.045 C 
HETATM   25  C1  UNL     1     225.275  -2.028  17.490  1.00  0.00     0.057 C 
BRANCH  24  26
HETATM   26  C3  UNL     1     224.895  -3.779  19.075  1.00  0.00     0.271 C 
HETATM   27  O1  UNL     1     225.669  -4.389  19.862  1.00  0.00    -0.302 OA
ENDBRANCH  24  26
ENDBRANCH  21  24
ENDBRANCH   1  20
TORSDOF 6
ENDMDL
MODEL 5
REMARK VINA RESULT: -7.394575995      1.242      1.973
REMARK  6 active torsions:
REMARK  status: ('A' for Active; 'I' for Inactive)
REMARK    1  A    between atoms: C2_2  and  C3_3 
REMARK    2  A    between atoms: C2_2  and  C4_5 
REMARK       I    between atoms: C4_5  and  N1_7 
REMARK    3  A    between atoms: N1_7  and  N2_9 
REMARK       I    between atoms: N2_9  and  C5_11 
REMARK       I    between atoms: C5_11  and  N3_13 
REMARK    4  A    between atoms: N3_13  and  N4_15 
REMARK    5  A    between atoms: N4_15  and  C6_17 
REMARK    6  A    between atoms: C6_17  and  C7_19 
ROOT
HETATM    1  N2  UNL     1     221.904  -5.165  17.004  1.00  0.00    -0.247 N 
ATOM      2  H2  UNL     1     222.126  -6.136  17.226  1.00  0.00     0.192 HD
HETATM    3  C5  UNL     1     220.540  -4.838  16.774  1.00  0.00     0.353 C 
HETATM    4  O3  UNL     1     220.231  -3.647  16.502  1.00  0.00    -0.244 OA
HETATM    5  N3  UNL     1     219.582  -5.883  16.860  1.00  0.00    -0.249 N 
ATOM      6  H3  UNL     1     219.878  -6.834  17.082  1.00  0.00     0.192 HD
ENDROOT
BRANCH   5   7
HETATM    7  N4  UNL     1     218.243  -5.599  16.642  1.00  0.00    -0.286 N 
ATOM      8  H4  UNL     1     217.832  -5.897  15.757  1.00  0.00     0.188 HD
BRANCH   7   9
HETATM    9  C6  UNL     1     217.409  -4.926  17.562  1.00  0.00     0.126 C 
HETATM   10  S1  UNL     1     216.607  -3.630  16.982  1.00  0.00    -0.058 SA
BRANCH   9  11
HETATM   11  C7  UNL     1     217.326  -5.421  18.920  1.00  0.00     0.011 A 
HETATM   12  C8  UNL     1     218.172  -4.963  19.939  1.00  0.00     0.016 A 
HETATM   13  C9  UNL     1     218.073  -5.440  21.229  1.00  0.00     0.009 A 
HETATM   14  C10 UNL     1     217.130  -6.395  21.563  1.00  0.00    -0.044 A 
HETATM   15  C11 UNL     1     217.069  -6.877  22.987  1.00  0.00     0.049 C 
HETATM   16  C12 UNL     1     216.299  -6.849  20.570  1.00  0.00     0.023 A 
HETATM   17 BR1  UNL     1     214.993  -8.173  21.036  1.00  0.00    -0.050 Br
HETATM   18  C13 UNL     1     216.399  -6.364  19.266  1.00  0.00    -0.031 A 
HETATM   19  C14 UNL     1     215.477  -6.905  18.276  1.00  0.00     0.050 C 
ENDBRANCH   9  11
ENDBRANCH   7   9
ENDBRANCH   5   7
BRANCH   1  20
HETATM   20  N1  UNL     1     222.956  -4.260  16.950  1.00  0.00    -0.262 N 
HETATM   21  C4  UNL     1     223.755  -4.045  18.089  1.00  0.00     0.268 C 
HETATM   22  O2  UNL     1     223.455  -4.719  19.143  1.00  0.00    -0.266 OA
ATOM     23  H1  UNL     1     223.150  -3.753  16.087  1.00  0.00     0.190 HD
BRANCH  21  24
HETATM   24  C2  UNL     1     224.868  -3.133  18.157  1.00  0.00     0.045 C 
HETATM   25  C1  UNL     1     224.900  -1.811  17.455  1.00  0.00     0.057 C 
BRANCH  24  26
HETATM   26  C3  UNL     1     225.931  -3.437  18.875  1.00  0.00     0.271 C 
HETATM   27  O1  UNL     1     226.986  -3.980  19.300  1.00  0.00    -0.302 OA
ENDBRANCH  24  26
ENDBRANCH  21  24
ENDBRANCH   1  20
TORSDOF 6
ENDMDL
