MODEL 1
REMARK VINA RESULT: -7.654001106      0.000      0.000
REMARK  3 active torsions:
REMARK  status: ('A' for Active; 'I' for Inactive)
REMARK    1  A    between atoms: C5_5  and  N1_6 
REMARK    2  A    between atoms: N1_6  and  C6_8 
REMARK    3  A    between atoms: C10_15  and  N4_16 
ROOT
HETATM    1  C6  UNL     1     221.221  -4.850  18.271  1.00  0.00     0.121 A 
HETATM    2  N2  UNL     1     221.470  -4.524  16.991  1.00  0.00    -0.350 N 
ATOM      3  H2  UNL     1     220.895  -4.951  16.264  1.00  0.00     0.166 HD
HETATM    4  C7  UNL     1     222.432  -3.667  16.617  1.00  0.00     0.114 A 
HETATM    5  C8  UNL     1     223.255  -3.045  17.530  1.00  0.00     0.088 A 
HETATM    6  C9  UNL     1     224.287  -2.132  17.127  1.00  0.00     0.103 C 
HETATM    7  N3  UNL     1     225.111  -1.379  16.813  1.00  0.00    -0.191 NA
HETATM    8  C10 UNL     1     223.021  -3.364  18.876  1.00  0.00     0.077 A 
HETATM    9  C12 UNL     1     222.035  -4.239  19.235  1.00  0.00     0.083 A 
HETATM   10 BR1  UNL     1     221.739  -4.666  21.068  1.00  0.00    -0.045 Br
ENDROOT
BRANCH   8  11
HETATM   11  N4  UNL     1     223.854  -2.770  19.851  1.00  0.00    -0.331 N 
HETATM   12  C11 UNL     1     224.991  -3.196  20.253  1.00  0.00     0.201 C 
HETATM   13  N5  UNL     1     225.670  -2.457  21.240  1.00  0.00    -0.066 NA
HETATM   14  N6  UNL     1     225.620  -4.387  19.775  1.00  0.00    -0.066 NA
ATOM     15  H4  UNL     1     223.512  -1.910  20.280  1.00  0.00     0.168 HD
ENDBRANCH   8  11
BRANCH   1  16
HETATM   16  N1  UNL     1     220.312  -5.673  18.619  1.00  0.00    -0.370 N 
ATOM     17  H1  UNL     1     220.667  -6.590  18.888  1.00  0.00     0.161 HD
BRANCH  16  18
HETATM   18  C5  UNL     1     218.922  -5.561  18.701  1.00  0.00     0.088 C 
HETATM   19  C4  UNL     1     218.401  -6.242  19.994  1.00  0.00     0.055 C 
HETATM   20  C2  UNL     1     216.984  -5.813  20.219  1.00  0.00     0.021 C 
HETATM   21  C1  UNL     1     217.095  -4.612  21.178  1.00  0.00     0.037 C 
HETATM   22  C3  UNL     1     216.212  -6.870  20.979  1.00  0.00     0.037 C 
HETATM   23  N7  UNL     1     216.275  -5.393  19.091  1.00  0.00    -0.405 N 
HETATM   24  C14 UNL     1     216.693  -5.749  17.793  1.00  0.00     0.021 C 
ATOM     25  H7  UNL     1     215.440  -4.819  19.208  1.00  0.00     0.154 HD
HETATM   26  C13 UNL     1     218.104  -6.237  17.631  1.00  0.00     0.055 C 
HETATM   27  C15 UNL     1     215.719  -6.799  17.251  1.00  0.00     0.037 C 
HETATM   28  C16 UNL     1     216.533  -4.530  16.901  1.00  0.00     0.037 C 
ENDBRANCH  16  18
ENDBRANCH   1  16
TORSDOF 3
ENDMDL
MODEL 2
REMARK VINA RESULT: -7.306391010      2.226      3.612
REMARK  3 active torsions:
REMARK  status: ('A' for Active; 'I' for Inactive)
REMARK    1  A    between atoms: C5_5  and  N1_6 
REMARK    2  A    between atoms: N1_6  and  C6_8 
REMARK    3  A    between atoms: C10_15  and  N4_16 
ROOT
HETATM    1  C6  UNL     1     222.649  -4.293  17.300  1.00  0.00     0.121 A 
HETATM    2  N2  UNL     1     223.313  -4.701  18.395  1.00  0.00    -0.350 N 
ATOM      3  H2  UNL     1     222.974  -5.530  18.884  1.00  0.00     0.166 HD
HETATM    4  C7  UNL     1     224.397  -4.078  18.880  1.00  0.00     0.114 A 
HETATM    5  C8  UNL     1     224.923  -2.953  18.287  1.00  0.00     0.088 A 
HETATM    6  C9  UNL     1     226.081  -2.285  18.810  1.00  0.00     0.103 C 
HETATM    7  N3  UNL     1     227.027  -1.749  19.215  1.00  0.00    -0.191 NA
HETATM    8  C10 UNL     1     224.253  -2.499  17.140  1.00  0.00     0.077 A 
HETATM    9  C12 UNL     1     223.150  -3.150  16.662  1.00  0.00     0.083 A 
HETATM   10 BR1  UNL     1     222.249  -2.514  15.108  1.00  0.00    -0.045 Br
ENDROOT
BRANCH   8  11
HETATM   11  N4  UNL     1     224.739  -1.334  16.506  1.00  0.00    -0.331 N 
HETATM   12  C11 UNL     1     224.428  -0.124  16.779  1.00  0.00     0.201 C 
HETATM   13  N5  UNL     1     225.025   0.905  16.027  1.00  0.00    -0.066 NA
HETATM   14  N6  UNL     1     223.498   0.259  17.794  1.00  0.00    -0.066 NA
ATOM     15  H4  UNL     1     225.410  -1.472  15.750  1.00  0.00     0.168 HD
ENDBRANCH   8  11
BRANCH   1  16
HETATM   16  N1  UNL     1     221.612  -4.883  16.850  1.00  0.00    -0.370 N 
ATOM     17  H1  UNL     1     221.813  -5.578  16.130  1.00  0.00     0.161 HD
BRANCH  16  18
HETATM   18  C5  UNL     1     220.255  -4.762  17.152  1.00  0.00     0.088 C 
HETATM   19  C4  UNL     1     219.989  -3.439  17.920  1.00  0.00     0.055 C 
HETATM   20  C2  UNL     1     218.514  -3.181  17.924  1.00  0.00     0.021 C 
HETATM   21  C1  UNL     1     218.284  -2.251  16.717  1.00  0.00     0.037 C 
HETATM   22  C3  UNL     1     218.108  -2.376  19.140  1.00  0.00     0.037 C 
HETATM   23  N7  UNL     1     217.686  -4.296  17.766  1.00  0.00    -0.405 N 
HETATM   24  C14 UNL     1     218.162  -5.598  18.020  1.00  0.00     0.021 C 
ATOM     25  H7  UNL     1     216.721  -4.165  17.462  1.00  0.00     0.154 HD
HETATM   26  C13 UNL     1     219.651  -5.792  18.071  1.00  0.00     0.055 C 
HETATM   27  C15 UNL     1     217.533  -6.088  19.326  1.00  0.00     0.037 C 
HETATM   28  C16 UNL     1     217.627  -6.510  16.930  1.00  0.00     0.037 C 
ENDBRANCH  16  18
ENDBRANCH   1  16
TORSDOF 3
ENDMDL
MODEL 3
REMARK VINA RESULT: -7.211241722      1.737      2.807
REMARK  3 active torsions:
REMARK  status: ('A' for Active; 'I' for Inactive)
REMARK    1  A    between atoms: C5_5  and  N1_6 
REMARK    2  A    between atoms: N1_6  and  C6_8 
REMARK    3  A    between atoms: C10_15  and  N4_16 
ROOT
HETATM    1  C6  UNL     1     221.729  -4.751  20.285  1.00  0.00     0.121 A 
HETATM    2  N2  UNL     1     221.698  -4.790  21.628  1.00  0.00    -0.350 N 
ATOM      3  H2  UNL     1     220.987  -5.366  22.078  1.00  0.00     0.166 HD
HETATM    4  C7  UNL     1     222.552  -4.111  22.410  1.00  0.00     0.114 A 
HETATM    5  C8  UNL     1     223.542  -3.308  21.889  1.00  0.00     0.088 A 
HETATM    6  C9  UNL     1     224.452  -2.580  22.727  1.00  0.00     0.103 C 
HETATM    7  N3  UNL     1     225.203  -2.002  23.396  1.00  0.00    -0.191 NA
HETATM    8  C10 UNL     1     223.602  -3.246  20.489  1.00  0.00     0.077 A 
HETATM    9  C12 UNL     1     222.723  -3.946  19.712  1.00  0.00     0.083 A 
HETATM   10 BR1  UNL     1     222.815  -3.841  17.811  1.00  0.00    -0.045 Br
ENDROOT
BRANCH   8  11
HETATM   11  N4  UNL     1     224.586  -2.417  19.904  1.00  0.00    -0.331 N 
HETATM   12  C11 UNL     1     225.741  -2.771  19.486  1.00  0.00     0.201 C 
HETATM   13  N5  UNL     1     226.581  -1.788  18.932  1.00  0.00    -0.066 NA
HETATM   14  N6  UNL     1     226.247  -4.106  19.552  1.00  0.00    -0.066 NA
ATOM     15  H4  UNL     1     224.350  -1.429  19.807  1.00  0.00     0.168 HD
ENDBRANCH   8  11
BRANCH   1  16
HETATM   16  N1  UNL     1     220.908  -5.390  19.548  1.00  0.00    -0.370 N 
ATOM     17  H1  UNL     1     221.329  -6.165  19.037  1.00  0.00     0.161 HD
BRANCH  16  18
HETATM   18  C5  UNL     1     219.542  -5.232  19.306  1.00  0.00     0.088 C 
HETATM   19  C4  UNL     1     218.715  -6.118  20.275  1.00  0.00     0.055 C 
HETATM   20  C2  UNL     1     217.286  -5.674  20.223  1.00  0.00     0.021 C 
HETATM   21  C1  UNL     1     217.150  -4.679  21.392  1.00  0.00     0.037 C 
HETATM   22  C3  UNL     1     216.351  -6.818  20.552  1.00  0.00     0.037 C 
HETATM   23  N7  UNL     1     216.880  -5.019  19.057  1.00  0.00    -0.405 N 
HETATM   24  C14 UNL     1     217.611  -5.145  17.858  1.00  0.00     0.021 C 
ATOM     25  H7  UNL     1     216.041  -4.439  19.073  1.00  0.00     0.154 HD
HETATM   26  C13 UNL     1     219.019  -5.658  17.958  1.00  0.00     0.055 C 
HETATM   27  C15 UNL     1     216.807  -6.030  16.902  1.00  0.00     0.037 C 
HETATM   28  C16 UNL     1     217.676  -3.775  17.206  1.00  0.00     0.037 C 
ENDBRANCH  16  18
ENDBRANCH   1  16
TORSDOF 3
ENDMDL
MODEL 4
REMARK VINA RESULT: -7.134155650      1.604      1.976
REMARK  3 active torsions:
REMARK  status: ('A' for Active; 'I' for Inactive)
REMARK    1  A    between atoms: C5_5  and  N1_6 
REMARK    2  A    between atoms: N1_6  and  C6_8 
REMARK    3  A    between atoms: C10_15  and  N4_16 
ROOT
HETATM    1  C6  UNL     1     220.991  -4.377  16.984  1.00  0.00     0.121 A 
HETATM    2  N2  UNL     1     220.567  -3.865  15.815  1.00  0.00    -0.350 N 
ATOM      3  H2  UNL     1     219.657  -4.161  15.461  1.00  0.00     0.166 HD
HETATM    4  C7  UNL     1     221.274  -2.985  15.091  1.00  0.00     0.114 A 
HETATM    5  C8  UNL     1     222.511  -2.531  15.492  1.00  0.00     0.088 A 
HETATM    6  C9  UNL     1     223.268  -1.593  14.713  1.00  0.00     0.103 C 
HETATM    7  N3  UNL     1     223.879  -0.822  14.099  1.00  0.00    -0.191 NA
HETATM    8  C10 UNL     1     222.983  -3.047  16.709  1.00  0.00     0.077 A 
HETATM    9  C12 UNL     1     222.245  -3.942  17.431  1.00  0.00     0.083 A 
HETATM   10 BR1  UNL     1     222.908  -4.638  19.077  1.00  0.00    -0.045 Br
ENDROOT
BRANCH   8  11
HETATM   11  N4  UNL     1     224.259  -2.631  17.153  1.00  0.00    -0.331 N 
HETATM   12  C11 UNL     1     224.525  -1.614  17.881  1.00  0.00     0.201 C 
HETATM   13  N5  UNL     1     225.869  -1.368  18.218  1.00  0.00    -0.066 NA
HETATM   14  N6  UNL     1     223.547  -0.695  18.371  1.00  0.00    -0.066 NA
ATOM     15  H4  UNL     1     225.051  -3.203  16.862  1.00  0.00     0.168 HD
ENDBRANCH   8  11
BRANCH   1  16
HETATM   16  N1  UNL     1     220.318  -5.221  17.662  1.00  0.00    -0.370 N 
ATOM     17  H1  UNL     1     220.862  -6.024  17.977  1.00  0.00     0.161 HD
BRANCH  16  18
HETATM   18  C5  UNL     1     218.979  -5.257  18.057  1.00  0.00     0.088 C 
HETATM   19  C4  UNL     1     218.844  -5.929  19.449  1.00  0.00     0.055 C 
HETATM   20  C2  UNL     1     217.473  -5.647  19.982  1.00  0.00     0.021 C 
HETATM   21  C1  UNL     1     217.654  -4.397  20.865  1.00  0.00     0.037 C 
HETATM   22  C3  UNL     1     217.021  -6.745  20.921  1.00  0.00     0.037 C 
HETATM   23  N7  UNL     1     216.485  -5.362  19.037  1.00  0.00    -0.405 N 
HETATM   24  C14 UNL     1     216.641  -5.732  17.685  1.00  0.00     0.021 C 
ATOM     25  H7  UNL     1     215.636  -4.877  19.329  1.00  0.00     0.154 HD
HETATM   26  C13 UNL     1     218.027  -6.069  17.216  1.00  0.00     0.055 C 
HETATM   27  C15 UNL     1     215.700  -6.906  17.403  1.00  0.00     0.037 C 
HETATM   28  C16 UNL     1     216.143  -4.581  16.828  1.00  0.00     0.037 C 
ENDBRANCH  16  18
ENDBRANCH   1  16
TORSDOF 3
ENDMDL
MODEL 5
REMARK VINA RESULT: -7.082421215      1.682      6.990
REMARK  3 active torsions:
REMARK  status: ('A' for Active; 'I' for Inactive)
REMARK    1  A    between atoms: C5_5  and  N1_6 
REMARK    2  A    between atoms: N1_6  and  C6_8 
REMARK    3  A    between atoms: C10_15  and  N4_16 
ROOT
HETATM    1  C6  UNL     1     221.160  -5.624  18.524  1.00  0.00     0.121 A 
HETATM    2  N2  UNL     1     220.814  -5.644  17.225  1.00  0.00    -0.350 N 
ATOM      3  H2  UNL     1     221.535  -5.442  16.532  1.00  0.00     0.166 HD
HETATM    4  C7  UNL     1     219.574  -5.915  16.791  1.00  0.00     0.114 A 
HETATM    5  C8  UNL     1     218.540  -6.197  17.656  1.00  0.00     0.088 A 
HETATM    6  C9  UNL     1     217.213  -6.483  17.190  1.00  0.00     0.103 C 
HETATM    7  N3  UNL     1     216.142  -6.733  16.822  1.00  0.00    -0.191 NA
HETATM    8  C10 UNL     1     218.867  -6.185  19.021  1.00  0.00     0.077 A 
HETATM    9  C12 UNL     1     220.138  -5.906  19.441  1.00  0.00     0.083 A 
HETATM   10 BR1  UNL     1     220.560  -5.885  21.299  1.00  0.00    -0.045 Br
ENDROOT
BRANCH   8  11
HETATM   11  N4  UNL     1     217.836  -6.444  19.951  1.00  0.00    -0.331 N 
HETATM   12  C11 UNL     1     217.111  -5.582  20.556  1.00  0.00     0.201 C 
HETATM   13  N5  UNL     1     216.130  -6.045  21.452  1.00  0.00    -0.066 NA
HETATM   14  N6  UNL     1     217.238  -4.168  20.395  1.00  0.00    -0.066 NA
ATOM     15  H4  UNL     1     217.649  -7.425  20.163  1.00  0.00     0.168 HD
ENDBRANCH   8  11
BRANCH   1  16
HETATM   16  N1  UNL     1     222.338  -5.355  18.930  1.00  0.00    -0.370 N 
ATOM     17  H1  UNL     1     222.854  -6.168  19.267  1.00  0.00     0.161 HD
BRANCH  16  18
HETATM   18  C5  UNL     1     223.057  -4.160  19.004  1.00  0.00     0.088 C 
HETATM   19  C4  UNL     1     222.093  -2.960  19.197  1.00  0.00     0.055 C 
HETATM   20  C2  UNL     1     222.898  -1.766  19.609  1.00  0.00     0.021 C 
HETATM   21  C1  UNL     1     222.826  -1.767  21.148  1.00  0.00     0.037 C 
HETATM   22  C3  UNL     1     222.224  -0.482  19.172  1.00  0.00     0.037 C 
HETATM   23  N7  UNL     1     224.247  -1.769  19.245  1.00  0.00    -0.405 N 
HETATM   24  C14 UNL     1     224.720  -2.600  18.210  1.00  0.00     0.021 C 
ATOM     25  H7  UNL     1     224.900  -1.160  19.737  1.00  0.00     0.154 HD
HETATM   26  C13 UNL     1     223.845  -3.746  17.788  1.00  0.00     0.055 C 
HETATM   27  C15 UNL     1     225.035  -1.718  16.999  1.00  0.00     0.037 C 
HETATM   28  C16 UNL     1     226.048  -3.188  18.655  1.00  0.00     0.037 C 
ENDBRANCH  16  18
ENDBRANCH   1  16
TORSDOF 3
ENDMDL
