MODEL 1
REMARK VINA RESULT: -6.671644665      0.000      0.000
REMARK  6 active torsions:
REMARK  status: ('A' for Active; 'I' for Inactive)
REMARK       I    between atoms: N1_2  and  C2_4 
REMARK       I    between atoms: C2_4  and  N2_6 
REMARK    1  A    between atoms: C3_7  and  C4_8 
REMARK    2  A    between atoms: C4_8  and  O3_10 
REMARK    3  A    between atoms: C8_18  and  N5_19 
REMARK    4  A    between atoms: N5_19  and  C9_21 
REMARK    5  A    between atoms: C9_21  and  N6_23 
REMARK    6  A    between atoms: N6_23  and  C10_25 
ROOT
HETATM    1  C1  UNL     1     215.286   4.222  16.064  1.00  0.00     0.151 C 
HETATM    2  N1  UNL     1     216.566   4.625  16.604  1.00  0.00    -0.347 N 
ATOM      3  H1  UNL     1     217.376   4.608  15.984  1.00  0.00     0.163 HD
HETATM    4  C2  UNL     1     216.756   5.039  17.938  1.00  0.00     0.319 C 
HETATM    5  O1  UNL     1     215.698   5.039  18.664  1.00  0.00    -0.247 OA
HETATM    6  N2  UNL     1     218.011   5.435  18.473  1.00  0.00    -0.301 N 
HETATM    7  C3  UNL     1     218.203   5.863  19.822  1.00  0.00     0.229 A 
HETATM    8  C6  UNL     1     219.641   6.147  19.917  1.00  0.00     0.046 A 
HETATM    9  C7  UNL     1     220.253   5.917  18.713  1.00  0.00     0.066 A 
HETATM   10  N3  UNL     1     221.567   6.204  18.893  1.00  0.00    -0.300 N 
ATOM     11  H3  UNL     1     222.291   6.131  18.177  1.00  0.00     0.186 HD
HETATM   12  N4  UNL     1     221.762   6.595  20.145  1.00  0.00    -0.285 N 
ATOM     13  H4  UNL     1     222.660   6.869  20.542  1.00  0.00     0.188 HD
HETATM   14  C8  UNL     1     220.597   6.573  20.809  1.00  0.00     0.133 A 
HETATM   15  C14 UNL     1     219.239   5.463  17.766  1.00  0.00     0.075 A 
HETATM   16  C15 UNL     1     219.656   4.100  17.241  1.00  0.00     0.045 C 
HETATM   17  C16 UNL     1     219.237   6.420  16.590  1.00  0.00     0.045 C 
ENDROOT
BRANCH  14  18
HETATM   18  N5  UNL     1     220.408   6.884  22.033  1.00  0.00    -0.318 N 
ATOM     19  H5  UNL     1     220.473   7.865  22.307  1.00  0.00     0.170 HD
BRANCH  18  20
HETATM   20  C9  UNL     1     220.110   5.911  23.032  1.00  0.00     0.173 C 
HETATM   21  S1  UNL     1     221.387   5.208  23.753  1.00  0.00    -0.041 SA
BRANCH  20  22
HETATM   22  N6  UNL     1     218.802   5.558  23.399  1.00  0.00    -0.362 N 
ATOM     23  H6  UNL     1     218.142   6.299  23.636  1.00  0.00     0.162 HD
BRANCH  22  24
HETATM   24  C10 UNL     1     218.349   4.166  23.454  1.00  0.00     0.083 C 
HETATM   25  C11 UNL     1     217.534   3.844  24.685  1.00  0.00     0.025 C 
HETATM   26  C12 UNL     1     216.408   3.328  23.788  1.00  0.00     0.004 C 
HETATM   27  C13 UNL     1     217.143   3.894  22.608  1.00  0.00     0.025 C 
ENDBRANCH  22  24
ENDBRANCH  20  22
ENDBRANCH  18  20
ENDBRANCH  14  18
BRANCH   7  28
HETATM   28  C4  UNL     1     217.452   7.077  20.176  1.00  0.00     0.286 C 
HETATM   29  O2  UNL     1     217.130   7.288  21.360  1.00  0.00    -0.263 OA
BRANCH  28  30
HETATM   30  O3  UNL     1     217.107   7.980  19.197  1.00  0.00    -0.325 OA
HETATM   31  C5  UNL     1     217.882   9.150  19.007  1.00  0.00     0.213 C 
ENDBRANCH  28  30
ENDBRANCH   7  28
TORSDOF 6
ENDMDL
MODEL 2
REMARK VINA RESULT: -6.661776442      3.192      5.284
REMARK  6 active torsions:
REMARK  status: ('A' for Active; 'I' for Inactive)
REMARK       I    between atoms: N1_2  and  C2_4 
REMARK       I    between atoms: C2_4  and  N2_6 
REMARK    1  A    between atoms: C3_7  and  C4_8 
REMARK    2  A    between atoms: C4_8  and  O3_10 
REMARK    3  A    between atoms: C8_18  and  N5_19 
REMARK    4  A    between atoms: N5_19  and  C9_21 
REMARK    5  A    between atoms: C9_21  and  N6_23 
REMARK    6  A    between atoms: N6_23  and  C10_25 
ROOT
HETATM    1  C1  UNL     1     220.953  10.540  20.494  1.00  0.00     0.151 C 
HETATM    2  N1  UNL     1     219.970   9.965  19.603  1.00  0.00    -0.347 N 
ATOM      3  H1  UNL     1     219.653  10.524  18.811  1.00  0.00     0.163 HD
HETATM    4  C2  UNL     1     219.424   8.675  19.767  1.00  0.00     0.319 C 
HETATM    5  O1  UNL     1     219.865   8.024  20.781  1.00  0.00    -0.247 OA
HETATM    6  N2  UNL     1     218.458   8.107  18.894  1.00  0.00    -0.301 N 
HETATM    7  C3  UNL     1     217.911   6.797  19.056  1.00  0.00     0.229 A 
HETATM    8  C6  UNL     1     216.958   6.658  17.947  1.00  0.00     0.046 A 
HETATM    9  C7  UNL     1     216.948   7.793  17.181  1.00  0.00     0.066 A 
HETATM   10  N3  UNL     1     216.047   7.575  16.189  1.00  0.00    -0.300 N 
ATOM     11  H3  UNL     1     215.810   8.238  15.450  1.00  0.00     0.186 HD
HETATM   12  N4  UNL     1     215.525   6.365  16.331  1.00  0.00    -0.285 N 
ATOM     13  H4  UNL     1     214.822   5.952  15.718  1.00  0.00     0.188 HD
HETATM   14  C8  UNL     1     216.061   5.767  17.406  1.00  0.00     0.133 A 
HETATM   15  C14 UNL     1     217.898   8.740  17.756  1.00  0.00     0.075 A 
HETATM   16  C15 UNL     1     217.150  10.018  18.092  1.00  0.00     0.045 C 
HETATM   17  C16 UNL     1     218.921   9.080  16.691  1.00  0.00     0.045 C 
ENDROOT
BRANCH  14  18
HETATM   18  N5  UNL     1     215.792   4.598  17.845  1.00  0.00    -0.318 N 
ATOM     19  H5  UNL     1     216.336   3.807  17.501  1.00  0.00     0.170 HD
BRANCH  18  20
HETATM   20  C9  UNL     1     214.758   4.359  18.797  1.00  0.00     0.173 C 
HETATM   21  S1  UNL     1     213.317   3.907  18.196  1.00  0.00    -0.041 SA
BRANCH  20  22
HETATM   22  N6  UNL     1     214.940   4.494  20.184  1.00  0.00    -0.362 N 
ATOM     23  H6  UNL     1     214.404   5.205  20.682  1.00  0.00     0.162 HD
BRANCH  22  24
HETATM   24  C10 UNL     1     215.870   3.653  20.940  1.00  0.00     0.083 C 
HETATM   25  C11 UNL     1     216.404   4.315  22.190  1.00  0.00     0.025 C 
HETATM   26  C12 UNL     1     215.920   3.120  23.013  1.00  0.00     0.004 C 
HETATM   27  C13 UNL     1     215.191   2.628  21.797  1.00  0.00     0.025 C 
ENDBRANCH  22  24
ENDBRANCH  20  22
ENDBRANCH  18  20
ENDBRANCH  14  18
BRANCH   7  28
HETATM   28  C4  UNL     1     218.908   5.719  18.967  1.00  0.00     0.286 C 
HETATM   29  O2  UNL     1     219.074   4.944  19.926  1.00  0.00    -0.263 OA
BRANCH  28  30
HETATM   30  O3  UNL     1     219.655   5.569  17.822  1.00  0.00    -0.325 OA
HETATM   31  C5  UNL     1     219.772   4.294  17.215  1.00  0.00     0.213 C 
ENDBRANCH  28  30
ENDBRANCH   7  28
TORSDOF 6
ENDMDL
MODEL 3
REMARK VINA RESULT: -6.590444834      1.323      1.877
REMARK  6 active torsions:
REMARK  status: ('A' for Active; 'I' for Inactive)
REMARK       I    between atoms: N1_2  and  C2_4 
REMARK       I    between atoms: C2_4  and  N2_6 
REMARK    1  A    between atoms: C3_7  and  C4_8 
REMARK    2  A    between atoms: C4_8  and  O3_10 
REMARK    3  A    between atoms: C8_18  and  N5_19 
REMARK    4  A    between atoms: N5_19  and  C9_21 
REMARK    5  A    between atoms: C9_21  and  N6_23 
REMARK    6  A    between atoms: N6_23  and  C10_25 
ROOT
HETATM    1  C1  UNL     1     214.486   6.012  16.160  1.00  0.00     0.151 C 
HETATM    2  N1  UNL     1     215.857   5.991  16.621  1.00  0.00    -0.347 N 
ATOM      3  H1  UNL     1     216.594   6.202  15.948  1.00  0.00     0.163 HD
HETATM    4  C2  UNL     1     216.231   5.698  17.949  1.00  0.00     0.319 C 
HETATM    5  O1  UNL     1     215.258   5.444  18.744  1.00  0.00    -0.247 OA
HETATM    6  N2  UNL     1     217.576   5.676  18.405  1.00  0.00    -0.301 N 
HETATM    7  C3  UNL     1     217.956   5.387  19.752  1.00  0.00     0.229 A 
HETATM    8  C6  UNL     1     219.422   5.462  19.745  1.00  0.00     0.046 A 
HETATM    9  C7  UNL     1     219.877   5.783  18.493  1.00  0.00     0.066 A 
HETATM   10  N3  UNL     1     221.231   5.832  18.581  1.00  0.00    -0.300 N 
ATOM     11  H3  UNL     1     221.865   6.046  17.811  1.00  0.00     0.186 HD
HETATM   12  N4  UNL     1     221.599   5.556  19.825  1.00  0.00    -0.285 N 
ATOM     13  H4  UNL     1     222.561   5.526  20.161  1.00  0.00     0.188 HD
HETATM   14  C8  UNL     1     220.510   5.322  20.574  1.00  0.00     0.133 A 
HETATM   15  C14 UNL     1     218.723   5.930  17.612  1.00  0.00     0.075 A 
HETATM   16  C15 UNL     1     218.879   4.954  16.459  1.00  0.00     0.045 C 
HETATM   17  C16 UNL     1     218.756   7.329  17.030  1.00  0.00     0.045 C 
ENDROOT
BRANCH  14  18
HETATM   18  N5  UNL     1     220.486   5.024  21.816  1.00  0.00    -0.318 N 
ATOM     19  H5  UNL     1     220.656   4.058  22.093  1.00  0.00     0.170 HD
BRANCH  18  20
HETATM   20  C9  UNL     1     220.230   5.995  22.828  1.00  0.00     0.173 C 
HETATM   21  S1  UNL     1     221.261   7.250  22.899  1.00  0.00    -0.041 SA
BRANCH  20  22
HETATM   22  N6  UNL     1     219.155   5.905  23.729  1.00  0.00    -0.362 N 
ATOM     23  H6  UNL     1     218.323   6.470  23.557  1.00  0.00     0.162 HD
BRANCH  22  24
HETATM   24  C10 UNL     1     219.184   5.032  24.904  1.00  0.00     0.083 C 
HETATM   25  C11 UNL     1     218.315   5.518  26.040  1.00  0.00     0.025 C 
HETATM   26  C12 UNL     1     217.602   4.166  26.055  1.00  0.00     0.004 C 
HETATM   27  C13 UNL     1     218.308   3.824  24.776  1.00  0.00     0.025 C 
ENDBRANCH  22  24
ENDBRANCH  20  22
ENDBRANCH  18  20
ENDBRANCH  14  18
BRANCH   7  28
HETATM   28  C4  UNL     1     217.433   6.344  20.738  1.00  0.00     0.286 C 
HETATM   29  O2  UNL     1     217.597   7.566  20.567  1.00  0.00    -0.263 OA
BRANCH  28  30
HETATM   30  O3  UNL     1     216.763   5.887  21.850  1.00  0.00    -0.325 OA
HETATM   31  C5  UNL     1     216.236   4.573  21.868  1.00  0.00     0.213 C 
ENDBRANCH  28  30
ENDBRANCH   7  28
TORSDOF 6
ENDMDL
MODEL 4
REMARK VINA RESULT: -6.576698611      2.901      4.901
REMARK  6 active torsions:
REMARK  status: ('A' for Active; 'I' for Inactive)
REMARK       I    between atoms: N1_2  and  C2_4 
REMARK       I    between atoms: C2_4  and  N2_6 
REMARK    1  A    between atoms: C3_7  and  C4_8 
REMARK    2  A    between atoms: C4_8  and  O3_10 
REMARK    3  A    between atoms: C8_18  and  N5_19 
REMARK    4  A    between atoms: N5_19  and  C9_21 
REMARK    5  A    between atoms: C9_21  and  N6_23 
REMARK    6  A    between atoms: N6_23  and  C10_25 
ROOT
HETATM    1  C1  UNL     1     222.090  10.459  19.621  1.00  0.00     0.151 C 
HETATM    2  N1  UNL     1     221.387   9.406  18.923  1.00  0.00    -0.347 N 
ATOM      3  H1  UNL     1     221.902   8.855  18.237  1.00  0.00     0.163 HD
HETATM    4  C2  UNL     1     220.027   9.096  19.139  1.00  0.00     0.319 C 
HETATM    5  O1  UNL     1     219.437   9.824  20.015  1.00  0.00    -0.247 OA
HETATM    6  N2  UNL     1     219.333   8.062  18.456  1.00  0.00    -0.301 N 
HETATM    7  C3  UNL     1     217.958   7.743  18.679  1.00  0.00     0.229 A 
HETATM    8  C6  UNL     1     217.681   6.640  17.750  1.00  0.00     0.046 A 
HETATM    9  C7  UNL     1     218.807   6.322  17.039  1.00  0.00     0.066 A 
HETATM   10  N3  UNL     1     218.461   5.301  16.214  1.00  0.00    -0.300 N 
ATOM     11  H3  UNL     1     219.084   4.839  15.552  1.00  0.00     0.186 HD
HETATM   12  N4  UNL     1     217.183   5.000  16.404  1.00  0.00    -0.285 N 
ATOM     13  H4  UNL     1     216.672   4.269  15.911  1.00  0.00     0.188 HD
HETATM   14  C8  UNL     1     216.667   5.805  17.345  1.00  0.00     0.133 A 
HETATM   15  C14 UNL     1     219.884   7.210  17.467  1.00  0.00     0.075 A 
HETATM   16  C15 UNL     1     220.392   7.961  16.248  1.00  0.00     0.045 C 
HETATM   17  C16 UNL     1     221.023   6.350  17.977  1.00  0.00     0.045 C 
ENDROOT
BRANCH  14  18
HETATM   18  N5  UNL     1     215.467   5.800  17.781  1.00  0.00    -0.318 N 
ATOM     19  H5  UNL     1     214.834   6.545  17.490  1.00  0.00     0.170 HD
BRANCH  18  20
HETATM   20  C9  UNL     1     214.978   4.789  18.661  1.00  0.00     0.173 C 
HETATM   21  S1  UNL     1     213.506   4.189  18.318  1.00  0.00    -0.041 SA
BRANCH  20  22
HETATM   22  N6  UNL     1     215.700   4.314  19.767  1.00  0.00    -0.362 N 
ATOM     23  H6  UNL     1     216.694   4.112  19.654  1.00  0.00     0.162 HD
BRANCH  22  24
HETATM   24  C10 UNL     1     215.082   4.096  21.076  1.00  0.00     0.083 C 
HETATM   25  C11 UNL     1     214.721   2.654  21.343  1.00  0.00     0.025 C 
HETATM   26  C12 UNL     1     215.535   2.703  22.636  1.00  0.00     0.004 C 
HETATM   27  C13 UNL     1     216.067   4.038  22.203  1.00  0.00     0.025 C 
ENDBRANCH  22  24
ENDBRANCH  20  22
ENDBRANCH  18  20
ENDBRANCH  14  18
BRANCH   7  28
HETATM   28  C4  UNL     1     217.664   7.299  20.050  1.00  0.00     0.286 C 
HETATM   29  O2  UNL     1     216.874   7.948  20.759  1.00  0.00    -0.263 OA
BRANCH  28  30
HETATM   30  O3  UNL     1     218.264   6.165  20.547  1.00  0.00    -0.325 OA
HETATM   31  C5  UNL     1     219.261   6.271  21.548  1.00  0.00     0.213 C 
ENDBRANCH  28  30
ENDBRANCH   7  28
TORSDOF 6
ENDMDL
MODEL 5
REMARK VINA RESULT: -6.497633439      2.975      5.710
REMARK  6 active torsions:
REMARK  status: ('A' for Active; 'I' for Inactive)
REMARK       I    between atoms: N1_2  and  C2_4 
REMARK       I    between atoms: C2_4  and  N2_6 
REMARK    1  A    between atoms: C3_7  and  C4_8 
REMARK    2  A    between atoms: C4_8  and  O3_10 
REMARK    3  A    between atoms: C8_18  and  N5_19 
REMARK    4  A    between atoms: N5_19  and  C9_21 
REMARK    5  A    between atoms: C9_21  and  N6_23 
REMARK    6  A    between atoms: N6_23  and  C10_25 
ROOT
HETATM    1  C1  UNL     1     223.187   9.817  23.156  1.00  0.00     0.151 C 
HETATM    2  N1  UNL     1     222.950   9.130  21.906  1.00  0.00    -0.347 N 
ATOM      3  H1  UNL     1     223.626   9.254  21.153  1.00  0.00     0.163 HD
HETATM    4  C2  UNL     1     221.835   8.298  21.670  1.00  0.00     0.319 C 
HETATM    5  O1  UNL     1     221.024   8.184  22.657  1.00  0.00    -0.247 OA
HETATM    6  N2  UNL     1     221.598   7.621  20.443  1.00  0.00    -0.301 N 
HETATM    7  C3  UNL     1     220.474   6.772  20.207  1.00  0.00     0.229 A 
HETATM    8  C6  UNL     1     220.641   6.320  18.820  1.00  0.00     0.046 A 
HETATM    9  C7  UNL     1     221.782   6.851  18.279  1.00  0.00     0.066 A 
HETATM   10  N3  UNL     1     221.855   6.382  17.007  1.00  0.00    -0.300 N 
ATOM     11  H3  UNL     1     222.595   6.599  16.339  1.00  0.00     0.186 HD
HETATM   12  N4  UNL     1     220.812   5.598  16.770  1.00  0.00    -0.285 N 
ATOM     13  H4  UNL     1     220.625   5.118  15.890  1.00  0.00     0.188 HD
HETATM   14  C8  UNL     1     220.039   5.535  17.865  1.00  0.00     0.133 A 
HETATM   15  C14 UNL     1     222.421   7.686  19.291  1.00  0.00     0.075 A 
HETATM   16  C15 UNL     1     222.553   9.092  18.732  1.00  0.00     0.045 C 
HETATM   17  C16 UNL     1     223.822   7.155  19.519  1.00  0.00     0.045 C 
ENDROOT
BRANCH  14  18
HETATM   18  N5  UNL     1     218.953   4.875  17.997  1.00  0.00    -0.318 N 
ATOM     19  H5  UNL     1     219.002   3.860  18.079  1.00  0.00     0.170 HD
BRANCH  18  20
HETATM   20  C9  UNL     1     217.676   5.507  18.036  1.00  0.00     0.173 C 
HETATM   21  S1  UNL     1     217.490   6.813  17.085  1.00  0.00    -0.041 SA
BRANCH  20  22
HETATM   22  N6  UNL     1     216.614   5.053  18.836  1.00  0.00    -0.362 N 
ATOM     23  H6  UNL     1     216.796   4.844  19.818  1.00  0.00     0.162 HD
BRANCH  22  24
HETATM   24  C10 UNL     1     215.259   4.869  18.315  1.00  0.00     0.083 C 
HETATM   25  C11 UNL     1     215.149   3.762  17.293  1.00  0.00     0.025 C 
HETATM   26  C12 UNL     1     214.046   3.116  18.131  1.00  0.00     0.004 C 
HETATM   27  C13 UNL     1     214.365   4.088  19.229  1.00  0.00     0.025 C 
ENDBRANCH  22  24
ENDBRANCH  20  22
ENDBRANCH  18  20
ENDBRANCH  14  18
BRANCH   7  28
HETATM   28  C4  UNL     1     220.419   5.596  21.089  1.00  0.00     0.286 C 
HETATM   29  O2  UNL     1     221.457   4.959  21.343  1.00  0.00    -0.263 OA
BRANCH  28  30
HETATM   30  O3  UNL     1     219.217   5.203  21.632  1.00  0.00    -0.325 OA
HETATM   31  C5  UNL     1     218.199   6.159  21.867  1.00  0.00     0.213 C 
ENDBRANCH  28  30
ENDBRANCH   7  28
TORSDOF 6
ENDMDL
