MODEL 1
REMARK VINA RESULT: -6.625184151      0.000      0.000
REMARK  7 active torsions:
REMARK  status: ('A' for Active; 'I' for Inactive)
REMARK       I    between atoms: C1_2  and  N1_3 
REMARK    1  A    between atoms: C1_2  and  C9_20 
REMARK    2  A    between atoms: N1_3  and  N2_5 
REMARK    3  A    between atoms: N2_5  and  C2_7 
REMARK    4  A    between atoms: C2_7  and  N3_9 
REMARK    5  A    between atoms: N3_9  and  N4_11 
REMARK    6  A    between atoms: N4_11  and  C3_13 
REMARK    7  A    between atoms: C3_13  and  C4_15 
ROOT
HETATM    1  N2  UNL     1     219.753   6.545  16.188  1.00  0.00    -0.272 N 
ATOM      2  H2  UNL     1     220.049   6.205  15.274  1.00  0.00     0.189 HD
ENDROOT
BRANCH   1   3
HETATM    3  N1  UNL     1     218.404   6.581  16.526  1.00  0.00    -0.266 N 
HETATM    4  C1  UNL     1     217.808   5.431  17.097  1.00  0.00     0.269 C 
HETATM    5  O1  UNL     1     218.525   4.416  17.278  1.00  0.00    -0.269 OA
ATOM      6  H1  UNL     1     217.852   7.424  16.365  1.00  0.00     0.190 HD
BRANCH   4   7
HETATM    7  C9  UNL     1     216.367   5.413  17.478  1.00  0.00     0.318 C 
HETATM    8  C10 UNL     1     215.588   6.414  16.657  1.00  0.00     0.050 C 
HETATM    9  C11 UNL     1     214.165   5.883  16.537  1.00  0.00    -0.007 C 
HETATM   10  C12 UNL     1     214.220   4.700  15.583  1.00  0.00     0.035 C 
HETATM   11  C15 UNL     1     213.787   5.334  17.897  1.00  0.00     0.056 C 
HETATM   12  C13 UNL     1     215.332   3.782  16.034  1.00  0.00     0.276 C 
HETATM   13  N5  UNL     1     215.783   4.115  17.356  1.00  0.00     0.120 N 
HETATM   14  C14 UNL     1     214.594   4.097  18.221  1.00  0.00     0.319 C 
HETATM   15 CL1  UNL     1     215.092   4.060  19.921  1.00  0.00    -0.092 Cl
ENDBRANCH   4   7
ENDBRANCH   1   3
BRANCH   1  16
HETATM   16  C2  UNL     1     220.708   6.990  17.136  1.00  0.00     0.205 C 
HETATM   17  S1  UNL     1     220.873   8.593  17.407  1.00  0.00    -0.038 SA
BRANCH  16  18
HETATM   18  N3  UNL     1     221.483   6.023  17.823  1.00  0.00    -0.274 N 
ATOM     19  H3  UNL     1     222.471   5.901  17.603  1.00  0.00     0.189 HD
BRANCH  18  20
HETATM   20  N4  UNL     1     220.877   5.245  18.802  1.00  0.00    -0.291 N 
ATOM     21  H4  UNL     1     220.756   4.243  18.654  1.00  0.00     0.187 HD
BRANCH  20  22
HETATM   22  C3  UNL     1     220.430   5.842  20.000  1.00  0.00     0.096 C 
HETATM   23  S2  UNL     1     221.563   6.639  20.882  1.00  0.00    -0.064 SA
BRANCH  22  24
HETATM   24  C4  UNL     1     219.032   5.746  20.417  1.00  0.00     0.048 C 
HETATM   25  C5  UNL     1     218.350   7.062  20.350  1.00  0.00     0.011 C 
HETATM   26  C6  UNL     1     217.123   6.856  21.249  1.00  0.00     0.001 C 
HETATM   27  C7  UNL     1     217.463   5.729  22.168  1.00  0.00     0.001 C 
HETATM   28  C8  UNL     1     218.899   5.350  21.877  1.00  0.00     0.011 C 
ENDBRANCH  22  24
ENDBRANCH  20  22
ENDBRANCH  18  20
ENDBRANCH  16  18
ENDBRANCH   1  16
TORSDOF 7
ENDMDL
MODEL 2
REMARK VINA RESULT: -6.297331681      3.739      5.409
REMARK  7 active torsions:
REMARK  status: ('A' for Active; 'I' for Inactive)
REMARK       I    between atoms: C1_2  and  N1_3 
REMARK    1  A    between atoms: C1_2  and  C9_20 
REMARK    2  A    between atoms: N1_3  and  N2_5 
REMARK    3  A    between atoms: N2_5  and  C2_7 
REMARK    4  A    between atoms: C2_7  and  N3_9 
REMARK    5  A    between atoms: N3_9  and  N4_11 
REMARK    6  A    between atoms: N4_11  and  C3_13 
REMARK    7  A    between atoms: C3_13  and  C4_15 
ROOT
HETATM    1  N2  UNL     1     221.034   4.698  22.409  1.00  0.00    -0.272 N 
ATOM      2  H2  UNL     1     221.880   4.132  22.347  1.00  0.00     0.189 HD
ENDROOT
BRANCH   1   3
HETATM    3  N1  UNL     1     220.273   4.958  21.275  1.00  0.00    -0.266 N 
HETATM    4  C1  UNL     1     220.858   5.676  20.204  1.00  0.00     0.269 C 
HETATM    5  O1  UNL     1     222.051   6.052  20.322  1.00  0.00    -0.269 OA
ATOM      6  H1  UNL     1     219.307   4.636  21.215  1.00  0.00     0.190 HD
BRANCH   4   7
HETATM    7  C9  UNL     1     220.090   5.983  18.965  1.00  0.00     0.318 C 
HETATM    8  C10 UNL     1     218.833   5.147  18.898  1.00  0.00     0.050 C 
HETATM    9  C11 UNL     1     217.804   5.948  18.111  1.00  0.00    -0.007 C 
HETATM   10  C12 UNL     1     217.353   7.086  19.013  1.00  0.00     0.035 C 
HETATM   11  C15 UNL     1     218.539   6.576  16.945  1.00  0.00     0.056 C 
HETATM   12  C13 UNL     1     218.583   7.771  19.560  1.00  0.00     0.276 C 
HETATM   13  N5  UNL     1     219.765   7.369  18.850  1.00  0.00     0.120 N 
HETATM   14  C14 UNL     1     219.508   7.633  17.426  1.00  0.00     0.319 C 
HETATM   15 CL1  UNL     1     221.033   7.589  16.525  1.00  0.00    -0.092 Cl
ENDBRANCH   4   7
ENDBRANCH   1   3
BRANCH   1  16
HETATM   16  C2  UNL     1     220.614   5.232  23.653  1.00  0.00     0.205 C 
HETATM   17  S1  UNL     1     221.463   4.869  25.002  1.00  0.00    -0.038 SA
BRANCH  16  18
HETATM   18  N3  UNL     1     219.473   6.071  23.681  1.00  0.00    -0.274 N 
ATOM     19  H3  UNL     1     219.475   6.963  23.185  1.00  0.00     0.189 HD
BRANCH  18  20
HETATM   20  N4  UNL     1     218.352   5.663  24.394  1.00  0.00    -0.291 N 
ATOM     21  H4  UNL     1     217.926   6.289  25.077  1.00  0.00     0.187 HD
BRANCH  20  22
HETATM   22  C3  UNL     1     217.806   4.381  24.172  1.00  0.00     0.096 C 
HETATM   23  S2  UNL     1     217.827   3.349  25.451  1.00  0.00    -0.064 SA
BRANCH  22  24
HETATM   24  C4  UNL     1     217.255   4.009  22.870  1.00  0.00     0.048 C 
HETATM   25  C5  UNL     1     216.650   5.174  22.179  1.00  0.00     0.011 C 
HETATM   26  C6  UNL     1     215.742   4.513  21.130  1.00  0.00     0.001 C 
HETATM   27  C7  UNL     1     215.455   3.137  21.634  1.00  0.00     0.001 C 
HETATM   28  C8  UNL     1     216.100   3.031  22.998  1.00  0.00     0.011 C 
ENDBRANCH  22  24
ENDBRANCH  20  22
ENDBRANCH  18  20
ENDBRANCH  16  18
ENDBRANCH   1  16
TORSDOF 7
ENDMDL
MODEL 3
REMARK VINA RESULT: -6.270200365      1.952      2.375
REMARK  7 active torsions:
REMARK  status: ('A' for Active; 'I' for Inactive)
REMARK       I    between atoms: C1_2  and  N1_3 
REMARK    1  A    between atoms: C1_2  and  C9_20 
REMARK    2  A    between atoms: N1_3  and  N2_5 
REMARK    3  A    between atoms: N2_5  and  C2_7 
REMARK    4  A    between atoms: C2_7  and  N3_9 
REMARK    5  A    between atoms: N3_9  and  N4_11 
REMARK    6  A    between atoms: N4_11  and  C3_13 
REMARK    7  A    between atoms: C3_13  and  C4_15 
ROOT
HETATM    1  N2  UNL     1     218.513   8.315  16.217  1.00  0.00    -0.272 N 
ATOM      2  H2  UNL     1     218.050   8.962  15.580  1.00  0.00     0.189 HD
ENDROOT
BRANCH   1   3
HETATM    3  N1  UNL     1     217.776   7.376  16.930  1.00  0.00    -0.266 N 
HETATM    4  C1  UNL     1     216.373   7.322  16.751  1.00  0.00     0.269 C 
HETATM    5  O1  UNL     1     215.845   8.132  15.949  1.00  0.00    -0.269 OA
ATOM      6  H1  UNL     1     218.241   6.734  17.573  1.00  0.00     0.190 HD
BRANCH   4   7
HETATM    7  C9  UNL     1     215.535   6.336  17.489  1.00  0.00     0.318 C 
HETATM    8  C10 UNL     1     214.265   6.041  16.725  1.00  0.00     0.050 C 
HETATM    9  C11 UNL     1     213.850   4.619  17.081  1.00  0.00    -0.007 C 
HETATM   10  C12 UNL     1     214.833   3.690  16.387  1.00  0.00     0.035 C 
HETATM   11  C15 UNL     1     214.070   4.459  18.571  1.00  0.00     0.056 C 
HETATM   12  C13 UNL     1     216.233   4.167  16.699  1.00  0.00     0.276 C 
HETATM   13  N5  UNL     1     216.233   5.122  17.770  1.00  0.00     0.120 N 
HETATM   14  C14 UNL     1     215.545   4.483  18.902  1.00  0.00     0.319 C 
HETATM   15 CL1  UNL     1     215.873   5.389  20.389  1.00  0.00    -0.092 Cl
ENDBRANCH   4   7
ENDBRANCH   1   3
BRANCH   1  16
HETATM   16  C2  UNL     1     219.920   8.358  16.391  1.00  0.00     0.205 C 
HETATM   17  S1  UNL     1     220.591   9.659  17.116  1.00  0.00    -0.038 SA
BRANCH  16  18
HETATM   18  N3  UNL     1     220.694   7.263  15.935  1.00  0.00    -0.274 N 
ATOM     19  H3  UNL     1     220.772   7.064  14.938  1.00  0.00     0.189 HD
BRANCH  18  20
HETATM   20  N4  UNL     1     221.344   6.462  16.867  1.00  0.00    -0.291 N 
ATOM     21  H4  UNL     1     222.363   6.442  16.899  1.00  0.00     0.187 HD
BRANCH  20  22
HETATM   22  C3  UNL     1     220.592   5.679  17.768  1.00  0.00     0.096 C 
HETATM   23  S2  UNL     1     219.915   4.313  17.155  1.00  0.00    -0.064 SA
BRANCH  22  24
HETATM   24  C4  UNL     1     220.436   6.074  19.167  1.00  0.00     0.048 C 
HETATM   25  C5  UNL     1     221.618   5.694  19.979  1.00  0.00     0.011 C 
HETATM   26  C6  UNL     1     221.073   5.739  21.414  1.00  0.00     0.001 C 
HETATM   27  C7  UNL     1     219.593   5.578  21.304  1.00  0.00     0.001 C 
HETATM   28  C8  UNL     1     219.289   5.342  19.841  1.00  0.00     0.011 C 
ENDBRANCH  22  24
ENDBRANCH  20  22
ENDBRANCH  18  20
ENDBRANCH  16  18
ENDBRANCH   1  16
TORSDOF 7
ENDMDL
MODEL 4
REMARK VINA RESULT: -6.246523619      5.435      8.189
REMARK  7 active torsions:
REMARK  status: ('A' for Active; 'I' for Inactive)
REMARK       I    between atoms: C1_2  and  N1_3 
REMARK    1  A    between atoms: C1_2  and  C9_20 
REMARK    2  A    between atoms: N1_3  and  N2_5 
REMARK    3  A    between atoms: N2_5  and  C2_7 
REMARK    4  A    between atoms: C2_7  and  N3_9 
REMARK    5  A    between atoms: N3_9  and  N4_11 
REMARK    6  A    between atoms: N4_11  and  C3_13 
REMARK    7  A    between atoms: C3_13  and  C4_15 
ROOT
HETATM    1  N2  UNL     1     220.230   6.651  23.899  1.00  0.00    -0.272 N 
ATOM      2  H2  UNL     1     220.973   7.310  24.129  1.00  0.00     0.189 HD
ENDROOT
BRANCH   1   3
HETATM    3  N1  UNL     1     219.427   6.114  24.899  1.00  0.00    -0.266 N 
HETATM    4  C1  UNL     1     220.038   5.566  26.053  1.00  0.00     0.269 C 
HETATM    5  O1  UNL     1     221.292   5.587  26.128  1.00  0.00    -0.269 OA
ATOM      6  H1  UNL     1     218.411   6.115  24.803  1.00  0.00     0.190 HD
BRANCH   4   7
HETATM    7  C9  UNL     1     219.227   4.978  27.155  1.00  0.00     0.318 C 
HETATM    8  C10 UNL     1     217.809   5.498  27.107  1.00  0.00     0.050 C 
HETATM    9  C11 UNL     1     216.915   4.414  27.696  1.00  0.00    -0.007 C 
HETATM   10  C12 UNL     1     216.852   3.295  26.670  1.00  0.00     0.035 C 
HETATM   11  C15 UNL     1     217.638   3.861  28.907  1.00  0.00     0.056 C 
HETATM   12  C13 UNL     1     218.264   2.960  26.249  1.00  0.00     0.276 C 
HETATM   13  N5  UNL     1     219.227   3.549  27.136  1.00  0.00     0.120 N 
HETATM   14  C14 UNL     1     218.878   3.101  28.492  1.00  0.00     0.319 C 
HETATM   15 CL1  UNL     1     220.235   3.404  29.590  1.00  0.00    -0.092 Cl
ENDBRANCH   4   7
ENDBRANCH   1   3
BRANCH   1  16
HETATM   16  C2  UNL     1     219.999   6.265  22.555  1.00  0.00     0.205 C 
HETATM   17  S1  UNL     1     220.735   4.926  21.974  1.00  0.00    -0.038 SA
BRANCH  16  18
HETATM   18  N3  UNL     1     219.129   7.054  21.763  1.00  0.00    -0.274 N 
ATOM     19  H3  UNL     1     219.504   7.756  21.124  1.00  0.00     0.189 HD
BRANCH  18  20
HETATM   20  N4  UNL     1     217.757   6.858  21.868  1.00  0.00    -0.291 N 
ATOM     21  H4  UNL     1     217.191   7.499  22.423  1.00  0.00     0.187 HD
BRANCH  20  22
HETATM   22  C3  UNL     1     217.148   5.771  21.206  1.00  0.00     0.096 C 
HETATM   23  S2  UNL     1     217.559   5.557  19.629  1.00  0.00    -0.064 SA
BRANCH  22  24
HETATM   24  C4  UNL     1     216.208   4.893  21.900  1.00  0.00     0.048 C 
HETATM   25  C5  UNL     1     216.907   3.947  22.804  1.00  0.00     0.011 C 
HETATM   26  C6  UNL     1     215.853   2.853  23.033  1.00  0.00     0.001 C 
HETATM   27  C7  UNL     1     214.912   2.931  21.876  1.00  0.00     0.001 C 
HETATM   28  C8  UNL     1     215.463   3.982  20.938  1.00  0.00     0.011 C 
ENDBRANCH  22  24
ENDBRANCH  20  22
ENDBRANCH  18  20
ENDBRANCH  16  18
ENDBRANCH   1  16
TORSDOF 7
ENDMDL
MODEL 5
REMARK VINA RESULT: -6.210281237      3.285      4.741
REMARK  7 active torsions:
REMARK  status: ('A' for Active; 'I' for Inactive)
REMARK       I    between atoms: C1_2  and  N1_3 
REMARK    1  A    between atoms: C1_2  and  C9_20 
REMARK    2  A    between atoms: N1_3  and  N2_5 
REMARK    3  A    between atoms: N2_5  and  C2_7 
REMARK    4  A    between atoms: C2_7  and  N3_9 
REMARK    5  A    between atoms: N3_9  and  N4_11 
REMARK    6  A    between atoms: N4_11  and  C3_13 
REMARK    7  A    between atoms: C3_13  and  C4_15 
ROOT
HETATM    1  N2  UNL     1     219.626   7.615  21.894  1.00  0.00    -0.272 N 
ATOM      2  H2  UNL     1     219.814   8.435  22.470  1.00  0.00     0.189 HD
ENDROOT
BRANCH   1   3
HETATM    3  N1  UNL     1     219.181   7.759  20.584  1.00  0.00    -0.266 N 
HETATM    4  C1  UNL     1     217.790   7.749  20.325  1.00  0.00     0.269 C 
HETATM    5  O1  UNL     1     217.005   7.609  21.296  1.00  0.00    -0.269 OA
ATOM      6  H1  UNL     1     219.849   7.870  19.821  1.00  0.00     0.190 HD
BRANCH   4   7
HETATM    7  C9  UNL     1     217.258   7.898  18.941  1.00  0.00     0.318 C 
HETATM    8  C10 UNL     1     217.532   9.287  18.413  1.00  0.00     0.050 C 
HETATM    9  C11 UNL     1     217.655   9.174  16.899  1.00  0.00    -0.007 C 
HETATM   10  C12 UNL     1     218.982   8.486  16.620  1.00  0.00     0.035 C 
HETATM   11  C15 UNL     1     216.564   8.228  16.442  1.00  0.00     0.056 C 
HETATM   12  C13 UNL     1     219.060   7.245  17.477  1.00  0.00     0.276 C 
HETATM   13  N5  UNL     1     217.782   6.918  18.043  1.00  0.00     0.120 N 
HETATM   14  C14 UNL     1     216.839   6.819  16.919  1.00  0.00     0.319 C 
HETATM   15 CL1  UNL     1     215.359   6.002  17.450  1.00  0.00    -0.092 Cl
ENDBRANCH   4   7
ENDBRANCH   1   3
BRANCH   1  16
HETATM   16  C2  UNL     1     219.813   6.310  22.415  1.00  0.00     0.205 C 
HETATM   17  S1  UNL     1     220.980   5.360  21.777  1.00  0.00    -0.038 SA
BRANCH  16  18
HETATM   18  N3  UNL     1     218.984   5.878  23.479  1.00  0.00    -0.274 N 
ATOM     19  H3  UNL     1     219.356   5.802  24.426  1.00  0.00     0.189 HD
BRANCH  18  20
HETATM   20  N4  UNL     1     217.657   5.560  23.213  1.00  0.00    -0.291 N 
ATOM     21  H4  UNL     1     217.003   6.292  22.938  1.00  0.00     0.187 HD
BRANCH  20  22
HETATM   22  C3  UNL     1     217.218   4.224  23.324  1.00  0.00     0.096 C 
HETATM   23  S2  UNL     1     217.480   3.490  24.772  1.00  0.00    -0.064 SA
BRANCH  22  24
HETATM   24  C4  UNL     1     216.567   3.546  22.205  1.00  0.00     0.048 C 
HETATM   25  C5  UNL     1     215.938   4.512  21.271  1.00  0.00     0.011 C 
HETATM   26  C6  UNL     1     214.944   3.636  20.495  1.00  0.00     0.001 C 
HETATM   27  C7  UNL     1     214.666   2.452  21.361  1.00  0.00     0.001 C 
HETATM   28  C8  UNL     1     215.405   2.681  22.661  1.00  0.00     0.011 C 
ENDBRANCH  22  24
ENDBRANCH  20  22
ENDBRANCH  18  20
ENDBRANCH  16  18
ENDBRANCH   1  16
TORSDOF 7
ENDMDL
