MODEL 1
REMARK VINA RESULT: -7.331699261      0.000      0.000
REMARK  8 active torsions:
REMARK  status: ('A' for Active; 'I' for Inactive)
REMARK    1  A    between atoms: C5_6  and  C6_7 
REMARK       I    between atoms: C6_7  and  N2_9 
REMARK    2  A    between atoms: N2_9  and  N3_11 
REMARK       I    between atoms: N3_11  and  C7_13 
REMARK    3  A    between atoms: C7_13  and  C8_15 
REMARK    4  A    between atoms: C8_15  and  C9_16 
REMARK    5  A    between atoms: C9_16  and  C10_17 
REMARK    6  A    between atoms: C10_17  and  C11_18 
REMARK    7  A    between atoms: C11_18  and  C12_19 
REMARK    8  A    between atoms: C12_19  and  N4_20 
ROOT
HETATM    1  C6  UNL     1      -5.671   5.532  13.393  1.00  0.00     0.241 C 
HETATM    2  O1  UNL     1      -6.862   5.878  13.242  1.00  0.00    -0.271 OA
HETATM    3  N2  UNL     1      -4.686   6.082  12.537  1.00  0.00    -0.267 N 
ATOM      4  H2  UNL     1      -3.711   5.807  12.652  1.00  0.00     0.190 HD
ENDROOT
BRANCH   3   5
HETATM    5  N3  UNL     1      -5.030   7.004  11.528  1.00  0.00    -0.268 N 
HETATM    6  C7  UNL     1      -5.386   6.483  10.259  1.00  0.00     0.236 C 
HETATM    7  O2  UNL     1      -5.407   5.266  10.002  1.00  0.00    -0.272 OA
ATOM      8  H3  UNL     1      -5.021   8.008  11.705  1.00  0.00     0.190 HD
BRANCH   6   9
HETATM    9  C8  UNL     1      -5.752   7.453   9.188  1.00  0.00     0.104 C 
BRANCH   9  10
HETATM   10  C9  UNL     1      -7.117   8.010   9.474  1.00  0.00     0.009 C 
BRANCH  10  11
HETATM   11  C10 UNL     1      -8.156   7.200   8.755  1.00  0.00     0.002 C 
BRANCH  11  12
HETATM   12  C11 UNL     1      -9.116   8.079   8.025  1.00  0.00     0.030 C 
BRANCH  12  13
HETATM   13  C12 UNL     1      -8.430   8.889   6.942  1.00  0.00     0.272 C 
BRANCH  13  14
HETATM   14  N4  UNL     1      -9.406   9.686   6.260  1.00  0.00     0.088 N 
HETATM   15  C13 UNL     1     -10.591   9.801   7.102  1.00  0.00     0.272 C 
HETATM   16  C14 UNL     1     -10.832  11.214   7.496  1.00  0.00     0.030 C 
HETATM   17  C15 UNL     1      -9.580  11.868   7.979  1.00  0.00     0.003 C 
HETATM   18  C16 UNL     1      -8.497  11.843   6.953  1.00  0.00     0.030 C 
HETATM   19  C17 UNL     1      -8.946  10.961   5.806  1.00  0.00     0.272 C 
ENDBRANCH  13  14
ENDBRANCH  12  13
ENDBRANCH  11  12
ENDBRANCH  10  11
ENDBRANCH   9  10
ENDBRANCH   6   9
ENDBRANCH   3   5
BRANCH   1  20
HETATM   20  C5  UNL     1      -5.293   4.585  14.425  1.00  0.00     0.105 C 
HETATM   21  C4  UNL     1      -6.469   3.642  14.729  1.00  0.00     0.024 C 
HETATM   22  C3  UNL     1      -6.065   2.887  15.942  1.00  0.00     0.047 C 
HETATM   23  C2  UNL     1      -6.965   1.778  16.367  1.00  0.00     0.278 C 
HETATM   24  C19 UNL     1      -4.828   2.066  15.535  1.00  0.00     0.219 C 
HETATM   25  N1  UNL     1      -6.080   1.034  17.279  1.00  0.00     0.086 N 
HETATM   26  C1  UNL     1      -6.140   1.739  18.558  1.00  0.00     0.310 C 
HETATM   27  C20 UNL     1      -4.734   1.147  16.696  1.00  0.00     0.305 C 
HETATM   28  N5  UNL     1      -3.767   3.000  15.370  1.00  0.00    -0.068 N 
HETATM   29  C18 UNL     1      -4.074   3.774  14.156  1.00  0.00     0.246 C 
ATOM     30  H52 UNL     1      -2.845   2.563  15.348  1.00  0.00     0.277 HD
ATOM     31  H51 UNL     1      -3.612   3.583  16.192  1.00  0.00     0.277 HD
ENDBRANCH   1  20
TORSDOF 8
ENDMDL
MODEL 2
REMARK VINA RESULT: -7.224055810      1.653     10.324
REMARK  8 active torsions:
REMARK  status: ('A' for Active; 'I' for Inactive)
REMARK    1  A    between atoms: C5_6  and  C6_7 
REMARK       I    between atoms: C6_7  and  N2_9 
REMARK    2  A    between atoms: N2_9  and  N3_11 
REMARK       I    between atoms: N3_11  and  C7_13 
REMARK    3  A    between atoms: C7_13  and  C8_15 
REMARK    4  A    between atoms: C8_15  and  C9_16 
REMARK    5  A    between atoms: C9_16  and  C10_17 
REMARK    6  A    between atoms: C10_17  and  C11_18 
REMARK    7  A    between atoms: C11_18  and  C12_19 
REMARK    8  A    between atoms: C12_19  and  N4_20 
ROOT
HETATM    1  C6  UNL     1      -6.231   6.552   9.932  1.00  0.00     0.241 C 
HETATM    2  O1  UNL     1      -6.842   6.591  11.022  1.00  0.00    -0.271 OA
HETATM    3  N2  UNL     1      -4.957   5.937   9.885  1.00  0.00    -0.267 N 
ATOM      4  H2  UNL     1      -4.451   5.900   9.000  1.00  0.00     0.190 HD
ENDROOT
BRANCH   3   5
HETATM    5  N3  UNL     1      -4.376   5.373  11.038  1.00  0.00    -0.268 N 
HETATM    6  C7  UNL     1      -4.081   3.988  11.013  1.00  0.00     0.236 C 
HETATM    7  O2  UNL     1      -4.313   3.258  10.031  1.00  0.00    -0.272 OA
ATOM      8  H3  UNL     1      -4.176   5.943  11.861  1.00  0.00     0.190 HD
BRANCH   6   9
HETATM    9  C8  UNL     1      -3.465   3.386  12.230  1.00  0.00     0.104 C 
BRANCH   9  10
HETATM   10  C9  UNL     1      -2.545   4.389  12.862  1.00  0.00     0.009 C 
BRANCH  10  11
HETATM   11  C10 UNL     1      -2.849   4.504  14.327  1.00  0.00     0.002 C 
BRANCH  11  12
HETATM   12  C11 UNL     1      -4.211   3.980  14.639  1.00  0.00     0.030 C 
BRANCH  12  13
HETATM   13  C12 UNL     1      -4.167   2.867  15.667  1.00  0.00     0.272 C 
BRANCH  13  14
HETATM   14  N4  UNL     1      -5.251   1.961  15.428  1.00  0.00     0.088 N 
HETATM   15  C13 UNL     1      -5.020   0.738  16.187  1.00  0.00     0.272 C 
HETATM   16  C14 UNL     1      -6.082   0.533  17.207  1.00  0.00     0.030 C 
HETATM   17  C15 UNL     1      -6.346   1.783  17.980  1.00  0.00     0.003 C 
HETATM   18  C16 UNL     1      -6.750   2.917  17.100  1.00  0.00     0.030 C 
HETATM   19  C17 UNL     1      -6.557   2.495  15.658  1.00  0.00     0.272 C 
ENDBRANCH  13  14
ENDBRANCH  12  13
ENDBRANCH  11  12
ENDBRANCH  10  11
ENDBRANCH   9  10
ENDBRANCH   6   9
ENDBRANCH   3   5
BRANCH   1  20
HETATM   20  C5  UNL     1      -6.809   7.125   8.731  1.00  0.00     0.105 C 
HETATM   21  C4  UNL     1      -7.295   8.557   9.013  1.00  0.00     0.024 C 
HETATM   22  C3  UNL     1      -8.071   8.954   7.811  1.00  0.00     0.047 C 
HETATM   23  C2  UNL     1      -8.527  10.371   7.750  1.00  0.00     0.278 C 
HETATM   24  C19 UNL     1      -7.066   8.961   6.644  1.00  0.00     0.219 C 
HETATM   25  N1  UNL     1      -8.860  10.496   6.321  1.00  0.00     0.086 N 
HETATM   26  C1  UNL     1     -10.198   9.929   6.170  1.00  0.00     0.310 C 
HETATM   27  C20 UNL     1      -7.870   9.666   5.615  1.00  0.00     0.305 C 
HETATM   28  N5  UNL     1      -6.747   7.599   6.384  1.00  0.00    -0.068 N 
HETATM   29  C18 UNL     1      -5.938   7.133   7.524  1.00  0.00     0.246 C 
ATOM     30  H52 UNL     1      -6.292   7.456   5.482  1.00  0.00     0.277 HD
ATOM     31  H51 UNL     1      -7.567   7.020   6.208  1.00  0.00     0.277 HD
ENDBRANCH   1  20
TORSDOF 8
ENDMDL
MODEL 3
REMARK VINA RESULT: -7.207485427      1.330     10.386
REMARK  8 active torsions:
REMARK  status: ('A' for Active; 'I' for Inactive)
REMARK    1  A    between atoms: C5_6  and  C6_7 
REMARK       I    between atoms: C6_7  and  N2_9 
REMARK    2  A    between atoms: N2_9  and  N3_11 
REMARK       I    between atoms: N3_11  and  C7_13 
REMARK    3  A    between atoms: C7_13  and  C8_15 
REMARK    4  A    between atoms: C8_15  and  C9_16 
REMARK    5  A    between atoms: C9_16  and  C10_17 
REMARK    6  A    between atoms: C10_17  and  C11_18 
REMARK    7  A    between atoms: C11_18  and  C12_19 
REMARK    8  A    between atoms: C12_19  and  N4_20 
ROOT
HETATM    1  C6  UNL     1      -5.954   6.579   9.758  1.00  0.00     0.241 C 
HETATM    2  O1  UNL     1      -5.275   5.535   9.655  1.00  0.00    -0.271 OA
HETATM    3  N2  UNL     1      -6.066   7.198  11.026  1.00  0.00    -0.267 N 
ATOM      4  H2  UNL     1      -6.618   8.051  11.121  1.00  0.00     0.190 HD
ENDROOT
BRANCH   3   5
HETATM    5  N3  UNL     1      -5.430   6.657  12.160  1.00  0.00    -0.268 N 
HETATM    6  C7  UNL     1      -6.253   6.106  13.174  1.00  0.00     0.236 C 
HETATM    7  O2  UNL     1      -7.496   6.083  13.105  1.00  0.00    -0.272 OA
ATOM      8  H3  UNL     1      -4.414   6.662  12.249  1.00  0.00     0.190 HD
BRANCH   6   9
HETATM    9  C8  UNL     1      -5.586   5.531  14.376  1.00  0.00     0.104 C 
BRANCH   9  10
HETATM   10  C9  UNL     1      -4.126   5.879  14.342  1.00  0.00     0.009 C 
BRANCH  10  11
HETATM   11  C10 UNL     1      -3.304   4.642  14.553  1.00  0.00     0.002 C 
BRANCH  11  12
HETATM   12  C11 UNL     1      -4.116   3.409  14.330  1.00  0.00     0.030 C 
BRANCH  12  13
HETATM   13  C12 UNL     1      -4.217   2.563  15.584  1.00  0.00     0.272 C 
BRANCH  13  14
HETATM   14  N4  UNL     1      -5.354   1.698  15.479  1.00  0.00     0.088 N 
HETATM   15  C13 UNL     1      -5.150   0.545  16.346  1.00  0.00     0.272 C 
HETATM   16  C14 UNL     1      -6.175   0.497  17.422  1.00  0.00     0.030 C 
HETATM   17  C15 UNL     1      -6.343   1.828  18.076  1.00  0.00     0.003 C 
HETATM   18  C16 UNL     1      -6.729   2.891  17.104  1.00  0.00     0.030 C 
HETATM   19  C17 UNL     1      -6.621   2.322  15.704  1.00  0.00     0.272 C 
ENDBRANCH  13  14
ENDBRANCH  12  13
ENDBRANCH  11  12
ENDBRANCH  10  11
ENDBRANCH   9  10
ENDBRANCH   6   9
ENDBRANCH   3   5
BRANCH   1  20
HETATM   20  C5  UNL     1      -6.619   7.155   8.604  1.00  0.00     0.105 C 
HETATM   21  C4  UNL     1      -7.105   8.577   8.932  1.00  0.00     0.024 C 
HETATM   22  C3  UNL     1      -7.964   8.973   7.788  1.00  0.00     0.047 C 
HETATM   23  C2  UNL     1      -8.444  10.384   7.773  1.00  0.00     0.278 C 
HETATM   24  C19 UNL     1      -7.039   9.007   6.558  1.00  0.00     0.219 C 
HETATM   25  N1  UNL     1      -8.872  10.519   6.371  1.00  0.00     0.086 N 
HETATM   26  C1  UNL     1     -10.209   9.932   6.302  1.00  0.00     0.310 C 
HETATM   27  C20 UNL     1      -7.920   9.710   5.592  1.00  0.00     0.305 C 
HETATM   28  N5  UNL     1      -6.718   7.653   6.263  1.00  0.00    -0.068 N 
HETATM   29  C18 UNL     1      -5.830   7.188   7.342  1.00  0.00     0.246 C 
ATOM     30  H52 UNL     1      -6.322   7.526   5.332  1.00  0.00     0.277 HD
ATOM     31  H51 UNL     1      -7.540   7.063   6.135  1.00  0.00     0.277 HD
ENDBRANCH   1  20
TORSDOF 8
ENDMDL
MODEL 4
REMARK VINA RESULT: -7.183330495      0.697      1.230
REMARK  8 active torsions:
REMARK  status: ('A' for Active; 'I' for Inactive)
REMARK    1  A    between atoms: C5_6  and  C6_7 
REMARK       I    between atoms: C6_7  and  N2_9 
REMARK    2  A    between atoms: N2_9  and  N3_11 
REMARK       I    between atoms: N3_11  and  C7_13 
REMARK    3  A    between atoms: C7_13  and  C8_15 
REMARK    4  A    between atoms: C8_15  and  C9_16 
REMARK    5  A    between atoms: C9_16  and  C10_17 
REMARK    6  A    between atoms: C10_17  and  C11_18 
REMARK    7  A    between atoms: C11_18  and  C12_19 
REMARK    8  A    between atoms: C12_19  and  N4_20 
ROOT
HETATM    1  C6  UNL     1      -5.831   5.546  13.462  1.00  0.00     0.241 C 
HETATM    2  O1  UNL     1      -7.038   5.857  13.365  1.00  0.00    -0.271 OA
HETATM    3  N2  UNL     1      -4.898   6.153  12.587  1.00  0.00    -0.267 N 
ATOM      4  H2  UNL     1      -3.911   5.906  12.658  1.00  0.00     0.190 HD
ENDROOT
BRANCH   3   5
HETATM    5  N3  UNL     1      -5.308   7.090  11.619  1.00  0.00    -0.268 N 
HETATM    6  C7  UNL     1      -5.706   6.593  10.353  1.00  0.00     0.236 C 
HETATM    7  O2  UNL     1      -5.706   5.382  10.064  1.00  0.00    -0.272 OA
ATOM      8  H3  UNL     1      -5.318   8.090  11.822  1.00  0.00     0.190 HD
BRANCH   6   9
HETATM    9  C8  UNL     1      -6.143   7.580   9.325  1.00  0.00     0.104 C 
BRANCH   9  10
HETATM   10  C9  UNL     1      -7.629   7.771   9.428  1.00  0.00     0.009 C 
BRANCH  10  11
HETATM   11  C10 UNL     1      -8.273   7.458   8.109  1.00  0.00     0.002 C 
BRANCH  11  12
HETATM   12  C11 UNL     1      -8.043   8.553   7.121  1.00  0.00     0.030 C 
BRANCH  12  13
HETATM   13  C12 UNL     1      -8.417   9.910   7.683  1.00  0.00     0.272 C 
BRANCH  13  14
HETATM   14  N4  UNL     1      -8.537  10.849   6.607  1.00  0.00     0.088 N 
HETATM   15  C13 UNL     1      -8.730  10.115   5.362  1.00  0.00     0.272 C 
HETATM   16  C14 UNL     1     -10.055  10.423   4.760  1.00  0.00     0.030 C 
HETATM   17  C15 UNL     1     -11.146  10.352   5.777  1.00  0.00     0.003 C 
HETATM   18  C16 UNL     1     -10.918  11.286   6.917  1.00  0.00     0.030 C 
HETATM   19  C17 UNL     1      -9.524  11.866   6.788  1.00  0.00     0.272 C 
ENDBRANCH  13  14
ENDBRANCH  12  13
ENDBRANCH  11  12
ENDBRANCH  10  11
ENDBRANCH   9  10
ENDBRANCH   6   9
ENDBRANCH   3   5
BRANCH   1  20
HETATM   20  C5  UNL     1      -5.385   4.583  14.451  1.00  0.00     0.105 C 
HETATM   21  C4  UNL     1      -6.517   3.592  14.769  1.00  0.00     0.024 C 
HETATM   22  C3  UNL     1      -6.044   2.817  15.944  1.00  0.00     0.047 C 
HETATM   23  C2  UNL     1      -6.891   1.667  16.367  1.00  0.00     0.278 C 
HETATM   24  C19 UNL     1      -4.796   2.051  15.468  1.00  0.00     0.219 C 
HETATM   25  N1  UNL     1      -5.949   0.927  17.224  1.00  0.00     0.086 N 
HETATM   26  C1  UNL     1      -5.984   1.593  18.525  1.00  0.00     0.310 C 
HETATM   27  C20 UNL     1      -4.629   1.103  16.597  1.00  0.00     0.305 C 
HETATM   28  N5  UNL     1      -3.773   3.024  15.294  1.00  0.00    -0.068 N 
HETATM   29  C18 UNL     1      -4.150   3.822  14.114  1.00  0.00     0.246 C 
ATOM     30  H52 UNL     1      -2.839   2.620  15.225  1.00  0.00     0.277 HD
ATOM     31  H51 UNL     1      -3.608   3.589  16.126  1.00  0.00     0.277 HD
ENDBRANCH   1  20
TORSDOF 8
ENDMDL
MODEL 5
REMARK VINA RESULT: -7.108297741      1.333     10.513
REMARK  8 active torsions:
REMARK  status: ('A' for Active; 'I' for Inactive)
REMARK    1  A    between atoms: C5_6  and  C6_7 
REMARK       I    between atoms: C6_7  and  N2_9 
REMARK    2  A    between atoms: N2_9  and  N3_11 
REMARK       I    between atoms: N3_11  and  C7_13 
REMARK    3  A    between atoms: C7_13  and  C8_15 
REMARK    4  A    between atoms: C8_15  and  C9_16 
REMARK    5  A    between atoms: C9_16  and  C10_17 
REMARK    6  A    between atoms: C10_17  and  C11_18 
REMARK    7  A    between atoms: C11_18  and  C12_19 
REMARK    8  A    between atoms: C12_19  and  N4_20 
ROOT
HETATM    1  C6  UNL     1      -6.841   7.341   9.486  1.00  0.00     0.241 C 
HETATM    2  O1  UNL     1      -6.480   6.286   8.921  1.00  0.00    -0.271 OA
HETATM    3  N2  UNL     1      -6.190   7.732  10.681  1.00  0.00    -0.267 N 
ATOM      4  H2  UNL     1      -6.477   8.592  11.149  1.00  0.00     0.190 HD
ENDROOT
BRANCH   3   5
HETATM    5  N3  UNL     1      -5.153   6.956  11.234  1.00  0.00    -0.268 N 
HETATM    6  C7  UNL     1      -5.484   6.088  12.304  1.00  0.00     0.236 C 
HETATM    7  O2  UNL     1      -6.634   5.987  12.770  1.00  0.00    -0.272 OA
ATOM      8  H3  UNL     1      -4.199   7.017  10.878  1.00  0.00     0.190 HD
BRANCH   6   9
HETATM    9  C8  UNL     1      -4.392   5.263  12.894  1.00  0.00     0.104 C 
BRANCH   9  10
HETATM   10  C9  UNL     1      -3.986   4.207  11.906  1.00  0.00     0.009 C 
BRANCH  10  11
HETATM   11  C10 UNL     1      -3.726   2.915  12.623  1.00  0.00     0.002 C 
BRANCH  11  12
HETATM   12  C11 UNL     1      -4.998   2.300  13.106  1.00  0.00     0.030 C 
BRANCH  12  13
HETATM   13  C12 UNL     1      -4.780   1.447  14.340  1.00  0.00     0.272 C 
BRANCH  13  14
HETATM   14  N4  UNL     1      -4.790   2.286  15.502  1.00  0.00     0.088 N 
HETATM   15  C13 UNL     1      -5.961   3.153  15.445  1.00  0.00     0.272 C 
HETATM   16  C14 UNL     1      -6.884   2.877  16.578  1.00  0.00     0.030 C 
HETATM   17  C15 UNL     1      -7.120   1.413  16.748  1.00  0.00     0.003 C 
HETATM   18  C16 UNL     1      -5.853   0.660  16.979  1.00  0.00     0.030 C 
HETATM   19  C17 UNL     1      -4.688   1.603  16.753  1.00  0.00     0.272 C 
ENDBRANCH  13  14
ENDBRANCH  12  13
ENDBRANCH  11  12
ENDBRANCH  10  11
ENDBRANCH   9  10
ENDBRANCH   6   9
ENDBRANCH   3   5
BRANCH   1  20
HETATM   20  C5  UNL     1      -7.906   8.157   8.935  1.00  0.00     0.105 C 
HETATM   21  C4  UNL     1      -7.315   9.251   8.029  1.00  0.00     0.024 C 
HETATM   22  C3  UNL     1      -8.448  10.159   7.718  1.00  0.00     0.047 C 
HETATM   23  C2  UNL     1      -8.187  11.230   6.716  1.00  0.00     0.278 C 
HETATM   24  C19 UNL     1      -9.461   9.312   6.923  1.00  0.00     0.219 C 
HETATM   25  N1  UNL     1      -9.562  11.626   6.365  1.00  0.00     0.086 N 
HETATM   26  C1  UNL     1      -9.995  12.542   7.418  1.00  0.00     0.310 C 
HETATM   27  C20 UNL     1     -10.350  10.384   6.413  1.00  0.00     0.305 C 
HETATM   28  N5  UNL     1     -10.029   8.396   7.852  1.00  0.00    -0.068 N 
HETATM   29  C18 UNL     1      -8.971   7.430   8.190  1.00  0.00     0.246 C 
ATOM     30  H52 UNL     1     -10.884   7.956   7.512  1.00  0.00     0.277 HD
ATOM     31  H51 UNL     1     -10.436   8.851   8.669  1.00  0.00     0.277 HD
ENDBRANCH   1  20
TORSDOF 8
ENDMDL
