MODEL 1
REMARK VINA RESULT: -6.606229932      0.000      0.000
REMARK  8 active torsions:
REMARK  status: ('A' for Active; 'I' for Inactive)
REMARK    1  A    between atoms: C2_2  and  N1_3 
REMARK       I    between atoms: N1_3  and  C3_5 
REMARK       I    between atoms: C3_5  and  N2_7 
REMARK    2  A    between atoms: N3_10  and  C6_11 
REMARK    3  A    between atoms: C6_11  and  C7_12 
REMARK    4  A    between atoms: C9_14  and  N4_15 
REMARK    5  A    between atoms: N4_15  and  C10_18 
REMARK    6  A    between atoms: C10_18  and  C11_19 
REMARK    7  A    between atoms: C11_19  and  N5_20 
REMARK    8  A    between atoms: C11_19  and  C14_25 
REMARK       I    between atoms: N5_20  and  C12_22 
ROOT
HETATM    1  C7  UNL     1      -4.041   6.456   8.813  1.00  0.00     0.166 C 
HETATM    2  C8  UNL     1      -3.515   6.410  10.256  1.00  0.00     0.098 C 
HETATM    3  C9  UNL     1      -3.565   4.911  10.143  1.00  0.00     0.324 C 
HETATM    4  O3  UNL     1      -4.376   5.116   9.000  1.00  0.00    -0.348 OA
ENDROOT
BRANCH   3   5
HETATM    5  N4  UNL     1      -4.364   4.237  11.137  1.00  0.00    -0.047 N 
ATOM      6  H42 UNL     1      -5.097   4.853  11.489  1.00  0.00     0.280 HD
ATOM      7  H41 UNL     1      -4.942   3.516  10.706  1.00  0.00     0.280 HD
BRANCH   5   8
HETATM    8  C10 UNL     1      -3.592   3.688  12.229  1.00  0.00     0.261 C 
BRANCH   8   9
HETATM    9  C11 UNL     1      -4.558   2.981  13.153  1.00  0.00     0.117 C 
BRANCH   9  10
HETATM   10  N5  UNL     1      -4.200   1.575  13.135  1.00  0.00    -0.354 N 
HETATM   11  C12 UNL     1      -4.629   0.657  12.166  1.00  0.00     0.213 C 
HETATM   12  C13 UNL     1      -4.203  -0.748  12.248  1.00  0.00     0.117 C 
HETATM   13  O2  UNL     1      -5.375   1.025  11.226  1.00  0.00    -0.274 OA
ATOM     14  H5  UNL     1      -3.594   1.230  13.879  1.00  0.00     0.162 HD
ENDBRANCH   9  10
BRANCH   9  15
HETATM   15  C14 UNL     1      -4.463   3.468  14.571  1.00  0.00    -0.029 C 
HETATM   16  C15 UNL     1      -3.279   4.361  14.807  1.00  0.00     0.016 C 
HETATM   17  C16 UNL     1      -4.418   2.333  15.568  1.00  0.00     0.016 C 
HETATM   18  C17 UNL     1      -5.705   4.290  14.882  1.00  0.00     0.016 C 
ENDBRANCH   9  15
ENDBRANCH   8   9
ENDBRANCH   5   8
ENDBRANCH   3   5
BRANCH   1  19
HETATM   19  C6  UNL     1      -5.202   7.398   8.760  1.00  0.00     0.090 C 
BRANCH  19  20
HETATM   20  N3  UNL     1      -6.261   7.018   7.920  1.00  0.00    -0.388 N 
HETATM   21  C5  UNL     1      -6.303   7.579   6.634  1.00  0.00     0.142 C 
HETATM   22  C4  UNL     1      -6.934   8.977   6.746  1.00  0.00     0.147 C 
HETATM   23  N2  UNL     1      -8.221   8.795   7.360  1.00  0.00    -0.331 N 
HETATM   24  C3  UNL     1      -9.382   9.296   6.768  1.00  0.00     0.318 C 
HETATM   25  C19 UNL     1      -8.245   8.065   8.634  1.00  0.00     0.147 C 
HETATM   26  N1  UNL     1      -9.376  10.006   5.554  1.00  0.00    -0.343 N 
HETATM   27  O1  UNL     1     -10.480   9.102   7.349  1.00  0.00    -0.247 OA
ATOM     28  H1  UNL     1      -8.500  10.179   5.061  1.00  0.00     0.164 HD
HETATM   29  C18 UNL     1      -7.523   6.720   8.460  1.00  0.00     0.142 C 
BRANCH  26  30
HETATM   30  C2  UNL     1     -10.646  10.494   5.006  1.00  0.00     0.120 C 
HETATM   31  C1  UNL     1     -10.711  11.975   5.220  1.00  0.00     0.026 C 
ENDBRANCH  26  30
ENDBRANCH  19  20
ENDBRANCH   1  19
TORSDOF 8
ENDMDL
MODEL 2
REMARK VINA RESULT: -6.605401371      1.146      1.489
REMARK  8 active torsions:
REMARK  status: ('A' for Active; 'I' for Inactive)
REMARK    1  A    between atoms: C2_2  and  N1_3 
REMARK       I    between atoms: N1_3  and  C3_5 
REMARK       I    between atoms: C3_5  and  N2_7 
REMARK    2  A    between atoms: N3_10  and  C6_11 
REMARK    3  A    between atoms: C6_11  and  C7_12 
REMARK    4  A    between atoms: C9_14  and  N4_15 
REMARK    5  A    between atoms: N4_15  and  C10_18 
REMARK    6  A    between atoms: C10_18  and  C11_19 
REMARK    7  A    between atoms: C11_19  and  N5_20 
REMARK    8  A    between atoms: C11_19  and  C14_25 
REMARK       I    between atoms: N5_20  and  C12_22 
ROOT
HETATM    1  C7  UNL     1      -5.341   6.961  10.461  1.00  0.00     0.166 C 
HETATM    2  C8  UNL     1      -5.280   6.195  11.792  1.00  0.00     0.098 C 
HETATM    3  C9  UNL     1      -4.015   5.564  11.281  1.00  0.00     0.324 C 
HETATM    4  O3  UNL     1      -4.404   6.037  10.003  1.00  0.00    -0.348 OA
ENDROOT
BRANCH   3   5
HETATM    5  N4  UNL     1      -4.011   4.122  11.236  1.00  0.00    -0.047 N 
ATOM      6  H42 UNL     1      -4.955   3.763  11.094  1.00  0.00     0.280 HD
ATOM      7  H41 UNL     1      -3.572   3.790  10.378  1.00  0.00     0.280 HD
BRANCH   5   8
HETATM    8  C10 UNL     1      -3.400   3.507  12.393  1.00  0.00     0.261 C 
BRANCH   8   9
HETATM    9  C11 UNL     1      -4.499   2.813  13.167  1.00  0.00     0.117 C 
BRANCH   9  10
HETATM   10  N5  UNL     1      -4.180   1.397  13.168  1.00  0.00    -0.354 N 
HETATM   11  C12 UNL     1      -4.508   0.506  12.136  1.00  0.00     0.213 C 
HETATM   12  C13 UNL     1      -4.133  -0.911  12.245  1.00  0.00     0.117 C 
HETATM   13  O2  UNL     1      -5.121   0.910  11.117  1.00  0.00    -0.274 OA
ATOM     14  H5  UNL     1      -3.681   1.024  13.975  1.00  0.00     0.162 HD
ENDBRANCH   9  10
BRANCH   9  15
HETATM   15  C14 UNL     1      -4.581   3.273  14.594  1.00  0.00    -0.029 C 
HETATM   16  C15 UNL     1      -4.493   2.145  15.581  1.00  0.00     0.016 C 
HETATM   17  C16 UNL     1      -5.838   4.063  14.874  1.00  0.00     0.016 C 
HETATM   18  C17 UNL     1      -3.401   4.195  14.872  1.00  0.00     0.016 C 
ENDBRANCH   9  15
ENDBRANCH   8   9
ENDBRANCH   5   8
ENDBRANCH   3   5
BRANCH   1  19
HETATM   19  C6  UNL     1      -6.714   6.808   9.887  1.00  0.00     0.090 C 
BRANCH  19  20
HETATM   20  N3  UNL     1      -6.856   7.164   8.536  1.00  0.00    -0.388 N 
HETATM   21  C5  UNL     1      -6.328   8.399   8.132  1.00  0.00     0.142 C 
HETATM   22  C4  UNL     1      -7.345   9.494   8.495  1.00  0.00     0.147 C 
HETATM   23  N2  UNL     1      -8.579   9.133   7.853  1.00  0.00    -0.331 N 
HETATM   24  C3  UNL     1      -9.253  10.032   7.023  1.00  0.00     0.318 C 
HETATM   25  C19 UNL     1      -9.090   7.782   8.119  1.00  0.00     0.147 C 
HETATM   26  N1  UNL     1      -8.784  11.332   6.766  1.00  0.00    -0.343 N 
HETATM   27  O1  UNL     1     -10.326   9.658   6.484  1.00  0.00    -0.247 OA
ATOM     28  H1  UNL     1      -7.917  11.662   7.190  1.00  0.00     0.164 HD
HETATM   29  C18 UNL     1      -7.989   6.755   7.812  1.00  0.00     0.142 C 
BRANCH  26  30
HETATM   30  C2  UNL     1      -9.557  12.207   5.878  1.00  0.00     0.120 C 
HETATM   31  C1  UNL     1     -10.211  13.264   6.715  1.00  0.00     0.026 C 
ENDBRANCH  26  30
ENDBRANCH  19  20
ENDBRANCH   1  19
TORSDOF 8
ENDMDL
MODEL 3
REMARK VINA RESULT: -6.597386530      1.145      1.762
REMARK  8 active torsions:
REMARK  status: ('A' for Active; 'I' for Inactive)
REMARK    1  A    between atoms: C2_2  and  N1_3 
REMARK       I    between atoms: N1_3  and  C3_5 
REMARK       I    between atoms: C3_5  and  N2_7 
REMARK    2  A    between atoms: N3_10  and  C6_11 
REMARK    3  A    between atoms: C6_11  and  C7_12 
REMARK    4  A    between atoms: C9_14  and  N4_15 
REMARK    5  A    between atoms: N4_15  and  C10_18 
REMARK    6  A    between atoms: C10_18  and  C11_19 
REMARK    7  A    between atoms: C11_19  and  N5_20 
REMARK    8  A    between atoms: C11_19  and  C14_25 
REMARK       I    between atoms: N5_20  and  C12_22 
ROOT
HETATM    1  C7  UNL     1      -3.457   5.259   8.232  1.00  0.00     0.166 C 
HETATM    2  C8  UNL     1      -3.319   5.835   9.650  1.00  0.00     0.098 C 
HETATM    3  C9  UNL     1      -3.181   4.416  10.129  1.00  0.00     0.324 C 
HETATM    4  O3  UNL     1      -3.687   4.036   8.862  1.00  0.00    -0.348 OA
ENDROOT
BRANCH   3   5
HETATM    5  N4  UNL     1      -4.134   4.000  11.129  1.00  0.00    -0.047 N 
ATOM      6  H42 UNL     1      -4.836   4.724  11.281  1.00  0.00     0.280 HD
ATOM      7  H41 UNL     1      -4.732   3.257  10.768  1.00  0.00     0.280 HD
BRANCH   5   8
HETATM    8  C10 UNL     1      -3.528   3.606  12.381  1.00  0.00     0.261 C 
BRANCH   8   9
HETATM    9  C11 UNL     1      -4.580   2.868  13.178  1.00  0.00     0.117 C 
BRANCH   9  10
HETATM   10  N5  UNL     1      -4.208   1.465  13.162  1.00  0.00    -0.354 N 
HETATM   11  C12 UNL     1      -4.568   0.557  12.155  1.00  0.00     0.213 C 
HETATM   12  C13 UNL     1      -4.133  -0.844  12.244  1.00  0.00     0.117 C 
HETATM   13  O2  UNL     1      -5.258   0.933  11.176  1.00  0.00    -0.274 OA
ATOM     14  H5  UNL     1      -3.646   1.115  13.937  1.00  0.00     0.162 HD
ENDBRANCH   9  10
BRANCH   9  15
HETATM   15  C14 UNL     1      -4.642   3.317  14.610  1.00  0.00    -0.029 C 
HETATM   16  C15 UNL     1      -4.508   2.185  15.587  1.00  0.00     0.016 C 
HETATM   17  C16 UNL     1      -5.912   4.076  14.921  1.00  0.00     0.016 C 
HETATM   18  C17 UNL     1      -3.479   4.264  14.868  1.00  0.00     0.016 C 
ENDBRANCH   9  15
ENDBRANCH   8   9
ENDBRANCH   5   8
ENDBRANCH   3   5
BRANCH   1  19
HETATM   19  C6  UNL     1      -4.657   5.873   7.585  1.00  0.00     0.090 C 
BRANCH  19  20
HETATM   20  N3  UNL     1      -5.158   7.033   8.198  1.00  0.00    -0.388 N 
HETATM   21  C5  UNL     1      -6.423   6.955   8.799  1.00  0.00     0.142 C 
HETATM   22  C4  UNL     1      -7.484   7.118   7.697  1.00  0.00     0.147 C 
HETATM   23  N2  UNL     1      -7.207   8.370   7.047  1.00  0.00    -0.331 N 
HETATM   24  C3  UNL     1      -8.197   9.344   6.902  1.00  0.00     0.318 C 
HETATM   25  C19 UNL     1      -5.841   8.563   6.544  1.00  0.00     0.147 C 
HETATM   26  N1  UNL     1      -9.512   9.172   7.369  1.00  0.00    -0.343 N 
HETATM   27  O1  UNL     1      -7.894  10.422   6.329  1.00  0.00    -0.247 OA
ATOM     28  H1  UNL     1      -9.786   8.308   7.836  1.00  0.00     0.164 HD
HETATM   29  C18 UNL     1      -4.841   8.300   7.681  1.00  0.00     0.142 C 
BRANCH  26  30
HETATM   30  C2  UNL     1     -10.486  10.252   7.174  1.00  0.00     0.120 C 
HETATM   31  C1  UNL     1     -11.175  10.031   5.863  1.00  0.00     0.026 C 
ENDBRANCH  26  30
ENDBRANCH  19  20
ENDBRANCH   1  19
TORSDOF 8
ENDMDL
MODEL 4
REMARK VINA RESULT: -6.478956268      1.194      1.474
REMARK  8 active torsions:
REMARK  status: ('A' for Active; 'I' for Inactive)
REMARK    1  A    between atoms: C2_2  and  N1_3 
REMARK       I    between atoms: N1_3  and  C3_5 
REMARK       I    between atoms: C3_5  and  N2_7 
REMARK    2  A    between atoms: N3_10  and  C6_11 
REMARK    3  A    between atoms: C6_11  and  C7_12 
REMARK    4  A    between atoms: C9_14  and  N4_15 
REMARK    5  A    between atoms: N4_15  and  C10_18 
REMARK    6  A    between atoms: C10_18  and  C11_19 
REMARK    7  A    between atoms: C11_19  and  N5_20 
REMARK    8  A    between atoms: C11_19  and  C14_25 
REMARK       I    between atoms: N5_20  and  C12_22 
ROOT
HETATM    1  C7  UNL     1      -4.615   7.084  10.041  1.00  0.00     0.166 C 
HETATM    2  C8  UNL     1      -5.093   6.387  11.325  1.00  0.00     0.098 C 
HETATM    3  C9  UNL     1      -3.847   5.550  11.241  1.00  0.00     0.324 C 
HETATM    4  O3  UNL     1      -3.738   6.009   9.905  1.00  0.00    -0.348 OA
ENDROOT
BRANCH   3   5
HETATM    5  N4  UNL     1      -4.055   4.123  11.203  1.00  0.00    -0.047 N 
ATOM      6  H42 UNL     1      -5.051   3.905  11.166  1.00  0.00     0.280 HD
ATOM      7  H41 UNL     1      -3.764   3.741  10.304  1.00  0.00     0.280 HD
BRANCH   5   8
HETATM    8  C10 UNL     1      -3.418   3.413  12.290  1.00  0.00     0.261 C 
BRANCH   8   9
HETATM    9  C11 UNL     1      -4.509   2.721  13.076  1.00  0.00     0.117 C 
BRANCH   9  10
HETATM   10  N5  UNL     1      -4.177   1.308  13.094  1.00  0.00    -0.354 N 
HETATM   11  C12 UNL     1      -4.544   0.391  12.098  1.00  0.00     0.213 C 
HETATM   12  C13 UNL     1      -4.152  -1.020  12.222  1.00  0.00     0.117 C 
HETATM   13  O2  UNL     1      -5.204   0.767  11.099  1.00  0.00    -0.274 OA
ATOM     14  H5  UNL     1      -3.641   0.957  13.887  1.00  0.00     0.162 HD
ENDBRANCH   9  10
BRANCH   9  15
HETATM   15  C14 UNL     1      -4.590   3.199  14.497  1.00  0.00    -0.029 C 
HETATM   16  C15 UNL     1      -3.497   4.165  14.855  1.00  0.00     0.016 C 
HETATM   17  C16 UNL     1      -4.572   2.060  15.490  1.00  0.00     0.016 C 
HETATM   18  C17 UNL     1      -5.909   3.935  14.684  1.00  0.00     0.016 C 
ENDBRANCH   9  15
ENDBRANCH   8   9
ENDBRANCH   5   8
ENDBRANCH   3   5
BRANCH   1  19
HETATM   19  C6  UNL     1      -5.746   7.107   9.063  1.00  0.00     0.090 C 
BRANCH  19  20
HETATM   20  N3  UNL     1      -6.829   7.935   9.398  1.00  0.00    -0.388 N 
HETATM   21  C5  UNL     1      -8.100   7.563   8.931  1.00  0.00     0.142 C 
HETATM   22  C4  UNL     1      -8.228   8.038   7.474  1.00  0.00     0.147 C 
HETATM   23  N2  UNL     1      -7.985   9.455   7.484  1.00  0.00    -0.331 N 
HETATM   24  C3  UNL     1      -8.897  10.348   6.916  1.00  0.00     0.318 C 
HETATM   25  C19 UNL     1      -6.738   9.906   8.113  1.00  0.00     0.147 C 
HETATM   26  N1  UNL     1     -10.091   9.934   6.301  1.00  0.00    -0.343 N 
HETATM   27  O1  UNL     1      -8.634  11.578   6.960  1.00  0.00    -0.247 OA
ATOM     28  H1  UNL     1     -10.330   8.943   6.251  1.00  0.00     0.164 HD
HETATM   29  C18 UNL     1      -6.646   9.321   9.531  1.00  0.00     0.142 C 
BRANCH  26  30
HETATM   30  C2  UNL     1     -10.991  10.944   5.734  1.00  0.00     0.120 C 
HETATM   31  C1  UNL     1     -11.842  10.282   4.693  1.00  0.00     0.026 C 
ENDBRANCH  26  30
ENDBRANCH  19  20
ENDBRANCH   1  19
TORSDOF 8
ENDMDL
MODEL 5
REMARK VINA RESULT: -6.471789469      2.553      8.889
REMARK  8 active torsions:
REMARK  status: ('A' for Active; 'I' for Inactive)
REMARK    1  A    between atoms: C2_2  and  N1_3 
REMARK       I    between atoms: N1_3  and  C3_5 
REMARK       I    between atoms: C3_5  and  N2_7 
REMARK    2  A    between atoms: N3_10  and  C6_11 
REMARK    3  A    between atoms: C6_11  and  C7_12 
REMARK    4  A    between atoms: C9_14  and  N4_15 
REMARK    5  A    between atoms: N4_15  and  C10_18 
REMARK    6  A    between atoms: C10_18  and  C11_19 
REMARK    7  A    between atoms: C11_19  and  N5_20 
REMARK    8  A    between atoms: C11_19  and  C14_25 
REMARK       I    between atoms: N5_20  and  C12_22 
ROOT
HETATM    1  C7  UNL     1      -2.796   7.492  11.732  1.00  0.00     0.166 C 
HETATM    2  C8  UNL     1      -2.243   7.596  10.302  1.00  0.00     0.098 C 
HETATM    3  C9  UNL     1      -3.481   8.380   9.964  1.00  0.00     0.324 C 
HETATM    4  O3  UNL     1      -4.014   7.888  11.181  1.00  0.00    -0.348 OA
ENDROOT
BRANCH   3   5
HETATM    5  N4  UNL     1      -4.280   7.850   8.886  1.00  0.00    -0.047 N 
ATOM      6  H42 UNL     1      -3.689   7.405   8.184  1.00  0.00     0.280 HD
ATOM      7  H41 UNL     1      -4.813   7.039   9.199  1.00  0.00     0.280 HD
BRANCH   5   8
HETATM    8  C10 UNL     1      -5.151   8.828   8.274  1.00  0.00     0.261 C 
BRANCH   8   9
HETATM    9  C11 UNL     1      -6.552   8.260   8.297  1.00  0.00     0.117 C 
BRANCH   9  10
HETATM   10  N5  UNL     1      -6.972   8.240   9.686  1.00  0.00    -0.354 N 
HETATM   11  C12 UNL     1      -7.025   7.089  10.485  1.00  0.00     0.213 C 
HETATM   12  C13 UNL     1      -7.467   7.188  11.884  1.00  0.00     0.117 C 
HETATM   13  O2  UNL     1      -6.697   5.972  10.016  1.00  0.00    -0.274 OA
ATOM     14  H5  UNL     1      -7.247   9.125  10.111  1.00  0.00     0.162 HD
ENDBRANCH   9  10
BRANCH   9  15
HETATM   15  C14 UNL     1      -7.530   9.102   7.527  1.00  0.00    -0.029 C 
HETATM   16  C15 UNL     1      -8.951   8.641   7.682  1.00  0.00     0.016 C 
HETATM   17  C16 UNL     1      -7.201   9.165   6.054  1.00  0.00     0.016 C 
HETATM   18  C17 UNL     1      -7.467  10.525   8.063  1.00  0.00     0.016 C 
ENDBRANCH   9  15
ENDBRANCH   8   9
ENDBRANCH   5   8
ENDBRANCH   3   5
BRANCH   1  19
HETATM   19  C6  UNL     1      -2.732   6.061  12.164  1.00  0.00     0.090 C 
BRANCH  19  20
HETATM   20  N3  UNL     1      -3.968   5.416  12.328  1.00  0.00    -0.388 N 
HETATM   21  C5  UNL     1      -4.577   5.491  13.590  1.00  0.00     0.142 C 
HETATM   22  C4  UNL     1      -3.935   4.423  14.492  1.00  0.00     0.147 C 
HETATM   23  N2  UNL     1      -4.106   3.164  13.819  1.00  0.00    -0.331 N 
HETATM   24  C3  UNL     1      -4.695   2.074  14.464  1.00  0.00     0.318 C 
HETATM   25  C19 UNL     1      -3.629   3.088  12.433  1.00  0.00     0.147 C 
HETATM   26  N1  UNL     1      -5.148   2.127  15.794  1.00  0.00    -0.343 N 
HETATM   27  O1  UNL     1      -4.823   1.000  13.823  1.00  0.00    -0.247 OA
ATOM     28  H1  UNL     1      -5.056   2.985  16.338  1.00  0.00     0.164 HD
HETATM   29  C18 UNL     1      -4.249   4.235  11.620  1.00  0.00     0.142 C 
BRANCH  26  30
HETATM   30  C2  UNL     1      -5.755   0.932  16.390  1.00  0.00     0.120 C 
HETATM   31  C1  UNL     1      -7.120   1.299  16.887  1.00  0.00     0.026 C 
ENDBRANCH  26  30
ENDBRANCH  19  20
ENDBRANCH   1  19
TORSDOF 8
ENDMDL
