MODEL 1
REMARK VINA RESULT: -7.715684169      0.000      0.000
REMARK  7 active torsions:
REMARK  status: ('A' for Active; 'I' for Inactive)
REMARK    1  A    between atoms: C5_5  and  N1_6 
REMARK       I    between atoms: N1_6  and  C6_8 
REMARK    2  A    between atoms: C6_8  and  C7_10 
REMARK    3  A    between atoms: C10_13  and  C11_14 
REMARK    4  A    between atoms: C11_14  and  N2_15 
REMARK       I    between atoms: N2_15  and  C12_17 
REMARK    5  A    between atoms: C12_17  and  C13_19 
REMARK       I    between atoms: C13_19  and  N3_21 
REMARK    6  A    between atoms: N3_21  and  C14_23 
REMARK    7  A    between atoms: C14_23  and  C16_26 
ROOT
HETATM    1  C14 UNL     1      -5.128   1.753  14.691  1.00  0.00     0.196 C 
HETATM    2  C15 UNL     1      -4.716   0.363  14.900  1.00  0.00     0.085 C 
HETATM    3  N4  UNL     1      -4.378  -0.729  15.070  1.00  0.00    -0.195 NA
ENDROOT
BRANCH   1   4
HETATM    4  N3  UNL     1      -4.139   2.495  13.936  1.00  0.00    -0.336 N 
HETATM    5  C13 UNL     1      -4.247   2.728  12.553  1.00  0.00     0.310 C 
HETATM    6  O3  UNL     1      -5.251   2.265  11.946  1.00  0.00    -0.262 OA
ATOM      7  H3  UNL     1      -3.327   2.866  14.430  1.00  0.00     0.164 HD
BRANCH   5   8
HETATM    8  C12 UNL     1      -3.220   3.480  11.860  1.00  0.00     0.309 C 
HETATM    9  N2  UNL     1      -1.991   3.739  12.513  1.00  0.00    -0.350 N 
ATOM     10  H2  UNL     1      -1.860   3.389  13.462  1.00  0.00     0.162 HD
HETATM   11  O2  UNL     1      -3.449   3.882  10.693  1.00  0.00    -0.262 OA
BRANCH   9  12
HETATM   12  C11 UNL     1      -0.919   4.478  11.898  1.00  0.00     0.155 C 
BRANCH  12  13
HETATM   13  C10 UNL     1      -0.890   5.900  12.360  1.00  0.00     0.140 C 
HETATM   14  C9  UNL     1      -1.614   6.035  13.685  1.00  0.00     0.036 C 
HETATM   15  C8  UNL     1      -2.365   7.335  13.482  1.00  0.00     0.044 C 
HETATM   16  C7  UNL     1      -1.990   7.832  12.099  1.00  0.00     0.214 C 
HETATM   17  O4  UNL     1      -1.629   6.655  11.447  1.00  0.00    -0.370 OA
BRANCH  16  18
HETATM   18  C6  UNL     1      -3.134   8.424  11.391  1.00  0.00     0.247 C 
HETATM   19  N1  UNL     1      -4.323   7.703  11.202  1.00  0.00    -0.354 N 
ATOM     20  H1  UNL     1      -4.368   6.753  11.572  1.00  0.00     0.162 HD
HETATM   21  O1  UNL     1      -3.045   9.588  10.950  1.00  0.00    -0.271 OA
BRANCH  19  22
HETATM   22  C5  UNL     1      -5.478   8.214  10.523  1.00  0.00     0.088 C 
HETATM   23  C2  UNL     1      -6.800   7.622  10.920  1.00  0.00     0.004 C 
HETATM   24  C1  UNL     1      -6.825   6.794  12.151  1.00  0.00     0.012 C 
HETATM   25  C3  UNL     1      -6.854   6.797   9.674  1.00  0.00     0.008 C 
HETATM   26  C4  UNL     1      -5.650   7.558   9.163  1.00  0.00     0.026 C 
ENDBRANCH  19  22
ENDBRANCH  16  18
ENDBRANCH  12  13
ENDBRANCH   9  12
ENDBRANCH   5   8
ENDBRANCH   1   4
BRANCH   1  27
HETATM   27  C16 UNL     1      -5.276   2.434  16.045  1.00  0.00     0.022 C 
HETATM   28  C17 UNL     1      -5.566   1.446  17.138  1.00  0.00     0.007 C 
HETATM   29  C18 UNL     1      -6.924   1.770  17.663  1.00  0.00     0.000 C 
HETATM   30  C19 UNL     1      -7.061   3.257  17.355  1.00  0.00     0.000 C 
HETATM   31  C20 UNL     1      -6.491   3.329  15.953  1.00  0.00     0.007 C 
ENDBRANCH   1  27
TORSDOF 7
ENDMDL
MODEL 2
REMARK VINA RESULT: -7.651577031      1.896      2.636
REMARK  7 active torsions:
REMARK  status: ('A' for Active; 'I' for Inactive)
REMARK    1  A    between atoms: C5_5  and  N1_6 
REMARK       I    between atoms: N1_6  and  C6_8 
REMARK    2  A    between atoms: C6_8  and  C7_10 
REMARK    3  A    between atoms: C10_13  and  C11_14 
REMARK    4  A    between atoms: C11_14  and  N2_15 
REMARK       I    between atoms: N2_15  and  C12_17 
REMARK    5  A    between atoms: C12_17  and  C13_19 
REMARK       I    between atoms: C13_19  and  N3_21 
REMARK    6  A    between atoms: N3_21  and  C14_23 
REMARK    7  A    between atoms: C14_23  and  C16_26 
ROOT
HETATM    1  C14 UNL     1      -4.971   1.828  14.631  1.00  0.00     0.196 C 
HETATM    2  C15 UNL     1      -4.677   0.400  14.757  1.00  0.00     0.085 C 
HETATM    3  N4  UNL     1      -4.434  -0.726  14.864  1.00  0.00    -0.195 NA
ENDROOT
BRANCH   1   4
HETATM    4  N3  UNL     1      -3.851   2.556  14.068  1.00  0.00    -0.336 N 
HETATM    5  C13 UNL     1      -3.861   3.091  12.768  1.00  0.00     0.310 C 
HETATM    6  O3  UNL     1      -4.892   2.926  12.061  1.00  0.00    -0.262 OA
ATOM      7  H3  UNL     1      -3.017   2.686  14.642  1.00  0.00     0.164 HD
BRANCH   5   8
HETATM    8  C12 UNL     1      -2.705   3.809  12.268  1.00  0.00     0.309 C 
HETATM    9  N2  UNL     1      -2.863   5.137  11.803  1.00  0.00    -0.350 N 
ATOM     10  H2  UNL     1      -3.792   5.557  11.831  1.00  0.00     0.162 HD
HETATM   11  O2  UNL     1      -1.591   3.232  12.262  1.00  0.00    -0.262 OA
BRANCH   9  12
HETATM   12  C11 UNL     1      -1.770   5.921  11.291  1.00  0.00     0.155 C 
BRANCH  12  13
HETATM   13  C10 UNL     1      -2.251   7.147  10.581  1.00  0.00     0.140 C 
HETATM   14  C9  UNL     1      -3.209   7.920  11.465  1.00  0.00     0.036 C 
HETATM   15  C8  UNL     1      -4.265   8.340  10.463  1.00  0.00     0.044 C 
HETATM   16  C7  UNL     1      -3.812   7.804   9.117  1.00  0.00     0.214 C 
HETATM   17  O4  UNL     1      -3.005   6.729   9.482  1.00  0.00    -0.370 OA
BRANCH  16  18
HETATM   18  C6  UNL     1      -4.934   7.292   8.316  1.00  0.00     0.247 C 
HETATM   19  N1  UNL     1      -6.090   8.061   8.114  1.00  0.00    -0.354 N 
ATOM     20  H1  UNL     1      -6.129   8.987   8.540  1.00  0.00     0.162 HD
HETATM   21  O1  UNL     1      -4.855   6.155   7.810  1.00  0.00    -0.271 OA
BRANCH  19  22
HETATM   22  C5  UNL     1      -7.222   7.629   7.346  1.00  0.00     0.088 C 
HETATM   23  C2  UNL     1      -8.358   8.604   7.227  1.00  0.00     0.004 C 
HETATM   24  C1  UNL     1      -8.094  10.001   7.656  1.00  0.00     0.012 C 
HETATM   25  C3  UNL     1      -9.173   7.844   8.223  1.00  0.00     0.008 C 
HETATM   26  C4  UNL     1      -8.138   6.741   8.171  1.00  0.00     0.026 C 
ENDBRANCH  19  22
ENDBRANCH  16  18
ENDBRANCH  12  13
ENDBRANCH   9  12
ENDBRANCH   5   8
ENDBRANCH   1   4
BRANCH   1  27
HETATM   27  C16 UNL     1      -5.241   2.403  16.016  1.00  0.00     0.022 C 
HETATM   28  C17 UNL     1      -5.695   1.345  16.979  1.00  0.00     0.007 C 
HETATM   29  C18 UNL     1      -7.089   1.696  17.380  1.00  0.00     0.000 C 
HETATM   30  C19 UNL     1      -7.125   3.208  17.191  1.00  0.00     0.000 C 
HETATM   31  C20 UNL     1      -6.397   3.366  15.870  1.00  0.00     0.007 C 
ENDBRANCH   1  27
TORSDOF 7
ENDMDL
MODEL 3
REMARK VINA RESULT: -7.602702023      2.420      3.184
REMARK  7 active torsions:
REMARK  status: ('A' for Active; 'I' for Inactive)
REMARK    1  A    between atoms: C5_5  and  N1_6 
REMARK       I    between atoms: N1_6  and  C6_8 
REMARK    2  A    between atoms: C6_8  and  C7_10 
REMARK    3  A    between atoms: C10_13  and  C11_14 
REMARK    4  A    between atoms: C11_14  and  N2_15 
REMARK       I    between atoms: N2_15  and  C12_17 
REMARK    5  A    between atoms: C12_17  and  C13_19 
REMARK       I    between atoms: C13_19  and  N3_21 
REMARK    6  A    between atoms: N3_21  and  C14_23 
REMARK    7  A    between atoms: C14_23  and  C16_26 
ROOT
HETATM    1  C14 UNL     1      -5.031   1.756  14.659  1.00  0.00     0.196 C 
HETATM    2  C15 UNL     1      -4.729   0.359  14.974  1.00  0.00     0.085 C 
HETATM    3  N4  UNL     1      -4.478  -0.740  15.229  1.00  0.00    -0.195 NA
ENDROOT
BRANCH   1   4
HETATM    4  N3  UNL     1      -3.959   2.379  13.908  1.00  0.00    -0.336 N 
HETATM    5  C13 UNL     1      -4.092   2.771  12.564  1.00  0.00     0.310 C 
HETATM    6  O3  UNL     1      -5.196   2.569  11.989  1.00  0.00    -0.262 OA
ATOM      7  H3  UNL     1      -3.066   2.539  14.376  1.00  0.00     0.164 HD
BRANCH   5   8
HETATM    8  C12 UNL     1      -2.978   3.389  11.873  1.00  0.00     0.309 C 
HETATM    9  N2  UNL     1      -3.208   4.051  10.643  1.00  0.00    -0.350 N 
ATOM     10  H2  UNL     1      -4.158   4.076  10.272  1.00  0.00     0.162 HD
HETATM   11  O2  UNL     1      -1.835   3.321  12.386  1.00  0.00    -0.262 OA
BRANCH   9  12
HETATM   12  C11 UNL     1      -2.159   4.691   9.892  1.00  0.00     0.155 C 
BRANCH  12  13
HETATM   13  C10 UNL     1      -2.434   4.662   8.422  1.00  0.00     0.140 C 
HETATM   14  C9  UNL     1      -1.486   5.594   7.694  1.00  0.00     0.036 C 
HETATM   15  C8  UNL     1      -2.414   6.225   6.676  1.00  0.00     0.044 C 
HETATM   16  C7  UNL     1      -3.775   5.590   6.889  1.00  0.00     0.214 C 
HETATM   17  O4  UNL     1      -3.711   5.190   8.221  1.00  0.00    -0.370 OA
BRANCH  16  18
HETATM   18  C6  UNL     1      -4.870   6.561   6.746  1.00  0.00     0.247 C 
HETATM   19  N1  UNL     1      -5.623   6.972   7.857  1.00  0.00    -0.354 N 
ATOM     20  H1  UNL     1      -5.388   6.576   8.767  1.00  0.00     0.162 HD
HETATM   21  O1  UNL     1      -5.133   7.025   5.619  1.00  0.00    -0.271 OA
BRANCH  19  22
HETATM   22  C5  UNL     1      -6.704   7.914   7.795  1.00  0.00     0.088 C 
HETATM   23  C2  UNL     1      -7.148   8.505   9.102  1.00  0.00     0.004 C 
HETATM   24  C1  UNL     1      -6.262   8.292  10.273  1.00  0.00     0.012 C 
HETATM   25  C3  UNL     1      -8.361   7.632   9.135  1.00  0.00     0.008 C 
HETATM   26  C4  UNL     1      -8.046   7.204   7.718  1.00  0.00     0.026 C 
ENDBRANCH  19  22
ENDBRANCH  16  18
ENDBRANCH  12  13
ENDBRANCH   9  12
ENDBRANCH   5   8
ENDBRANCH   1   4
BRANCH   1  27
HETATM   27  C16 UNL     1      -5.191   2.534  15.959  1.00  0.00     0.022 C 
HETATM   28  C17 UNL     1      -5.570   1.638  17.101  1.00  0.00     0.007 C 
HETATM   29  C18 UNL     1      -6.927   2.063  17.552  1.00  0.00     0.000 C 
HETATM   30  C19 UNL     1      -6.976   3.531  17.142  1.00  0.00     0.000 C 
HETATM   31  C20 UNL     1      -6.353   3.480  15.761  1.00  0.00     0.007 C 
ENDBRANCH   1  27
TORSDOF 7
ENDMDL
MODEL 4
REMARK VINA RESULT: -7.537756140      1.667      2.058
REMARK  7 active torsions:
REMARK  status: ('A' for Active; 'I' for Inactive)
REMARK    1  A    between atoms: C5_5  and  N1_6 
REMARK       I    between atoms: N1_6  and  C6_8 
REMARK    2  A    between atoms: C6_8  and  C7_10 
REMARK    3  A    between atoms: C10_13  and  C11_14 
REMARK    4  A    between atoms: C11_14  and  N2_15 
REMARK       I    between atoms: N2_15  and  C12_17 
REMARK    5  A    between atoms: C12_17  and  C13_19 
REMARK       I    between atoms: C13_19  and  N3_21 
REMARK    6  A    between atoms: N3_21  and  C14_23 
REMARK    7  A    between atoms: C14_23  and  C16_26 
ROOT
HETATM    1  C14 UNL     1      -5.012   2.922  13.480  1.00  0.00     0.196 C 
HETATM    2  C15 UNL     1      -4.641   1.533  13.753  1.00  0.00     0.085 C 
HETATM    3  N4  UNL     1      -4.335   0.439  13.972  1.00  0.00    -0.195 NA
ENDROOT
BRANCH   1   4
HETATM    4  N3  UNL     1      -4.128   3.529  12.505  1.00  0.00    -0.336 N 
HETATM    5  C13 UNL     1      -4.295   3.373  11.117  1.00  0.00     0.310 C 
HETATM    6  O3  UNL     1      -5.258   2.670  10.707  1.00  0.00    -0.262 OA
ATOM      7  H3  UNL     1      -3.348   4.096  12.840  1.00  0.00     0.164 HD
BRANCH   5   8
HETATM    8  C12 UNL     1      -3.373   4.009  10.198  1.00  0.00     0.309 C 
HETATM    9  N2  UNL     1      -2.134   4.493  10.683  1.00  0.00    -0.350 N 
ATOM     10  H2  UNL     1      -1.921   4.380  11.674  1.00  0.00     0.162 HD
HETATM   11  O2  UNL     1      -3.699   4.115   8.990  1.00  0.00    -0.262 OA
BRANCH   9  12
HETATM   12  C11 UNL     1      -1.161   5.137   9.839  1.00  0.00     0.155 C 
BRANCH  12  13
HETATM   13  C10 UNL     1      -0.913   6.550  10.259  1.00  0.00     0.140 C 
HETATM   14  C9  UNL     1      -0.864   6.646  11.771  1.00  0.00     0.036 C 
HETATM   15  C8  UNL     1      -1.624   7.934  12.012  1.00  0.00     0.044 C 
HETATM   16  C7  UNL     1      -2.008   8.464  10.644  1.00  0.00     0.214 C 
HETATM   17  O4  UNL     1      -2.019   7.307   9.868  1.00  0.00    -0.370 OA
BRANCH  16  18
HETATM   18  C6  UNL     1      -3.358   9.046  10.631  1.00  0.00     0.247 C 
HETATM   19  N1  UNL     1      -4.493   8.241  10.453  1.00  0.00    -0.354 N 
ATOM     20  H1  UNL     1      -4.353   7.238  10.333  1.00  0.00     0.162 HD
HETATM   21  O1  UNL     1      -3.494  10.277  10.781  1.00  0.00    -0.271 OA
BRANCH  19  22
HETATM   22  C5  UNL     1      -5.839   8.737  10.430  1.00  0.00     0.088 C 
HETATM   23  C2  UNL     1      -6.894   7.827  10.993  1.00  0.00     0.004 C 
HETATM   24  C1  UNL     1      -6.425   6.652  11.769  1.00  0.00     0.012 C 
HETATM   25  C3  UNL     1      -7.368   7.458   9.624  1.00  0.00     0.008 C 
HETATM   26  C4  UNL     1      -6.472   8.542   9.063  1.00  0.00     0.026 C 
ENDBRANCH  19  22
ENDBRANCH  16  18
ENDBRANCH  12  13
ENDBRANCH   9  12
ENDBRANCH   5   8
ENDBRANCH   1   4
BRANCH   1  27
HETATM   27  C16 UNL     1      -4.895   3.729  14.767  1.00  0.00     0.022 C 
HETATM   28  C17 UNL     1      -6.236   4.194  15.256  1.00  0.00     0.007 C 
HETATM   29  C18 UNL     1      -6.222   5.685  15.201  1.00  0.00     0.000 C 
HETATM   30  C19 UNL     1      -4.741   6.015  15.339  1.00  0.00     0.000 C 
HETATM   31  C20 UNL     1      -4.113   4.978  14.430  1.00  0.00     0.007 C 
ENDBRANCH   1  27
TORSDOF 7
ENDMDL
MODEL 5
REMARK VINA RESULT: -7.485431415      1.757      2.425
REMARK  7 active torsions:
REMARK  status: ('A' for Active; 'I' for Inactive)
REMARK    1  A    between atoms: C5_5  and  N1_6 
REMARK       I    between atoms: N1_6  and  C6_8 
REMARK    2  A    between atoms: C6_8  and  C7_10 
REMARK    3  A    between atoms: C10_13  and  C11_14 
REMARK    4  A    between atoms: C11_14  and  N2_15 
REMARK       I    between atoms: N2_15  and  C12_17 
REMARK    5  A    between atoms: C12_17  and  C13_19 
REMARK       I    between atoms: C13_19  and  N3_21 
REMARK    6  A    between atoms: N3_21  and  C14_23 
REMARK    7  A    between atoms: C14_23  and  C16_26 
ROOT
HETATM    1  C14 UNL     1      -4.959   1.829  14.755  1.00  0.00     0.196 C 
HETATM    2  C15 UNL     1      -4.717   0.387  14.837  1.00  0.00     0.085 C 
HETATM    3  N4  UNL     1      -4.514  -0.749  14.909  1.00  0.00    -0.195 NA
ENDROOT
BRANCH   1   4
HETATM    4  N3  UNL     1      -3.795   2.538  14.263  1.00  0.00    -0.336 N 
HETATM    5  C13 UNL     1      -3.864   3.515  13.253  1.00  0.00     0.310 C 
HETATM    6  O3  UNL     1      -4.991   3.781  12.755  1.00  0.00    -0.262 OA
ATOM      7  H3  UNL     1      -2.884   2.319  14.667  1.00  0.00     0.164 HD
BRANCH   5   8
HETATM    8  C12 UNL     1      -2.660   4.187  12.808  1.00  0.00     0.309 C 
HETATM    9  N2  UNL     1      -1.660   3.443  12.136  1.00  0.00    -0.350 N 
ATOM     10  H2  UNL     1      -1.814   2.447  11.982  1.00  0.00     0.162 HD
HETATM   11  O2  UNL     1      -2.535   5.416  13.031  1.00  0.00    -0.262 OA
BRANCH   9  12
HETATM   12  C11 UNL     1      -0.434   4.031  11.661  1.00  0.00     0.155 C 
BRANCH  12  13
HETATM   13  C10 UNL     1      -0.587   4.593  10.283  1.00  0.00     0.140 C 
HETATM   14  C9  UNL     1      -0.386   6.095  10.305  1.00  0.00     0.036 C 
HETATM   15  C8  UNL     1      -1.473   6.554   9.355  1.00  0.00     0.044 C 
HETATM   16  C7  UNL     1      -2.166   5.298   8.862  1.00  0.00     0.214 C 
HETATM   17  O4  UNL     1      -1.913   4.395   9.892  1.00  0.00    -0.370 OA
BRANCH  16  18
HETATM   18  C6  UNL     1      -3.621   5.475   8.745  1.00  0.00     0.247 C 
HETATM   19  N1  UNL     1      -4.304   6.409   9.539  1.00  0.00    -0.354 N 
ATOM     20  H1  UNL     1      -3.759   6.963  10.200  1.00  0.00     0.162 HD
HETATM   21  O1  UNL     1      -4.257   4.780   7.927  1.00  0.00    -0.271 OA
BRANCH  19  22
HETATM   22  C5  UNL     1      -5.719   6.637   9.480  1.00  0.00     0.088 C 
HETATM   23  C2  UNL     1      -6.158   8.062   9.305  1.00  0.00     0.004 C 
HETATM   24  C1  UNL     1      -5.114   9.046   8.923  1.00  0.00     0.012 C 
HETATM   25  C3  UNL     1      -6.544   8.167  10.745  1.00  0.00     0.008 C 
HETATM   26  C4  UNL     1      -6.326   6.674  10.873  1.00  0.00     0.026 C 
ENDBRANCH  19  22
ENDBRANCH  16  18
ENDBRANCH  12  13
ENDBRANCH   9  12
ENDBRANCH   5   8
ENDBRANCH   1   4
BRANCH   1  27
HETATM   27  C16 UNL     1      -5.263   2.360  16.150  1.00  0.00     0.022 C 
HETATM   28  C17 UNL     1      -5.693   1.265  17.082  1.00  0.00     0.007 C 
HETATM   29  C18 UNL     1      -7.102   1.561  17.475  1.00  0.00     0.000 C 
HETATM   30  C19 UNL     1      -7.185   3.075  17.321  1.00  0.00     0.000 C 
HETATM   31  C20 UNL     1      -6.448   3.288  16.014  1.00  0.00     0.007 C 
ENDBRANCH   1  27
TORSDOF 7
ENDMDL
