MODEL 1
REMARK VINA RESULT: -7.514854305      0.000      0.000
REMARK  7 active torsions:
REMARK  status: ('A' for Active; 'I' for Inactive)
REMARK    1  A    between atoms: C2_2  and  C4_4 
REMARK    2  A    between atoms: C4_4  and  N1_5 
REMARK    3  A    between atoms: C7_8  and  C8_9 
REMARK    4  A    between atoms: C8_9  and  N2_10 
REMARK    5  A    between atoms: N2_10  and  O1_11 
REMARK    6  A    between atoms: N2_10  and  C9_13 
REMARK    7  A    between atoms: C17_24  and  C18_25 
ROOT
HETATM    1  C9  UNL     1      -4.830   3.522  13.298  1.00  0.00     0.119 C 
HETATM    2  C10 UNL     1      -4.892   4.112  14.697  1.00  0.00     0.033 C 
HETATM    3  C11 UNL     1      -5.033   3.146  15.806  1.00  0.00     0.037 C 
HETATM    4  C12 UNL     1      -6.443   2.941  16.308  1.00  0.00     0.243 C 
HETATM    5  N3  UNL     1      -6.396   1.673  16.996  1.00  0.00    -0.072 N 
HETATM    6  C13 UNL     1      -7.645   0.942  16.888  1.00  0.00     0.272 C 
HETATM    7  C14 UNL     1      -6.020   1.927  18.382  1.00  0.00     0.272 C 
HETATM    8  C15 UNL     1      -5.374   0.867  16.428  1.00  0.00     0.261 C 
HETATM    9  C16 UNL     1      -4.480   1.784  15.612  1.00  0.00     0.109 C 
HETATM   10  N4  UNL     1      -4.462   1.275  14.308  1.00  0.00    -0.401 N 
ATOM     11  H4  UNL     1      -4.035   0.372  14.100  1.00  0.00     0.154 HD
HETATM   12  C17 UNL     1      -5.068   2.071  13.265  1.00  0.00     0.199 C 
ENDROOT
BRANCH   1  13
HETATM   13  N2  UNL     1      -3.648   3.954  12.683  1.00  0.00    -0.192 NA
BRANCH  13  14
HETATM   14  C8  UNL     1      -3.615   5.172  12.022  1.00  0.00     0.125 C 
BRANCH  14  15
HETATM   15  C7  UNL     1      -4.840   5.409  11.127  1.00  0.00     0.004 C 
HETATM   16  C6  UNL     1      -4.377   6.025   9.826  1.00  0.00     0.036 C 
HETATM   17  C5  UNL     1      -5.396   6.682   9.029  1.00  0.00     0.273 C 
HETATM   18  N1  UNL     1      -6.502   7.343   9.627  1.00  0.00     0.088 N 
HETATM   19  C20 UNL     1      -6.685   7.055  11.019  1.00  0.00     0.273 C 
HETATM   20  C19 UNL     1      -5.539   6.626  11.806  1.00  0.00     0.036 C 
BRANCH  18  21
HETATM   21  C4  UNL     1      -6.394   8.793   9.417  1.00  0.00     0.276 C 
BRANCH  21  22
HETATM   22  C2  UNL     1      -7.180   9.302   8.274  1.00  0.00     0.006 C 
HETATM   23  C1  UNL     1      -7.379  10.787   8.216  1.00  0.00     0.011 C 
HETATM   24  C3  UNL     1      -8.456   8.511   8.094  1.00  0.00     0.011 C 
ENDBRANCH  21  22
ENDBRANCH  18  21
ENDBRANCH  14  15
ENDBRANCH  13  14
BRANCH  13  25
HETATM   25  O1  UNL     1      -2.596   3.862  13.528  1.00  0.00    -0.313 OA
ATOM     26  H1  UNL     1      -2.700   3.104  14.091  1.00  0.00     0.237 HD
ENDBRANCH  13  25
ENDBRANCH   1  13
BRANCH  12  27
HETATM   27  C18 UNL     1      -4.792   1.420  11.999  1.00  0.00     0.198 C 
HETATM   28  O2  UNL     1      -4.125   0.285  12.009  1.00  0.00    -0.646 OA
HETATM   29  O3  UNL     1      -5.164   1.882  10.757  1.00  0.00    -0.646 OA
ENDBRANCH  12  27
TORSDOF 7
ENDMDL
MODEL 2
REMARK VINA RESULT: -7.437868825      3.187      4.316
REMARK  7 active torsions:
REMARK  status: ('A' for Active; 'I' for Inactive)
REMARK    1  A    between atoms: C2_2  and  C4_4 
REMARK    2  A    between atoms: C4_4  and  N1_5 
REMARK    3  A    between atoms: C7_8  and  C8_9 
REMARK    4  A    between atoms: C8_9  and  N2_10 
REMARK    5  A    between atoms: N2_10  and  O1_11 
REMARK    6  A    between atoms: N2_10  and  C9_13 
REMARK    7  A    between atoms: C17_24  and  C18_25 
ROOT
HETATM    1  C9  UNL     1      -4.793   3.585  13.323  1.00  0.00     0.119 C 
HETATM    2  C10 UNL     1      -4.845   4.138  14.738  1.00  0.00     0.033 C 
HETATM    3  C11 UNL     1      -5.021   3.147  15.818  1.00  0.00     0.037 C 
HETATM    4  C12 UNL     1      -6.439   2.969  16.308  1.00  0.00     0.243 C 
HETATM    5  N3  UNL     1      -6.433   1.682  16.961  1.00  0.00    -0.072 N 
HETATM    6  C13 UNL     1      -7.702   0.991  16.826  1.00  0.00     0.272 C 
HETATM    7  C14 UNL     1      -6.057   1.886  18.355  1.00  0.00     0.272 C 
HETATM    8  C15 UNL     1      -5.431   0.862  16.376  1.00  0.00     0.261 C 
HETATM    9  C16 UNL     1      -4.506   1.775  15.590  1.00  0.00     0.109 C 
HETATM   10  N4  UNL     1      -4.496   1.302  14.272  1.00  0.00    -0.401 N 
ATOM     11  H4  UNL     1      -4.094   0.393  14.042  1.00  0.00     0.154 HD
HETATM   12  C17 UNL     1      -5.072   2.143  13.249  1.00  0.00     0.199 C 
ENDROOT
BRANCH   1  13
HETATM   13  N2  UNL     1      -3.595   4.000  12.726  1.00  0.00    -0.192 NA
BRANCH  13  14
HETATM   14  C8  UNL     1      -3.405   5.334  12.404  1.00  0.00     0.125 C 
BRANCH  14  15
HETATM   15  C7  UNL     1      -2.199   5.964  13.116  1.00  0.00     0.004 C 
HETATM   16  C6  UNL     1      -2.694   7.073  14.017  1.00  0.00     0.036 C 
HETATM   17  C5  UNL     1      -1.699   8.034  14.457  1.00  0.00     0.273 C 
HETATM   18  N1  UNL     1      -0.595   8.394  13.639  1.00  0.00     0.088 N 
HETATM   19  C20 UNL     1      -0.385   7.535  12.512  1.00  0.00     0.273 C 
HETATM   20  C19 UNL     1      -1.511   6.780  11.981  1.00  0.00     0.036 C 
BRANCH  18  21
HETATM   21  C4  UNL     1      -0.731   9.789  13.197  1.00  0.00     0.276 C 
BRANCH  21  22
HETATM   22  C2  UNL     1      -1.079  10.736  14.276  1.00  0.00     0.006 C 
HETATM   23  C1  UNL     1      -2.007  11.854  13.903  1.00  0.00     0.011 C 
HETATM   24  C3  UNL     1       0.156  11.196  15.017  1.00  0.00     0.011 C 
ENDBRANCH  21  22
ENDBRANCH  18  21
ENDBRANCH  14  15
ENDBRANCH  13  14
BRANCH  13  25
HETATM   25  O1  UNL     1      -2.523   3.536  13.409  1.00  0.00    -0.313 OA
ATOM     26  H1  UNL     1      -1.920   4.249  13.586  1.00  0.00     0.237 HD
ENDBRANCH  13  25
ENDBRANCH   1  13
BRANCH  12  27
HETATM   27  C18 UNL     1      -4.807   1.520  11.967  1.00  0.00     0.198 C 
HETATM   28  O2  UNL     1      -4.197   0.353  11.950  1.00  0.00    -0.646 OA
HETATM   29  O3  UNL     1      -5.136   2.038  10.735  1.00  0.00    -0.646 OA
ENDBRANCH  12  27
TORSDOF 7
ENDMDL
MODEL 3
REMARK VINA RESULT: -7.333897221      0.910      1.274
REMARK  7 active torsions:
REMARK  status: ('A' for Active; 'I' for Inactive)
REMARK    1  A    between atoms: C2_2  and  C4_4 
REMARK    2  A    between atoms: C4_4  and  N1_5 
REMARK    3  A    between atoms: C7_8  and  C8_9 
REMARK    4  A    between atoms: C8_9  and  N2_10 
REMARK    5  A    between atoms: N2_10  and  O1_11 
REMARK    6  A    between atoms: N2_10  and  C9_13 
REMARK    7  A    between atoms: C17_24  and  C18_25 
ROOT
HETATM    1  C9  UNL     1      -4.721   3.487  13.253  1.00  0.00     0.119 C 
HETATM    2  C10 UNL     1      -4.735   4.048  14.665  1.00  0.00     0.033 C 
HETATM    3  C11 UNL     1      -4.934   3.070  15.753  1.00  0.00     0.037 C 
HETATM    4  C12 UNL     1      -6.352   2.947  16.261  1.00  0.00     0.243 C 
HETATM    5  N3  UNL     1      -6.386   1.665  16.920  1.00  0.00    -0.072 N 
HETATM    6  C13 UNL     1      -7.682   1.021  16.804  1.00  0.00     0.272 C 
HETATM    7  C14 UNL     1      -5.986   1.861  18.309  1.00  0.00     0.272 C 
HETATM    8  C15 UNL     1      -5.423   0.805  16.327  1.00  0.00     0.261 C 
HETATM    9  C16 UNL     1      -4.474   1.678  15.526  1.00  0.00     0.109 C 
HETATM   10  N4  UNL     1      -4.498   1.199  14.210  1.00  0.00    -0.401 N 
ATOM     11  H4  UNL     1      -4.133   0.274  13.980  1.00  0.00     0.154 HD
HETATM   12  C17 UNL     1      -5.055   2.056  13.190  1.00  0.00     0.199 C 
ENDROOT
BRANCH   1  13
HETATM   13  N2  UNL     1      -3.515   3.854  12.639  1.00  0.00    -0.192 NA
BRANCH  13  14
HETATM   14  C8  UNL     1      -3.379   5.112  12.075  1.00  0.00     0.125 C 
BRANCH  14  15
HETATM   15  C7  UNL     1      -4.593   5.534  11.235  1.00  0.00     0.004 C 
HETATM   16  C6  UNL     1      -4.140   5.764   9.811  1.00  0.00     0.036 C 
HETATM   17  C5  UNL     1      -5.033   6.541   8.972  1.00  0.00     0.273 C 
HETATM   18  N1  UNL     1      -5.842   7.581   9.502  1.00  0.00     0.088 N 
HETATM   19  C20 UNL     1      -5.928   7.596  10.933  1.00  0.00     0.273 C 
HETATM   20  C19 UNL     1      -4.854   6.996  11.710  1.00  0.00     0.036 C 
BRANCH  18  21
HETATM   21  C4  UNL     1      -5.375   8.883   9.007  1.00  0.00     0.276 C 
BRANCH  21  22
HETATM   22  C2  UNL     1      -5.335   9.944  10.033  1.00  0.00     0.006 C 
HETATM   23  C1  UNL     1      -6.301  11.077   9.852  1.00  0.00     0.011 C 
HETATM   24  C3  UNL     1      -3.916  10.393  10.300  1.00  0.00     0.011 C 
ENDBRANCH  21  22
ENDBRANCH  18  21
ENDBRANCH  14  15
ENDBRANCH  13  14
BRANCH  13  25
HETATM   25  O1  UNL     1      -2.459   3.594  13.444  1.00  0.00    -0.313 OA
ATOM     26  H1  UNL     1      -2.764   3.246  14.274  1.00  0.00     0.237 HD
ENDBRANCH  13  25
ENDBRANCH   1  13
BRANCH  12  27
HETATM   27  C18 UNL     1      -4.829   1.417  11.908  1.00  0.00     0.198 C 
HETATM   28  O2  UNL     1      -4.293   0.215  11.891  1.00  0.00    -0.646 OA
HETATM   29  O3  UNL     1      -5.125   1.955  10.676  1.00  0.00    -0.646 OA
ENDBRANCH  12  27
TORSDOF 7
ENDMDL
MODEL 4
REMARK VINA RESULT: -7.300204001      1.310      1.965
REMARK  7 active torsions:
REMARK  status: ('A' for Active; 'I' for Inactive)
REMARK    1  A    between atoms: C2_2  and  C4_4 
REMARK    2  A    between atoms: C4_4  and  N1_5 
REMARK    3  A    between atoms: C7_8  and  C8_9 
REMARK    4  A    between atoms: C8_9  and  N2_10 
REMARK    5  A    between atoms: N2_10  and  O1_11 
REMARK    6  A    between atoms: N2_10  and  C9_13 
REMARK    7  A    between atoms: C17_24  and  C18_25 
ROOT
HETATM    1  C9  UNL     1      -4.582   3.372  13.272  1.00  0.00     0.119 C 
HETATM    2  C10 UNL     1      -4.557   3.915  14.691  1.00  0.00     0.033 C 
HETATM    3  C11 UNL     1      -4.823   2.938  15.767  1.00  0.00     0.037 C 
HETATM    4  C12 UNL     1      -6.245   2.908  16.275  1.00  0.00     0.243 C 
HETATM    5  N3  UNL     1      -6.368   1.623  16.918  1.00  0.00    -0.072 N 
HETATM    6  C13 UNL     1      -7.705   1.072  16.796  1.00  0.00     0.272 C 
HETATM    7  C14 UNL     1      -5.955   1.773  18.309  1.00  0.00     0.272 C 
HETATM    8  C15 UNL     1      -5.468   0.706  16.313  1.00  0.00     0.261 C 
HETATM    9  C16 UNL     1      -4.461   1.522  15.522  1.00  0.00     0.109 C 
HETATM   10  N4  UNL     1      -4.518   1.061  14.200  1.00  0.00    -0.401 N 
ATOM     11  H4  UNL     1      -4.219   0.117  13.958  1.00  0.00     0.154 HD
HETATM   12  C17 UNL     1      -5.015   1.969  13.191  1.00  0.00     0.199 C 
ENDROOT
BRANCH   1  13
HETATM   13  N2  UNL     1      -3.355   3.662  12.662  1.00  0.00    -0.192 NA
BRANCH  13  14
HETATM   14  C8  UNL     1      -2.583   4.717  13.121  1.00  0.00     0.125 C 
BRANCH  14  15
HETATM   15  C7  UNL     1      -2.386   5.824  12.075  1.00  0.00     0.004 C 
HETATM   16  C6  UNL     1      -3.242   7.010  12.458  1.00  0.00     0.036 C 
HETATM   17  C5  UNL     1      -3.503   7.979  11.409  1.00  0.00     0.273 C 
HETATM   18  N1  UNL     1      -3.615   7.593  10.047  1.00  0.00     0.088 N 
HETATM   19  C20 UNL     1      -3.163   6.262   9.766  1.00  0.00     0.273 C 
HETATM   20  C19 UNL     1      -3.162   5.278  10.838  1.00  0.00     0.036 C 
BRANCH  18  21
HETATM   21  C4  UNL     1      -5.000   7.767   9.589  1.00  0.00     0.276 C 
BRANCH  21  22
HETATM   22  C2  UNL     1      -5.881   8.444  10.562  1.00  0.00     0.006 C 
HETATM   23  C1  UNL     1      -7.042   7.644  11.074  1.00  0.00     0.011 C 
HETATM   24  C3  UNL     1      -6.262   9.827  10.084  1.00  0.00     0.011 C 
ENDBRANCH  21  22
ENDBRANCH  18  21
ENDBRANCH  14  15
ENDBRANCH  13  14
BRANCH  13  25
HETATM   25  O1  UNL     1      -2.591   2.551  12.548  1.00  0.00    -0.313 OA
ATOM     26  H1  UNL     1      -2.364   2.408  11.637  1.00  0.00     0.237 HD
ENDBRANCH  13  25
ENDBRANCH   1  13
BRANCH  12  27
HETATM   27  C18 UNL     1      -4.835   1.332  11.901  1.00  0.00     0.198 C 
HETATM   28  O2  UNL     1      -4.343   0.111  11.866  1.00  0.00    -0.646 OA
HETATM   29  O3  UNL     1      -5.132   1.890  10.679  1.00  0.00    -0.646 OA
ENDBRANCH  12  27
TORSDOF 7
ENDMDL
MODEL 5
REMARK VINA RESULT: -7.293783217      3.024      4.176
REMARK  7 active torsions:
REMARK  status: ('A' for Active; 'I' for Inactive)
REMARK    1  A    between atoms: C2_2  and  C4_4 
REMARK    2  A    between atoms: C4_4  and  N1_5 
REMARK    3  A    between atoms: C7_8  and  C8_9 
REMARK    4  A    between atoms: C8_9  and  N2_10 
REMARK    5  A    between atoms: N2_10  and  O1_11 
REMARK    6  A    between atoms: N2_10  and  C9_13 
REMARK    7  A    between atoms: C17_24  and  C18_25 
ROOT
HETATM    1  C9  UNL     1      -4.555   3.236  13.359  1.00  0.00     0.119 C 
HETATM    2  C10 UNL     1      -4.545   3.810  14.766  1.00  0.00     0.033 C 
HETATM    3  C11 UNL     1      -4.842   2.863  15.859  1.00  0.00     0.037 C 
HETATM    4  C12 UNL     1      -6.273   2.864  16.344  1.00  0.00     0.243 C 
HETATM    5  N3  UNL     1      -6.425   1.595  17.014  1.00  0.00    -0.072 N 
HETATM    6  C13 UNL     1      -7.768   1.061  16.882  1.00  0.00     0.272 C 
HETATM    7  C14 UNL     1      -6.032   1.772  18.407  1.00  0.00     0.272 C 
HETATM    8  C15 UNL     1      -5.528   0.653  16.445  1.00  0.00     0.261 C 
HETATM    9  C16 UNL     1      -4.497   1.436  15.651  1.00  0.00     0.109 C 
HETATM   10  N4  UNL     1      -4.539   0.946  14.340  1.00  0.00    -0.401 N 
ATOM     11  H4  UNL     1      -4.249  -0.007  14.124  1.00  0.00     0.154 HD
HETATM   12  C17 UNL     1      -5.007   1.837  13.303  1.00  0.00     0.199 C 
ENDROOT
BRANCH   1  13
HETATM   13  N2  UNL     1      -3.314   3.495  12.762  1.00  0.00    -0.192 NA
BRANCH  13  14
HETATM   14  C8  UNL     1      -2.443   4.406  13.338  1.00  0.00     0.125 C 
BRANCH  14  15
HETATM   15  C7  UNL     1      -2.116   5.593  12.421  1.00  0.00     0.004 C 
HETATM   16  C6  UNL     1      -0.811   6.208  12.873  1.00  0.00     0.036 C 
HETATM   17  C5  UNL     1      -0.539   7.554  12.404  1.00  0.00     0.273 C 
HETATM   18  N1  UNL     1      -1.581   8.494  12.183  1.00  0.00     0.088 N 
HETATM   19  C20 UNL     1      -2.898   7.928  12.168  1.00  0.00     0.273 C 
HETATM   20  C19 UNL     1      -3.136   6.679  12.878  1.00  0.00     0.036 C 
BRANCH  18  21
HETATM   21  C4  UNL     1      -1.503   9.574  13.175  1.00  0.00     0.276 C 
BRANCH  21  22
HETATM   22  C2  UNL     1      -0.846   9.189  14.441  1.00  0.00     0.006 C 
HETATM   23  C1  UNL     1      -1.753   8.741  15.548  1.00  0.00     0.011 C 
HETATM   24  C3  UNL     1       0.166  10.228  14.869  1.00  0.00     0.011 C 
ENDBRANCH  21  22
ENDBRANCH  18  21
ENDBRANCH  14  15
ENDBRANCH  13  14
BRANCH  13  25
HETATM   25  O1  UNL     1      -2.656   2.345  12.484  1.00  0.00    -0.313 OA
ATOM     26  H1  UNL     1      -2.526   2.267  11.547  1.00  0.00     0.237 HD
ENDBRANCH  13  25
ENDBRANCH   1  13
BRANCH  12  27
HETATM   27  C18 UNL     1      -4.815   1.169  12.031  1.00  0.00     0.198 C 
HETATM   28  O2  UNL     1      -5.271   1.749  10.941  1.00  0.00    -0.646 OA
HETATM   29  O3  UNL     1      -4.189  -0.043  11.843  1.00  0.00    -0.646 OA
ENDBRANCH  12  27
TORSDOF 7
ENDMDL
