MODEL 1
REMARK VINA RESULT: -6.939678200      0.000      0.000
REMARK  10 active torsions:
REMARK  status: ('A' for Active; 'I' for Inactive)
REMARK    1  A    between atoms: C2_2  and  C4_4 
REMARK    2  A    between atoms: C4_4  and  N1_5 
REMARK    3  A    between atoms: C4_4  and  C5_9 
REMARK    4  A    between atoms: C5_9  and  C6_10 
REMARK    5  A    between atoms: C6_10  and  O2_12 
REMARK    6  A    between atoms: O2_12  and  C7_13 
REMARK    7  A    between atoms: C7_13  and  C9_15 
REMARK    8  A    between atoms: C9_15  and  N2_16 
REMARK    9  A    between atoms: C9_15  and  C17_26 
REMARK       I    between atoms: N2_16  and  C10_18 
REMARK   10  A    between atoms: C10_18  and  C11_20 
REMARK       I    between atoms: C17_26  and  N3_28 
ROOT
HETATM    1  C9  UNL     1      -4.362   3.226  12.290  1.00  0.00     0.205 C 
ENDROOT
BRANCH   1   2
HETATM    2  C7  UNL     1      -4.993   2.840  13.614  1.00  0.00     0.159 C 
HETATM    3  C8  UNL     1      -5.310   4.051  14.467  1.00  0.00     0.042 C 
BRANCH   2   4
HETATM    4  O2  UNL     1      -4.139   1.946  14.257  1.00  0.00    -0.314 OA
BRANCH   4   5
HETATM    5  C6  UNL     1      -4.591   1.098  15.281  1.00  0.00     0.261 C 
HETATM    6  O1  UNL     1      -5.056  -0.001  14.889  1.00  0.00    -0.265 OA
BRANCH   5   7
HETATM    7  C5  UNL     1      -4.502   1.512  16.695  1.00  0.00     0.148 C 
BRANCH   7   8
HETATM    8  C4  UNL     1      -5.691   1.168  17.509  1.00  0.00     0.220 C 
BRANCH   8   9
HETATM    9  C2  UNL     1      -6.956   1.821  17.131  1.00  0.00    -0.063 C 
HETATM   10  C1  UNL     1      -8.029   1.216  16.658  1.00  0.00     0.016 C 
HETATM   11  C3  UNL     1      -7.074   3.325  17.316  1.00  0.00     0.044 C 
ENDBRANCH   8   9
BRANCH   8  12
HETATM   12  N1  UNL     1      -5.913  -0.287  17.559  1.00  0.00    -0.071 N 
ATOM     13  H13 UNL     1      -5.622  -0.756  16.702  1.00  0.00     0.275 HD
ATOM     14  H12 UNL     1      -5.275  -0.759  18.200  1.00  0.00     0.275 HD
ATOM     15  H11 UNL     1      -6.893  -0.458  17.785  1.00  0.00     0.275 HD
ENDBRANCH   8  12
ENDBRANCH   7   8
ENDBRANCH   5   7
ENDBRANCH   4   5
ENDBRANCH   2   4
ENDBRANCH   1   2
BRANCH   1  16
HETATM   16  N2  UNL     1      -4.926   4.445  11.805  1.00  0.00    -0.345 N 
HETATM   17  C10 UNL     1      -4.139   5.550  11.411  1.00  0.00     0.222 C 
HETATM   18  O3  UNL     1      -2.892   5.449  11.495  1.00  0.00    -0.273 OA
ATOM     19  H2  UNL     1      -5.941   4.521  11.741  1.00  0.00     0.163 HD
BRANCH  17  20
HETATM   20  C11 UNL     1      -4.713   6.823  10.905  1.00  0.00     0.078 C 
HETATM   21  C12 UNL     1      -4.572   6.954   9.432  1.00  0.00     0.014 C 
HETATM   22  C13 UNL     1      -5.978   6.920   8.828  1.00  0.00     0.001 C 
HETATM   23  C14 UNL     1      -6.599   8.244   9.295  1.00  0.00     0.000 C 
HETATM   24  C15 UNL     1      -6.885   8.096  10.740  1.00  0.00     0.001 C 
HETATM   25  C16 UNL     1      -6.085   7.061  11.455  1.00  0.00     0.014 C 
ENDBRANCH  17  20
ENDBRANCH   1  16
BRANCH   1  26
HETATM   26  C17 UNL     1      -4.573   2.085  11.364  1.00  0.00     0.242 C 
HETATM   27  O4  UNL     1      -4.673   2.365  10.145  1.00  0.00    -0.271 OA
HETATM   28  N3  UNL     1      -4.663   0.747  11.779  1.00  0.00    -0.364 N 
HETATM   29  C18 UNL     1      -4.869  -0.295  10.812  1.00  0.00     0.149 C 
ATOM     30  H3  UNL     1      -4.583   0.514  12.769  1.00  0.00     0.161 HD
ENDBRANCH   1  26
TORSDOF 10
ENDMDL
MODEL 2
REMARK VINA RESULT: -6.775400234      2.187      3.480
REMARK  10 active torsions:
REMARK  status: ('A' for Active; 'I' for Inactive)
REMARK    1  A    between atoms: C2_2  and  C4_4 
REMARK    2  A    between atoms: C4_4  and  N1_5 
REMARK    3  A    between atoms: C4_4  and  C5_9 
REMARK    4  A    between atoms: C5_9  and  C6_10 
REMARK    5  A    between atoms: C6_10  and  O2_12 
REMARK    6  A    between atoms: O2_12  and  C7_13 
REMARK    7  A    between atoms: C7_13  and  C9_15 
REMARK    8  A    between atoms: C9_15  and  N2_16 
REMARK    9  A    between atoms: C9_15  and  C17_26 
REMARK       I    between atoms: N2_16  and  C10_18 
REMARK   10  A    between atoms: C10_18  and  C11_20 
REMARK       I    between atoms: C17_26  and  N3_28 
ROOT
HETATM    1  C9  UNL     1      -4.912   5.200  12.599  1.00  0.00     0.205 C 
ENDROOT
BRANCH   1   2
HETATM    2  C7  UNL     1      -4.309   3.831  12.352  1.00  0.00     0.159 C 
HETATM    3  C8  UNL     1      -4.069   3.572  10.879  1.00  0.00     0.042 C 
BRANCH   2   4
HETATM    4  O2  UNL     1      -5.145   2.878  12.929  1.00  0.00    -0.314 OA
BRANCH   4   5
HETATM    5  C6  UNL     1      -4.657   1.903  13.814  1.00  0.00     0.261 C 
HETATM    6  O1  UNL     1      -4.020   0.968  13.268  1.00  0.00    -0.265 OA
BRANCH   5   7
HETATM    7  C5  UNL     1      -4.900   2.014  15.265  1.00  0.00     0.148 C 
BRANCH   7   8
HETATM    8  C4  UNL     1      -6.274   2.434  15.626  1.00  0.00     0.220 C 
BRANCH   8   9
HETATM    9  C2  UNL     1      -6.834   1.855  16.859  1.00  0.00    -0.063 C 
HETATM   10  C1  UNL     1      -7.759   0.916  16.923  1.00  0.00     0.016 C 
HETATM   11  C3  UNL     1      -6.297   2.345  18.193  1.00  0.00     0.044 C 
ENDBRANCH   8   9
BRANCH   8  12
HETATM   12  N1  UNL     1      -6.393   3.899  15.701  1.00  0.00    -0.071 N 
ATOM     13  H13 UNL     1      -6.472   4.333  14.782  1.00  0.00     0.275 HD
ATOM     14  H12 UNL     1      -7.292   4.200  16.076  1.00  0.00     0.275 HD
ATOM     15  H11 UNL     1      -5.605   4.261  16.238  1.00  0.00     0.275 HD
ENDBRANCH   8  12
ENDBRANCH   7   8
ENDBRANCH   5   7
ENDBRANCH   4   5
ENDBRANCH   2   4
ENDBRANCH   1   2
BRANCH   1  16
HETATM   16  N2  UNL     1      -5.038   5.919  11.371  1.00  0.00    -0.345 N 
HETATM   17  C10 UNL     1      -6.191   6.659  11.031  1.00  0.00     0.222 C 
HETATM   18  O3  UNL     1      -7.143   6.681  11.848  1.00  0.00    -0.273 OA
ATOM     19  H2  UNL     1      -4.261   5.896  10.711  1.00  0.00     0.163 HD
BRANCH  17  20
HETATM   20  C11 UNL     1      -6.334   7.411   9.758  1.00  0.00     0.078 C 
HETATM   21  C12 UNL     1      -7.294   6.760   8.828  1.00  0.00     0.014 C 
HETATM   22  C13 UNL     1      -8.497   7.694   8.676  1.00  0.00     0.001 C 
HETATM   23  C14 UNL     1      -7.926   8.889   7.899  1.00  0.00     0.000 C 
HETATM   24  C15 UNL     1      -7.071   9.644   8.843  1.00  0.00     0.001 C 
HETATM   25  C16 UNL     1      -6.554   8.871  10.009  1.00  0.00     0.014 C 
ENDBRANCH  17  20
ENDBRANCH   1  16
BRANCH   1  26
HETATM   26  C17 UNL     1      -4.036   5.886  13.582  1.00  0.00     0.242 C 
HETATM   27  O4  UNL     1      -3.935   5.348  14.711  1.00  0.00    -0.271 OA
HETATM   28  N3  UNL     1      -3.336   7.073  13.312  1.00  0.00    -0.364 N 
HETATM   29  C18 UNL     1      -2.510   7.667  14.325  1.00  0.00     0.149 C 
ATOM     30  H3  UNL     1      -3.415   7.514  12.395  1.00  0.00     0.161 HD
ENDBRANCH   1  26
TORSDOF 10
ENDMDL
MODEL 3
REMARK VINA RESULT: -6.766016703      2.098      6.344
REMARK  10 active torsions:
REMARK  status: ('A' for Active; 'I' for Inactive)
REMARK    1  A    between atoms: C2_2  and  C4_4 
REMARK    2  A    between atoms: C4_4  and  N1_5 
REMARK    3  A    between atoms: C4_4  and  C5_9 
REMARK    4  A    between atoms: C5_9  and  C6_10 
REMARK    5  A    between atoms: C6_10  and  O2_12 
REMARK    6  A    between atoms: O2_12  and  C7_13 
REMARK    7  A    between atoms: C7_13  and  C9_15 
REMARK    8  A    between atoms: C9_15  and  N2_16 
REMARK    9  A    between atoms: C9_15  and  C17_26 
REMARK       I    between atoms: N2_16  and  C10_18 
REMARK   10  A    between atoms: C10_18  and  C11_20 
REMARK       I    between atoms: C17_26  and  N3_28 
ROOT
HETATM    1  C9  UNL     1      -4.975   1.443  11.977  1.00  0.00     0.205 C 
ENDROOT
BRANCH   1   2
HETATM    2  C7  UNL     1      -4.076   2.468  11.311  1.00  0.00     0.159 C 
HETATM    3  C8  UNL     1      -3.036   3.017  12.266  1.00  0.00     0.042 C 
BRANCH   2   4
HETATM    4  O2  UNL     1      -4.883   3.469  10.774  1.00  0.00    -0.314 OA
BRANCH   4   5
HETATM    5  C6  UNL     1      -4.339   4.601  10.147  1.00  0.00     0.261 C 
HETATM    6  O1  UNL     1      -3.760   4.373   9.056  1.00  0.00    -0.265 OA
BRANCH   5   7
HETATM    7  C5  UNL     1      -4.465   5.937  10.763  1.00  0.00     0.148 C 
BRANCH   7   8
HETATM    8  C4  UNL     1      -5.156   5.943  12.074  1.00  0.00     0.220 C 
BRANCH   8   9
HETATM    9  C2  UNL     1      -4.350   6.354  13.237  1.00  0.00    -0.063 C 
HETATM   10  C1  UNL     1      -4.554   5.988  14.488  1.00  0.00     0.016 C 
HETATM   11  C3  UNL     1      -3.155   7.262  13.000  1.00  0.00     0.044 C 
ENDBRANCH   8   9
BRANCH   8  12
HETATM   12  N1  UNL     1      -6.380   6.760  12.040  1.00  0.00    -0.071 N 
ATOM     13  H13 UNL     1      -6.781   6.903  12.967  1.00  0.00     0.275 HD
ATOM     14  H12 UNL     1      -6.192   7.737  11.817  1.00  0.00     0.275 HD
ATOM     15  H11 UNL     1      -7.039   6.331  11.390  1.00  0.00     0.275 HD
ENDBRANCH   8  12
ENDBRANCH   7   8
ENDBRANCH   5   7
ENDBRANCH   4   5
ENDBRANCH   2   4
ENDBRANCH   1   2
BRANCH   1  16
HETATM   16  N2  UNL     1      -4.806   1.477  13.394  1.00  0.00    -0.345 N 
HETATM   17  C10 UNL     1      -5.566   2.318  14.236  1.00  0.00     0.222 C 
HETATM   18  O3  UNL     1      -6.424   3.067  13.708  1.00  0.00    -0.273 OA
ATOM     19  H2  UNL     1      -4.107   0.868  13.817  1.00  0.00     0.163 HD
BRANCH  17  20
HETATM   20  C11 UNL     1      -5.402   2.363  15.711  1.00  0.00     0.078 C 
HETATM   21  C12 UNL     1      -6.355   3.307  16.353  1.00  0.00     0.014 C 
HETATM   22  C13 UNL     1      -7.318   2.481  17.209  1.00  0.00     0.001 C 
HETATM   23  C14 UNL     1      -6.428   1.965  18.350  1.00  0.00     0.000 C 
HETATM   24  C15 UNL     1      -5.558   0.916  17.772  1.00  0.00     0.001 C 
HETATM   25  C16 UNL     1      -5.350   0.986  16.297  1.00  0.00     0.014 C 
ENDBRANCH  17  20
ENDBRANCH   1  16
BRANCH   1  26
HETATM   26  C17 UNL     1      -4.633   0.124  11.386  1.00  0.00     0.242 C 
HETATM   27  O4  UNL     1      -4.806   0.004  10.150  1.00  0.00    -0.271 OA
HETATM   28  N3  UNL     1      -4.139  -0.961  12.128  1.00  0.00    -0.364 N 
HETATM   29  C18 UNL     1      -3.835  -2.202  11.473  1.00  0.00     0.149 C 
ATOM     30  H3  UNL     1      -3.997  -0.868  13.134  1.00  0.00     0.161 HD
ENDBRANCH   1  26
TORSDOF 10
ENDMDL
MODEL 4
REMARK VINA RESULT: -6.746907393      2.822      3.931
REMARK  10 active torsions:
REMARK  status: ('A' for Active; 'I' for Inactive)
REMARK    1  A    between atoms: C2_2  and  C4_4 
REMARK    2  A    between atoms: C4_4  and  N1_5 
REMARK    3  A    between atoms: C4_4  and  C5_9 
REMARK    4  A    between atoms: C5_9  and  C6_10 
REMARK    5  A    between atoms: C6_10  and  O2_12 
REMARK    6  A    between atoms: O2_12  and  C7_13 
REMARK    7  A    between atoms: C7_13  and  C9_15 
REMARK    8  A    between atoms: C9_15  and  N2_16 
REMARK    9  A    between atoms: C9_15  and  C17_26 
REMARK       I    between atoms: N2_16  and  C10_18 
REMARK   10  A    between atoms: C10_18  and  C11_20 
REMARK       I    between atoms: C17_26  and  N3_28 
ROOT
HETATM    1  C9  UNL     1      -4.863   4.984  12.868  1.00  0.00     0.205 C 
ENDROOT
BRANCH   1   2
HETATM    2  C7  UNL     1      -6.076   4.811  13.763  1.00  0.00     0.159 C 
HETATM    3  C8  UNL     1      -5.957   5.615  15.042  1.00  0.00     0.042 C 
BRANCH   2   4
HETATM    4  O2  UNL     1      -6.246   3.450  14.006  1.00  0.00    -0.314 OA
BRANCH   4   5
HETATM    5  C6  UNL     1      -5.157   2.606  14.278  1.00  0.00     0.261 C 
HETATM    6  O1  UNL     1      -4.810   1.869  13.322  1.00  0.00    -0.265 OA
BRANCH   5   7
HETATM    7  C5  UNL     1      -4.504   2.622  15.602  1.00  0.00     0.148 C 
BRANCH   7   8
HETATM    8  C4  UNL     1      -4.859   1.478  16.473  1.00  0.00     0.220 C 
BRANCH   8   9
HETATM    9  C2  UNL     1      -6.173   1.542  17.136  1.00  0.00    -0.063 C 
HETATM   10  C1  UNL     1      -7.305   1.059  16.659  1.00  0.00     0.016 C 
HETATM   11  C3  UNL     1      -6.257   2.194  18.506  1.00  0.00     0.044 C 
ENDBRANCH   8   9
BRANCH   8  12
HETATM   12  N1  UNL     1      -4.760   0.196  15.755  1.00  0.00    -0.071 N 
ATOM     13  H13 UNL     1      -3.836  -0.227  15.836  1.00  0.00     0.275 HD
ATOM     14  H12 UNL     1      -5.295  -0.547  16.204  1.00  0.00     0.275 HD
ATOM     15  H11 UNL     1      -5.038   0.346  14.785  1.00  0.00     0.275 HD
ENDBRANCH   8  12
ENDBRANCH   7   8
ENDBRANCH   5   7
ENDBRANCH   4   5
ENDBRANCH   2   4
ENDBRANCH   1   2
BRANCH   1  16
HETATM   16  N2  UNL     1      -4.011   6.011  13.375  1.00  0.00    -0.345 N 
HETATM   17  C10 UNL     1      -2.645   5.800  13.667  1.00  0.00     0.222 C 
HETATM   18  O3  UNL     1      -2.168   4.656  13.470  1.00  0.00    -0.273 OA
ATOM     19  H2  UNL     1      -4.406   6.938  13.534  1.00  0.00     0.163 HD
BRANCH  17  20
HETATM   20  C11 UNL     1      -1.748   6.859  14.193  1.00  0.00     0.078 C 
HETATM   21  C12 UNL     1      -0.903   7.459  13.128  1.00  0.00     0.014 C 
HETATM   22  C13 UNL     1      -1.337   8.918  12.960  1.00  0.00     0.001 C 
HETATM   23  C14 UNL     1      -0.873   9.580  14.265  1.00  0.00     0.000 C 
HETATM   24  C15 UNL     1      -1.788   9.111  15.331  1.00  0.00     0.001 C 
HETATM   25  C16 UNL     1      -2.495   7.827  15.059  1.00  0.00     0.014 C 
ENDBRANCH  17  20
ENDBRANCH   1  16
BRANCH   1  26
HETATM   26  C17 UNL     1      -5.373   5.277  11.505  1.00  0.00     0.242 C 
HETATM   27  O4  UNL     1      -5.214   4.379  10.644  1.00  0.00    -0.271 OA
HETATM   28  N3  UNL     1      -6.006   6.479  11.148  1.00  0.00    -0.364 N 
HETATM   29  C18 UNL     1      -6.468   6.677   9.803  1.00  0.00     0.149 C 
ATOM     30  H3  UNL     1      -6.137   7.212  11.845  1.00  0.00     0.161 HD
ENDBRANCH   1  26
TORSDOF 10
ENDMDL
MODEL 5
REMARK VINA RESULT: -6.706904371      1.864      6.999
REMARK  10 active torsions:
REMARK  status: ('A' for Active; 'I' for Inactive)
REMARK    1  A    between atoms: C2_2  and  C4_4 
REMARK    2  A    between atoms: C4_4  and  N1_5 
REMARK    3  A    between atoms: C4_4  and  C5_9 
REMARK    4  A    between atoms: C5_9  and  C6_10 
REMARK    5  A    between atoms: C6_10  and  O2_12 
REMARK    6  A    between atoms: O2_12  and  C7_13 
REMARK    7  A    between atoms: C7_13  and  C9_15 
REMARK    8  A    between atoms: C9_15  and  N2_16 
REMARK    9  A    between atoms: C9_15  and  C17_26 
REMARK       I    between atoms: N2_16  and  C10_18 
REMARK   10  A    between atoms: C10_18  and  C11_20 
REMARK       I    between atoms: C17_26  and  N3_28 
ROOT
HETATM    1  C9  UNL     1      -5.019   1.621  12.007  1.00  0.00     0.205 C 
ENDROOT
BRANCH   1   2
HETATM    2  C7  UNL     1      -4.134   2.665  11.353  1.00  0.00     0.159 C 
HETATM    3  C8  UNL     1      -3.084   3.197  12.306  1.00  0.00     0.042 C 
BRANCH   2   4
HETATM    4  O2  UNL     1      -4.952   3.673  10.848  1.00  0.00    -0.314 OA
BRANCH   4   5
HETATM    5  C6  UNL     1      -4.443   4.707  10.046  1.00  0.00     0.261 C 
HETATM    6  O1  UNL     1      -3.759   4.325   9.064  1.00  0.00    -0.265 OA
BRANCH   5   7
HETATM    7  C5  UNL     1      -4.720   6.120  10.375  1.00  0.00     0.148 C 
BRANCH   7   8
HETATM    8  C4  UNL     1      -5.646   6.796   9.437  1.00  0.00     0.220 C 
BRANCH   8   9
HETATM    9  C2  UNL     1      -6.929   7.253   9.999  1.00  0.00    -0.063 C 
HETATM   10  C1  UNL     1      -7.196   7.423  11.280  1.00  0.00     0.016 C 
HETATM   11  C3  UNL     1      -8.056   7.593   9.038  1.00  0.00     0.044 C 
ENDBRANCH   8   9
BRANCH   8  12
HETATM   12  N1  UNL     1      -5.000   7.933   8.760  1.00  0.00    -0.071 N 
ATOM     13  H13 UNL     1      -5.593   8.762   8.736  1.00  0.00     0.275 HD
ATOM     14  H12 UNL     1      -4.231   8.326   9.302  1.00  0.00     0.275 HD
ATOM     15  H11 UNL     1      -4.709   7.633   7.829  1.00  0.00     0.275 HD
ENDBRANCH   8  12
ENDBRANCH   7   8
ENDBRANCH   5   7
ENDBRANCH   4   5
ENDBRANCH   2   4
ENDBRANCH   1   2
BRANCH   1  16
HETATM   16  N2  UNL     1      -4.842   1.633  13.423  1.00  0.00    -0.345 N 
HETATM   17  C10 UNL     1      -5.619   2.437  14.286  1.00  0.00     0.222 C 
HETATM   18  O3  UNL     1      -6.500   3.171  13.778  1.00  0.00    -0.273 OA
ATOM     19  H2  UNL     1      -4.123   1.034  13.830  1.00  0.00     0.163 HD
BRANCH  17  20
HETATM   20  C11 UNL     1      -5.445   2.458  15.761  1.00  0.00     0.078 C 
HETATM   21  C12 UNL     1      -6.430   3.349  16.428  1.00  0.00     0.014 C 
HETATM   22  C13 UNL     1      -7.353   2.468  17.273  1.00  0.00     0.001 C 
HETATM   23  C14 UNL     1      -6.435   1.965  18.397  1.00  0.00     0.000 C 
HETATM   24  C15 UNL     1      -5.528   0.964  17.792  1.00  0.00     0.001 C 
HETATM   25  C16 UNL     1      -5.334   1.072  16.318  1.00  0.00     0.014 C 
ENDBRANCH  17  20
ENDBRANCH   1  16
BRANCH   1  26
HETATM   26  C17 UNL     1      -4.670   0.315  11.392  1.00  0.00     0.242 C 
HETATM   27  O4  UNL     1      -4.826   0.222  10.151  1.00  0.00    -0.271 OA
HETATM   28  N3  UNL     1      -4.187  -0.787  12.117  1.00  0.00    -0.364 N 
HETATM   29  C18 UNL     1      -3.874  -2.013  11.438  1.00  0.00     0.149 C 
ATOM     30  H3  UNL     1      -4.058  -0.716  13.126  1.00  0.00     0.161 HD
ENDBRANCH   1  26
TORSDOF 10
ENDMDL
