MODEL 1
REMARK VINA RESULT: -6.927940251      0.000      0.000
REMARK  11 active torsions:
REMARK  status: ('A' for Active; 'I' for Inactive)
REMARK    1  A    between atoms: C2_2  and  C3_3 
REMARK    2  A    between atoms: C2_2  and  C9_16 
REMARK    3  A    between atoms: C4_4  and  O1_5 
REMARK    4  A    between atoms: O1_5  and  C5_6 
REMARK    5  A    between atoms: C5_6  and  C6_7 
REMARK    6  A    between atoms: C6_7  and  O2_8 
REMARK    7  A    between atoms: C6_7  and  C7_10 
REMARK    8  A    between atoms: C7_10  and  O3_11 
REMARK    9  A    between atoms: C7_10  and  C8_13 
REMARK   10  A    between atoms: C8_13  and  O4_14 
REMARK   11  A    between atoms: C9_16  and  N1_17 
ROOT
HETATM    1  C1  UNL     1      -3.477   4.080   9.738  1.00  0.00     0.045 C 
HETATM    2  C2  UNL     1      -4.157   3.624  10.958  1.00  0.00    -0.056 C 
ENDROOT
BRANCH   2   3
HETATM    3  C3  UNL     1      -4.591   2.378  11.076  1.00  0.00     0.028 C 
HETATM    4  C4  UNL     1      -4.618   1.347  12.055  1.00  0.00     0.135 C 
BRANCH   4   5
HETATM    5  O1  UNL     1      -4.113   1.385  13.279  1.00  0.00    -0.360 OA
BRANCH   5   6
HETATM    6  C5  UNL     1      -4.861   1.698  14.369  1.00  0.00     0.208 C 
BRANCH   6   7
HETATM    7  C6  UNL     1      -4.560   0.771  15.554  1.00  0.00     0.173 C 
BRANCH   7   8
HETATM    8  O2  UNL     1      -4.946  -0.517  15.284  1.00  0.00    -0.391 OA
ATOM      9  H2  UNL     1      -5.169  -0.981  16.082  1.00  0.00     0.210 HD
ENDBRANCH   7   8
BRANCH   7  10
HETATM   10  C7  UNL     1      -5.336   1.349  16.740  1.00  0.00     0.172 C 
BRANCH  10  11
HETATM   11  O3  UNL     1      -5.303   0.427  17.785  1.00  0.00    -0.391 OA
ATOM     12  H3  UNL     1      -4.684   0.731  18.439  1.00  0.00     0.210 HD
ENDBRANCH  10  11
BRANCH  10  13
HETATM   13  C8  UNL     1      -6.764   1.657  16.333  1.00  0.00     0.198 C 
BRANCH  13  14
HETATM   14  O4  UNL     1      -7.511   0.502  16.546  1.00  0.00    -0.398 OA
ATOM     15  H4  UNL     1      -8.418   0.715  16.359  1.00  0.00     0.209 HD
ENDBRANCH  13  14
ENDBRANCH  10  13
ENDBRANCH   7  10
ENDBRANCH   6   7
ENDBRANCH   5   6
ENDBRANCH   4   5
ENDBRANCH   2   3
BRANCH   2  16
HETATM   16  C9  UNL     1      -4.486   4.534  12.084  1.00  0.00     0.271 C 
BRANCH  16  17
HETATM   17  N1  UNL     1      -3.466   5.232  12.781  1.00  0.00    -0.063 N 
HETATM   18  C10 UNL     1      -2.320   4.443  13.086  1.00  0.00     0.238 C 
HETATM   19  C11 UNL     1      -1.416   5.229  14.047  1.00  0.00     0.035 C 
HETATM   20  C12 UNL     1      -1.304   6.610  13.512  1.00  0.00     0.023 C 
HETATM   21  C13 UNL     1      -1.637   6.636  12.039  1.00  0.00     0.035 C 
HETATM   22  C15 UNL     1      -2.217   7.598  14.169  1.00  0.00     0.068 C 
HETATM   23  C14 UNL     1      -3.100   6.365  11.895  1.00  0.00     0.238 C 
HETATM   24  C16 UNL     1      -1.558   8.208  15.387  1.00  0.00     0.065 C 
HETATM   25  O5  UNL     1      -2.104   8.848  13.551  1.00  0.00    -0.380 OA
HETATM   26  C18 UNL     1      -3.597   7.127  14.402  1.00  0.00     0.066 C 
HETATM   27  C17 UNL     1      -2.059   9.508  14.783  1.00  0.00     0.171 C 
HETATM   28  C19 UNL     1      -3.947   5.757  14.053  1.00  0.00     0.240 C 
ENDBRANCH  16  17
ENDBRANCH   2  16
TORSDOF 11
ENDMDL
MODEL 2
REMARK VINA RESULT: -6.855795474      0.885      1.428
REMARK  11 active torsions:
REMARK  status: ('A' for Active; 'I' for Inactive)
REMARK    1  A    between atoms: C2_2  and  C3_3 
REMARK    2  A    between atoms: C2_2  and  C9_16 
REMARK    3  A    between atoms: C4_4  and  O1_5 
REMARK    4  A    between atoms: O1_5  and  C5_6 
REMARK    5  A    between atoms: C5_6  and  C6_7 
REMARK    6  A    between atoms: C6_7  and  O2_8 
REMARK    7  A    between atoms: C6_7  and  C7_10 
REMARK    8  A    between atoms: C7_10  and  O3_11 
REMARK    9  A    between atoms: C7_10  and  C8_13 
REMARK   10  A    between atoms: C8_13  and  O4_14 
REMARK   11  A    between atoms: C9_16  and  N1_17 
ROOT
HETATM    1  C1  UNL     1      -3.242   4.112   9.855  1.00  0.00     0.045 C 
HETATM    2  C2  UNL     1      -4.161   3.719  10.932  1.00  0.00    -0.056 C 
ENDROOT
BRANCH   2   3
HETATM    3  C3  UNL     1      -4.464   2.447  11.145  1.00  0.00     0.028 C 
HETATM    4  C4  UNL     1      -4.449   1.513  12.217  1.00  0.00     0.135 C 
BRANCH   4   5
HETATM    5  O1  UNL     1      -4.042   1.720  13.460  1.00  0.00    -0.360 OA
BRANCH   5   6
HETATM    6  C5  UNL     1      -4.906   1.835  14.503  1.00  0.00     0.208 C 
BRANCH   6   7
HETATM    7  C6  UNL     1      -4.596   0.824  15.615  1.00  0.00     0.173 C 
BRANCH   7   8
HETATM    8  O2  UNL     1      -4.984  -0.441  15.253  1.00  0.00    -0.391 OA
ATOM      9  H2  UNL     1      -5.908  -0.578  15.429  1.00  0.00     0.210 HD
ENDBRANCH   7   8
BRANCH   7  10
HETATM   10  C7  UNL     1      -5.364   1.313  16.845  1.00  0.00     0.172 C 
BRANCH  10  11
HETATM   11  O3  UNL     1      -5.340   0.310  17.813  1.00  0.00    -0.391 OA
ATOM     12  H3  UNL     1      -5.462   0.709  18.667  1.00  0.00     0.210 HD
ENDBRANCH  10  11
BRANCH  10  13
HETATM   13  C8  UNL     1      -6.790   1.666  16.467  1.00  0.00     0.198 C 
BRANCH  13  14
HETATM   14  O4  UNL     1      -7.535   0.493  16.526  1.00  0.00    -0.398 OA
ATOM     15  H4  UNL     1      -8.396   0.689  16.176  1.00  0.00     0.209 HD
ENDBRANCH  13  14
ENDBRANCH  10  13
ENDBRANCH   7  10
ENDBRANCH   6   7
ENDBRANCH   5   6
ENDBRANCH   4   5
ENDBRANCH   2   3
BRANCH   2  16
HETATM   16  C9  UNL     1      -4.877   4.706  11.779  1.00  0.00     0.271 C 
BRANCH  16  17
HETATM   17  N1  UNL     1      -4.175   5.517  12.707  1.00  0.00    -0.063 N 
HETATM   18  C10 UNL     1      -4.700   5.481  14.031  1.00  0.00     0.238 C 
HETATM   19  C11 UNL     1      -4.022   6.578  14.866  1.00  0.00     0.035 C 
HETATM   20  C12 UNL     1      -2.564   6.499  14.592  1.00  0.00     0.023 C 
HETATM   21  C13 UNL     1      -2.200   5.135  14.056  1.00  0.00     0.035 C 
HETATM   22  C15 UNL     1      -2.076   7.494  13.585  1.00  0.00     0.068 C 
HETATM   23  C14 UNL     1      -2.780   5.011  12.684  1.00  0.00     0.238 C 
HETATM   24  C16 UNL     1      -1.697   8.795  14.259  1.00  0.00     0.065 C 
HETATM   25  O5  UNL     1      -0.715   7.294  13.330  1.00  0.00    -0.380 OA
HETATM   26  C18 UNL     1      -2.928   7.658  12.392  1.00  0.00     0.066 C 
HETATM   27  C17 UNL     1      -0.450   8.666  13.402  1.00  0.00     0.171 C 
HETATM   28  C19 UNL     1      -4.181   6.919  12.308  1.00  0.00     0.240 C 
ENDBRANCH  16  17
ENDBRANCH   2  16
TORSDOF 11
ENDMDL
MODEL 3
REMARK VINA RESULT: -6.818312561      2.282      4.303
REMARK  11 active torsions:
REMARK  status: ('A' for Active; 'I' for Inactive)
REMARK    1  A    between atoms: C2_2  and  C3_3 
REMARK    2  A    between atoms: C2_2  and  C9_16 
REMARK    3  A    between atoms: C4_4  and  O1_5 
REMARK    4  A    between atoms: O1_5  and  C5_6 
REMARK    5  A    between atoms: C5_6  and  C6_7 
REMARK    6  A    between atoms: C6_7  and  O2_8 
REMARK    7  A    between atoms: C6_7  and  C7_10 
REMARK    8  A    between atoms: C7_10  and  O3_11 
REMARK    9  A    between atoms: C7_10  and  C8_13 
REMARK   10  A    between atoms: C8_13  and  O4_14 
REMARK   11  A    between atoms: C9_16  and  N1_17 
ROOT
HETATM    1  C1  UNL     1      -6.417   5.644  13.727  1.00  0.00     0.045 C 
HETATM    2  C2  UNL     1      -4.967   5.843  13.584  1.00  0.00    -0.056 C 
ENDROOT
BRANCH   2   3
HETATM    3  C3  UNL     1      -4.115   5.305  14.444  1.00  0.00     0.028 C 
HETATM    4  C4  UNL     1      -3.487   4.052  14.679  1.00  0.00     0.135 C 
BRANCH   4   5
HETATM    5  O1  UNL     1      -3.647   2.930  13.994  1.00  0.00    -0.360 OA
BRANCH   5   6
HETATM    6  C5  UNL     1      -4.532   1.966  14.363  1.00  0.00     0.208 C 
BRANCH   6   7
HETATM    7  C6  UNL     1      -4.538   1.747  15.881  1.00  0.00     0.173 C 
BRANCH   7   8
HETATM    8  O2  UNL     1      -3.783   0.655  16.225  1.00  0.00    -0.391 OA
ATOM      9  H2  UNL     1      -4.307   0.008  16.681  1.00  0.00     0.210 HD
ENDBRANCH   7   8
BRANCH   7  10
HETATM   10  C7  UNL     1      -6.006   1.554  16.267  1.00  0.00     0.172 C 
BRANCH  10  11
HETATM   11  O3  UNL     1      -6.618   2.805  16.333  1.00  0.00    -0.391 OA
ATOM     12  H3  UNL     1      -6.077   3.380  16.862  1.00  0.00     0.210 HD
ENDBRANCH  10  11
BRANCH  10  13
HETATM   13  C8  UNL     1      -6.108   0.829  17.595  1.00  0.00     0.198 C 
BRANCH  13  14
HETATM   14  O4  UNL     1      -6.102  -0.535  17.322  1.00  0.00    -0.398 OA
ATOM     15  H4  UNL     1      -5.264  -0.876  17.613  1.00  0.00     0.209 HD
ENDBRANCH  13  14
ENDBRANCH  10  13
ENDBRANCH   7  10
ENDBRANCH   6   7
ENDBRANCH   5   6
ENDBRANCH   4   5
ENDBRANCH   2   3
BRANCH   2  16
HETATM   16  C9  UNL     1      -4.374   6.721  12.546  1.00  0.00     0.271 C 
BRANCH  16  17
HETATM   17  N1  UNL     1      -3.671   6.175  11.441  1.00  0.00    -0.063 N 
HETATM   18  C10 UNL     1      -2.357   5.719  11.751  1.00  0.00     0.238 C 
HETATM   19  C11 UNL     1      -1.622   5.391  10.443  1.00  0.00     0.035 C 
HETATM   20  C12 UNL     1      -2.555   4.598   9.603  1.00  0.00     0.023 C 
HETATM   21  C13 UNL     1      -3.626   3.962  10.457  1.00  0.00     0.035 C 
HETATM   22  C15 UNL     1      -3.268   5.399   8.557  1.00  0.00     0.068 C 
HETATM   23  C14 UNL     1      -4.515   5.051  10.965  1.00  0.00     0.238 C 
HETATM   24  C16 UNL     1      -2.454   5.458   7.282  1.00  0.00     0.065 C 
HETATM   25  O5  UNL     1      -4.181   4.591   7.870  1.00  0.00    -0.380 OA
HETATM   26  C18 UNL     1      -3.786   6.706   9.004  1.00  0.00     0.066 C 
HETATM   27  C17 UNL     1      -3.781   5.107   6.633  1.00  0.00     0.171 C 
HETATM   28  C19 UNL     1      -3.518   7.147  10.366  1.00  0.00     0.240 C 
ENDBRANCH  16  17
ENDBRANCH   2  16
TORSDOF 11
ENDMDL
MODEL 4
REMARK VINA RESULT: -6.793376564      3.163      4.704
REMARK  11 active torsions:
REMARK  status: ('A' for Active; 'I' for Inactive)
REMARK    1  A    between atoms: C2_2  and  C3_3 
REMARK    2  A    between atoms: C2_2  and  C9_16 
REMARK    3  A    between atoms: C4_4  and  O1_5 
REMARK    4  A    between atoms: O1_5  and  C5_6 
REMARK    5  A    between atoms: C5_6  and  C6_7 
REMARK    6  A    between atoms: C6_7  and  O2_8 
REMARK    7  A    between atoms: C6_7  and  C7_10 
REMARK    8  A    between atoms: C7_10  and  O3_11 
REMARK    9  A    between atoms: C7_10  and  C8_13 
REMARK   10  A    between atoms: C8_13  and  O4_14 
REMARK   11  A    between atoms: C9_16  and  N1_17 
ROOT
HETATM    1  C1  UNL     1      -3.443   6.765  14.621  1.00  0.00     0.045 C 
HETATM    2  C2  UNL     1      -4.470   6.004  13.895  1.00  0.00    -0.056 C 
ENDROOT
BRANCH   2   3
HETATM    3  C3  UNL     1      -5.561   5.569  14.509  1.00  0.00     0.028 C 
HETATM    4  C4  UNL     1      -6.349   4.388  14.570  1.00  0.00     0.135 C 
BRANCH   4   5
HETATM    5  O1  UNL     1      -6.163   3.259  13.902  1.00  0.00    -0.360 OA
BRANCH   5   6
HETATM    6  C5  UNL     1      -5.371   2.257  14.365  1.00  0.00     0.208 C 
BRANCH   6   7
HETATM    7  C6  UNL     1      -4.648   2.651  15.659  1.00  0.00     0.173 C 
BRANCH   7   8
HETATM    8  O2  UNL     1      -3.344   2.998  15.410  1.00  0.00    -0.391 OA
ATOM      9  H2  UNL     1      -2.821   2.951  16.201  1.00  0.00     0.210 HD
ENDBRANCH   7   8
BRANCH   7  10
HETATM   10  C7  UNL     1      -4.734   1.426  16.572  1.00  0.00     0.172 C 
BRANCH  10  11
HETATM   11  O3  UNL     1      -3.778   0.497  16.163  1.00  0.00    -0.391 OA
ATOM     12  H3  UNL     1      -3.847   0.386  15.221  1.00  0.00     0.210 HD
ENDBRANCH  10  11
BRANCH  10  13
HETATM   13  C8  UNL     1      -6.127   0.829  16.520  1.00  0.00     0.198 C 
BRANCH  13  14
HETATM   14  O4  UNL     1      -6.099  -0.349  17.259  1.00  0.00    -0.398 OA
ATOM     15  H4  UNL     1      -6.242  -0.114  18.168  1.00  0.00     0.209 HD
ENDBRANCH  13  14
ENDBRANCH  10  13
ENDBRANCH   7  10
ENDBRANCH   6   7
ENDBRANCH   5   6
ENDBRANCH   4   5
ENDBRANCH   2   3
BRANCH   2  16
HETATM   16  C9  UNL     1      -4.316   5.593  12.477  1.00  0.00     0.271 C 
BRANCH  16  17
HETATM   17  N1  UNL     1      -4.760   6.431  11.422  1.00  0.00    -0.063 N 
HETATM   18  C10 UNL     1      -3.964   7.595  11.223  1.00  0.00     0.238 C 
HETATM   19  C11 UNL     1      -4.684   8.530  10.240  1.00  0.00     0.035 C 
HETATM   20  C12 UNL     1      -5.156   7.694   9.107  1.00  0.00     0.023 C 
HETATM   21  C13 UNL     1      -4.367   6.409   9.032  1.00  0.00     0.035 C 
HETATM   22  C15 UNL     1      -6.599   7.300   9.197  1.00  0.00     0.068 C 
HETATM   23  C14 UNL     1      -4.740   5.572  10.213  1.00  0.00     0.238 C 
HETATM   24  C16 UNL     1      -7.481   8.349   8.556  1.00  0.00     0.065 C 
HETATM   25  O5  UNL     1      -6.934   6.451   8.136  1.00  0.00    -0.380 OA
HETATM   26  C18 UNL     1      -7.053   6.860  10.530  1.00  0.00     0.066 C 
HETATM   27  C17 UNL     1      -8.124   7.144   7.894  1.00  0.00     0.171 C 
HETATM   28  C19 UNL     1      -6.120   6.905  11.648  1.00  0.00     0.240 C 
ENDBRANCH  16  17
ENDBRANCH   2  16
TORSDOF 11
ENDMDL
MODEL 5
REMARK VINA RESULT: -6.707371607      3.077      4.586
REMARK  11 active torsions:
REMARK  status: ('A' for Active; 'I' for Inactive)
REMARK    1  A    between atoms: C2_2  and  C3_3 
REMARK    2  A    between atoms: C2_2  and  C9_16 
REMARK    3  A    between atoms: C4_4  and  O1_5 
REMARK    4  A    between atoms: O1_5  and  C5_6 
REMARK    5  A    between atoms: C5_6  and  C6_7 
REMARK    6  A    between atoms: C6_7  and  O2_8 
REMARK    7  A    between atoms: C6_7  and  C7_10 
REMARK    8  A    between atoms: C7_10  and  O3_11 
REMARK    9  A    between atoms: C7_10  and  C8_13 
REMARK   10  A    between atoms: C8_13  and  O4_14 
REMARK   11  A    between atoms: C9_16  and  N1_17 
ROOT
HETATM    1  C1  UNL     1      -3.443   6.905  14.538  1.00  0.00     0.045 C 
HETATM    2  C2  UNL     1      -4.335   6.008  13.791  1.00  0.00    -0.056 C 
ENDROOT
BRANCH   2   3
HETATM    3  C3  UNL     1      -5.337   5.383  14.391  1.00  0.00     0.028 C 
HETATM    4  C4  UNL     1      -5.724   4.054  14.713  1.00  0.00     0.135 C 
BRANCH   4   5
HETATM    5  O1  UNL     1      -5.078   2.934  14.424  1.00  0.00    -0.360 OA
BRANCH   5   6
HETATM    6  C5  UNL     1      -5.383   1.743  15.002  1.00  0.00     0.208 C 
BRANCH   6   7
HETATM    7  C6  UNL     1      -4.691   1.573  16.361  1.00  0.00     0.173 C 
BRANCH   7   8
HETATM    8  O2  UNL     1      -3.617   0.726  16.264  1.00  0.00    -0.391 OA
ATOM      9  H2  UNL     1      -3.076   0.771  17.043  1.00  0.00     0.210 HD
ENDBRANCH   7   8
BRANCH   7  10
HETATM   10  C7  UNL     1      -5.760   1.013  17.303  1.00  0.00     0.172 C 
BRANCH  10  11
HETATM   11  O3  UNL     1      -5.870  -0.360  17.086  1.00  0.00    -0.391 OA
ATOM     12  H3  UNL     1      -6.782  -0.610  17.181  1.00  0.00     0.210 HD
ENDBRANCH  10  11
BRANCH  10  13
HETATM   13  C8  UNL     1      -7.086   1.708  17.063  1.00  0.00     0.198 C 
BRANCH  13  14
HETATM   14  O4  UNL     1      -8.048   0.716  16.903  1.00  0.00    -0.398 OA
ATOM     15  H4  UNL     1      -7.675   0.052  16.335  1.00  0.00     0.209 HD
ENDBRANCH  13  14
ENDBRANCH  10  13
ENDBRANCH   7  10
ENDBRANCH   6   7
ENDBRANCH   5   6
ENDBRANCH   4   5
ENDBRANCH   2   3
BRANCH   2  16
HETATM   16  C9  UNL     1      -4.122   5.669  12.361  1.00  0.00     0.271 C 
BRANCH  16  17
HETATM   17  N1  UNL     1      -4.626   6.503  11.330  1.00  0.00    -0.063 N 
HETATM   18  C10 UNL     1      -3.886   7.704  11.134  1.00  0.00     0.238 C 
HETATM   19  C11 UNL     1      -4.667   8.621  10.182  1.00  0.00     0.035 C 
HETATM   20  C12 UNL     1      -5.128   7.783   9.046  1.00  0.00     0.023 C 
HETATM   21  C13 UNL     1      -4.285   6.536   8.932  1.00  0.00     0.035 C 
HETATM   22  C15 UNL     1      -6.549   7.325   9.159  1.00  0.00     0.068 C 
HETATM   23  C14 UNL     1      -4.595   5.664  10.106  1.00  0.00     0.238 C 
HETATM   24  C16 UNL     1      -7.490   8.345   8.556  1.00  0.00     0.065 C 
HETATM   25  O5  UNL     1      -6.871   6.479   8.092  1.00  0.00    -0.380 OA
HETATM   26  C18 UNL     1      -6.954   6.845  10.495  1.00  0.00     0.066 C 
HETATM   27  C17 UNL     1      -8.095   7.123   7.887  1.00  0.00     0.171 C 
HETATM   28  C19 UNL     1      -5.999   6.913  11.593  1.00  0.00     0.240 C 
ENDBRANCH  16  17
ENDBRANCH   2  16
TORSDOF 11
ENDMDL
