MODEL 1
REMARK VINA RESULT: -7.350832821      0.000      0.000
REMARK  5 active torsions:
REMARK  status: ('A' for Active; 'I' for Inactive)
REMARK    1  A    between atoms: C7_9  and  C8_10 
REMARK    2  A    between atoms: C8_10  and  S1_11 
REMARK    3  A    between atoms: S1_11  and  C9_12 
REMARK    4  A    between atoms: C9_12  and  C10_13 
REMARK    5  A    between atoms: C10_13  and  N2_14 
REMARK       I    between atoms: C11_16  and  N4_18 
ROOT
HETATM    1  C8  UNL     1      -3.845   3.682  11.146  1.00  0.00     0.148 A 
HETATM    2  C13 UNL     1      -3.727   4.014   9.760  1.00  0.00     0.221 A 
HETATM    3  O2  UNL     1      -4.832   4.574  10.562  1.00  0.00    -0.361 OA
ENDROOT
BRANCH   1   4
HETATM    4  C7  UNL     1      -4.371   2.377  11.629  1.00  0.00     0.134 C 
HETATM    5  N1  UNL     1      -3.315   1.671  12.323  1.00  0.00    -0.188 NA
HETATM    6  O1  UNL     1      -3.656   0.486  12.819  1.00  0.00    -0.298 OA
HETATM    7  C3  UNL     1      -2.187   1.528  11.436  1.00  0.00     0.121 C 
HETATM    8  C2  UNL     1      -4.239  -0.349  11.906  1.00  0.00     0.145 C 
HETATM    9  C1  UNL     1      -3.662  -1.746  11.913  1.00  0.00     0.042 C 
HETATM   10  C5  UNL     1      -4.061   0.229  10.525  1.00  0.00     0.019 C 
HETATM   11  C4  UNL     1      -2.617   0.605  10.321  1.00  0.00     0.024 C 
HETATM   12  C6  UNL     1      -4.869   1.529  10.494  1.00  0.00     0.033 C 
ENDBRANCH   1   4
BRANCH   1  13
HETATM   13  S1  UNL     1      -2.755   4.606  12.266  1.00  0.00    -0.126 SA
BRANCH  13  14
HETATM   14  C9  UNL     1      -3.446   5.017  13.847  1.00  0.00     0.097 C 
BRANCH  14  15
HETATM   15  C10 UNL     1      -3.262   4.010  14.945  1.00  0.00     0.132 C 
BRANCH  15  16
HETATM   16  N2  UNL     1      -4.562   3.315  15.062  1.00  0.00    -0.364 N 
HETATM   17  C11 UNL     1      -4.614   2.182  15.702  1.00  0.00     0.190 C 
HETATM   18  N3  UNL     1      -3.413   1.643  16.275  1.00  0.00    -0.063 NA
HETATM   19  N4  UNL     1      -5.800   1.447  15.863  1.00  0.00    -0.307 N 
HETATM   20  C12 UNL     1      -6.364   1.171  16.976  1.00  0.00     0.203 C 
ATOM     21  H4  UNL     1      -6.252   1.102  15.016  1.00  0.00     0.170 HD
HETATM   22  N5  UNL     1      -7.562   0.421  17.036  1.00  0.00    -0.066 NA
HETATM   23  N6  UNL     1      -5.780   1.623  18.179  1.00  0.00    -0.066 NA
ATOM     24  H2  UNL     1      -5.404   3.716  14.648  1.00  0.00     0.162 HD
ENDBRANCH  15  16
ENDBRANCH  14  15
ENDBRANCH  13  14
ENDBRANCH   1  13
TORSDOF 5
ENDMDL
MODEL 2
REMARK VINA RESULT: -7.261905732      1.192      1.483
REMARK  5 active torsions:
REMARK  status: ('A' for Active; 'I' for Inactive)
REMARK    1  A    between atoms: C7_9  and  C8_10 
REMARK    2  A    between atoms: C8_10  and  S1_11 
REMARK    3  A    between atoms: S1_11  and  C9_12 
REMARK    4  A    between atoms: C9_12  and  C10_13 
REMARK    5  A    between atoms: C10_13  and  N2_14 
REMARK       I    between atoms: C11_16  and  N4_18 
ROOT
HETATM    1  C8  UNL     1      -4.198   3.223  11.502  1.00  0.00     0.148 A 
HETATM    2  C13 UNL     1      -3.751   3.727  10.241  1.00  0.00     0.221 A 
HETATM    3  O2  UNL     1      -5.128   3.997  10.698  1.00  0.00    -0.361 OA
ENDROOT
BRANCH   1   4
HETATM    4  C7  UNL     1      -4.577   1.802  11.723  1.00  0.00     0.134 C 
HETATM    5  N1  UNL     1      -3.501   1.130  12.423  1.00  0.00    -0.188 NA
HETATM    6  O1  UNL     1      -3.716  -0.152  12.694  1.00  0.00    -0.298 OA
HETATM    7  C3  UNL     1      -2.286   1.276  11.660  1.00  0.00     0.121 C 
HETATM    8  C2  UNL     1      -4.085  -0.895  11.607  1.00  0.00     0.145 C 
HETATM    9  C1  UNL     1      -3.319  -2.191  11.474  1.00  0.00     0.042 C 
HETATM   10  C5  UNL     1      -3.861  -0.083  10.357  1.00  0.00     0.019 C 
HETATM   11  C4  UNL     1      -2.473   0.500  10.378  1.00  0.00     0.024 C 
HETATM   12  C6  UNL     1      -4.840   1.093  10.425  1.00  0.00     0.033 C 
ENDBRANCH   1   4
BRANCH   1  13
HETATM   13  S1  UNL     1      -3.682   4.182  12.955  1.00  0.00    -0.126 SA
BRANCH  13  14
HETATM   14  C9  UNL     1      -4.911   5.261  13.642  1.00  0.00     0.097 C 
BRANCH  14  15
HETATM   15  C10 UNL     1      -6.141   4.609  14.205  1.00  0.00     0.132 C 
BRANCH  15  16
HETATM   16  N2  UNL     1      -5.688   3.301  14.726  1.00  0.00    -0.364 N 
HETATM   17  C11 UNL     1      -6.033   2.951  15.932  1.00  0.00     0.190 C 
HETATM   18  N3  UNL     1      -6.840   3.840  16.718  1.00  0.00    -0.063 NA
HETATM   19  N4  UNL     1      -5.650   1.731  16.515  1.00  0.00    -0.307 N 
HETATM   20  C12 UNL     1      -6.442   0.802  16.892  1.00  0.00     0.203 C 
ATOM     21  H4  UNL     1      -4.651   1.572  16.648  1.00  0.00     0.170 HD
HETATM   22  N5  UNL     1      -5.959  -0.396  17.471  1.00  0.00    -0.066 NA
HETATM   23  N6  UNL     1      -7.834   0.970  16.732  1.00  0.00    -0.066 NA
ATOM     24  H2  UNL     1      -5.116   2.682  14.151  1.00  0.00     0.162 HD
ENDBRANCH  15  16
ENDBRANCH  14  15
ENDBRANCH  13  14
ENDBRANCH   1  13
TORSDOF 5
ENDMDL
MODEL 3
REMARK VINA RESULT: -7.126653796      2.752      5.035
REMARK  5 active torsions:
REMARK  status: ('A' for Active; 'I' for Inactive)
REMARK    1  A    between atoms: C7_9  and  C8_10 
REMARK    2  A    between atoms: C8_10  and  S1_11 
REMARK    3  A    between atoms: S1_11  and  C9_12 
REMARK    4  A    between atoms: C9_12  and  C10_13 
REMARK    5  A    between atoms: C10_13  and  N2_14 
REMARK       I    between atoms: C11_16  and  N4_18 
ROOT
HETATM    1  C8  UNL     1      -2.956   4.990  11.367  1.00  0.00     0.148 A 
HETATM    2  C13 UNL     1      -1.985   5.834  11.992  1.00  0.00     0.221 A 
HETATM    3  O2  UNL     1      -2.378   4.563  12.630  1.00  0.00    -0.361 OA
ENDROOT
BRANCH   1   4
HETATM    4  C7  UNL     1      -4.417   5.268  11.396  1.00  0.00     0.134 C 
HETATM    5  N1  UNL     1      -4.877   5.515  10.046  1.00  0.00    -0.188 NA
HETATM    6  O1  UNL     1      -6.176   5.769   9.927  1.00  0.00    -0.298 OA
HETATM    7  C3  UNL     1      -4.110   6.599   9.482  1.00  0.00     0.121 C 
HETATM    8  C2  UNL     1      -6.624   6.766  10.750  1.00  0.00     0.145 C 
HETATM    9  C1  UNL     1      -7.485   7.788  10.045  1.00  0.00     0.042 C 
HETATM   10  C5  UNL     1      -5.438   7.479  11.349  1.00  0.00     0.019 C 
HETATM   11  C4  UNL     1      -4.467   7.843  10.258  1.00  0.00     0.024 C 
HETATM   12  C6  UNL     1      -4.733   6.462  12.252  1.00  0.00     0.033 C 
ENDBRANCH   1   4
BRANCH   1  13
HETATM   13  S1  UNL     1      -2.334   3.952  10.013  1.00  0.00    -0.126 SA
BRANCH  13  14
HETATM   14  C9  UNL     1      -2.020   2.256  10.425  1.00  0.00     0.097 C 
BRANCH  14  15
HETATM   15  C10 UNL     1      -3.169   1.477  10.998  1.00  0.00     0.132 C 
BRANCH  15  16
HETATM   16  N2  UNL     1      -3.070   1.651  12.463  1.00  0.00    -0.364 N 
HETATM   17  C11 UNL     1      -4.151   1.550  13.182  1.00  0.00     0.190 C 
HETATM   18  N3  UNL     1      -5.402   1.274  12.536  1.00  0.00    -0.063 NA
HETATM   19  N4  UNL     1      -4.158   1.702  14.579  1.00  0.00    -0.307 N 
HETATM   20  C12 UNL     1      -4.485   0.804  15.427  1.00  0.00     0.203 C 
ATOM     21  H4  UNL     1      -3.877   2.610  14.950  1.00  0.00     0.170 HD
HETATM   22  N5  UNL     1      -4.460   1.052  16.820  1.00  0.00    -0.066 NA
HETATM   23  N6  UNL     1      -4.883  -0.470  14.968  1.00  0.00    -0.066 NA
ATOM     24  H2  UNL     1      -2.171   1.846  12.903  1.00  0.00     0.162 HD
ENDBRANCH  15  16
ENDBRANCH  14  15
ENDBRANCH  13  14
ENDBRANCH   1  13
TORSDOF 5
ENDMDL
MODEL 4
REMARK VINA RESULT: -7.089855816      3.255      5.350
REMARK  5 active torsions:
REMARK  status: ('A' for Active; 'I' for Inactive)
REMARK    1  A    between atoms: C7_9  and  C8_10 
REMARK    2  A    between atoms: C8_10  and  S1_11 
REMARK    3  A    between atoms: S1_11  and  C9_12 
REMARK    4  A    between atoms: C9_12  and  C10_13 
REMARK    5  A    between atoms: C10_13  and  N2_14 
REMARK       I    between atoms: C11_16  and  N4_18 
ROOT
HETATM    1  C8  UNL     1      -4.034   5.912  11.649  1.00  0.00     0.148 A 
HETATM    2  C13 UNL     1      -3.611   6.865  12.628  1.00  0.00     0.221 A 
HETATM    3  O2  UNL     1      -3.924   5.481  13.032  1.00  0.00    -0.361 OA
ENDROOT
BRANCH   1   4
HETATM    4  C7  UNL     1      -5.408   5.884  11.080  1.00  0.00     0.134 C 
HETATM    5  N1  UNL     1      -5.347   6.259   9.683  1.00  0.00    -0.188 NA
HETATM    6  O1  UNL     1      -6.513   6.265   9.046  1.00  0.00    -0.298 OA
HETATM    7  C3  UNL     1      -4.720   7.553   9.573  1.00  0.00     0.121 C 
HETATM    8  C2  UNL     1      -7.483   6.998   9.673  1.00  0.00     0.145 C 
HETATM    9  C1  UNL     1      -8.226   7.932   8.745  1.00  0.00     0.042 C 
HETATM   10  C5  UNL     1      -6.849   7.822  10.765  1.00  0.00     0.019 C 
HETATM   11  C4  UNL     1      -5.654   8.552  10.213  1.00  0.00     0.024 C 
HETATM   12  C6  UNL     1      -6.324   6.828  11.806  1.00  0.00     0.033 C 
ENDBRANCH   1   4
BRANCH   1  13
HETATM   13  S1  UNL     1      -2.707   5.169  10.657  1.00  0.00    -0.126 SA
BRANCH  13  14
HETATM   14  C9  UNL     1      -2.210   3.536  11.136  1.00  0.00     0.097 C 
BRANCH  14  15
HETATM   15  C10 UNL     1      -3.308   2.566  11.466  1.00  0.00     0.132 C 
BRANCH  15  16
HETATM   16  N2  UNL     1      -3.317   2.468  12.941  1.00  0.00    -0.364 N 
HETATM   17  C11 UNL     1      -4.383   2.014  13.535  1.00  0.00     0.190 C 
HETATM   18  N3  UNL     1      -5.514   1.621  12.744  1.00  0.00    -0.063 NA
HETATM   19  N4  UNL     1      -4.486   1.887  14.931  1.00  0.00    -0.307 N 
HETATM   20  C12 UNL     1      -4.652   0.794  15.571  1.00  0.00     0.203 C 
ATOM     21  H4  UNL     1      -4.424   2.743  15.481  1.00  0.00     0.170 HD
HETATM   22  N5  UNL     1      -4.745   0.767  16.983  1.00  0.00    -0.066 NA
HETATM   23  N6  UNL     1      -4.746  -0.420  14.858  1.00  0.00    -0.066 NA
ATOM     24  H2  UNL     1      -2.501   2.752  13.485  1.00  0.00     0.162 HD
ENDBRANCH  15  16
ENDBRANCH  14  15
ENDBRANCH  13  14
ENDBRANCH   1  13
TORSDOF 5
ENDMDL
MODEL 5
REMARK VINA RESULT: -7.026557677      2.153      4.439
REMARK  5 active torsions:
REMARK  status: ('A' for Active; 'I' for Inactive)
REMARK    1  A    between atoms: C7_9  and  C8_10 
REMARK    2  A    between atoms: C8_10  and  S1_11 
REMARK    3  A    between atoms: S1_11  and  C9_12 
REMARK    4  A    between atoms: C9_12  and  C10_13 
REMARK    5  A    between atoms: C10_13  and  N2_14 
REMARK       I    between atoms: C11_16  and  N4_18 
ROOT
HETATM    1  C8  UNL     1      -1.904   4.385  11.827  1.00  0.00     0.148 A 
HETATM    2  C13 UNL     1      -1.295   5.583  11.339  1.00  0.00     0.221 A 
HETATM    3  O2  UNL     1      -0.477   4.567  12.029  1.00  0.00    -0.361 OA
ENDROOT
BRANCH   1   4
HETATM    4  C7  UNL     1      -2.722   4.333  13.068  1.00  0.00     0.134 C 
HETATM    5  N1  UNL     1      -4.122   4.243  12.707  1.00  0.00    -0.188 NA
HETATM    6  O1  UNL     1      -4.967   4.179  13.730  1.00  0.00    -0.298 OA
HETATM    7  C3  UNL     1      -4.458   5.359  11.858  1.00  0.00     0.121 C 
HETATM    8  C2  UNL     1      -4.799   5.175  14.652  1.00  0.00     0.145 C 
HETATM    9  C1  UNL     1      -6.090   5.848  15.055  1.00  0.00     0.042 C 
HETATM   10  C5  UNL     1      -3.877   6.222  14.082  1.00  0.00     0.019 C 
HETATM   11  C4  UNL     1      -4.344   6.606  12.703  1.00  0.00     0.024 C 
HETATM   12  C6  UNL     1      -2.509   5.553  13.919  1.00  0.00     0.033 C 
ENDBRANCH   1   4
BRANCH   1  13
HETATM   13  S1  UNL     1      -2.198   3.095  10.583  1.00  0.00    -0.126 SA
BRANCH  13  14
HETATM   14  C9  UNL     1      -1.864   1.432  11.104  1.00  0.00     0.097 C 
BRANCH  14  15
HETATM   15  C10 UNL     1      -3.051   0.595  11.485  1.00  0.00     0.132 C 
BRANCH  15  16
HETATM   16  N2  UNL     1      -3.776   1.382  12.505  1.00  0.00    -0.364 N 
HETATM   17  C11 UNL     1      -4.425   0.752  13.442  1.00  0.00     0.190 C 
HETATM   18  N3  UNL     1      -4.416  -0.683  13.459  1.00  0.00    -0.063 NA
HETATM   19  N4  UNL     1      -5.145   1.412  14.452  1.00  0.00    -0.307 N 
HETATM   20  C12 UNL     1      -4.900   1.351  15.705  1.00  0.00     0.203 C 
ATOM     21  H4  UNL     1      -5.932   1.991  14.160  1.00  0.00     0.170 HD
HETATM   22  N5  UNL     1      -5.685   2.055  16.650  1.00  0.00    -0.066 NA
HETATM   23  N6  UNL     1      -3.823   0.564  16.164  1.00  0.00    -0.066 NA
ATOM     24  H2  UNL     1      -3.769   2.402  12.476  1.00  0.00     0.162 HD
ENDBRANCH  15  16
ENDBRANCH  14  15
ENDBRANCH  13  14
ENDBRANCH   1  13
TORSDOF 5
ENDMDL
