MODEL 1
REMARK VINA RESULT: -6.351703925      0.000      0.000
REMARK  10 active torsions:
REMARK  status: ('A' for Active; 'I' for Inactive)
REMARK    1  A    between atoms: O1_1  and  C1_3 
REMARK    2  A    between atoms: C1_3  and  C2_4 
REMARK    3  A    between atoms: C2_4  and  N1_5 
REMARK    4  A    between atoms: N1_5  and  C3_6 
REMARK    5  A    between atoms: N1_5  and  C5_10 
REMARK    6  A    between atoms: C3_6  and  C4_7 
REMARK    7  A    between atoms: C4_7  and  O2_8 
REMARK    8  A    between atoms: C5_10  and  N2_12 
REMARK    9  A    between atoms: C8_15  and  N3_16 
REMARK   10  A    between atoms: C14_22  and  O3_23 
ROOT
HETATM    1  N2  UNL     1      -3.137   4.052  12.452  1.00  0.00    -0.355 N 
HETATM    2  C6  UNL     1      -3.725   5.273  11.718  1.00  0.00     0.127 C 
HETATM    3  C7  UNL     1      -3.059   6.422  12.427  1.00  0.00     0.058 C 
HETATM    4  C8  UNL     1      -1.575   6.412  12.431  1.00  0.00     0.254 C 
HETATM    5  C14 UNL     1      -0.936   5.070  12.649  1.00  0.00     0.169 C 
HETATM    6  C15 UNL     1      -1.782   3.954  12.056  1.00  0.00     0.159 C 
ENDROOT
BRANCH   1   7
HETATM    7  C5  UNL     1      -3.977   3.343  13.295  1.00  0.00     0.175 C 
HETATM    8  S1  UNL     1      -4.718   4.438  14.436  1.00  0.00    -0.041 SA
BRANCH   7   9
HETATM    9  N1  UNL     1      -4.423   2.056  13.521  1.00  0.00    -0.334 N 
BRANCH   9  10
HETATM   10  C2  UNL     1      -5.103   1.809  14.883  1.00  0.00     0.156 C 
BRANCH  10  11
HETATM   11  C1  UNL     1      -4.672   0.517  15.460  1.00  0.00     0.184 C 
BRANCH  11  12
HETATM   12  O1  UNL     1      -3.632   0.832  16.378  1.00  0.00    -0.399 OA
ATOM     13  H1  UNL     1      -2.975   0.155  16.265  1.00  0.00     0.209 HD
ENDBRANCH  11  12
ENDBRANCH  10  11
ENDBRANCH   9  10
BRANCH   9  14
HETATM   14  C3  UNL     1      -4.411   0.827  12.820  1.00  0.00     0.092 C 
BRANCH  14  15
HETATM   15  C4  UNL     1      -4.634   0.671  11.392  1.00  0.00     0.208 C 
BRANCH  15  16
HETATM   16  O2  UNL     1      -5.811   1.420  11.066  1.00  0.00    -0.396 OA
ATOM     17  H2  UNL     1      -5.601   2.338  11.192  1.00  0.00     0.209 HD
ENDBRANCH  15  16
ENDBRANCH  14  15
ENDBRANCH   9  14
ENDBRANCH   7   9
ENDBRANCH   1   7
BRANCH   5  18
HETATM   18  O3  UNL     1       0.302   5.013  12.025  1.00  0.00    -0.392 OA
ATOM     19  H3  UNL     1       0.563   4.111  11.885  1.00  0.00     0.210 HD
ENDBRANCH   5  18
BRANCH   4  20
HETATM   20  N3  UNL     1      -1.103   7.362  13.420  1.00  0.00     0.095 N 
HETATM   21  C9  UNL     1      -0.799   8.657  12.866  1.00  0.00     0.273 C 
HETATM   22  C10 UNL     1      -0.312   9.517  14.028  1.00  0.00     0.030 C 
HETATM   23  C11 UNL     1      -1.562   9.828  14.841  1.00  0.00     0.003 C 
HETATM   24  C12 UNL     1      -2.027   8.530  15.409  1.00  0.00     0.030 C 
HETATM   25  C13 UNL     1      -2.115   7.398  14.452  1.00  0.00     0.273 C 
ENDBRANCH   4  20
TORSDOF 10
ENDMDL
MODEL 2
REMARK VINA RESULT: -6.284937371      2.658      4.340
REMARK  10 active torsions:
REMARK  status: ('A' for Active; 'I' for Inactive)
REMARK    1  A    between atoms: O1_1  and  C1_3 
REMARK    2  A    between atoms: C1_3  and  C2_4 
REMARK    3  A    between atoms: C2_4  and  N1_5 
REMARK    4  A    between atoms: N1_5  and  C3_6 
REMARK    5  A    between atoms: N1_5  and  C5_10 
REMARK    6  A    between atoms: C3_6  and  C4_7 
REMARK    7  A    between atoms: C4_7  and  O2_8 
REMARK    8  A    between atoms: C5_10  and  N2_12 
REMARK    9  A    between atoms: C8_15  and  N3_16 
REMARK   10  A    between atoms: C14_22  and  O3_23 
ROOT
HETATM    1  N2  UNL     1      -3.768   4.320  12.091  1.00  0.00    -0.355 N 
HETATM    2  C6  UNL     1      -2.728   5.447  12.241  1.00  0.00     0.127 C 
HETATM    3  C7  UNL     1      -1.619   4.979  11.337  1.00  0.00     0.058 C 
HETATM    4  C8  UNL     1      -1.995   4.727   9.923  1.00  0.00     0.254 C 
HETATM    5  C14 UNL     1      -3.318   4.048   9.715  1.00  0.00     0.169 C 
HETATM    6  C15 UNL     1      -4.316   4.445  10.792  1.00  0.00     0.159 C 
ENDROOT
BRANCH   1   7
HETATM    7  C5  UNL     1      -3.952   3.466  13.166  1.00  0.00     0.175 C 
HETATM    8  S1  UNL     1      -3.511   4.287  14.643  1.00  0.00    -0.041 SA
BRANCH   7   9
HETATM    9  N1  UNL     1      -4.378   2.184  13.450  1.00  0.00    -0.334 N 
BRANCH   9  10
HETATM   10  C2  UNL     1      -4.979   1.971  14.854  1.00  0.00     0.156 C 
BRANCH  10  11
HETATM   11  C1  UNL     1      -4.663   0.618  15.362  1.00  0.00     0.184 C 
BRANCH  11  12
HETATM   12  O1  UNL     1      -3.650   0.803  16.344  1.00  0.00    -0.399 OA
ATOM     13  H1  UNL     1      -3.125   0.012  16.323  1.00  0.00     0.209 HD
ENDBRANCH  11  12
ENDBRANCH  10  11
ENDBRANCH   9  10
BRANCH   9  14
HETATM   14  C3  UNL     1      -4.397   0.937  12.782  1.00  0.00     0.092 C 
BRANCH  14  15
HETATM   15  C4  UNL     1      -4.601   0.751  11.354  1.00  0.00     0.208 C 
BRANCH  15  16
HETATM   16  O2  UNL     1      -5.833   1.400  11.018  1.00  0.00    -0.396 OA
ATOM     17  H2  UNL     1      -6.350   0.777  10.519  1.00  0.00     0.209 HD
ENDBRANCH  15  16
ENDBRANCH  14  15
ENDBRANCH   9  14
ENDBRANCH   7   9
ENDBRANCH   1   7
BRANCH   5  18
HETATM   18  O3  UNL     1      -3.869   4.419   8.498  1.00  0.00    -0.392 OA
ATOM     19  H3  UNL     1      -4.682   3.953   8.345  1.00  0.00     0.210 HD
ENDBRANCH   5  18
BRANCH   4  20
HETATM   20  N3  UNL     1      -0.933   3.971   9.285  1.00  0.00     0.095 N 
HETATM   21  C9  UNL     1      -0.556   4.496   7.997  1.00  0.00     0.273 C 
HETATM   22  C10 UNL     1       0.549   3.585   7.470  1.00  0.00     0.030 C 
HETATM   23  C11 UNL     1       1.776   3.929   8.303  1.00  0.00     0.003 C 
HETATM   24  C12 UNL     1       1.471   3.502   9.699  1.00  0.00     0.030 C 
HETATM   25  C13 UNL     1       0.155   3.932  10.235  1.00  0.00     0.273 C 
ENDBRANCH   4  20
TORSDOF 10
ENDMDL
MODEL 3
REMARK VINA RESULT: -6.233956223      3.275      5.615
REMARK  10 active torsions:
REMARK  status: ('A' for Active; 'I' for Inactive)
REMARK    1  A    between atoms: O1_1  and  C1_3 
REMARK    2  A    between atoms: C1_3  and  C2_4 
REMARK    3  A    between atoms: C2_4  and  N1_5 
REMARK    4  A    between atoms: N1_5  and  C3_6 
REMARK    5  A    between atoms: N1_5  and  C5_10 
REMARK    6  A    between atoms: C3_6  and  C4_7 
REMARK    7  A    between atoms: C4_7  and  O2_8 
REMARK    8  A    between atoms: C5_10  and  N2_12 
REMARK    9  A    between atoms: C8_15  and  N3_16 
REMARK   10  A    between atoms: C14_22  and  O3_23 
ROOT
HETATM    1  N2  UNL     1      -4.703   4.534  13.692  1.00  0.00    -0.355 N 
HETATM    2  C6  UNL     1      -3.164   4.477  13.758  1.00  0.00     0.127 C 
HETATM    3  C7  UNL     1      -2.847   3.355  12.806  1.00  0.00     0.058 C 
HETATM    4  C8  UNL     1      -3.359   3.512  11.421  1.00  0.00     0.254 C 
HETATM    5  C14 UNL     1      -4.745   4.077  11.303  1.00  0.00     0.169 C 
HETATM    6  C15 UNL     1      -5.036   5.065  12.423  1.00  0.00     0.159 C 
ENDROOT
BRANCH   1   7
HETATM    7  C5  UNL     1      -5.411   4.089  14.796  1.00  0.00     0.175 C 
HETATM    8  S1  UNL     1      -6.270   5.428  15.516  1.00  0.00    -0.041 SA
BRANCH   7   9
HETATM    9  N1  UNL     1      -5.665   2.932  15.505  1.00  0.00    -0.334 N 
BRANCH   9  10
HETATM   10  C2  UNL     1      -4.510   1.912  15.564  1.00  0.00     0.156 C 
BRANCH  10  11
HETATM   11  C1  UNL     1      -4.666   0.879  14.518  1.00  0.00     0.184 C 
BRANCH  11  12
HETATM   12  O1  UNL     1      -4.820  -0.354  15.212  1.00  0.00    -0.399 OA
ATOM     13  H1  UNL     1      -4.115  -0.912  14.906  1.00  0.00     0.209 HD
ENDBRANCH  11  12
ENDBRANCH  10  11
ENDBRANCH   9  10
BRANCH   9  14
HETATM   14  C3  UNL     1      -6.759   2.380  16.213  1.00  0.00     0.092 C 
BRANCH  14  15
HETATM   15  C4  UNL     1      -6.659   1.576  17.420  1.00  0.00     0.208 C 
BRANCH  15  16
HETATM   16  O2  UNL     1      -7.069   0.247  17.075  1.00  0.00    -0.396 OA
ATOM     17  H2  UNL     1      -7.397  -0.159  17.870  1.00  0.00     0.209 HD
ENDBRANCH  15  16
ENDBRANCH  14  15
ENDBRANCH   9  14
ENDBRANCH   7   9
ENDBRANCH   1   7
BRANCH   5  18
HETATM   18  O3  UNL     1      -4.889   4.767  10.109  1.00  0.00    -0.392 OA
ATOM     19  H3  UNL     1      -4.709   4.198   9.371  1.00  0.00     0.210 HD
ENDBRANCH   5  18
BRANCH   4  20
HETATM   20  N3  UNL     1      -3.276   2.231  10.745  1.00  0.00     0.095 N 
HETATM   21  C9  UNL     1      -2.178   1.417  11.201  1.00  0.00     0.273 C 
HETATM   22  C10 UNL     1      -2.232   0.129  10.385  1.00  0.00     0.030 C 
HETATM   23  C11 UNL     1      -3.424  -0.640  10.939  1.00  0.00     0.003 C 
HETATM   24  C12 UNL     1      -4.636   0.158  10.596  1.00  0.00     0.030 C 
HETATM   25  C13 UNL     1      -4.568   1.607  10.913  1.00  0.00     0.273 C 
ENDBRANCH   4  20
TORSDOF 10
ENDMDL
MODEL 4
REMARK VINA RESULT: -6.173643130      1.634      2.661
REMARK  10 active torsions:
REMARK  status: ('A' for Active; 'I' for Inactive)
REMARK    1  A    between atoms: O1_1  and  C1_3 
REMARK    2  A    between atoms: C1_3  and  C2_4 
REMARK    3  A    between atoms: C2_4  and  N1_5 
REMARK    4  A    between atoms: N1_5  and  C3_6 
REMARK    5  A    between atoms: N1_5  and  C5_10 
REMARK    6  A    between atoms: C3_6  and  C4_7 
REMARK    7  A    between atoms: C4_7  and  O2_8 
REMARK    8  A    between atoms: C5_10  and  N2_12 
REMARK    9  A    between atoms: C8_15  and  N3_16 
REMARK   10  A    between atoms: C14_22  and  O3_23 
ROOT
HETATM    1  N2  UNL     1      -3.334   3.789  12.283  1.00  0.00    -0.355 N 
HETATM    2  C6  UNL     1      -3.909   5.046  11.603  1.00  0.00     0.127 C 
HETATM    3  C7  UNL     1      -3.249   6.156  12.377  1.00  0.00     0.058 C 
HETATM    4  C8  UNL     1      -1.764   6.141  12.399  1.00  0.00     0.254 C 
HETATM    5  C14 UNL     1      -1.132   4.788  12.557  1.00  0.00     0.169 C 
HETATM    6  C15 UNL     1      -1.974   3.705  11.899  1.00  0.00     0.159 C 
ENDROOT
BRANCH   1   7
HETATM    7  C5  UNL     1      -4.186   3.040  13.079  1.00  0.00     0.175 C 
HETATM    8  S1  UNL     1      -4.708   1.624  12.202  1.00  0.00    -0.041 SA
BRANCH   7   9
HETATM    9  N1  UNL     1      -4.747   3.046  14.340  1.00  0.00    -0.334 N 
BRANCH   9  10
HETATM   10  C2  UNL     1      -6.176   3.618  14.438  1.00  0.00     0.156 C 
BRANCH  10  11
HETATM   11  C1  UNL     1      -6.147   5.090  14.570  1.00  0.00     0.184 C 
BRANCH  11  12
HETATM   12  O1  UNL     1      -6.923   5.590  13.487  1.00  0.00    -0.399 OA
ATOM     13  H1  UNL     1      -7.666   5.002  13.411  1.00  0.00     0.209 HD
ENDBRANCH  11  12
ENDBRANCH  10  11
ENDBRANCH   9  10
BRANCH   9  14
HETATM   14  C3  UNL     1      -4.346   2.674  15.645  1.00  0.00     0.092 C 
BRANCH  14  15
HETATM   15  C4  UNL     1      -4.793   1.486  16.355  1.00  0.00     0.208 C 
BRANCH  15  16
HETATM   16  O2  UNL     1      -3.732   0.526  16.278  1.00  0.00    -0.396 OA
ATOM     17  H2  UNL     1      -4.076  -0.235  15.825  1.00  0.00     0.209 HD
ENDBRANCH  15  16
ENDBRANCH  14  15
ENDBRANCH   9  14
ENDBRANCH   7   9
ENDBRANCH   1   7
BRANCH   5  18
HETATM   18  O3  UNL     1       0.113   4.758  11.947  1.00  0.00    -0.392 OA
ATOM     19  H3  UNL     1       0.074   4.265  11.136  1.00  0.00     0.210 HD
ENDBRANCH   5  18
BRANCH   4  20
HETATM   20  N3  UNL     1      -1.303   7.039  13.441  1.00  0.00     0.095 N 
HETATM   21  C9  UNL     1      -0.792   8.286  12.931  1.00  0.00     0.273 C 
HETATM   22  C10 UNL     1      -0.345   9.094  14.146  1.00  0.00     0.030 C 
HETATM   23  C11 UNL     1      -1.635   9.551  14.814  1.00  0.00     0.003 C 
HETATM   24  C12 UNL     1      -2.307   8.319  15.318  1.00  0.00     0.030 C 
HETATM   25  C13 UNL     1      -2.414   7.197  14.351  1.00  0.00     0.273 C 
ENDBRANCH   4  20
TORSDOF 10
ENDMDL
MODEL 5
REMARK VINA RESULT: -6.173632674      1.726      2.467
REMARK  10 active torsions:
REMARK  status: ('A' for Active; 'I' for Inactive)
REMARK    1  A    between atoms: O1_1  and  C1_3 
REMARK    2  A    between atoms: C1_3  and  C2_4 
REMARK    3  A    between atoms: C2_4  and  N1_5 
REMARK    4  A    between atoms: N1_5  and  C3_6 
REMARK    5  A    between atoms: N1_5  and  C5_10 
REMARK    6  A    between atoms: C3_6  and  C4_7 
REMARK    7  A    between atoms: C4_7  and  O2_8 
REMARK    8  A    between atoms: C5_10  and  N2_12 
REMARK    9  A    between atoms: C8_15  and  N3_16 
REMARK   10  A    between atoms: C14_22  and  O3_23 
ROOT
HETATM    1  N2  UNL     1      -4.419   4.139  13.539  1.00  0.00    -0.355 N 
HETATM    2  C6  UNL     1      -4.801   5.327  12.635  1.00  0.00     0.127 C 
HETATM    3  C7  UNL     1      -3.805   6.376  13.051  1.00  0.00     0.058 C 
HETATM    4  C8  UNL     1      -2.374   5.999  12.931  1.00  0.00     0.254 C 
HETATM    5  C14 UNL     1      -2.037   4.596  13.349  1.00  0.00     0.169 C 
HETATM    6  C15 UNL     1      -3.185   3.642  13.056  1.00  0.00     0.159 C 
ENDROOT
BRANCH   1   7
HETATM    7  C5  UNL     1      -5.283   3.811  14.571  1.00  0.00     0.175 C 
HETATM    8  S1  UNL     1      -6.340   5.163  14.897  1.00  0.00    -0.041 SA
BRANCH   7   9
HETATM    9  N1  UNL     1      -5.586   2.763  15.416  1.00  0.00    -0.334 N 
BRANCH   9  10
HETATM   10  C2  UNL     1      -4.459   1.735  15.645  1.00  0.00     0.156 C 
BRANCH  10  11
HETATM   11  C1  UNL     1      -4.468   0.699  14.590  1.00  0.00     0.184 C 
BRANCH  11  12
HETATM   12  O1  UNL     1      -4.840  -0.511  15.241  1.00  0.00    -0.399 OA
ATOM     13  H1  UNL     1      -4.245  -1.173  14.911  1.00  0.00     0.209 HD
ENDBRANCH  11  12
ENDBRANCH  10  11
ENDBRANCH   9  10
BRANCH   9  14
HETATM   14  C3  UNL     1      -6.714   2.331  16.154  1.00  0.00     0.092 C 
BRANCH  14  15
HETATM   15  C4  UNL     1      -6.666   1.574  17.395  1.00  0.00     0.208 C 
BRANCH  15  16
HETATM   16  O2  UNL     1      -7.091   0.240  17.090  1.00  0.00    -0.396 OA
ATOM     17  H2  UNL     1      -6.996  -0.272  17.884  1.00  0.00     0.209 HD
ENDBRANCH  15  16
ENDBRANCH  14  15
ENDBRANCH   9  14
ENDBRANCH   7   9
ENDBRANCH   1   7
BRANCH   5  18
HETATM   18  O3  UNL     1      -0.936   4.131  12.646  1.00  0.00    -0.392 OA
ATOM     19  H3  UNL     1      -0.928   3.181  12.630  1.00  0.00     0.210 HD
ENDBRANCH   5  18
BRANCH   4  20
HETATM   20  N3  UNL     1      -1.575   6.953  13.675  1.00  0.00     0.095 N 
HETATM   21  C9  UNL     1      -1.171   8.092  12.890  1.00  0.00     0.273 C 
HETATM   22  C10 UNL     1      -0.339   8.977  13.813  1.00  0.00     0.030 C 
HETATM   23  C11 UNL     1      -1.345   9.612  14.764  1.00  0.00     0.003 C 
HETATM   24  C12 UNL     1      -1.903   8.503  15.589  1.00  0.00     0.030 C 
HETATM   25  C13 UNL     1      -2.354   7.303  14.842  1.00  0.00     0.273 C 
ENDBRANCH   4  20
TORSDOF 10
ENDMDL
