MODEL 1
REMARK VINA RESULT: -6.154970778      0.000      0.000
REMARK  7 active torsions:
REMARK  status: ('A' for Active; 'I' for Inactive)
REMARK    1  A    between atoms: N1_2  and  C2_4 
REMARK    2  A    between atoms: C2_4  and  N2_6 
REMARK    3  A    between atoms: N2_6  and  C3_8 
REMARK    4  A    between atoms: C3_8  and  C4_9 
REMARK       I    between atoms: C4_9  and  N3_11 
REMARK    5  A    between atoms: N3_11  and  C5_13 
REMARK    6  A    between atoms: N4_16  and  C8_17 
REMARK    7  A    between atoms: C8_17  and  C9_18 
ROOT
HETATM    1  C5  UNL     1      -6.496   6.798  10.407  1.00  0.00     0.093 C 
HETATM    2  C6  UNL     1      -5.082   7.079  10.014  1.00  0.00     0.070 C 
HETATM    3  C7  UNL     1      -4.213   5.993  10.626  1.00  0.00     0.065 C 
HETATM    4  N4  UNL     1      -4.675   5.504  11.855  1.00  0.00    -0.371 N 
HETATM    5  C13 UNL     1      -5.520   6.289  12.656  1.00  0.00     0.065 C 
HETATM    6  C14 UNL     1      -6.645   6.963  11.908  1.00  0.00     0.070 C 
ENDROOT
BRANCH   1   7
HETATM    7  N3  UNL     1      -7.460   7.720   9.805  1.00  0.00    -0.354 N 
HETATM    8  C4  UNL     1      -8.144   7.305   8.644  1.00  0.00     0.235 C 
HETATM    9  O1  UNL     1      -7.847   6.125   8.209  1.00  0.00    -0.272 OA
ATOM     10  H3  UNL     1      -7.633   8.639  10.215  1.00  0.00     0.162 HD
BRANCH   8  11
HETATM   11  C3  UNL     1      -9.153   8.093   7.901  1.00  0.00     0.224 C 
BRANCH  11  12
HETATM   12  N2  UNL     1      -8.837   9.478   7.714  1.00  0.00    -0.359 N 
ATOM     13  H2  UNL     1      -7.878   9.813   7.805  1.00  0.00     0.162 HD
BRANCH  12  14
HETATM   14  C2  UNL     1      -9.894  10.366   7.399  1.00  0.00     0.167 C 
HETATM   15  S1  UNL     1      -9.758  11.922   7.830  1.00  0.00    -0.041 SA
BRANCH  14  16
HETATM   16  N1  UNL     1     -11.042   9.918   6.731  1.00  0.00    -0.372 N 
HETATM   17  C1  UNL     1     -11.338  10.373   5.380  1.00  0.00     0.148 C 
ATOM     18  H1  UNL     1     -11.676   9.267   7.195  1.00  0.00     0.161 HD
ENDBRANCH  14  16
ENDBRANCH  12  14
ENDBRANCH  11  12
ENDBRANCH   8  11
ENDBRANCH   1   7
BRANCH   4  19
HETATM   19  C8  UNL     1      -4.513   4.136  12.159  1.00  0.00     0.161 C 
BRANCH  19  20
HETATM   20  C9  UNL     1      -4.110   3.324  10.936  1.00  0.00     0.163 C 
HETATM   21  C10 UNL     1      -2.866   2.501  11.182  1.00  0.00     0.201 C 
HETATM   22  O2  UNL     1      -3.026   1.851  12.401  1.00  0.00    -0.386 OA
HETATM   23  C11 UNL     1      -4.085   0.967  12.287  1.00  0.00     0.193 C 
HETATM   24  C12 UNL     1      -4.937   1.153  11.080  1.00  0.00     0.194 C 
HETATM   25  O3  UNL     1      -5.157   2.443  10.685  1.00  0.00    -0.380 OA
ENDBRANCH  19  20
ENDBRANCH   4  19
TORSDOF 7
ENDMDL
MODEL 2
REMARK VINA RESULT: -6.074011808      2.311      3.086
REMARK  7 active torsions:
REMARK  status: ('A' for Active; 'I' for Inactive)
REMARK    1  A    between atoms: N1_2  and  C2_4 
REMARK    2  A    between atoms: C2_4  and  N2_6 
REMARK    3  A    between atoms: N2_6  and  C3_8 
REMARK    4  A    between atoms: C3_8  and  C4_9 
REMARK       I    between atoms: C4_9  and  N3_11 
REMARK    5  A    between atoms: N3_11  and  C5_13 
REMARK    6  A    between atoms: N4_16  and  C8_17 
REMARK    7  A    between atoms: C8_17  and  C9_18 
ROOT
HETATM    1  C5  UNL     1      -5.418   5.863  12.538  1.00  0.00     0.093 C 
HETATM    2  C6  UNL     1      -4.087   6.238  13.101  1.00  0.00     0.070 C 
HETATM    3  C7  UNL     1      -3.396   4.956  13.534  1.00  0.00     0.065 C 
HETATM    4  N4  UNL     1      -4.264   3.956  13.993  1.00  0.00    -0.371 N 
HETATM    5  C13 UNL     1      -5.534   4.294  14.486  1.00  0.00     0.065 C 
HETATM    6  C14 UNL     1      -6.290   5.291  13.642  1.00  0.00     0.070 C 
ENDROOT
BRANCH   1   7
HETATM    7  N3  UNL     1      -6.160   7.001  11.993  1.00  0.00    -0.354 N 
HETATM    8  C4  UNL     1      -6.611   6.925  10.659  1.00  0.00     0.235 C 
HETATM    9  O1  UNL     1      -6.320   5.835  10.029  1.00  0.00    -0.272 OA
ATOM     10  H3  UNL     1      -6.346   7.827  12.562  1.00  0.00     0.162 HD
BRANCH   8  11
HETATM   11  C3  UNL     1      -7.377   7.968   9.939  1.00  0.00     0.224 C 
BRANCH  11  12
HETATM   12  N2  UNL     1      -8.174   7.500   8.845  1.00  0.00    -0.359 N 
ATOM     13  H2  UNL     1      -9.090   7.081   9.005  1.00  0.00     0.162 HD
BRANCH  12  14
HETATM   14  C2  UNL     1      -7.654   7.638   7.535  1.00  0.00     0.167 C 
HETATM   15  S1  UNL     1      -7.886   9.037   6.748  1.00  0.00    -0.041 SA
BRANCH  14  16
HETATM   16  N1  UNL     1      -6.954   6.592   6.919  1.00  0.00    -0.372 N 
HETATM   17  C1  UNL     1      -5.536   6.727   6.614  1.00  0.00     0.148 C 
ATOM     18  H1  UNL     1      -7.442   5.728   6.682  1.00  0.00     0.161 HD
ENDBRANCH  14  16
ENDBRANCH  12  14
ENDBRANCH  11  12
ENDBRANCH   8  11
ENDBRANCH   1   7
BRANCH   4  19
HETATM   19  C8  UNL     1      -3.971   2.605  13.711  1.00  0.00     0.161 C 
BRANCH  19  20
HETATM   20  C9  UNL     1      -4.899   2.029  12.650  1.00  0.00     0.163 C 
HETATM   21  C10 UNL     1      -4.448   2.375  11.249  1.00  0.00     0.201 C 
HETATM   22  O2  UNL     1      -3.085   2.109  11.169  1.00  0.00    -0.386 OA
HETATM   23  C11 UNL     1      -2.896   0.748  11.336  1.00  0.00     0.193 C 
HETATM   24  C12 UNL     1      -4.080   0.004  11.849  1.00  0.00     0.194 C 
HETATM   25  O3  UNL     1      -4.842   0.646  12.785  1.00  0.00    -0.380 OA
ENDBRANCH  19  20
ENDBRANCH   4  19
TORSDOF 7
ENDMDL
MODEL 3
REMARK VINA RESULT: -6.016615296      1.219      1.234
REMARK  7 active torsions:
REMARK  status: ('A' for Active; 'I' for Inactive)
REMARK    1  A    between atoms: N1_2  and  C2_4 
REMARK    2  A    between atoms: C2_4  and  N2_6 
REMARK    3  A    between atoms: N2_6  and  C3_8 
REMARK    4  A    between atoms: C3_8  and  C4_9 
REMARK       I    between atoms: C4_9  and  N3_11 
REMARK    5  A    between atoms: N3_11  and  C5_13 
REMARK    6  A    between atoms: N4_16  and  C8_17 
REMARK    7  A    between atoms: C8_17  and  C9_18 
ROOT
HETATM    1  C5  UNL     1      -6.362   6.694  10.718  1.00  0.00     0.093 C 
HETATM    2  C6  UNL     1      -4.939   7.102  10.511  1.00  0.00     0.070 C 
HETATM    3  C7  UNL     1      -4.062   6.009  11.098  1.00  0.00     0.065 C 
HETATM    4  N4  UNL     1      -4.608   5.361  12.212  1.00  0.00    -0.371 N 
HETATM    5  C13 UNL     1      -5.583   6.000  12.995  1.00  0.00     0.065 C 
HETATM    6  C14 UNL     1      -6.672   6.684  12.204  1.00  0.00     0.070 C 
ENDROOT
BRANCH   1   7
HETATM    7  N3  UNL     1      -7.324   7.618  10.115  1.00  0.00    -0.354 N 
HETATM    8  C4  UNL     1      -7.849   7.298   8.847  1.00  0.00     0.235 C 
HETATM    9  O1  UNL     1      -7.422   6.196   8.323  1.00  0.00    -0.272 OA
ATOM     10  H3  UNL     1      -7.607   8.471  10.600  1.00  0.00     0.162 HD
BRANCH   8  11
HETATM   11  C3  UNL     1      -8.831   8.102   8.084  1.00  0.00     0.224 C 
BRANCH  11  12
HETATM   12  N2  UNL     1      -8.305   8.806   6.954  1.00  0.00    -0.359 N 
ATOM     13  H2  UNL     1      -7.325   8.711   6.687  1.00  0.00     0.162 HD
BRANCH  12  14
HETATM   14  C2  UNL     1      -9.184   9.637   6.217  1.00  0.00     0.167 C 
HETATM   15  S1  UNL     1     -10.520  10.195   6.946  1.00  0.00    -0.041 SA
BRANCH  14  16
HETATM   16  N1  UNL     1      -8.916   9.973   4.883  1.00  0.00    -0.372 N 
HETATM   17  C1  UNL     1      -7.547  10.008   4.389  1.00  0.00     0.148 C 
ATOM     18  H1  UNL     1      -9.687  10.196   4.254  1.00  0.00     0.161 HD
ENDBRANCH  14  16
ENDBRANCH  12  14
ENDBRANCH  11  12
ENDBRANCH   8  11
ENDBRANCH   1   7
BRANCH   4  19
HETATM   19  C8  UNL     1      -4.381   3.979  12.389  1.00  0.00     0.161 C 
BRANCH  19  20
HETATM   20  C9  UNL     1      -4.084   3.277  11.072  1.00  0.00     0.163 C 
HETATM   21  C10 UNL     1      -2.842   2.419  11.150  1.00  0.00     0.201 C 
HETATM   22  O2  UNL     1      -2.926   1.662  12.314  1.00  0.00    -0.386 OA
HETATM   23  C11 UNL     1      -4.009   0.807  12.198  1.00  0.00     0.193 C 
HETATM   24  C12 UNL     1      -4.942   1.114  11.079  1.00  0.00     0.194 C 
HETATM   25  O3  UNL     1      -5.164   2.438  10.820  1.00  0.00    -0.380 OA
ENDBRANCH  19  20
ENDBRANCH   4  19
TORSDOF 7
ENDMDL
MODEL 4
REMARK VINA RESULT: -5.982444487      1.794      2.426
REMARK  7 active torsions:
REMARK  status: ('A' for Active; 'I' for Inactive)
REMARK    1  A    between atoms: N1_2  and  C2_4 
REMARK    2  A    between atoms: C2_4  and  N2_6 
REMARK    3  A    between atoms: N2_6  and  C3_8 
REMARK    4  A    between atoms: C3_8  and  C4_9 
REMARK       I    between atoms: C4_9  and  N3_11 
REMARK    5  A    between atoms: N3_11  and  C5_13 
REMARK    6  A    between atoms: N4_16  and  C8_17 
REMARK    7  A    between atoms: C8_17  and  C9_18 
ROOT
HETATM    1  C5  UNL     1      -5.439   5.920  12.488  1.00  0.00     0.093 C 
HETATM    2  C6  UNL     1      -4.081   6.300  12.981  1.00  0.00     0.070 C 
HETATM    3  C7  UNL     1      -3.401   5.031  13.468  1.00  0.00     0.065 C 
HETATM    4  N4  UNL     1      -4.270   4.080  14.017  1.00  0.00    -0.371 N 
HETATM    5  C13 UNL     1      -5.516   4.475  14.532  1.00  0.00     0.065 C 
HETATM    6  C14 UNL     1      -6.281   5.436  13.655  1.00  0.00     0.070 C 
ENDROOT
BRANCH   1   7
HETATM    7  N3  UNL     1      -6.178   7.039  11.900  1.00  0.00    -0.354 N 
HETATM    8  C4  UNL     1      -6.628   6.913  10.569  1.00  0.00     0.235 C 
HETATM    9  O1  UNL     1      -6.338   5.799   9.981  1.00  0.00    -0.272 OA
ATOM     10  H3  UNL     1      -6.362   7.886  12.438  1.00  0.00     0.162 HD
BRANCH   8  11
HETATM   11  C3  UNL     1      -7.390   7.930   9.810  1.00  0.00     0.224 C 
BRANCH  11  12
HETATM   12  N2  UNL     1      -8.243   7.417   8.781  1.00  0.00    -0.359 N 
ATOM     13  H2  UNL     1      -8.467   6.423   8.732  1.00  0.00     0.162 HD
BRANCH  12  14
HETATM   14  C2  UNL     1      -8.769   8.330   7.834  1.00  0.00     0.167 C 
HETATM   15  S1  UNL     1      -7.756   9.023   6.775  1.00  0.00    -0.041 SA
BRANCH  14  16
HETATM   16  N1  UNL     1     -10.136   8.640   7.808  1.00  0.00    -0.372 N 
HETATM   17  C1  UNL     1     -10.617   9.807   7.082  1.00  0.00     0.148 C 
ATOM     18  H1  UNL     1     -10.799   8.042   8.300  1.00  0.00     0.161 HD
ENDBRANCH  14  16
ENDBRANCH  12  14
ENDBRANCH  11  12
ENDBRANCH   8  11
ENDBRANCH   1   7
BRANCH   4  19
HETATM   19  C8  UNL     1      -4.014   2.708  13.809  1.00  0.00     0.161 C 
BRANCH  19  20
HETATM   20  C9  UNL     1      -4.916   2.117  12.735  1.00  0.00     0.163 C 
HETATM   21  C10 UNL     1      -4.439   2.453  11.340  1.00  0.00     0.201 C 
HETATM   22  O2  UNL     1      -3.072   2.197  11.290  1.00  0.00    -0.386 OA
HETATM   23  C11 UNL     1      -2.878   0.839  11.474  1.00  0.00     0.193 C 
HETATM   24  C12 UNL     1      -4.065   0.090  11.969  1.00  0.00     0.194 C 
HETATM   25  O3  UNL     1      -4.851   0.735  12.883  1.00  0.00    -0.380 OA
ENDBRANCH  19  20
ENDBRANCH   4  19
TORSDOF 7
ENDMDL
MODEL 5
REMARK VINA RESULT: -5.933014078      3.210      4.177
REMARK  7 active torsions:
REMARK  status: ('A' for Active; 'I' for Inactive)
REMARK    1  A    between atoms: N1_2  and  C2_4 
REMARK    2  A    between atoms: C2_4  and  N2_6 
REMARK    3  A    between atoms: N2_6  and  C3_8 
REMARK    4  A    between atoms: C3_8  and  C4_9 
REMARK       I    between atoms: C4_9  and  N3_11 
REMARK    5  A    between atoms: N3_11  and  C5_13 
REMARK    6  A    between atoms: N4_16  and  C8_17 
REMARK    7  A    between atoms: C8_17  and  C9_18 
ROOT
HETATM    1  C5  UNL     1      -4.806   5.455  12.626  1.00  0.00     0.093 C 
HETATM    2  C6  UNL     1      -4.088   4.324  11.966  1.00  0.00     0.070 C 
HETATM    3  C7  UNL     1      -3.844   3.259  13.021  1.00  0.00     0.065 C 
HETATM    4  N4  UNL     1      -3.639   3.759  14.314  1.00  0.00    -0.371 N 
HETATM    5  C13 UNL     1      -3.188   5.076  14.499  1.00  0.00     0.065 C 
HETATM    6  C14 UNL     1      -3.891   6.106  13.648  1.00  0.00     0.070 C 
ENDROOT
BRANCH   1   7
HETATM    7  N3  UNL     1      -5.190   6.521  11.699  1.00  0.00    -0.354 N 
HETATM    8  C4  UNL     1      -6.513   7.006  11.753  1.00  0.00     0.235 C 
HETATM    9  O1  UNL     1      -7.279   6.451  12.633  1.00  0.00    -0.272 OA
ATOM     10  H3  UNL     1      -4.519   6.902  11.032  1.00  0.00     0.162 HD
BRANCH   8  11
HETATM   11  C3  UNL     1      -7.082   8.077  10.903  1.00  0.00     0.224 C 
BRANCH  11  12
HETATM   12  N2  UNL     1      -6.492   8.211   9.605  1.00  0.00    -0.359 N 
ATOM     13  H2  UNL     1      -5.598   8.687   9.482  1.00  0.00     0.162 HD
BRANCH  12  14
HETATM   14  C2  UNL     1      -7.185   7.663   8.498  1.00  0.00     0.167 C 
HETATM   15  S1  UNL     1      -6.329   6.965   7.311  1.00  0.00    -0.041 SA
BRANCH  14  16
HETATM   16  N1  UNL     1      -8.583   7.720   8.418  1.00  0.00    -0.372 N 
HETATM   17  C1  UNL     1      -9.238   8.773   7.654  1.00  0.00     0.148 C 
ATOM     18  H1  UNL     1      -9.146   7.019   8.899  1.00  0.00     0.161 HD
ENDBRANCH  14  16
ENDBRANCH  12  14
ENDBRANCH  11  12
ENDBRANCH   8  11
ENDBRANCH   1   7
BRANCH   4  19
HETATM   19  C8  UNL     1      -4.138   3.039  15.420  1.00  0.00     0.161 C 
BRANCH  19  20
HETATM   20  C9  UNL     1      -5.161   1.992  15.004  1.00  0.00     0.163 C 
HETATM   21  C10 UNL     1      -4.827   0.621  15.547  1.00  0.00     0.201 C 
HETATM   22  O2  UNL     1      -4.521   0.767  16.897  1.00  0.00    -0.386 OA
HETATM   23  C11 UNL     1      -5.657   1.204  17.556  1.00  0.00     0.193 C 
HETATM   24  C12 UNL     1      -6.754   1.688  16.674  1.00  0.00     0.194 C 
HETATM   25  O3  UNL     1      -6.375   2.384  15.560  1.00  0.00    -0.380 OA
ENDBRANCH  19  20
ENDBRANCH   4  19
TORSDOF 7
ENDMDL
