MODEL 1
REMARK VINA RESULT: -7.147895696      0.000      0.000
REMARK  12 active torsions:
REMARK  status: ('A' for Active; 'I' for Inactive)
REMARK    1  A    between atoms: C2_2  and  O2_4 
REMARK    2  A    between atoms: O2_4  and  C3_5 
REMARK    3  A    between atoms: C6_9  and  C7_10 
REMARK    4  A    between atoms: C7_10  and  O4_11 
REMARK    5  A    between atoms: C8_13  and  O5_14 
REMARK    6  A    between atoms: O5_14  and  C9_15 
REMARK    7  A    between atoms: C9_15  and  C10_16 
REMARK    8  A    between atoms: C10_16  and  C11_17 
REMARK    9  A    between atoms: C12_18  and  C13_19 
REMARK   10  A    between atoms: C13_19  and  C14_20 
REMARK   11  A    between atoms: C14_20  and  C15_21 
REMARK   12  A    between atoms: C16_22  and  O6_23 
ROOT
HETATM    1  C15 UNL     1     -10.214   7.071 -26.496  1.00  0.00     0.056 C 
HETATM    2  C16 UNL     1      -9.986   5.905 -25.972  1.00  0.00     0.147 C 
HETATM    3  C17 UNL     1      -9.049   5.043 -26.674  1.00  0.00     0.124 C 
HETATM    4  N1  UNL     1      -8.304   4.378 -27.250  1.00  0.00    -0.189 NA
ENDROOT
BRANCH   2   5
HETATM    5  O6  UNL     1     -10.571   5.440 -24.808  1.00  0.00    -0.351 OA
ATOM      6  H6  UNL     1     -11.497   5.256 -24.708  1.00  0.00     0.218 HD
ENDBRANCH   2   5
BRANCH   1   7
HETATM    7  C14 UNL     1     -11.127   8.084 -25.931  1.00  0.00     0.059 C 
BRANCH   7   8
HETATM    8  C13 UNL     1     -10.986   8.891 -25.033  1.00  0.00    -0.128 C 
BRANCH   8   9
HETATM    9  C12 UNL     1     -10.817   9.835 -23.965  1.00  0.00     0.063 C 
HETATM   10  C11 UNL     1     -10.615   9.358 -22.676  1.00  0.00     0.061 C 
BRANCH  10  11
HETATM   11  C10 UNL     1     -10.453  10.364 -21.666  1.00  0.00    -0.129 C 
BRANCH  11  12
HETATM   12  C9  UNL     1     -10.315  11.208 -20.821  1.00  0.00     0.253 C 
BRANCH  12  13
HETATM   13  O5  UNL     1      -9.347  11.781 -20.159  1.00  0.00    -0.371 OA
BRANCH  13  14
HETATM   14  C8  UNL     1      -8.491  12.699 -19.791  1.00  0.00     0.165 C 
HETATM   15  C3  UNL     1      -7.782  13.580 -20.759  1.00  0.00     0.168 C 
HETATM   16  C4  UNL     1      -6.303  13.555 -20.423  1.00  0.00     0.114 C 
HETATM   17  C5  UNL     1      -6.390  13.227 -18.958  1.00  0.00     0.138 C 
HETATM   18  O3  UNL     1      -5.814  13.770 -18.064  1.00  0.00    -0.297 OA
HETATM   19  C6  UNL     1      -7.333  12.117 -18.901  1.00  0.00     0.110 C 
BRANCH  15  20
HETATM   20  O2  UNL     1      -8.048  13.417 -22.110  1.00  0.00    -0.313 OA
BRANCH  20  21
HETATM   21  C2  UNL     1      -8.869  14.258 -22.844  1.00  0.00     0.255 C 
HETATM   22  C1  UNL     1     -10.186  13.914 -23.404  1.00  0.00     0.126 C 
HETATM   23  O1  UNL     1      -8.440  15.433 -23.055  1.00  0.00    -0.266 OA
ENDBRANCH  20  21
ENDBRANCH  15  20
BRANCH  19  24
HETATM   24  C7  UNL     1      -7.854  11.701 -17.583  1.00  0.00     0.179 C 
BRANCH  24  25
HETATM   25  O4  UNL     1      -6.957  11.657 -16.549  1.00  0.00    -0.400 OA
ATOM     26  H4  UNL     1      -7.192  12.124 -15.756  1.00  0.00     0.209 HD
ENDBRANCH  24  25
ENDBRANCH  19  24
ENDBRANCH  13  14
ENDBRANCH  12  13
ENDBRANCH  11  12
ENDBRANCH  10  11
ENDBRANCH   8   9
ENDBRANCH   7   8
ENDBRANCH   1   7
TORSDOF 12
ENDMDL
MODEL 2
REMARK VINA RESULT: -7.114651129      2.163      2.477
REMARK  12 active torsions:
REMARK  status: ('A' for Active; 'I' for Inactive)
REMARK    1  A    between atoms: C2_2  and  O2_4 
REMARK    2  A    between atoms: O2_4  and  C3_5 
REMARK    3  A    between atoms: C6_9  and  C7_10 
REMARK    4  A    between atoms: C7_10  and  O4_11 
REMARK    5  A    between atoms: C8_13  and  O5_14 
REMARK    6  A    between atoms: O5_14  and  C9_15 
REMARK    7  A    between atoms: C9_15  and  C10_16 
REMARK    8  A    between atoms: C10_16  and  C11_17 
REMARK    9  A    between atoms: C12_18  and  C13_19 
REMARK   10  A    between atoms: C13_19  and  C14_20 
REMARK   11  A    between atoms: C14_20  and  C15_21 
REMARK   12  A    between atoms: C16_22  and  O6_23 
ROOT
HETATM    1  C15 UNL     1     -11.936   7.633 -26.850  1.00  0.00     0.056 C 
HETATM    2  C16 UNL     1     -13.212   7.430 -26.981  1.00  0.00     0.147 C 
HETATM    3  C17 UNL     1     -13.876   8.115 -28.077  1.00  0.00     0.124 C 
HETATM    4  N1  UNL     1     -14.381   8.672 -28.952  1.00  0.00    -0.189 NA
ENDROOT
BRANCH   2   5
HETATM    5  O6  UNL     1     -13.964   6.615 -26.154  1.00  0.00    -0.351 OA
ATOM      6  H6  UNL     1     -13.625   6.161 -25.393  1.00  0.00     0.218 HD
ENDBRANCH   2   5
BRANCH   1   7
HETATM    7  C14 UNL     1     -11.088   7.025 -25.806  1.00  0.00     0.059 C 
BRANCH   7   8
HETATM    8  C13 UNL     1     -10.732   7.428 -24.715  1.00  0.00    -0.128 C 
BRANCH   8   9
HETATM    9  C12 UNL     1     -10.308   7.892 -23.426  1.00  0.00     0.063 C 
HETATM   10  C11 UNL     1     -10.605   9.198 -23.053  1.00  0.00     0.061 C 
BRANCH  10  11
HETATM   11  C10 UNL     1     -10.149   9.585 -21.750  1.00  0.00    -0.129 C 
BRANCH  11  12
HETATM   12  C9  UNL     1      -9.764   9.909 -20.657  1.00  0.00     0.253 C 
BRANCH  12  13
HETATM   13  O5  UNL     1      -9.419  10.998 -20.026  1.00  0.00    -0.371 OA
BRANCH  13  14
HETATM   14  C8  UNL     1      -8.737  12.071 -19.719  1.00  0.00     0.165 C 
HETATM   15  C3  UNL     1      -8.366  13.109 -20.719  1.00  0.00     0.168 C 
HETATM   16  C4  UNL     1      -6.885  13.399 -20.572  1.00  0.00     0.114 C 
HETATM   17  C5  UNL     1      -6.705  13.024 -19.126  1.00  0.00     0.138 C 
HETATM   18  O3  UNL     1      -6.145  13.657 -18.284  1.00  0.00    -0.297 OA
HETATM   19  C6  UNL     1      -7.374  11.734 -19.012  1.00  0.00     0.110 C 
BRANCH  15  20
HETATM   20  O2  UNL     1      -8.769  12.926 -22.034  1.00  0.00    -0.313 OA
BRANCH  20  21
HETATM   21  C2  UNL     1      -9.914  13.484 -22.577  1.00  0.00     0.255 C 
HETATM   22  C1  UNL     1     -11.301  13.130 -22.229  1.00  0.00     0.126 C 
HETATM   23  O1  UNL     1      -9.751  14.379 -23.460  1.00  0.00    -0.266 OA
ENDBRANCH  20  21
ENDBRANCH  15  20
BRANCH  19  24
HETATM   24  C7  UNL     1      -7.615  11.182 -17.663  1.00  0.00     0.179 C 
BRANCH  24  25
HETATM   25  O4  UNL     1      -6.683  11.469 -16.701  1.00  0.00    -0.400 OA
ATOM     26  H4  UNL     1      -6.907  12.148 -16.075  1.00  0.00     0.209 HD
ENDBRANCH  24  25
ENDBRANCH  19  24
ENDBRANCH  13  14
ENDBRANCH  12  13
ENDBRANCH  11  12
ENDBRANCH  10  11
ENDBRANCH   8   9
ENDBRANCH   7   8
ENDBRANCH   1   7
TORSDOF 12
ENDMDL
MODEL 3
REMARK VINA RESULT: -7.075289013      1.463      1.983
REMARK  12 active torsions:
REMARK  status: ('A' for Active; 'I' for Inactive)
REMARK    1  A    between atoms: C2_2  and  O2_4 
REMARK    2  A    between atoms: O2_4  and  C3_5 
REMARK    3  A    between atoms: C6_9  and  C7_10 
REMARK    4  A    between atoms: C7_10  and  O4_11 
REMARK    5  A    between atoms: C8_13  and  O5_14 
REMARK    6  A    between atoms: O5_14  and  C9_15 
REMARK    7  A    between atoms: C9_15  and  C10_16 
REMARK    8  A    between atoms: C10_16  and  C11_17 
REMARK    9  A    between atoms: C12_18  and  C13_19 
REMARK   10  A    between atoms: C13_19  and  C14_20 
REMARK   11  A    between atoms: C14_20  and  C15_21 
REMARK   12  A    between atoms: C16_22  and  O6_23 
ROOT
HETATM    1  C15 UNL     1      -9.368   5.907 -23.372  1.00  0.00     0.056 C 
HETATM    2  C16 UNL     1     -10.215   6.211 -24.308  1.00  0.00     0.147 C 
HETATM    3  C17 UNL     1      -9.962   5.655 -25.626  1.00  0.00     0.124 C 
HETATM    4  N1  UNL     1      -9.739   5.204 -26.664  1.00  0.00    -0.189 NA
ENDROOT
BRANCH   2   5
HETATM    5  O6  UNL     1     -11.323   7.019 -24.130  1.00  0.00    -0.351 OA
ATOM      6  H6  UNL     1     -11.671   7.608 -24.789  1.00  0.00     0.218 HD
ENDBRANCH   2   5
BRANCH   1   7
HETATM    7  C14 UNL     1      -9.457   6.369 -21.972  1.00  0.00     0.059 C 
BRANCH   7   8
HETATM    8  C13 UNL     1      -9.451   7.483 -21.485  1.00  0.00    -0.128 C 
BRANCH   8   9
HETATM    9  C12 UNL     1      -9.452   8.794 -20.903  1.00  0.00     0.063 C 
HETATM   10  C11 UNL     1     -10.243   9.782 -21.478  1.00  0.00     0.061 C 
BRANCH  10  11
HETATM   11  C10 UNL     1     -10.191  11.064 -20.837  1.00  0.00    -0.129 C 
BRANCH  11  12
HETATM   12  C9  UNL     1     -10.147  12.138 -20.297  1.00  0.00     0.253 C 
BRANCH  12  13
HETATM   13  O5  UNL     1      -9.254  13.030 -19.968  1.00  0.00    -0.371 OA
BRANCH  13  14
HETATM   14  C8  UNL     1      -8.121  13.684 -19.961  1.00  0.00     0.165 C 
HETATM   15  C3  UNL     1      -7.392  14.055 -21.204  1.00  0.00     0.168 C 
HETATM   16  C4  UNL     1      -5.944  13.634 -21.046  1.00  0.00     0.114 C 
HETATM   17  C5  UNL     1      -5.838  13.684 -19.546  1.00  0.00     0.138 C 
HETATM   18  O3  UNL     1      -4.973  14.198 -18.903  1.00  0.00    -0.297 OA
HETATM   19  C6  UNL     1      -7.024  12.975 -19.085  1.00  0.00     0.110 C 
BRANCH  15  20
HETATM   20  O2  UNL     1      -7.947  13.691 -22.423  1.00  0.00    -0.313 OA
BRANCH  20  21
HETATM   21  C2  UNL     1      -8.914  14.429 -23.083  1.00  0.00     0.255 C 
HETATM   22  C1  UNL     1     -10.218  13.930 -23.553  1.00  0.00     0.126 C 
HETATM   23  O1  UNL     1      -8.648  15.648 -23.309  1.00  0.00    -0.266 OA
ENDBRANCH  20  21
ENDBRANCH  15  20
BRANCH  19  24
HETATM   24  C7  UNL     1      -7.380  13.050 -17.654  1.00  0.00     0.179 C 
BRANCH  24  25
HETATM   25  O4  UNL     1      -6.876  14.110 -16.946  1.00  0.00    -0.400 OA
ATOM     26  H4  UNL     1      -7.248  14.964 -17.129  1.00  0.00     0.209 HD
ENDBRANCH  24  25
ENDBRANCH  19  24
ENDBRANCH  13  14
ENDBRANCH  12  13
ENDBRANCH  11  12
ENDBRANCH  10  11
ENDBRANCH   8   9
ENDBRANCH   7   8
ENDBRANCH   1   7
TORSDOF 12
ENDMDL
MODEL 4
REMARK VINA RESULT: -7.056121078      1.458      2.450
REMARK  12 active torsions:
REMARK  status: ('A' for Active; 'I' for Inactive)
REMARK    1  A    between atoms: C2_2  and  O2_4 
REMARK    2  A    between atoms: O2_4  and  C3_5 
REMARK    3  A    between atoms: C6_9  and  C7_10 
REMARK    4  A    between atoms: C7_10  and  O4_11 
REMARK    5  A    between atoms: C8_13  and  O5_14 
REMARK    6  A    between atoms: O5_14  and  C9_15 
REMARK    7  A    between atoms: C9_15  and  C10_16 
REMARK    8  A    between atoms: C10_16  and  C11_17 
REMARK    9  A    between atoms: C12_18  and  C13_19 
REMARK   10  A    between atoms: C13_19  and  C14_20 
REMARK   11  A    between atoms: C14_20  and  C15_21 
REMARK   12  A    between atoms: C16_22  and  O6_23 
ROOT
HETATM    1  C15 UNL     1     -10.040   6.666 -26.654  1.00  0.00     0.056 C 
HETATM    2  C16 UNL     1      -9.820   5.467 -26.205  1.00  0.00     0.147 C 
HETATM    3  C17 UNL     1      -8.796   4.690 -26.884  1.00  0.00     0.124 C 
HETATM    4  N1  UNL     1      -7.981   4.093 -27.440  1.00  0.00    -0.189 NA
ENDROOT
BRANCH   2   5
HETATM    5  O6  UNL     1     -10.491   4.894 -25.140  1.00  0.00    -0.351 OA
ATOM      6  H6  UNL     1     -10.073   4.581 -24.347  1.00  0.00     0.218 HD
ENDBRANCH   2   5
BRANCH   1   7
HETATM    7  C14 UNL     1     -11.032   7.606 -26.097  1.00  0.00     0.059 C 
BRANCH   7   8
HETATM    8  C13 UNL     1     -10.950   8.447 -25.223  1.00  0.00    -0.128 C 
BRANCH   8   9
HETATM    9  C12 UNL     1     -10.848   9.433 -24.186  1.00  0.00     0.063 C 
HETATM   10  C11 UNL     1     -10.920  10.778 -24.531  1.00  0.00     0.061 C 
BRANCH  10  11
HETATM   11  C10 UNL     1     -10.811  11.700 -23.438  1.00  0.00    -0.129 C 
BRANCH  11  12
HETATM   12  C9  UNL     1     -10.720  12.475 -22.523  1.00  0.00     0.253 C 
BRANCH  12  13
HETATM   13  O5  UNL     1     -10.221  12.510 -21.318  1.00  0.00    -0.371 OA
BRANCH  13  14
HETATM   14  C8  UNL     1      -9.525  12.153 -20.270  1.00  0.00     0.165 C 
HETATM   15  C3  UNL     1      -8.360  12.931 -19.767  1.00  0.00     0.168 C 
HETATM   16  C4  UNL     1      -7.206  11.970 -19.559  1.00  0.00     0.114 C 
HETATM   17  C5  UNL     1      -7.982  10.704 -19.319  1.00  0.00     0.138 C 
HETATM   18  O3  UNL     1      -7.813   9.913 -18.441  1.00  0.00    -0.297 OA
HETATM   19  C6  UNL     1      -8.968  10.687 -20.391  1.00  0.00     0.110 C 
BRANCH  15  20
HETATM   20  O2  UNL     1      -8.004  14.089 -20.444  1.00  0.00    -0.313 OA
BRANCH  20  21
HETATM   21  C2  UNL     1      -7.132  14.119 -21.519  1.00  0.00     0.255 C 
HETATM   22  C1  UNL     1      -5.665  14.234 -21.443  1.00  0.00     0.126 C 
HETATM   23  O1  UNL     1      -7.646  14.047 -22.675  1.00  0.00    -0.266 OA
ENDBRANCH  20  21
ENDBRANCH  15  20
BRANCH  19  24
HETATM   24  C7  UNL     1     -10.072   9.709 -20.319  1.00  0.00     0.179 C 
BRANCH  24  25
HETATM   25  O4  UNL     1      -9.735   8.416 -20.013  1.00  0.00    -0.400 OA
ATOM     26  H4  UNL     1     -10.450   7.815 -19.841  1.00  0.00     0.209 HD
ENDBRANCH  24  25
ENDBRANCH  19  24
ENDBRANCH  13  14
ENDBRANCH  12  13
ENDBRANCH  11  12
ENDBRANCH  10  11
ENDBRANCH   8   9
ENDBRANCH   7   8
ENDBRANCH   1   7
TORSDOF 12
ENDMDL
MODEL 5
REMARK VINA RESULT: -7.053866620      1.937      2.024
REMARK  12 active torsions:
REMARK  status: ('A' for Active; 'I' for Inactive)
REMARK    1  A    between atoms: C2_2  and  O2_4 
REMARK    2  A    between atoms: O2_4  and  C3_5 
REMARK    3  A    between atoms: C6_9  and  C7_10 
REMARK    4  A    between atoms: C7_10  and  O4_11 
REMARK    5  A    between atoms: C8_13  and  O5_14 
REMARK    6  A    between atoms: O5_14  and  C9_15 
REMARK    7  A    between atoms: C9_15  and  C10_16 
REMARK    8  A    between atoms: C10_16  and  C11_17 
REMARK    9  A    between atoms: C12_18  and  C13_19 
REMARK   10  A    between atoms: C13_19  and  C14_20 
REMARK   11  A    between atoms: C14_20  and  C15_21 
REMARK   12  A    between atoms: C16_22  and  O6_23 
ROOT
HETATM    1  C15 UNL     1     -12.112   8.610 -27.272  1.00  0.00     0.056 C 
HETATM    2  C16 UNL     1     -12.598   7.518 -26.764  1.00  0.00     0.147 C 
HETATM    3  C17 UNL     1     -13.731   6.922 -27.452  1.00  0.00     0.124 C 
HETATM    4  N1  UNL     1     -14.631   6.470 -28.015  1.00  0.00    -0.189 NA
ENDROOT
BRANCH   2   5
HETATM    5  O6  UNL     1     -12.112   6.899 -25.626  1.00  0.00    -0.351 OA
ATOM      6  H6  UNL     1     -12.570   6.220 -25.146  1.00  0.00     0.218 HD
ENDBRANCH   2   5
BRANCH   1   7
HETATM    7  C14 UNL     1     -10.965   9.358 -26.722  1.00  0.00     0.059 C 
BRANCH   7   8
HETATM    8  C13 UNL     1     -10.790   9.898 -25.646  1.00  0.00    -0.128 C 
BRANCH   8   9
HETATM    9  C12 UNL     1     -10.594  10.536 -24.376  1.00  0.00     0.063 C 
HETATM   10  C11 UNL     1     -10.682   9.770 -23.221  1.00  0.00     0.061 C 
BRANCH  10  11
HETATM   11  C10 UNL     1     -10.472  10.481 -21.993  1.00  0.00    -0.129 C 
BRANCH  11  12
HETATM   12  C9  UNL     1     -10.294  11.076 -20.963  1.00  0.00     0.253 C 
BRANCH  12  13
HETATM   13  O5  UNL     1      -9.308  11.629 -20.312  1.00  0.00    -0.371 OA
BRANCH  13  14
HETATM   14  C8  UNL     1      -8.518  12.563 -19.847  1.00  0.00     0.165 C 
HETATM   15  C3  UNL     1      -7.814  13.539 -20.724  1.00  0.00     0.168 C 
HETATM   16  C4  UNL     1      -6.353  13.565 -20.322  1.00  0.00     0.114 C 
HETATM   17  C5  UNL     1      -6.486  13.138 -18.886  1.00  0.00     0.138 C 
HETATM   18  O3  UNL     1      -5.978  13.650 -17.934  1.00  0.00    -0.297 OA
HETATM   19  C6  UNL     1      -7.370  11.982 -18.943  1.00  0.00     0.110 C 
BRANCH  15  20
HETATM   20  O2  UNL     1      -8.013  13.451 -22.094  1.00  0.00    -0.313 OA
BRANCH  20  21
HETATM   21  C2  UNL     1      -8.811  14.323 -22.816  1.00  0.00     0.255 C 
HETATM   22  C1  UNL     1     -10.191  14.066 -23.265  1.00  0.00     0.126 C 
HETATM   23  O1  UNL     1      -8.303  15.443 -23.123  1.00  0.00    -0.266 OA
ENDBRANCH  20  21
ENDBRANCH  15  20
BRANCH  19  24
HETATM   24  C7  UNL     1      -7.926  11.456 -17.679  1.00  0.00     0.179 C 
BRANCH  24  25
HETATM   25  O4  UNL     1      -7.155  11.603 -16.556  1.00  0.00    -0.400 OA
ATOM     26  H4  UNL     1      -6.763  12.456 -16.414  1.00  0.00     0.209 HD
ENDBRANCH  24  25
ENDBRANCH  19  24
ENDBRANCH  13  14
ENDBRANCH  12  13
ENDBRANCH  11  12
ENDBRANCH  10  11
ENDBRANCH   8   9
ENDBRANCH   7   8
ENDBRANCH   1   7
TORSDOF 12
ENDMDL
