MODEL 1
REMARK VINA RESULT: -7.179392761      0.000      0.000
REMARK  9 active torsions:
REMARK  status: ('A' for Active; 'I' for Inactive)
REMARK    1  A    between atoms: C2_2  and  C3_3 
REMARK    2  A    between atoms: C3_3  and  C4_4 
REMARK    3  A    between atoms: C4_4  and  S1_5 
REMARK    4  A    between atoms: S1_5  and  C5_6 
REMARK    5  A    between atoms: C5_6  and  C6_7 
REMARK    6  A    between atoms: C7_9  and  O2_10 
REMARK    7  A    between atoms: O2_10  and  N1_11 
REMARK    8  A    between atoms: C12_18  and  O5_19 
REMARK    9  A    between atoms: C13_21  and  O6_22 
ROOT
HETATM    1  C6  UNL     1      -9.870  12.588 -21.795  1.00  0.00     0.165 C 
HETATM    2  O1  UNL     1      -9.082  11.508 -21.536  1.00  0.00    -0.344 OA
HETATM    3  C7  UNL     1      -9.607  10.514 -20.743  1.00  0.00     0.202 C 
HETATM    4  C8  UNL     1      -8.750   9.277 -20.963  1.00  0.00     0.072 C 
HETATM    5  C9  UNL     1      -9.648   8.101 -21.090  1.00  0.00     0.006 C 
HETATM    6  C10 UNL     1     -11.022   8.624 -21.299  1.00  0.00     0.013 C 
HETATM    7  C11 UNL     1     -10.990  10.096 -21.104  1.00  0.00     0.082 C 
HETATM    8  C12 UNL     1     -11.525  10.864 -22.295  1.00  0.00     0.158 C 
HETATM    9  C13 UNL     1     -11.325  12.342 -21.948  1.00  0.00     0.177 C 
ENDROOT
BRANCH   1  10
HETATM   10  C5  UNL     1      -9.268  13.285 -23.025  1.00  0.00     0.108 C 
BRANCH  10  11
HETATM   11  S1  UNL     1      -8.342  14.750 -22.597  1.00  0.00    -0.166 SA
BRANCH  11  12
HETATM   12  C4  UNL     1      -6.605  14.667 -23.029  1.00  0.00     0.074 C 
BRANCH  12  13
HETATM   13  C3  UNL     1      -5.708  14.572 -21.812  1.00  0.00     0.010 C 
BRANCH  13  14
HETATM   14  C2  UNL     1      -6.127  13.360 -20.985  1.00  0.00    -0.004 C 
HETATM   15  C1  UNL     1      -6.061  13.626 -19.511  1.00  0.00     0.005 C 
ENDBRANCH  13  14
ENDBRANCH  12  13
ENDBRANCH  11  12
ENDBRANCH  10  11
ENDBRANCH   1  10
BRANCH   9  16
HETATM   16  O6  UNL     1     -12.027  12.650 -20.786  1.00  0.00    -0.390 OA
ATOM     17  H6  UNL     1     -12.297  11.868 -20.319  1.00  0.00     0.210 HD
ENDBRANCH   9  16
BRANCH   3  18
HETATM   18  O2  UNL     1      -9.465  10.850 -19.357  1.00  0.00    -0.180 OA
BRANCH  18  19
HETATM   19  N1  UNL     1      -8.465  10.326 -18.607  1.00  0.00     0.008 N 
HETATM   20  O3  UNL     1      -8.664   9.610 -17.607  1.00  0.00    -0.511 OA
HETATM   21  O4  UNL     1      -7.156  10.579 -18.937  1.00  0.00    -0.511 OA
ENDBRANCH  18  19
ENDBRANCH   3  18
BRANCH   8  22
HETATM   22  O5  UNL     1     -10.821  10.629 -23.459  1.00  0.00    -0.392 OA
ATOM     23  H5  UNL     1     -10.521  11.424 -23.884  1.00  0.00     0.210 HD
ENDBRANCH   8  22
TORSDOF 9
ENDMDL
MODEL 2
REMARK VINA RESULT: -6.763896786      2.758      5.183
REMARK  9 active torsions:
REMARK  status: ('A' for Active; 'I' for Inactive)
REMARK    1  A    between atoms: C2_2  and  C3_3 
REMARK    2  A    between atoms: C3_3  and  C4_4 
REMARK    3  A    between atoms: C4_4  and  S1_5 
REMARK    4  A    between atoms: S1_5  and  C5_6 
REMARK    5  A    between atoms: C5_6  and  C6_7 
REMARK    6  A    between atoms: C7_9  and  O2_10 
REMARK    7  A    between atoms: O2_10  and  N1_11 
REMARK    8  A    between atoms: C12_18  and  O5_19 
REMARK    9  A    between atoms: C13_21  and  O6_22 
ROOT
HETATM    1  C6  UNL     1      -9.158  12.507 -22.071  1.00  0.00     0.165 C 
HETATM    2  O1  UNL     1      -8.594  11.747 -21.092  1.00  0.00    -0.344 OA
HETATM    3  C7  UNL     1      -7.689  12.358 -20.255  1.00  0.00     0.202 C 
HETATM    4  C8  UNL     1      -7.552  11.466 -19.031  1.00  0.00     0.072 C 
HETATM    5  C9  UNL     1      -7.551  12.328 -17.820  1.00  0.00     0.006 C 
HETATM    6  C10 UNL     1      -8.028  13.669 -18.242  1.00  0.00     0.013 C 
HETATM    7  C11 UNL     1      -8.128  13.679 -19.724  1.00  0.00     0.082 C 
HETATM    8  C12 UNL     1      -9.504  14.066 -20.223  1.00  0.00     0.158 C 
HETATM    9  C13 UNL     1      -9.437  13.928 -21.747  1.00  0.00     0.177 C 
ENDROOT
BRANCH   1  10
HETATM   10  C5  UNL     1     -10.418  11.761 -22.535  1.00  0.00     0.108 C 
BRANCH  10  11
HETATM   11  S1  UNL     1     -10.776  10.331 -21.527  1.00  0.00    -0.166 SA
BRANCH  11  12
HETATM   12  C4  UNL     1     -10.273   8.777 -22.263  1.00  0.00     0.074 C 
BRANCH  12  13
HETATM   13  C3  UNL     1      -9.397   7.955 -21.339  1.00  0.00     0.010 C 
BRANCH  13  14
HETATM   14  C2  UNL     1      -8.913   6.718 -22.092  1.00  0.00    -0.004 C 
HETATM   15  C1  UNL     1      -9.972   5.661 -22.190  1.00  0.00     0.005 C 
ENDBRANCH  13  14
ENDBRANCH  12  13
ENDBRANCH  11  12
ENDBRANCH  10  11
ENDBRANCH   1  10
BRANCH   9  16
HETATM   16  O6  UNL     1      -8.455  14.777 -22.251  1.00  0.00    -0.390 OA
ATOM     17  H6  UNL     1      -7.741  14.294 -22.650  1.00  0.00     0.210 HD
ENDBRANCH   9  16
BRANCH   3  18
HETATM   18  O2  UNL     1      -6.391  12.399 -20.861  1.00  0.00    -0.180 OA
BRANCH  18  19
HETATM   19  N1  UNL     1      -5.722  13.567 -21.006  1.00  0.00     0.008 N 
HETATM   20  O3  UNL     1      -5.643  14.180 -22.089  1.00  0.00    -0.511 OA
HETATM   21  O4  UNL     1      -5.085  14.132 -19.928  1.00  0.00    -0.511 OA
ENDBRANCH  18  19
ENDBRANCH   3  18
BRANCH   8  22
HETATM   22  O5  UNL     1     -10.502  13.216 -19.790  1.00  0.00    -0.392 OA
ATOM     23  H5  UNL     1     -10.222  12.311 -19.721  1.00  0.00     0.210 HD
ENDBRANCH   8  22
TORSDOF 9
ENDMDL
MODEL 3
REMARK VINA RESULT: -6.633296262      3.073      5.011
REMARK  9 active torsions:
REMARK  status: ('A' for Active; 'I' for Inactive)
REMARK    1  A    between atoms: C2_2  and  C3_3 
REMARK    2  A    between atoms: C3_3  and  C4_4 
REMARK    3  A    between atoms: C4_4  and  S1_5 
REMARK    4  A    between atoms: S1_5  and  C5_6 
REMARK    5  A    between atoms: C5_6  and  C6_7 
REMARK    6  A    between atoms: C7_9  and  O2_10 
REMARK    7  A    between atoms: O2_10  and  N1_11 
REMARK    8  A    between atoms: C12_18  and  O5_19 
REMARK    9  A    between atoms: C13_21  and  O6_22 
ROOT
HETATM    1  C6  UNL     1      -9.195  12.759 -22.248  1.00  0.00     0.165 C 
HETATM    2  O1  UNL     1      -8.665  11.858 -21.376  1.00  0.00    -0.344 OA
HETATM    3  C7  UNL     1      -7.751  12.322 -20.459  1.00  0.00     0.202 C 
HETATM    4  C8  UNL     1      -7.654  11.272 -19.363  1.00  0.00     0.072 C 
HETATM    5  C9  UNL     1      -7.639  11.964 -18.049  1.00  0.00     0.006 C 
HETATM    6  C10 UNL     1      -8.069  13.365 -18.291  1.00  0.00     0.013 C 
HETATM    7  C11 UNL     1      -8.154  13.575 -19.759  1.00  0.00     0.082 C 
HETATM    8  C12 UNL     1      -9.512  14.068 -20.211  1.00  0.00     0.158 C 
HETATM    9  C13 UNL     1      -9.433  14.132 -21.740  1.00  0.00     0.177 C 
ENDROOT
BRANCH   1  10
HETATM   10  C5  UNL     1     -10.472  12.122 -22.815  1.00  0.00     0.108 C 
BRANCH  10  11
HETATM   11  S1  UNL     1     -10.554  10.365 -22.512  1.00  0.00    -0.166 SA
BRANCH  11  12
HETATM   12  C4  UNL     1     -10.703   9.375 -23.998  1.00  0.00     0.074 C 
BRANCH  12  13
HETATM   13  C3  UNL     1     -11.045  10.206 -25.217  1.00  0.00     0.010 C 
BRANCH  13  14
HETATM   14  C2  UNL     1      -9.995   9.953 -26.295  1.00  0.00    -0.004 C 
HETATM   15  C1  UNL     1      -9.183  11.176 -26.598  1.00  0.00     0.005 C 
ENDBRANCH  13  14
ENDBRANCH  12  13
ENDBRANCH  11  12
ENDBRANCH  10  11
ENDBRANCH   1  10
BRANCH   9  16
HETATM   16  O6  UNL     1      -8.420  15.008 -22.120  1.00  0.00    -0.390 OA
ATOM     17  H6  UNL     1      -8.627  15.458 -22.931  1.00  0.00     0.210 HD
ENDBRANCH   9  16
BRANCH   3  18
HETATM   18  O2  UNL     1      -6.446  12.401 -21.046  1.00  0.00    -0.180 OA
BRANCH  18  19
HETATM   19  N1  UNL     1      -5.767  13.573 -21.091  1.00  0.00     0.008 N 
HETATM   20  O3  UNL     1      -5.168  14.054 -20.110  1.00  0.00    -0.511 OA
HETATM   21  O4  UNL     1      -5.719  14.293 -22.259  1.00  0.00    -0.511 OA
ENDBRANCH  18  19
ENDBRANCH   3  18
BRANCH   8  22
HETATM   22  O5  UNL     1     -10.540  13.201 -19.902  1.00  0.00    -0.392 OA
ATOM     23  H5  UNL     1     -10.534  12.408 -20.426  1.00  0.00     0.210 HD
ENDBRANCH   8  22
TORSDOF 9
ENDMDL
MODEL 4
REMARK VINA RESULT: -6.608429019      2.636      3.738
REMARK  9 active torsions:
REMARK  status: ('A' for Active; 'I' for Inactive)
REMARK    1  A    between atoms: C2_2  and  C3_3 
REMARK    2  A    between atoms: C3_3  and  C4_4 
REMARK    3  A    between atoms: C4_4  and  S1_5 
REMARK    4  A    between atoms: S1_5  and  C5_6 
REMARK    5  A    between atoms: C5_6  and  C6_7 
REMARK    6  A    between atoms: C7_9  and  O2_10 
REMARK    7  A    between atoms: O2_10  and  N1_11 
REMARK    8  A    between atoms: C12_18  and  O5_19 
REMARK    9  A    between atoms: C13_21  and  O6_22 
ROOT
HETATM    1  C6  UNL     1      -8.632  12.317 -20.403  1.00  0.00     0.165 C 
HETATM    2  O1  UNL     1      -8.914  11.277 -21.236  1.00  0.00    -0.344 OA
HETATM    3  C7  UNL     1     -10.219  11.122 -21.641  1.00  0.00     0.202 C 
HETATM    4  C8  UNL     1     -10.197  10.213 -22.860  1.00  0.00     0.072 C 
HETATM    5  C9  UNL     1     -11.127  10.769 -23.876  1.00  0.00     0.006 C 
HETATM    6  C10 UNL     1     -11.448  12.157 -23.458  1.00  0.00     0.013 C 
HETATM    7  C11 UNL     1     -10.879  12.375 -22.104  1.00  0.00     0.082 C 
HETATM    8  C12 UNL     1      -9.948  13.568 -22.037  1.00  0.00     0.158 C 
HETATM    9  C13 UNL     1      -9.396  13.572 -20.607  1.00  0.00     0.177 C 
ENDROOT
BRANCH   1  10
HETATM   10  C5  UNL     1      -7.115  12.544 -20.482  1.00  0.00     0.108 C 
BRANCH  10  11
HETATM   11  S1  UNL     1      -6.446  13.231 -18.977  1.00  0.00    -0.166 SA
BRANCH  11  12
HETATM   12  C4  UNL     1      -7.352  12.773 -17.500  1.00  0.00     0.074 C 
BRANCH  12  13
HETATM   13  C3  UNL     1      -6.998  11.384 -17.010  1.00  0.00     0.010 C 
BRANCH  13  14
HETATM   14  C2  UNL     1      -8.288  10.619 -16.725  1.00  0.00    -0.004 C 
HETATM   15  C1  UNL     1      -8.654  10.643 -15.271  1.00  0.00     0.005 C 
ENDBRANCH  13  14
ENDBRANCH  12  13
ENDBRANCH  11  12
ENDBRANCH  10  11
ENDBRANCH   1  10
BRANCH   9  16
HETATM   16  O6  UNL     1     -10.446  13.692 -19.701  1.00  0.00    -0.390 OA
ATOM     17  H6  UNL     1     -10.873  14.539 -19.765  1.00  0.00     0.210 HD
ENDBRANCH   9  16
BRANCH   3  18
HETATM   18  O2  UNL     1     -10.976  10.424 -20.643  1.00  0.00    -0.180 OA
BRANCH  18  19
HETATM   19  N1  UNL     1     -10.711   9.130 -20.341  1.00  0.00     0.008 N 
HETATM   20  O3  UNL     1     -11.370   8.174 -20.794  1.00  0.00    -0.511 OA
HETATM   21  O4  UNL     1      -9.675   8.822 -19.494  1.00  0.00    -0.511 OA
ENDBRANCH  18  19
ENDBRANCH   3  18
BRANCH   8  22
HETATM   22  O5  UNL     1      -8.862  13.463 -22.882  1.00  0.00    -0.392 OA
ATOM     23  H5  UNL     1      -8.870  12.673 -23.409  1.00  0.00     0.210 HD
ENDBRANCH   8  22
TORSDOF 9
ENDMDL
MODEL 5
REMARK VINA RESULT: -6.584970266      3.464      5.452
REMARK  9 active torsions:
REMARK  status: ('A' for Active; 'I' for Inactive)
REMARK    1  A    between atoms: C2_2  and  C3_3 
REMARK    2  A    between atoms: C3_3  and  C4_4 
REMARK    3  A    between atoms: C4_4  and  S1_5 
REMARK    4  A    between atoms: S1_5  and  C5_6 
REMARK    5  A    between atoms: C5_6  and  C6_7 
REMARK    6  A    between atoms: C7_9  and  O2_10 
REMARK    7  A    between atoms: O2_10  and  N1_11 
REMARK    8  A    between atoms: C12_18  and  O5_19 
REMARK    9  A    between atoms: C13_21  and  O6_22 
ROOT
HETATM    1  C6  UNL     1      -8.653  12.145 -19.873  1.00  0.00     0.165 C 
HETATM    2  O1  UNL     1      -9.019  11.917 -21.164  1.00  0.00    -0.344 OA
HETATM    3  C7  UNL     1      -9.618  12.951 -21.847  1.00  0.00     0.202 C 
HETATM    4  C8  UNL     1      -9.524  12.612 -23.327  1.00  0.00     0.072 C 
HETATM    5  C9  UNL     1      -9.133  13.841 -24.066  1.00  0.00     0.006 C 
HETATM    6  C10 UNL     1      -8.653  14.819 -23.057  1.00  0.00     0.013 C 
HETATM    7  C11 UNL     1      -8.933  14.266 -21.707  1.00  0.00     0.082 C 
HETATM    8  C12 UNL     1      -7.699  14.177 -20.835  1.00  0.00     0.158 C 
HETATM    9  C13 UNL     1      -8.165  13.505 -19.539  1.00  0.00     0.177 C 
ENDROOT
BRANCH   1  10
HETATM   10  C5  UNL     1      -7.630  11.058 -19.509  1.00  0.00     0.108 C 
BRANCH  10  11
HETATM   11  S1  UNL     1      -8.226   9.956 -18.237  1.00  0.00    -0.166 SA
BRANCH  11  12
HETATM   12  C4  UNL     1      -7.494  10.238 -16.626  1.00  0.00     0.074 C 
BRANCH  12  13
HETATM   13  C3  UNL     1      -8.218  11.312 -15.839  1.00  0.00     0.010 C 
BRANCH  13  14
HETATM   14  C2  UNL     1      -9.062  10.643 -14.757  1.00  0.00    -0.004 C 
HETATM   15  C1  UNL     1      -8.305   9.579 -14.021  1.00  0.00     0.005 C 
ENDBRANCH  13  14
ENDBRANCH  12  13
ENDBRANCH  11  12
ENDBRANCH  10  11
ENDBRANCH   1  10
BRANCH   9  16
HETATM   16  O6  UNL     1      -9.156  14.279 -18.942  1.00  0.00    -0.390 OA
ATOM     17  H6  UNL     1      -9.015  14.375 -18.007  1.00  0.00     0.210 HD
ENDBRANCH   9  16
BRANCH   3  18
HETATM   18  O2  UNL     1     -11.017  13.010 -21.544  1.00  0.00    -0.180 OA
BRANCH  18  19
HETATM   19  N1  UNL     1     -11.846  11.984 -21.856  1.00  0.00     0.008 N 
HETATM   20  O3  UNL     1     -12.520  11.945 -22.903  1.00  0.00    -0.511 OA
HETATM   21  O4  UNL     1     -11.974  10.920 -20.997  1.00  0.00    -0.511 OA
ENDBRANCH  18  19
ENDBRANCH   3  18
BRANCH   8  22
HETATM   22  O5  UNL     1      -6.710  13.373 -21.366  1.00  0.00    -0.392 OA
ATOM     23  H5  UNL     1      -6.679  12.507 -20.976  1.00  0.00     0.210 HD
ENDBRANCH   8  22
TORSDOF 9
ENDMDL
