MODEL 1
REMARK VINA RESULT: -6.651602141      0.000      0.000
REMARK  8 active torsions:
REMARK  status: ('A' for Active; 'I' for Inactive)
REMARK    1  A    between atoms: N1_2  and  C2_5 
REMARK    2  A    between atoms: C2_5  and  C3_6 
REMARK    3  A    between atoms: C3_6  and  C4_7 
REMARK    4  A    between atoms: C4_7  and  O1_8 
REMARK    5  A    between atoms: O1_8  and  C5_9 
REMARK    6  A    between atoms: C5_9  and  C6_10 
REMARK    7  A    between atoms: C12_16  and  N2_17 
REMARK    8  A    between atoms: C15_20  and  O2_21 
ROOT
HETATM    1  C6  UNL     1      -8.735  11.663 -19.808  1.00  0.00     0.162 C 
HETATM    2  C7  UNL     1      -9.002  11.604 -21.264  1.00  0.00     0.048 C 
HETATM    3  C8  UNL     1     -10.252  10.907 -21.694  1.00  0.00     0.004 C 
HETATM    4  C9  UNL     1     -11.432  11.508 -20.908  1.00  0.00     0.012 C 
HETATM    5  C10 UNL     1     -11.642  12.436 -22.067  1.00  0.00     0.002 C 
HETATM    6  C11 UNL     1     -10.902  11.457 -22.930  1.00  0.00     0.012 C 
HETATM    7  C12 UNL     1     -10.257   9.436 -21.506  1.00  0.00     0.320 C 
HETATM    8  S1  UNL     1      -9.612   9.210 -19.791  1.00  0.00     0.026 SA
HETATM    9  O3  UNL     1      -9.333  10.684 -19.048  1.00  0.00    -0.310 OA
ENDROOT
BRANCH   1  10
HETATM   10  C5  UNL     1      -7.208  11.645 -19.623  1.00  0.00     0.200 C 
BRANCH  10  11
HETATM   11  O1  UNL     1      -6.667  12.336 -20.713  1.00  0.00    -0.389 OA
BRANCH  11  12
HETATM   12  C4  UNL     1      -6.148  13.561 -20.280  1.00  0.00     0.169 C 
BRANCH  12  13
HETATM   13  C3  UNL     1      -5.411  14.236 -21.396  1.00  0.00     0.054 C 
BRANCH  13  14
HETATM   14  C2  UNL     1      -6.401  14.718 -22.450  1.00  0.00     0.234 C 
BRANCH  14  15
HETATM   15  N1  UNL     1      -7.741  14.714 -21.847  1.00  0.00    -0.079 N 
HETATM   16  C1  UNL     1      -8.700  14.800 -22.928  1.00  0.00     0.266 C 
ATOM     17  H12 UNL     1      -7.865  15.444 -21.145  1.00  0.00     0.276 HD
ATOM     18  H11 UNL     1      -7.900  13.913 -21.236  1.00  0.00     0.276 HD
ENDBRANCH  14  15
ENDBRANCH  13  14
ENDBRANCH  12  13
ENDBRANCH  11  12
ENDBRANCH  10  11
ENDBRANCH   1  10
BRANCH   7  19
HETATM   19  N2  UNL     1      -9.449   8.629 -22.320  1.00  0.00     0.108 N 
HETATM   20  C13 UNL     1      -9.949   8.137 -23.545  1.00  0.00     0.277 C 
HETATM   21  C14 UNL     1     -10.921   7.016 -23.228  1.00  0.00     0.064 C 
HETATM   22  C15 UNL     1     -10.352   6.470 -21.939  1.00  0.00     0.148 C 
HETATM   23  C16 UNL     1      -9.216   7.378 -21.570  1.00  0.00     0.305 C 
BRANCH  22  24
HETATM   24  O2  UNL     1     -11.349   6.432 -20.972  1.00  0.00    -0.394 OA
ATOM     25  H2  UNL     1     -11.987   5.767 -21.202  1.00  0.00     0.210 HD
ENDBRANCH  22  24
ENDBRANCH   7  19
TORSDOF 8
ENDMDL
MODEL 2
REMARK VINA RESULT: -6.348480464      1.870      2.742
REMARK  8 active torsions:
REMARK  status: ('A' for Active; 'I' for Inactive)
REMARK    1  A    between atoms: N1_2  and  C2_5 
REMARK    2  A    between atoms: C2_5  and  C3_6 
REMARK    3  A    between atoms: C3_6  and  C4_7 
REMARK    4  A    between atoms: C4_7  and  O1_8 
REMARK    5  A    between atoms: O1_8  and  C5_9 
REMARK    6  A    between atoms: C5_9  and  C6_10 
REMARK    7  A    between atoms: C12_16  and  N2_17 
REMARK    8  A    between atoms: C15_20  and  O2_21 
ROOT
HETATM    1  C6  UNL     1      -8.864  12.163 -20.688  1.00  0.00     0.162 C 
HETATM    2  C7  UNL     1      -9.288  11.802 -22.060  1.00  0.00     0.048 C 
HETATM    3  C8  UNL     1     -10.483  10.913 -22.186  1.00  0.00     0.004 C 
HETATM    4  C9  UNL     1     -11.629  11.530 -21.364  1.00  0.00     0.012 C 
HETATM    5  C10 UNL     1     -12.086  12.195 -22.628  1.00  0.00     0.002 C 
HETATM    6  C11 UNL     1     -11.335  11.150 -23.399  1.00  0.00     0.012 C 
HETATM    7  C12 UNL     1     -10.283   9.512 -21.744  1.00  0.00     0.320 C 
HETATM    8  S1  UNL     1      -9.421   9.682 -20.121  1.00  0.00     0.026 SA
HETATM    9  O3  UNL     1      -9.243  11.291 -19.693  1.00  0.00    -0.310 OA
ENDROOT
BRANCH   1  10
HETATM   10  C5  UNL     1      -7.336  12.335 -20.713  1.00  0.00     0.200 C 
BRANCH  10  11
HETATM   11  O1  UNL     1      -6.894  12.164 -19.397  1.00  0.00    -0.389 OA
BRANCH  11  12
HETATM   12  C4  UNL     1      -6.303  13.348 -18.943  1.00  0.00     0.169 C 
BRANCH  12  13
HETATM   13  C3  UNL     1      -6.685  13.606 -17.517  1.00  0.00     0.054 C 
BRANCH  13  14
HETATM   14  C2  UNL     1      -7.582  12.481 -17.014  1.00  0.00     0.234 C 
BRANCH  14  15
HETATM   15  N1  UNL     1      -6.722  11.360 -16.613  1.00  0.00    -0.079 N 
HETATM   16  C1  UNL     1      -7.539  10.166 -16.616  1.00  0.00     0.266 C 
ATOM     17  H12 UNL     1      -6.250  11.518 -15.722  1.00  0.00     0.276 HD
ATOM     18  H11 UNL     1      -5.886  11.273 -17.191  1.00  0.00     0.276 HD
ENDBRANCH  14  15
ENDBRANCH  13  14
ENDBRANCH  12  13
ENDBRANCH  11  12
ENDBRANCH  10  11
ENDBRANCH   1  10
BRANCH   7  19
HETATM   19  N2  UNL     1      -9.480   8.651 -22.507  1.00  0.00     0.108 N 
HETATM   20  C13 UNL     1      -9.996   8.062 -23.682  1.00  0.00     0.277 C 
HETATM   21  C14 UNL     1     -10.952   6.961 -23.262  1.00  0.00     0.064 C 
HETATM   22  C15 UNL     1     -10.357   6.521 -21.945  1.00  0.00     0.148 C 
HETATM   23  C16 UNL     1      -9.224   7.464 -21.667  1.00  0.00     0.305 C 
BRANCH  22  24
HETATM   24  O2  UNL     1     -11.339   6.549 -20.962  1.00  0.00    -0.394 OA
ATOM     25  H2  UNL     1     -11.689   5.675 -20.839  1.00  0.00     0.210 HD
ENDBRANCH  22  24
ENDBRANCH   7  19
TORSDOF 8
ENDMDL
MODEL 3
REMARK VINA RESULT: -6.119343327      2.689      6.451
REMARK  8 active torsions:
REMARK  status: ('A' for Active; 'I' for Inactive)
REMARK    1  A    between atoms: N1_2  and  C2_5 
REMARK    2  A    between atoms: C2_5  and  C3_6 
REMARK    3  A    between atoms: C3_6  and  C4_7 
REMARK    4  A    between atoms: C4_7  and  O1_8 
REMARK    5  A    between atoms: O1_8  and  C5_9 
REMARK    6  A    between atoms: C5_9  and  C6_10 
REMARK    7  A    between atoms: C12_16  and  N2_17 
REMARK    8  A    between atoms: C15_20  and  O2_21 
ROOT
HETATM    1  C6  UNL     1     -11.280  10.472 -23.704  1.00  0.00     0.162 C 
HETATM    2  C7  UNL     1     -10.180   9.936 -22.870  1.00  0.00     0.048 C 
HETATM    3  C8  UNL     1     -10.171  10.333 -21.429  1.00  0.00     0.004 C 
HETATM    4  C9  UNL     1     -11.557  10.024 -20.836  1.00  0.00     0.012 C 
HETATM    5  C10 UNL     1     -11.000   8.704 -20.397  1.00  0.00     0.002 C 
HETATM    6  C11 UNL     1      -9.627   9.304 -20.482  1.00  0.00     0.012 C 
HETATM    7  C12 UNL     1      -9.847  11.756 -21.163  1.00  0.00     0.320 C 
HETATM    8  S1  UNL     1     -10.895  12.677 -22.372  1.00  0.00     0.026 SA
HETATM    9  O3  UNL     1     -11.862  11.635 -23.255  1.00  0.00    -0.310 OA
ENDROOT
BRANCH   1  10
HETATM   10  C5  UNL     1     -10.727  10.650 -25.129  1.00  0.00     0.200 C 
BRANCH  10  11
HETATM   11  O1  UNL     1     -10.283   9.390 -25.543  1.00  0.00    -0.389 OA
BRANCH  11  12
HETATM   12  C4  UNL     1     -11.205   8.841 -26.441  1.00  0.00     0.169 C 
BRANCH  12  13
HETATM   13  C3  UNL     1     -11.442   7.396 -26.124  1.00  0.00     0.054 C 
BRANCH  13  14
HETATM   14  C2  UNL     1     -10.391   6.908 -25.134  1.00  0.00     0.234 C 
BRANCH  14  15
HETATM   15  N1  UNL     1     -11.031   6.788 -23.817  1.00  0.00    -0.079 N 
HETATM   16  C1  UNL     1     -10.126   6.050 -22.963  1.00  0.00     0.266 C 
ATOM     17  H12 UNL     1     -11.963   6.375 -23.862  1.00  0.00     0.276 HD
ATOM     18  H11 UNL     1     -11.304   7.689 -23.424  1.00  0.00     0.276 HD
ENDBRANCH  14  15
ENDBRANCH  13  14
ENDBRANCH  12  13
ENDBRANCH  11  12
ENDBRANCH  10  11
ENDBRANCH   1  10
BRANCH   7  19
HETATM   19  N2  UNL     1      -8.540  12.221 -21.368  1.00  0.00     0.108 N 
HETATM   20  C13 UNL     1      -7.551  12.005 -20.383  1.00  0.00     0.277 C 
HETATM   21  C14 UNL     1      -7.822  12.968 -19.242  1.00  0.00     0.064 C 
HETATM   22  C15 UNL     1      -8.463  14.130 -19.964  1.00  0.00     0.148 C 
HETATM   23  C16 UNL     1      -8.619  13.696 -21.391  1.00  0.00     0.305 C 
BRANCH  22  24
HETATM   24  O2  UNL     1      -9.673  14.441 -19.357  1.00  0.00    -0.394 OA
ATOM     25  H2  UNL     1     -10.323  14.626 -20.025  1.00  0.00     0.210 HD
ENDBRANCH  22  24
ENDBRANCH   7  19
TORSDOF 8
ENDMDL
MODEL 4
REMARK VINA RESULT: -5.965975998      3.048      6.625
REMARK  8 active torsions:
REMARK  status: ('A' for Active; 'I' for Inactive)
REMARK    1  A    between atoms: N1_2  and  C2_5 
REMARK    2  A    between atoms: C2_5  and  C3_6 
REMARK    3  A    between atoms: C3_6  and  C4_7 
REMARK    4  A    between atoms: C4_7  and  O1_8 
REMARK    5  A    between atoms: O1_8  and  C5_9 
REMARK    6  A    between atoms: C5_9  and  C6_10 
REMARK    7  A    between atoms: C12_16  and  N2_17 
REMARK    8  A    between atoms: C15_20  and  O2_21 
ROOT
HETATM    1  C6  UNL     1     -11.232  10.461 -23.752  1.00  0.00     0.162 C 
HETATM    2  C7  UNL     1     -10.148   9.919 -22.902  1.00  0.00     0.048 C 
HETATM    3  C8  UNL     1     -10.164  10.305 -21.458  1.00  0.00     0.004 C 
HETATM    4  C9  UNL     1     -11.561   9.992 -20.893  1.00  0.00     0.012 C 
HETATM    5  C10 UNL     1     -11.013   8.669 -20.453  1.00  0.00     0.002 C 
HETATM    6  C11 UNL     1      -9.638   9.268 -20.509  1.00  0.00     0.012 C 
HETATM    7  C12 UNL     1      -9.845  11.725 -21.176  1.00  0.00     0.320 C 
HETATM    8  S1  UNL     1     -10.870  12.656 -22.397  1.00  0.00     0.026 SA
HETATM    9  O3  UNL     1     -11.821  11.622 -23.305  1.00  0.00    -0.310 OA
ENDROOT
BRANCH   1  10
HETATM   10  C5  UNL     1     -10.653  10.649 -25.165  1.00  0.00     0.200 C 
BRANCH  10  11
HETATM   11  O1  UNL     1     -11.195   9.631 -25.956  1.00  0.00    -0.389 OA
BRANCH  11  12
HETATM   12  C4  UNL     1     -10.164   8.831 -26.462  1.00  0.00     0.169 C 
BRANCH  12  13
HETATM   13  C3  UNL     1     -10.209   7.469 -25.839  1.00  0.00     0.054 C 
BRANCH  13  14
HETATM   14  C2  UNL     1     -11.276   6.625 -26.526  1.00  0.00     0.234 C 
BRANCH  14  15
HETATM   15  N1  UNL     1     -12.579   6.984 -25.951  1.00  0.00    -0.079 N 
HETATM   16  C1  UNL     1     -13.550   6.944 -27.024  1.00  0.00     0.266 C 
ATOM     17  H12 UNL     1     -12.565   7.878 -25.459  1.00  0.00     0.276 HD
ATOM     18  H11 UNL     1     -12.838   6.400 -25.157  1.00  0.00     0.276 HD
ENDBRANCH  14  15
ENDBRANCH  13  14
ENDBRANCH  12  13
ENDBRANCH  11  12
ENDBRANCH  10  11
ENDBRANCH   1  10
BRANCH   7  19
HETATM   19  N2  UNL     1      -8.534  12.191 -21.354  1.00  0.00     0.108 N 
HETATM   20  C13 UNL     1      -7.568  11.982 -20.346  1.00  0.00     0.277 C 
HETATM   21  C14 UNL     1      -7.865  12.950 -19.215  1.00  0.00     0.064 C 
HETATM   22  C15 UNL     1      -8.491  14.107 -19.957  1.00  0.00     0.148 C 
HETATM   23  C16 UNL     1      -8.615  13.666 -21.386  1.00  0.00     0.305 C 
BRANCH  22  24
HETATM   24  O2  UNL     1      -9.715  14.420 -19.380  1.00  0.00    -0.394 OA
ATOM     25  H2  UNL     1      -9.816  15.364 -19.343  1.00  0.00     0.210 HD
ENDBRANCH  22  24
ENDBRANCH   7  19
TORSDOF 8
ENDMDL
MODEL 5
REMARK VINA RESULT: -5.886975195      2.085      6.504
REMARK  8 active torsions:
REMARK  status: ('A' for Active; 'I' for Inactive)
REMARK    1  A    between atoms: N1_2  and  C2_5 
REMARK    2  A    between atoms: C2_5  and  C3_6 
REMARK    3  A    between atoms: C3_6  and  C4_7 
REMARK    4  A    between atoms: C4_7  and  O1_8 
REMARK    5  A    between atoms: O1_8  and  C5_9 
REMARK    6  A    between atoms: C5_9  and  C6_10 
REMARK    7  A    between atoms: C12_16  and  N2_17 
REMARK    8  A    between atoms: C15_20  and  O2_21 
ROOT
HETATM    1  C6  UNL     1      -8.756  10.944 -19.507  1.00  0.00     0.162 C 
HETATM    2  C7  UNL     1      -7.413  11.503 -19.785  1.00  0.00     0.048 C 
HETATM    3  C8  UNL     1      -7.292  12.992 -19.803  1.00  0.00     0.004 C 
HETATM    4  C9  UNL     1      -7.892  13.539 -18.495  1.00  0.00     0.012 C 
HETATM    5  C10 UNL     1      -6.506  13.509 -17.925  1.00  0.00     0.002 C 
HETATM    6  C11 UNL     1      -5.975  13.535 -19.329  1.00  0.00     0.012 C 
HETATM    7  C12 UNL     1      -7.947  13.671 -20.946  1.00  0.00     0.320 C 
HETATM    8  S1  UNL     1      -9.611  12.875 -21.033  1.00  0.00     0.026 SA
HETATM    9  O3  UNL     1      -9.820  11.768 -19.795  1.00  0.00    -0.310 OA
ENDROOT
BRANCH   1  10
HETATM   10  C5  UNL     1      -8.866   9.617 -20.278  1.00  0.00     0.200 C 
BRANCH  10  11
HETATM   11  O1  UNL     1      -9.920   8.905 -19.695  1.00  0.00    -0.389 OA
BRANCH  11  12
HETATM   12  C4  UNL     1     -11.014   8.888 -20.569  1.00  0.00     0.169 C 
BRANCH  12  13
HETATM   13  C3  UNL     1     -10.543   8.840 -21.990  1.00  0.00     0.054 C 
BRANCH  13  14
HETATM   14  C2  UNL     1     -10.726   7.433 -22.545  1.00  0.00     0.234 C 
BRANCH  14  15
HETATM   15  N1  UNL     1     -10.900   6.517 -21.410  1.00  0.00    -0.079 N 
HETATM   16  C1  UNL     1      -9.907   5.472 -21.543  1.00  0.00     0.266 C 
ATOM     17  H12 UNL     1     -11.851   6.156 -21.331  1.00  0.00     0.276 HD
ATOM     18  H11 UNL     1     -10.862   6.990 -20.508  1.00  0.00     0.276 HD
ENDBRANCH  14  15
ENDBRANCH  13  14
ENDBRANCH  12  13
ENDBRANCH  11  12
ENDBRANCH  10  11
ENDBRANCH   1  10
BRANCH   7  19
HETATM   19  N2  UNL     1      -7.403  13.545 -22.233  1.00  0.00     0.108 N 
HETATM   20  C13 UNL     1      -6.504  14.519 -22.717  1.00  0.00     0.277 C 
HETATM   21  C14 UNL     1      -7.310  15.755 -23.070  1.00  0.00     0.064 C 
HETATM   22  C15 UNL     1      -8.641  15.154 -23.458  1.00  0.00     0.148 C 
HETATM   23  C16 UNL     1      -8.530  13.685 -23.179  1.00  0.00     0.305 C 
BRANCH  22  24
HETATM   24  O2  UNL     1      -9.655  15.767 -22.732  1.00  0.00    -0.394 OA
ATOM     25  H2  UNL     1     -10.331  16.071 -23.327  1.00  0.00     0.210 HD
ENDBRANCH  22  24
ENDBRANCH   7  19
TORSDOF 8
ENDMDL
