MODEL 1
REMARK VINA RESULT: -8.811022425      0.000      0.000
REMARK  8 active torsions:
REMARK  status: ('A' for Active; 'I' for Inactive)
REMARK    1  A    between atoms: C1_2  and  C2_3 
REMARK       I    between atoms: C1_2  and  N5_20 
REMARK    2  A    between atoms: C2_3  and  S1_4 
REMARK    3  A    between atoms: S1_4  and  C3_5 
REMARK    4  A    between atoms: N4_10  and  C4_11 
REMARK    5  A    between atoms: C4_11  and  C5_12 
REMARK    6  A    between atoms: C4_11  and  C6_15 
REMARK    7  A    between atoms: C5_12  and  O2_13 
REMARK    8  A    between atoms: N5_20  and  C11_22 
ROOT
HETATM    1  C3  UNL     1      -9.024  10.986 -19.398  1.00  0.00     0.173 A 
HETATM    2  N1  UNL     1      -9.040   9.771 -18.799  1.00  0.00    -0.265 N 
ATOM      3  H1  UNL     1      -9.719   9.024 -18.946  1.00  0.00     0.186 HD
HETATM    4  N2  UNL     1      -7.995   9.749 -17.983  1.00  0.00    -0.007 NA
HETATM    5  N3  UNL     1      -7.348  10.917 -18.073  1.00  0.00    -0.004 NA
HETATM    6  N4  UNL     1      -7.974  11.690 -18.944  1.00  0.00    -0.248 N 
ENDROOT
BRANCH   1   7
HETATM    7  S1  UNL     1     -10.204  11.580 -20.607  1.00  0.00    -0.082 SA
BRANCH   7   8
HETATM    8  C2  UNL     1     -10.919  10.214 -21.547  1.00  0.00     0.185 C 
BRANCH   8   9
HETATM    9  C1  UNL     1     -11.211  10.590 -22.940  1.00  0.00     0.227 C 
HETATM   10  O1  UNL     1     -12.046  11.506 -23.130  1.00  0.00    -0.273 OA
HETATM   11  N5  UNL     1     -10.584   9.950 -24.011  1.00  0.00    -0.356 N 
ATOM     12  H5  UNL     1      -9.914   9.213 -23.789  1.00  0.00     0.162 HD
BRANCH  11  13
HETATM   13  C11 UNL     1     -10.806  10.247 -25.413  1.00  0.00     0.084 A 
HETATM   14  C12 UNL     1     -10.475   9.145 -26.357  1.00  0.00     0.025 A 
HETATM   15  C13 UNL     1      -9.477  10.021 -27.063  1.00  0.00     0.004 A 
HETATM   16  C14 UNL     1      -9.732  11.098 -26.038  1.00  0.00     0.025 A 
ENDBRANCH  11  13
ENDBRANCH   8   9
ENDBRANCH   7   8
ENDBRANCH   1   7
BRANCH   6  17
HETATM   17  C4  UNL     1      -7.600  13.042 -19.336  1.00  0.00     0.136 C 
BRANCH  17  18
HETATM   18  C5  UNL     1      -6.549  13.509 -18.381  1.00  0.00     0.191 C 
BRANCH  18  19
HETATM   19  O2  UNL     1      -7.063  13.847 -17.130  1.00  0.00    -0.399 OA
ATOM     20  H2  UNL     1      -6.391  13.929 -16.464  1.00  0.00     0.209 HD
ENDBRANCH  18  19
ENDBRANCH  17  18
BRANCH  17  21
HETATM   21  C6  UNL     1      -7.252  13.131 -20.787  1.00  0.00     0.012 C 
HETATM   22  C7  UNL     1      -7.949  14.281 -21.465  1.00  0.00     0.007 C 
HETATM   23  C8  UNL     1      -6.902  14.885 -22.407  1.00  0.00     0.000 C 
HETATM   24  C9  UNL     1      -5.578  14.591 -21.748  1.00  0.00     0.000 C 
HETATM   25  C10 UNL     1      -5.814  13.272 -21.095  1.00  0.00     0.007 C 
ENDBRANCH  17  21
ENDBRANCH   6  17
TORSDOF 8
ENDMDL
MODEL 2
REMARK VINA RESULT: -8.482857838      1.975      2.394
REMARK  8 active torsions:
REMARK  status: ('A' for Active; 'I' for Inactive)
REMARK    1  A    between atoms: C1_2  and  C2_3 
REMARK       I    between atoms: C1_2  and  N5_20 
REMARK    2  A    between atoms: C2_3  and  S1_4 
REMARK    3  A    between atoms: S1_4  and  C3_5 
REMARK    4  A    between atoms: N4_10  and  C4_11 
REMARK    5  A    between atoms: C4_11  and  C5_12 
REMARK    6  A    between atoms: C4_11  and  C6_15 
REMARK    7  A    between atoms: C5_12  and  O2_13 
REMARK    8  A    between atoms: N5_20  and  C11_22 
ROOT
HETATM    1  C3  UNL     1      -9.070  11.306 -19.545  1.00  0.00     0.173 A 
HETATM    2  N1  UNL     1      -9.131  10.042 -19.061  1.00  0.00    -0.265 N 
ATOM      3  H1  UNL     1      -9.925   9.404 -19.113  1.00  0.00     0.186 HD
HETATM    4  N2  UNL     1      -7.951   9.802 -18.507  1.00  0.00    -0.007 NA
HETATM    5  N3  UNL     1      -7.178  10.885 -18.643  1.00  0.00    -0.004 NA
HETATM    6  N4  UNL     1      -7.857  11.821 -19.282  1.00  0.00    -0.248 N 
ENDROOT
BRANCH   1   7
HETATM    7  S1  UNL     1     -10.382  12.171 -20.402  1.00  0.00    -0.082 SA
BRANCH   7   8
HETATM    8  C2  UNL     1     -10.843  11.315 -21.923  1.00  0.00     0.185 C 
BRANCH   8   9
HETATM    9  C1  UNL     1     -10.997   9.864 -21.721  1.00  0.00     0.227 C 
HETATM   10  O1  UNL     1     -11.679   9.485 -20.740  1.00  0.00    -0.273 OA
HETATM   11  N5  UNL     1     -10.405   8.944 -22.590  1.00  0.00    -0.356 N 
ATOM     12  H5  UNL     1      -9.864   9.317 -23.370  1.00  0.00     0.162 HD
BRANCH  11  13
HETATM   13  C11 UNL     1     -10.498   7.502 -22.473  1.00  0.00     0.084 A 
HETATM   14  C12 UNL     1      -9.559   6.881 -21.499  1.00  0.00     0.025 A 
HETATM   15  C13 UNL     1      -8.951   6.041 -22.588  1.00  0.00     0.004 A 
HETATM   16  C14 UNL     1      -9.826   6.750 -23.592  1.00  0.00     0.025 A 
ENDBRANCH  11  13
ENDBRANCH   8   9
ENDBRANCH   7   8
ENDBRANCH   1   7
BRANCH   6  17
HETATM   17  C4  UNL     1      -7.386  13.155 -19.635  1.00  0.00     0.136 C 
BRANCH  17  18
HETATM   18  C5  UNL     1      -6.276  13.498 -18.694  1.00  0.00     0.191 C 
BRANCH  18  19
HETATM   19  O2  UNL     1      -6.724  13.770 -17.402  1.00  0.00    -0.399 OA
ATOM     20  H2  UNL     1      -6.195  14.420 -16.955  1.00  0.00     0.209 HD
ENDBRANCH  18  19
ENDBRANCH  17  18
BRANCH  17  21
HETATM   21  C6  UNL     1      -7.068  13.272 -21.091  1.00  0.00     0.012 C 
HETATM   22  C7  UNL     1      -7.909  14.322 -21.768  1.00  0.00     0.007 C 
HETATM   23  C8  UNL     1      -6.956  15.042 -22.728  1.00  0.00     0.000 C 
HETATM   24  C9  UNL     1      -5.598  14.918 -22.084  1.00  0.00     0.000 C 
HETATM   25  C10 UNL     1      -5.662  13.585 -21.419  1.00  0.00     0.007 C 
ENDBRANCH  17  21
ENDBRANCH   6  17
TORSDOF 8
ENDMDL
MODEL 3
REMARK VINA RESULT: -8.374175655      1.584      1.962
REMARK  8 active torsions:
REMARK  status: ('A' for Active; 'I' for Inactive)
REMARK    1  A    between atoms: C1_2  and  C2_3 
REMARK       I    between atoms: C1_2  and  N5_20 
REMARK    2  A    between atoms: C2_3  and  S1_4 
REMARK    3  A    between atoms: S1_4  and  C3_5 
REMARK    4  A    between atoms: N4_10  and  C4_11 
REMARK    5  A    between atoms: C4_11  and  C5_12 
REMARK    6  A    between atoms: C4_11  and  C6_15 
REMARK    7  A    between atoms: C5_12  and  O2_13 
REMARK    8  A    between atoms: N5_20  and  C11_22 
ROOT
HETATM    1  C3  UNL     1      -8.602  10.511 -19.508  1.00  0.00     0.173 A 
HETATM    2  N1  UNL     1      -8.307  10.017 -18.282  1.00  0.00    -0.265 N 
ATOM      3  H1  UNL     1      -8.323   9.038 -17.996  1.00  0.00     0.186 HD
HETATM    4  N2  UNL     1      -7.995  11.062 -17.528  1.00  0.00    -0.007 NA
HETATM    5  N3  UNL     1      -8.092  12.174 -18.265  1.00  0.00    -0.004 NA
HETATM    6  N4  UNL     1      -8.466  11.848 -19.490  1.00  0.00    -0.248 N 
ENDROOT
BRANCH   1   7
HETATM    7  S1  UNL     1      -9.094   9.555 -20.939  1.00  0.00    -0.082 SA
BRANCH   7   8
HETATM    8  C2  UNL     1     -10.874   9.668 -21.219  1.00  0.00     0.185 C 
BRANCH   8   9
HETATM    9  C1  UNL     1     -11.195  10.153 -22.571  1.00  0.00     0.227 C 
HETATM   10  O1  UNL     1     -11.956  11.145 -22.666  1.00  0.00    -0.273 OA
HETATM   11  N5  UNL     1     -10.674   9.531 -23.708  1.00  0.00    -0.356 N 
ATOM     12  H5  UNL     1     -10.061   8.728 -23.563  1.00  0.00     0.162 HD
BRANCH  11  13
HETATM   13  C11 UNL     1     -10.933   9.932 -25.077  1.00  0.00     0.084 A 
HETATM   14  C12 UNL     1     -10.393   9.017 -26.120  1.00  0.00     0.025 A 
HETATM   15  C13 UNL     1      -9.567  10.132 -26.701  1.00  0.00     0.004 A 
HETATM   16  C14 UNL     1     -10.028  11.028 -25.577  1.00  0.00     0.025 A 
ENDBRANCH  11  13
ENDBRANCH   8   9
ENDBRANCH   7   8
ENDBRANCH   1   7
BRANCH   6  17
HETATM   17  C4  UNL     1      -8.690  12.758 -20.606  1.00  0.00     0.136 C 
BRANCH  17  18
HETATM   18  C5  UNL     1     -10.096  13.256 -20.500  1.00  0.00     0.191 C 
BRANCH  18  19
HETATM   19  O2  UNL     1     -10.696  13.459 -21.742  1.00  0.00    -0.399 OA
ATOM     20  H2  UNL     1     -10.382  14.240 -22.182  1.00  0.00     0.209 HD
ENDBRANCH  18  19
ENDBRANCH  17  18
BRANCH  17  21
HETATM   21  C6  UNL     1      -7.629  13.806 -20.698  1.00  0.00     0.012 C 
HETATM   22  C7  UNL     1      -6.247  13.208 -20.719  1.00  0.00     0.007 C 
HETATM   23  C8  UNL     1      -5.468  14.033 -21.750  1.00  0.00     0.000 C 
HETATM   24  C9  UNL     1      -6.513  14.507 -22.728  1.00  0.00     0.000 C 
HETATM   25  C10 UNL     1      -7.713  14.706 -21.867  1.00  0.00     0.007 C 
ENDBRANCH  17  21
ENDBRANCH   6  17
TORSDOF 8
ENDMDL
MODEL 4
REMARK VINA RESULT: -8.367854560      0.898      1.100
REMARK  8 active torsions:
REMARK  status: ('A' for Active; 'I' for Inactive)
REMARK    1  A    between atoms: C1_2  and  C2_3 
REMARK       I    between atoms: C1_2  and  N5_20 
REMARK    2  A    between atoms: C2_3  and  S1_4 
REMARK    3  A    between atoms: S1_4  and  C3_5 
REMARK    4  A    between atoms: N4_10  and  C4_11 
REMARK    5  A    between atoms: C4_11  and  C5_12 
REMARK    6  A    between atoms: C4_11  and  C6_15 
REMARK    7  A    between atoms: C5_12  and  O2_13 
REMARK    8  A    between atoms: N5_20  and  C11_22 
ROOT
HETATM    1  C3  UNL     1      -9.288  11.005 -19.722  1.00  0.00     0.173 A 
HETATM    2  N1  UNL     1      -9.368   9.734 -19.259  1.00  0.00    -0.265 N 
ATOM      3  H1  UNL     1     -10.111   9.061 -19.442  1.00  0.00     0.186 HD
HETATM    4  N2  UNL     1      -8.284   9.543 -18.519  1.00  0.00    -0.007 NA
HETATM    5  N3  UNL     1      -7.552  10.663 -18.522  1.00  0.00    -0.004 NA
HETATM    6  N4  UNL     1      -8.161  11.573 -19.262  1.00  0.00    -0.248 N 
ENDROOT
BRANCH   1   7
HETATM    7  S1  UNL     1     -10.483  11.817 -20.779  1.00  0.00    -0.082 SA
BRANCH   7   8
HETATM    8  C2  UNL     1     -11.562  10.616 -21.588  1.00  0.00     0.185 C 
BRANCH   8   9
HETATM    9  C1  UNL     1     -10.873   9.884 -22.664  1.00  0.00     0.227 C 
HETATM   10  O1  UNL     1     -10.180   8.891 -22.338  1.00  0.00    -0.273 OA
HETATM   11  N5  UNL     1     -10.985  10.281 -23.998  1.00  0.00    -0.356 N 
ATOM     12  H5  UNL     1     -11.565  11.096 -24.197  1.00  0.00     0.162 HD
BRANCH  11  13
HETATM   13  C11 UNL     1     -10.346   9.628 -25.124  1.00  0.00     0.084 A 
HETATM   14  C12 UNL     1      -9.952  10.529 -26.242  1.00  0.00     0.025 A 
HETATM   15  C13 UNL     1     -10.818   9.755 -27.198  1.00  0.00     0.004 A 
HETATM   16  C14 UNL     1     -11.302   8.913 -26.043  1.00  0.00     0.025 A 
ENDBRANCH  11  13
ENDBRANCH   8   9
ENDBRANCH   7   8
ENDBRANCH   1   7
BRANCH   6  17
HETATM   17  C4  UNL     1      -7.703  12.931 -19.528  1.00  0.00     0.136 C 
BRANCH  17  18
HETATM   18  C5  UNL     1      -6.705  13.280 -18.470  1.00  0.00     0.191 C 
BRANCH  18  19
HETATM   19  O2  UNL     1      -7.250  13.275 -17.187  1.00  0.00    -0.399 OA
ATOM     20  H2  UNL     1      -7.704  14.082 -16.974  1.00  0.00     0.209 HD
ENDBRANCH  18  19
ENDBRANCH  17  18
BRANCH  17  21
HETATM   21  C6  UNL     1      -7.247  13.103 -20.941  1.00  0.00     0.012 C 
HETATM   22  C7  UNL     1      -7.882  14.302 -21.595  1.00  0.00     0.007 C 
HETATM   23  C8  UNL     1      -6.763  14.950 -22.418  1.00  0.00     0.000 C 
HETATM   24  C9  UNL     1      -5.495  14.599 -21.682  1.00  0.00     0.000 C 
HETATM   25  C10 UNL     1      -5.788  13.246 -21.132  1.00  0.00     0.007 C 
ENDBRANCH  17  21
ENDBRANCH   6  17
TORSDOF 8
ENDMDL
MODEL 5
REMARK VINA RESULT: -8.279613699      1.964      2.296
REMARK  8 active torsions:
REMARK  status: ('A' for Active; 'I' for Inactive)
REMARK    1  A    between atoms: C1_2  and  C2_3 
REMARK       I    between atoms: C1_2  and  N5_20 
REMARK    2  A    between atoms: C2_3  and  S1_4 
REMARK    3  A    between atoms: S1_4  and  C3_5 
REMARK    4  A    between atoms: N4_10  and  C4_11 
REMARK    5  A    between atoms: C4_11  and  C5_12 
REMARK    6  A    between atoms: C4_11  and  C6_15 
REMARK    7  A    between atoms: C5_12  and  O2_13 
REMARK    8  A    between atoms: N5_20  and  C11_22 
ROOT
HETATM    1  C3  UNL     1      -8.766  10.807 -19.195  1.00  0.00     0.173 A 
HETATM    2  N1  UNL     1      -8.680   9.659 -18.481  1.00  0.00    -0.265 N 
ATOM      3  H1  UNL     1      -9.225   8.808 -18.621  1.00  0.00     0.186 HD
HETATM    4  N2  UNL     1      -7.746   9.865 -17.562  1.00  0.00    -0.007 NA
HETATM    5  N3  UNL     1      -7.265  11.106 -17.703  1.00  0.00    -0.004 NA
HETATM    6  N4  UNL     1      -7.886  11.698 -18.707  1.00  0.00    -0.248 N 
ENDROOT
BRANCH   1   7
HETATM    7  S1  UNL     1      -9.867  11.110 -20.574  1.00  0.00    -0.082 SA
BRANCH   7   8
HETATM    8  C2  UNL     1     -10.832   9.638 -20.974  1.00  0.00     0.185 C 
BRANCH   8   9
HETATM    9  C1  UNL     1     -10.034   8.627 -21.688  1.00  0.00     0.227 C 
HETATM   10  O1  UNL     1      -9.017   8.177 -21.110  1.00  0.00    -0.273 OA
HETATM   11  N5  UNL     1     -10.395   8.186 -22.964  1.00  0.00    -0.356 N 
ATOM     12  H5  UNL     1     -11.234   8.591 -23.379  1.00  0.00     0.162 HD
BRANCH  11  13
HETATM   13  C11 UNL     1      -9.676   7.199 -23.745  1.00  0.00     0.084 A 
HETATM   14  C12 UNL     1     -10.094   7.088 -25.169  1.00  0.00     0.025 A 
HETATM   15  C13 UNL     1     -10.443   5.638 -24.975  1.00  0.00     0.004 A 
HETATM   16  C14 UNL     1     -10.125   5.781 -23.507  1.00  0.00     0.025 A 
ENDBRANCH  11  13
ENDBRANCH   8   9
ENDBRANCH   7   8
ENDBRANCH   1   7
BRANCH   6  17
HETATM   17  C4  UNL     1      -7.663  13.053 -19.194  1.00  0.00     0.136 C 
BRANCH  17  18
HETATM   18  C5  UNL     1      -6.646  13.687 -18.299  1.00  0.00     0.191 C 
BRANCH  18  19
HETATM   19  O2  UNL     1      -7.162  14.033 -17.051  1.00  0.00    -0.399 OA
ATOM     20  H2  UNL     1      -7.512  14.916 -17.027  1.00  0.00     0.209 HD
ENDBRANCH  18  19
ENDBRANCH  17  18
BRANCH  17  21
HETATM   21  C6  UNL     1      -7.356  13.082 -20.657  1.00  0.00     0.012 C 
HETATM   22  C7  UNL     1      -8.053  14.218 -21.356  1.00  0.00     0.007 C 
HETATM   23  C8  UNL     1      -7.025  14.769 -22.350  1.00  0.00     0.000 C 
HETATM   24  C9  UNL     1      -5.687  14.477 -21.718  1.00  0.00     0.000 C 
HETATM   25  C10 UNL     1      -5.925  13.187 -21.010  1.00  0.00     0.007 C 
ENDBRANCH  17  21
ENDBRANCH   6  17
TORSDOF 8
ENDMDL
