MODEL 1
REMARK VINA RESULT: -7.957840272      0.000      0.000
REMARK  9 active torsions:
REMARK  status: ('A' for Active; 'I' for Inactive)
REMARK    1  A    between atoms: C4_4  and  O1_5 
REMARK    2  A    between atoms: O1_5  and  C5_6 
REMARK    3  A    between atoms: C5_6  and  C6_7 
REMARK    4  A    between atoms: C6_7  and  O2_8 
REMARK    5  A    between atoms: C6_7  and  C7_10 
REMARK    6  A    between atoms: C9_13  and  N1_14 
REMARK    7  A    between atoms: C11_21  and  O5_22 
REMARK    8  A    between atoms: O5_22  and  C12_23 
REMARK    9  A    between atoms: C12_23  and  C13_24 
ROOT
HETATM    1  C5  UNL     1     -11.156   9.870 -22.959  1.00  0.00     0.213 C 
ENDROOT
BRANCH   1   2
HETATM    2  O1  UNL     1     -11.803  11.100 -22.662  1.00  0.00    -0.341 OA
BRANCH   2   3
HETATM    3  C4  UNL     1     -10.921  12.153 -22.321  1.00  0.00     0.112 A 
HETATM    4  C3  UNL     1     -10.691  12.663 -21.071  1.00  0.00     0.054 A 
HETATM    5  C2  UNL     1      -9.804  13.673 -20.970  1.00  0.00    -0.018 A 
HETATM    6  C1  UNL     1      -9.535  14.304 -19.605  1.00  0.00     0.052 C 
HETATM    7  C11 UNL     1      -9.201  14.117 -22.094  1.00  0.00     0.118 A 
HETATM    8  S1  UNL     1      -9.903  13.087 -23.311  1.00  0.00    -0.040 SA
BRANCH   7   9
HETATM    9  O5  UNL     1      -8.264  15.108 -22.330  1.00  0.00    -0.343 OA
BRANCH   9  10
HETATM   10  C12 UNL     1      -6.935  15.005 -22.652  1.00  0.00     0.181 C 
BRANCH  10  11
HETATM   11  C13 UNL     1      -6.069  14.002 -21.984  1.00  0.00     0.010 A 
HETATM   12  C14 UNL     1      -6.108  13.783 -20.524  1.00  0.00     0.007 A 
HETATM   13  C15 UNL     1      -4.937  14.479 -21.078  1.00  0.00     0.007 A 
ENDBRANCH  10  11
ENDBRANCH   9  10
ENDBRANCH   7   9
ENDBRANCH   2   3
ENDBRANCH   1   2
BRANCH   1  14
HETATM   14  C6  UNL     1     -10.460   9.288 -21.765  1.00  0.00     0.197 C 
BRANCH  14  15
HETATM   15  O2  UNL     1     -11.434   8.735 -20.939  1.00  0.00    -0.388 OA
ATOM     16  H2  UNL     1     -11.739   7.935 -21.351  1.00  0.00     0.210 HD
ENDBRANCH  14  15
BRANCH  14  17
HETATM   17  C7  UNL     1      -9.478   8.224 -22.230  1.00  0.00     0.290 C 
HETATM   18  O3  UNL     1      -9.105   7.375 -21.212  1.00  0.00    -0.356 OA
HETATM   19  C8  UNL     1      -8.644   6.178 -21.781  1.00  0.00     0.205 C 
HETATM   20  C9  UNL     1      -9.893   5.450 -22.279  1.00  0.00     0.231 C 
HETATM   21  C10 UNL     1     -10.656   6.445 -23.132  1.00  0.00     0.205 C 
HETATM   22  O4  UNL     1      -9.943   7.597 -23.361  1.00  0.00    -0.356 OA
BRANCH  20  23
HETATM   23  N1  UNL     1     -10.662   5.119 -21.072  1.00  0.00    -0.071 N 
ATOM     24  H13 UNL     1     -11.637   4.882 -21.259  1.00  0.00     0.274 HD
ATOM     25  H12 UNL     1     -10.400   4.228 -20.651  1.00  0.00     0.274 HD
ATOM     26  H11 UNL     1     -10.547   5.917 -20.447  1.00  0.00     0.274 HD
ENDBRANCH  20  23
ENDBRANCH  14  17
ENDBRANCH   1  14
TORSDOF 9
ENDMDL
MODEL 2
REMARK VINA RESULT: -7.781818762      2.312      3.057
REMARK  9 active torsions:
REMARK  status: ('A' for Active; 'I' for Inactive)
REMARK    1  A    between atoms: C4_4  and  O1_5 
REMARK    2  A    between atoms: O1_5  and  C5_6 
REMARK    3  A    between atoms: C5_6  and  C6_7 
REMARK    4  A    between atoms: C6_7  and  O2_8 
REMARK    5  A    between atoms: C6_7  and  C7_10 
REMARK    6  A    between atoms: C9_13  and  N1_14 
REMARK    7  A    between atoms: C11_21  and  O5_22 
REMARK    8  A    between atoms: O5_22  and  C12_23 
REMARK    9  A    between atoms: C12_23  and  C13_24 
ROOT
HETATM    1  C5  UNL     1      -9.601   7.663 -21.144  1.00  0.00     0.213 C 
ENDROOT
BRANCH   1   2
HETATM    2  O1  UNL     1     -10.543   8.638 -20.720  1.00  0.00    -0.341 OA
BRANCH   2   3
HETATM    3  C4  UNL     1      -9.975   9.897 -20.407  1.00  0.00     0.112 A 
HETATM    4  C3  UNL     1     -10.411  11.125 -20.829  1.00  0.00     0.054 A 
HETATM    5  C2  UNL     1      -9.718  12.203 -20.410  1.00  0.00    -0.018 A 
HETATM    6  C1  UNL     1     -10.138  13.595 -20.878  1.00  0.00     0.052 C 
HETATM    7  C11 UNL     1      -8.650  12.010 -19.607  1.00  0.00     0.118 A 
HETATM    8  S1  UNL     1      -8.627  10.276 -19.446  1.00  0.00    -0.040 SA
BRANCH   7   9
HETATM    9  O5  UNL     1      -7.752  12.880 -19.012  1.00  0.00    -0.343 OA
BRANCH   9  10
HETATM   10  C12 UNL     1      -6.509  13.283 -19.427  1.00  0.00     0.181 C 
BRANCH  10  11
HETATM   11  C13 UNL     1      -6.155  13.285 -20.868  1.00  0.00     0.010 A 
HETATM   12  C14 UNL     1      -5.306  14.336 -21.465  1.00  0.00     0.007 A 
HETATM   13  C15 UNL     1      -6.743  14.360 -21.779  1.00  0.00     0.007 A 
ENDBRANCH  10  11
ENDBRANCH   9  10
ENDBRANCH   7   9
ENDBRANCH   2   3
ENDBRANCH   1   2
BRANCH   1  14
HETATM   14  C6  UNL     1     -10.230   6.584 -21.975  1.00  0.00     0.197 C 
BRANCH  14  15
HETATM   15  O2  UNL     1     -11.589   6.867 -22.071  1.00  0.00    -0.388 OA
ATOM     16  H2  UNL     1     -11.676   7.725 -22.469  1.00  0.00     0.210 HD
ENDBRANCH  14  15
BRANCH  14  17
HETATM   17  C7  UNL     1      -9.581   6.573 -23.350  1.00  0.00     0.290 C 
HETATM   18  O3  UNL     1     -10.172   5.665 -24.201  1.00  0.00    -0.356 OA
HETATM   19  C8  UNL     1      -9.896   6.052 -25.521  1.00  0.00     0.205 C 
HETATM   20  C9  UNL     1     -10.782   7.269 -25.788  1.00  0.00     0.231 C 
HETATM   21  C10 UNL     1     -10.528   8.240 -24.650  1.00  0.00     0.205 C 
HETATM   22  O4  UNL     1      -9.482   7.850 -23.849  1.00  0.00    -0.356 OA
BRANCH  20  23
HETATM   23  N1  UNL     1     -12.162   6.771 -25.734  1.00  0.00    -0.071 N 
ATOM     24  H13 UNL     1     -12.229   5.755 -25.665  1.00  0.00     0.274 HD
ATOM     25  H12 UNL     1     -12.641   6.982 -24.858  1.00  0.00     0.274 HD
ATOM     26  H11 UNL     1     -12.624   7.156 -26.557  1.00  0.00     0.274 HD
ENDBRANCH  20  23
ENDBRANCH  14  17
ENDBRANCH   1  14
TORSDOF 9
ENDMDL
MODEL 3
REMARK VINA RESULT: -7.780765172      1.294      1.516
REMARK  9 active torsions:
REMARK  status: ('A' for Active; 'I' for Inactive)
REMARK    1  A    between atoms: C4_4  and  O1_5 
REMARK    2  A    between atoms: O1_5  and  C5_6 
REMARK    3  A    between atoms: C5_6  and  C6_7 
REMARK    4  A    between atoms: C6_7  and  O2_8 
REMARK    5  A    between atoms: C6_7  and  C7_10 
REMARK    6  A    between atoms: C9_13  and  N1_14 
REMARK    7  A    between atoms: C11_21  and  O5_22 
REMARK    8  A    between atoms: O5_22  and  C12_23 
REMARK    9  A    between atoms: C12_23  and  C13_24 
ROOT
HETATM    1  C5  UNL     1     -10.985   9.302 -20.747  1.00  0.00     0.213 C 
ENDROOT
BRANCH   1   2
HETATM    2  O1  UNL     1     -11.437  10.223 -21.730  1.00  0.00    -0.341 OA
BRANCH   2   3
HETATM    3  C4  UNL     1     -10.760  11.467 -21.715  1.00  0.00     0.112 A 
HETATM    4  C3  UNL     1     -10.541  12.272 -20.630  1.00  0.00     0.054 A 
HETATM    5  C2  UNL     1      -9.870  13.423 -20.840  1.00  0.00    -0.018 A 
HETATM    6  C1  UNL     1      -9.628  14.377 -19.671  1.00  0.00     0.052 C 
HETATM    7  C11 UNL     1      -9.458  13.708 -22.094  1.00  0.00     0.118 A 
HETATM    8  S1  UNL     1     -10.031  12.327 -22.986  1.00  0.00    -0.040 SA
BRANCH   7   9
HETATM    9  O5  UNL     1      -8.760  14.775 -22.635  1.00  0.00    -0.343 OA
BRANCH   9  10
HETATM   10  C12 UNL     1      -7.421  15.065 -22.591  1.00  0.00     0.181 C 
BRANCH  10  11
HETATM   11  C13 UNL     1      -6.436  14.035 -22.174  1.00  0.00     0.010 A 
HETATM   12  C14 UNL     1      -6.218  13.690 -20.755  1.00  0.00     0.007 A 
HETATM   13  C15 UNL     1      -5.172  14.468 -21.437  1.00  0.00     0.007 A 
ENDBRANCH  10  11
ENDBRANCH   9  10
ENDBRANCH   7   9
ENDBRANCH   2   3
ENDBRANCH   1   2
BRANCH   1  14
HETATM   14  C6  UNL     1      -9.562   8.882 -20.969  1.00  0.00     0.197 C 
BRANCH  14  15
HETATM   15  O2  UNL     1      -8.822   9.309 -19.869  1.00  0.00    -0.388 OA
ATOM     16  H2  UNL     1      -8.220   8.610 -19.642  1.00  0.00     0.210 HD
ENDBRANCH  14  15
BRANCH  14  17
HETATM   17  C7  UNL     1      -9.505   7.369 -21.105  1.00  0.00     0.290 C 
HETATM   18  O3  UNL     1     -10.724   6.827 -21.446  1.00  0.00    -0.356 OA
HETATM   19  C8  UNL     1     -10.501   5.574 -22.036  1.00  0.00     0.205 C 
HETATM   20  C9  UNL     1      -9.951   5.867 -23.432  1.00  0.00     0.231 C 
HETATM   21  C10 UNL     1      -8.792   6.826 -23.241  1.00  0.00     0.205 C 
HETATM   22  O4  UNL     1      -8.462   6.996 -21.919  1.00  0.00    -0.356 OA
BRANCH  20  23
HETATM   23  N1  UNL     1     -11.046   6.527 -24.155  1.00  0.00    -0.071 N 
ATOM     24  H13 UNL     1     -11.544   7.222 -23.598  1.00  0.00     0.274 HD
ATOM     25  H12 UNL     1     -10.728   7.165 -24.886  1.00  0.00     0.274 HD
ATOM     26  H11 UNL     1     -11.640   5.773 -24.499  1.00  0.00     0.274 HD
ENDBRANCH  20  23
ENDBRANCH  14  17
ENDBRANCH   1  14
TORSDOF 9
ENDMDL
MODEL 4
REMARK VINA RESULT: -7.706901034      1.276      1.677
REMARK  9 active torsions:
REMARK  status: ('A' for Active; 'I' for Inactive)
REMARK    1  A    between atoms: C4_4  and  O1_5 
REMARK    2  A    between atoms: O1_5  and  C5_6 
REMARK    3  A    between atoms: C5_6  and  C6_7 
REMARK    4  A    between atoms: C6_7  and  O2_8 
REMARK    5  A    between atoms: C6_7  and  C7_10 
REMARK    6  A    between atoms: C9_13  and  N1_14 
REMARK    7  A    between atoms: C11_21  and  O5_22 
REMARK    8  A    between atoms: O5_22  and  C12_23 
REMARK    9  A    between atoms: C12_23  and  C13_24 
ROOT
HETATM    1  C5  UNL     1     -11.333   9.586 -20.781  1.00  0.00     0.213 C 
ENDROOT
BRANCH   1   2
HETATM    2  O1  UNL     1     -11.723  10.940 -20.604  1.00  0.00    -0.341 OA
BRANCH   2   3
HETATM    3  C4  UNL     1     -10.882  11.877 -21.252  1.00  0.00     0.112 A 
HETATM    4  C3  UNL     1     -10.679  12.006 -22.600  1.00  0.00     0.054 A 
HETATM    5  C2  UNL     1      -9.830  12.972 -23.006  1.00  0.00    -0.018 A 
HETATM    6  C1  UNL     1      -9.538  13.138 -24.497  1.00  0.00     0.052 C 
HETATM    7  C11 UNL     1      -9.239  13.746 -22.071  1.00  0.00     0.118 A 
HETATM    8  S1  UNL     1      -9.895  13.094 -20.595  1.00  0.00    -0.040 SA
BRANCH   7   9
HETATM    9  O5  UNL     1      -8.345  14.800 -22.150  1.00  0.00    -0.343 OA
BRANCH   9  10
HETATM   10  C12 UNL     1      -7.011  14.803 -22.467  1.00  0.00     0.181 C 
BRANCH  10  11
HETATM   11  C13 UNL     1      -6.069  13.879 -21.786  1.00  0.00     0.010 A 
HETATM   12  C14 UNL     1      -6.109  13.656 -20.327  1.00  0.00     0.007 A 
HETATM   13  C15 UNL     1      -4.997  14.454 -20.864  1.00  0.00     0.007 A 
ENDBRANCH  10  11
ENDBRANCH   9  10
ENDBRANCH   7   9
ENDBRANCH   2   3
ENDBRANCH   1   2
BRANCH   1  14
HETATM   14  C6  UNL     1      -9.874   9.371 -20.504  1.00  0.00     0.197 C 
BRANCH  14  15
HETATM   15  O2  UNL     1      -9.772   8.699 -19.289  1.00  0.00    -0.388 OA
ATOM     16  H2  UNL     1     -10.500   8.091 -19.236  1.00  0.00     0.210 HD
ENDBRANCH  14  15
BRANCH  14  17
HETATM   17  C7  UNL     1      -9.269   8.547 -21.630  1.00  0.00     0.290 C 
HETATM   18  O3  UNL     1      -8.654   7.403 -21.170  1.00  0.00    -0.356 OA
HETATM   19  C8  UNL     1      -8.585   6.483 -22.227  1.00  0.00     0.205 C 
HETATM   20  C9  UNL     1     -10.008   5.955 -22.409  1.00  0.00     0.231 C 
HETATM   21  C10 UNL     1     -10.904   7.173 -22.528  1.00  0.00     0.205 C 
HETATM   22  O4  UNL     1     -10.191   8.343 -22.629  1.00  0.00    -0.356 OA
BRANCH  20  23
HETATM   23  N1  UNL     1     -10.313   5.217 -21.177  1.00  0.00    -0.071 N 
ATOM     24  H13 UNL     1     -10.640   4.264 -21.340  1.00  0.00     0.274 HD
ATOM     25  H12 UNL     1      -9.487   4.969 -20.632  1.00  0.00     0.274 HD
ATOM     26  H11 UNL     1     -10.981   5.797 -20.669  1.00  0.00     0.274 HD
ENDBRANCH  20  23
ENDBRANCH  14  17
ENDBRANCH   1  14
TORSDOF 9
ENDMDL
MODEL 5
REMARK VINA RESULT: -7.684514484      2.565      3.226
REMARK  9 active torsions:
REMARK  status: ('A' for Active; 'I' for Inactive)
REMARK    1  A    between atoms: C4_4  and  O1_5 
REMARK    2  A    between atoms: O1_5  and  C5_6 
REMARK    3  A    between atoms: C5_6  and  C6_7 
REMARK    4  A    between atoms: C6_7  and  O2_8 
REMARK    5  A    between atoms: C6_7  and  C7_10 
REMARK    6  A    between atoms: C9_13  and  N1_14 
REMARK    7  A    between atoms: C11_21  and  O5_22 
REMARK    8  A    between atoms: O5_22  and  C12_23 
REMARK    9  A    between atoms: C12_23  and  C13_24 
ROOT
HETATM    1  C5  UNL     1     -10.652   8.968 -23.005  1.00  0.00     0.213 C 
ENDROOT
BRANCH   1   2
HETATM    2  O1  UNL     1     -11.075   9.286 -21.686  1.00  0.00    -0.341 OA
BRANCH   2   3
HETATM    3  C4  UNL     1     -10.300  10.286 -21.053  1.00  0.00     0.112 A 
HETATM    4  C3  UNL     1     -10.590  11.622 -20.966  1.00  0.00     0.054 A 
HETATM    5  C2  UNL     1      -9.708  12.405 -20.312  1.00  0.00    -0.018 A 
HETATM    6  C1  UNL     1      -9.963  13.908 -20.216  1.00  0.00     0.052 C 
HETATM    7  C11 UNL     1      -8.604  11.831 -19.788  1.00  0.00     0.118 A 
HETATM    8  S1  UNL     1      -8.819  10.160 -20.228  1.00  0.00    -0.040 SA
BRANCH   7   9
HETATM    9  O5  UNL     1      -7.531  12.337 -19.072  1.00  0.00    -0.343 OA
BRANCH   9  10
HETATM   10  C12 UNL     1      -6.487  13.122 -19.486  1.00  0.00     0.181 C 
BRANCH  10  11
HETATM   11  C13 UNL     1      -6.154  13.242 -20.928  1.00  0.00     0.010 A 
HETATM   12  C14 UNL     1      -5.296  14.326 -21.446  1.00  0.00     0.007 A 
HETATM   13  C15 UNL     1      -6.736  14.401 -21.733  1.00  0.00     0.007 A 
ENDBRANCH  10  11
ENDBRANCH   9  10
ENDBRANCH   7   9
ENDBRANCH   2   3
ENDBRANCH   1   2
BRANCH   1  14
HETATM   14  C6  UNL     1     -10.317   7.515 -23.163  1.00  0.00     0.197 C 
BRANCH  14  15
HETATM   15  O2  UNL     1     -11.417   6.780 -22.727  1.00  0.00    -0.388 OA
ATOM     16  H2  UNL     1     -11.415   5.956 -23.199  1.00  0.00     0.210 HD
ENDBRANCH  14  15
BRANCH  14  17
HETATM   17  C7  UNL     1     -10.020   7.227 -24.626  1.00  0.00     0.290 C 
HETATM   18  O3  UNL     1     -10.661   6.095 -25.078  1.00  0.00    -0.356 OA
HETATM   19  C8  UNL     1     -10.765   6.174 -26.475  1.00  0.00     0.205 C 
HETATM   20  C9  UNL     1     -11.854   7.212 -26.748  1.00  0.00     0.231 C 
HETATM   21  C10 UNL     1     -11.479   8.446 -25.950  1.00  0.00     0.205 C 
HETATM   22  O4  UNL     1     -10.228   8.350 -25.392  1.00  0.00    -0.356 OA
BRANCH  20  23
HETATM   23  N1  UNL     1     -13.096   6.626 -26.227  1.00  0.00    -0.071 N 
ATOM     24  H13 UNL     1     -13.037   6.346 -25.247  1.00  0.00     0.274 HD
ATOM     25  H12 UNL     1     -13.852   7.301 -26.114  1.00  0.00     0.274 HD
ATOM     26  H11 UNL     1     -13.322   5.858 -26.859  1.00  0.00     0.274 HD
ENDBRANCH  20  23
ENDBRANCH  14  17
ENDBRANCH   1  14
TORSDOF 9
ENDMDL
