MODEL 1
REMARK VINA RESULT: -6.732230225      0.000      0.000
REMARK  4 active torsions:
REMARK  status: ('A' for Active; 'I' for Inactive)
REMARK    1  A    between atoms: C4_4  and  O1_5 
REMARK    2  A    between atoms: C10_15  and  C12_17 
REMARK    3  A    between atoms: C12_17  and  O5_18 
REMARK    4  A    between atoms: O5_18  and  C13_19 
ROOT
HETATM    1  C1  UNL     1      15.051  18.924   5.784  1.00  0.00     0.010 C 
HETATM    2  C2  UNL     1      15.490  19.801   4.662  1.00  0.00    -0.006 C 
HETATM    3  C3  UNL     1      16.772  20.542   4.927  1.00  0.00     0.042 C 
HETATM    4  C4  UNL     1      16.862  21.165   6.271  1.00  0.00     0.183 C 
HETATM    5  C5  UNL     1      15.867  22.309   6.398  1.00  0.00     0.220 C 
HETATM    6  C6  UNL     1      16.022  22.999   7.743  1.00  0.00     0.085 C 
HETATM    7  O2  UNL     1      15.981  23.220   5.378  1.00  0.00    -0.195 OA
HETATM    8  O3  UNL     1      14.887  23.985   5.408  1.00  0.00    -0.194 OA
HETATM    9  C7  UNL     1      13.913  23.241   4.696  1.00  0.00     0.228 C 
HETATM   10  C8  UNL     1      14.291  23.424   3.221  1.00  0.00     0.085 C 
HETATM   11  O4  UNL     1      12.696  23.789   4.997  1.00  0.00    -0.347 OA
HETATM   12  C9  UNL     1      11.780  22.926   5.544  1.00  0.00     0.211 C 
HETATM   13  C10 UNL     1      11.165  22.109   4.430  1.00  0.00     0.101 C 
HETATM   14  C11 UNL     1      10.492  23.074   3.472  1.00  0.00     0.051 C 
HETATM   15  O7  UNL     1      12.123  21.364   3.787  1.00  0.00    -0.367 OA
HETATM   16  C14 UNL     1      13.101  20.860   4.650  1.00  0.00     0.171 A 
HETATM   17  C15 UNL     1      14.470  20.765   4.176  1.00  0.00     0.065 A 
HETATM   18  C16 UNL     1      14.085  21.816   5.120  1.00  0.00     0.156 A 
HETATM   19  O8  UNL     1      14.601  21.738   6.385  1.00  0.00    -0.331 OA
ENDROOT
BRANCH  13  20
HETATM   20  C12 UNL     1      10.062  21.237   5.010  1.00  0.00     0.220 C 
BRANCH  20  21
HETATM   21  O5  UNL     1       9.663  20.347   3.975  1.00  0.00    -0.303 OA
BRANCH  21  22
HETATM   22  C13 UNL     1       9.768  18.975   4.104  1.00  0.00     0.372 C 
HETATM   23  N1  UNL     1      10.364  18.207   3.072  1.00  0.00    -0.032 NA
HETATM   24  O6  UNL     1       9.339  18.408   5.134  1.00  0.00    -0.242 OA
ENDBRANCH  21  22
ENDBRANCH  20  21
ENDBRANCH  13  20
BRANCH   4  25
HETATM   25  O1  UNL     1      18.164  21.635   6.448  1.00  0.00    -0.390 OA
ATOM     26  H1  UNL     1      18.248  21.944   7.343  1.00  0.00     0.210 HD
ENDBRANCH   4  25
TORSDOF 4
ENDMDL
MODEL 2
REMARK VINA RESULT: -6.538949877      2.233      4.015
REMARK  4 active torsions:
REMARK  status: ('A' for Active; 'I' for Inactive)
REMARK    1  A    between atoms: C4_4  and  O1_5 
REMARK    2  A    between atoms: C10_15  and  C12_17 
REMARK    3  A    between atoms: C12_17  and  O5_18 
REMARK    4  A    between atoms: O5_18  and  C13_19 
ROOT
HETATM    1  C1  UNL     1      11.397  24.776   1.801  1.00  0.00     0.010 C 
HETATM    2  C2  UNL     1      11.730  25.116   3.213  1.00  0.00    -0.006 C 
HETATM    3  C3  UNL     1      13.070  25.777   3.386  1.00  0.00     0.042 C 
HETATM    4  C4  UNL     1      14.176  25.145   2.625  1.00  0.00     0.183 C 
HETATM    5  C5  UNL     1      14.491  23.765   3.183  1.00  0.00     0.220 C 
HETATM    6  C6  UNL     1      15.680  23.158   2.457  1.00  0.00     0.085 C 
HETATM    7  O2  UNL     1      14.717  23.784   4.536  1.00  0.00    -0.195 OA
HETATM    8  O3  UNL     1      14.667  22.520   4.963  1.00  0.00    -0.194 OA
HETATM    9  C7  UNL     1      13.286  22.262   5.151  1.00  0.00     0.228 C 
HETATM   10  C8  UNL     1      12.938  22.971   6.466  1.00  0.00     0.085 C 
HETATM   11  O4  UNL     1      13.144  20.904   5.235  1.00  0.00    -0.347 OA
HETATM   12  C9  UNL     1      12.294  20.343   4.314  1.00  0.00     0.211 C 
HETATM   13  C10 UNL     1      10.873  20.547   4.787  1.00  0.00     0.101 C 
HETATM   14  C11 UNL     1      10.735  19.863   6.134  1.00  0.00     0.051 C 
HETATM   15  O7  UNL     1      10.577  21.884   4.881  1.00  0.00    -0.367 OA
HETATM   16  C14 UNL     1      11.159  22.650   3.865  1.00  0.00     0.171 A 
HETATM   17  C15 UNL     1      11.621  23.991   4.177  1.00  0.00     0.065 A 
HETATM   18  C16 UNL     1      12.582  22.901   3.996  1.00  0.00     0.156 A 
HETATM   19  O8  UNL     1      13.395  22.962   2.897  1.00  0.00    -0.331 OA
ENDROOT
BRANCH  13  20
HETATM   20  C12 UNL     1       9.929  19.823   3.838  1.00  0.00     0.220 C 
BRANCH  20  21
HETATM   21  O5  UNL     1       9.789  18.499   4.337  1.00  0.00    -0.303 OA
BRANCH  21  22
HETATM   22  C13 UNL     1       9.624  17.412   3.499  1.00  0.00     0.372 C 
HETATM   23  N1  UNL     1       8.809  16.323   3.899  1.00  0.00    -0.032 NA
HETATM   24  O6  UNL     1      10.192  17.387   2.385  1.00  0.00    -0.242 OA
ENDBRANCH  21  22
ENDBRANCH  20  21
ENDBRANCH  13  20
BRANCH   4  25
HETATM   25  O1  UNL     1      15.297  25.970   2.718  1.00  0.00    -0.390 OA
ATOM     26  H1  UNL     1      16.069  25.443   2.544  1.00  0.00     0.210 HD
ENDBRANCH   4  25
TORSDOF 4
ENDMDL
MODEL 3
REMARK VINA RESULT: -6.178992095      2.217      4.518
REMARK  4 active torsions:
REMARK  status: ('A' for Active; 'I' for Inactive)
REMARK    1  A    between atoms: C4_4  and  O1_5 
REMARK    2  A    between atoms: C10_15  and  C12_17 
REMARK    3  A    between atoms: C12_17  and  O5_18 
REMARK    4  A    between atoms: O5_18  and  C13_19 
ROOT
HETATM    1  C1  UNL     1      11.304  23.882   3.770  1.00  0.00     0.010 C 
HETATM    2  C2  UNL     1      11.240  23.203   5.095  1.00  0.00    -0.006 C 
HETATM    3  C3  UNL     1      12.550  23.173   5.834  1.00  0.00     0.042 C 
HETATM    4  C4  UNL     1      13.722  22.800   5.004  1.00  0.00     0.183 C 
HETATM    5  C5  UNL     1      13.632  21.344   4.572  1.00  0.00     0.220 C 
HETATM    6  C6  UNL     1      14.874  20.942   3.796  1.00  0.00     0.085 C 
HETATM    7  O2  UNL     1      13.435  20.493   5.632  1.00  0.00    -0.195 OA
HETATM    8  O3  UNL     1      13.060  19.315   5.127  1.00  0.00    -0.194 OA
HETATM    9  C7  UNL     1      11.665  19.447   4.914  1.00  0.00     0.228 C 
HETATM   10  C8  UNL     1      11.048  19.314   6.312  1.00  0.00     0.085 C 
HETATM   11  O4  UNL     1      11.293  18.429   4.079  1.00  0.00    -0.347 OA
HETATM   12  C9  UNL     1      10.687  18.818   2.911  1.00  0.00     0.211 C 
HETATM   13  C10 UNL     1       9.240  19.140   3.204  1.00  0.00     0.101 C 
HETATM   14  C11 UNL     1       8.593  17.882   3.754  1.00  0.00     0.051 C 
HETATM   15  O7  UNL     1       9.143  20.176   4.100  1.00  0.00    -0.367 OA
HETATM   16  C14 UNL     1      10.119  21.160   3.912  1.00  0.00     0.171 A 
HETATM   17  C15 UNL     1      10.668  21.832   5.076  1.00  0.00     0.065 A 
HETATM   18  C16 UNL     1      11.455  20.822   4.365  1.00  0.00     0.156 A 
HETATM   19  O8  UNL     1      12.563  21.257   3.690  1.00  0.00    -0.331 OA
ENDROOT
BRANCH  13  20
HETATM   20  C12 UNL     1       8.529  19.452   1.896  1.00  0.00     0.220 C 
BRANCH  20  21
HETATM   21  O5  UNL     1       7.210  19.859   2.238  1.00  0.00    -0.303 OA
BRANCH  21  22
HETATM   22  C13 UNL     1       6.719  21.110   1.915  1.00  0.00     0.372 C 
HETATM   23  N1  UNL     1       7.545  22.045   1.240  1.00  0.00    -0.032 NA
HETATM   24  O6  UNL     1       5.545  21.420   2.216  1.00  0.00    -0.242 OA
ENDBRANCH  21  22
ENDBRANCH  20  21
ENDBRANCH  13  20
BRANCH   4  25
HETATM   25  O1  UNL     1      14.876  23.009   5.759  1.00  0.00    -0.390 OA
ATOM     26  H1  UNL     1      14.982  22.271   6.350  1.00  0.00     0.210 HD
ENDBRANCH   4  25
TORSDOF 4
ENDMDL
MODEL 4
REMARK VINA RESULT: -5.939005712      2.332      4.132
REMARK  4 active torsions:
REMARK  status: ('A' for Active; 'I' for Inactive)
REMARK    1  A    between atoms: C4_4  and  O1_5 
REMARK    2  A    between atoms: C10_15  and  C12_17 
REMARK    3  A    between atoms: C12_17  and  O5_18 
REMARK    4  A    between atoms: O5_18  and  C13_19 
ROOT
HETATM    1  C1  UNL     1      11.280  24.508   1.727  1.00  0.00     0.010 C 
HETATM    2  C2  UNL     1      11.420  24.877   3.164  1.00  0.00    -0.006 C 
HETATM    3  C3  UNL     1      12.630  25.718   3.467  1.00  0.00     0.042 C 
HETATM    4  C4  UNL     1      13.884  25.256   2.823  1.00  0.00     0.183 C 
HETATM    5  C5  UNL     1      14.333  23.928   3.415  1.00  0.00     0.220 C 
HETATM    6  C6  UNL     1      15.661  23.502   2.814  1.00  0.00     0.085 C 
HETATM    7  O2  UNL     1      14.419  23.966   4.784  1.00  0.00    -0.195 OA
HETATM    8  O3  UNL     1      14.505  22.703   5.209  1.00  0.00    -0.194 OA
HETATM    9  C7  UNL     1      13.163  22.251   5.259  1.00  0.00     0.228 C 
HETATM   10  C8  UNL     1      12.589  22.891   6.530  1.00  0.00     0.085 C 
HETATM   11  O4  UNL     1      13.206  20.886   5.334  1.00  0.00    -0.347 OA
HETATM   12  C9  UNL     1      12.539  20.221   4.336  1.00  0.00     0.211 C 
HETATM   13  C10 UNL     1      11.064  20.217   4.663  1.00  0.00     0.101 C 
HETATM   14  C11 UNL     1      10.890  19.507   5.993  1.00  0.00     0.051 C 
HETATM   15  O7  UNL     1      10.574  21.499   4.722  1.00  0.00    -0.367 OA
HETATM   16  C14 UNL     1      11.140  22.349   3.766  1.00  0.00     0.171 A 
HETATM   17  C15 UNL     1      11.375  23.738   4.117  1.00  0.00     0.065 A 
HETATM   18  C16 UNL     1      12.494  22.796   4.037  1.00  0.00     0.156 A 
HETATM   19  O8  UNL     1      13.395  22.982   3.024  1.00  0.00    -0.331 OA
ENDROOT
BRANCH  13  20
HETATM   20  C12 UNL     1      10.330  19.377   3.629  1.00  0.00     0.220 C 
BRANCH  20  21
HETATM   21  O5  UNL     1       8.989  19.848   3.600  1.00  0.00    -0.303 OA
BRANCH  21  22
HETATM   22  C13 UNL     1       8.345  20.161   2.418  1.00  0.00     0.372 C 
HETATM   23  N1  UNL     1       8.014  21.508   2.123  1.00  0.00    -0.032 NA
HETATM   24  O6  UNL     1       8.052  19.256   1.605  1.00  0.00    -0.242 OA
ENDBRANCH  21  22
ENDBRANCH  20  21
ENDBRANCH  13  20
BRANCH   4  25
HETATM   25  O1  UNL     1      14.862  26.230   3.024  1.00  0.00    -0.390 OA
ATOM     26  H1  UNL     1      15.579  25.835   3.507  1.00  0.00     0.210 HD
ENDBRANCH   4  25
TORSDOF 4
ENDMDL
MODEL 5
REMARK VINA RESULT: -5.714487127      1.881      4.047
REMARK  4 active torsions:
REMARK  status: ('A' for Active; 'I' for Inactive)
REMARK    1  A    between atoms: C4_4  and  O1_5 
REMARK    2  A    between atoms: C10_15  and  C12_17 
REMARK    3  A    between atoms: C12_17  and  O5_18 
REMARK    4  A    between atoms: O5_18  and  C13_19 
ROOT
HETATM    1  C1  UNL     1      11.139  24.340   2.381  1.00  0.00     0.010 C 
HETATM    2  C2  UNL     1      11.621  24.591   3.768  1.00  0.00    -0.006 C 
HETATM    3  C3  UNL     1      12.756  25.574   3.856  1.00  0.00     0.042 C 
HETATM    4  C4  UNL     1      13.832  25.370   2.855  1.00  0.00     0.183 C 
HETATM    5  C5  UNL     1      14.584  24.077   3.132  1.00  0.00     0.220 C 
HETATM    6  C6  UNL     1      15.739  23.915   2.158  1.00  0.00     0.085 C 
HETATM    7  O2  UNL     1      15.036  24.000   4.426  1.00  0.00    -0.195 OA
HETATM    8  O3  UNL     1      15.389  22.731   4.646  1.00  0.00    -0.194 OA
HETATM    9  C7  UNL     1      14.177  22.077   4.981  1.00  0.00     0.228 C 
HETATM   10  C8  UNL     1      13.900  22.502   6.430  1.00  0.00     0.085 C 
HETATM   11  O4  UNL     1      14.404  20.733   4.864  1.00  0.00    -0.347 OA
HETATM   12  C9  UNL     1      13.575  20.070   3.994  1.00  0.00     0.211 C 
HETATM   13  C10 UNL     1      12.258  19.812   4.688  1.00  0.00     0.101 C 
HETATM   14  C11 UNL     1      12.543  18.964   5.913  1.00  0.00     0.051 C 
HETATM   15  O7  UNL     1      11.652  20.993   5.038  1.00  0.00    -0.367 OA
HETATM   16  C14 UNL     1      11.826  22.005   4.087  1.00  0.00     0.171 A 
HETATM   17  C15 UNL     1      11.978  23.375   4.544  1.00  0.00     0.065 A 
HETATM   18  C16 UNL     1      13.137  22.625   4.056  1.00  0.00     0.156 A 
HETATM   19  O8  UNL     1      13.697  23.039   2.877  1.00  0.00    -0.331 OA
ENDROOT
BRANCH  13  20
HETATM   20  C12 UNL     1      11.377  18.970   3.777  1.00  0.00     0.220 C 
BRANCH  20  21
HETATM   21  O5  UNL     1      10.037  19.172   4.209  1.00  0.00    -0.303 OA
BRANCH  21  22
HETATM   22  C13 UNL     1       8.967  19.105   3.338  1.00  0.00     0.372 C 
HETATM   23  N1  UNL     1       8.269  17.883   3.160  1.00  0.00    -0.032 NA
HETATM   24  O6  UNL     1       8.609  20.123   2.704  1.00  0.00    -0.242 OA
ENDBRANCH  21  22
ENDBRANCH  20  21
ENDBRANCH  13  20
BRANCH   4  25
HETATM   25  O1  UNL     1      14.702  26.458   2.921  1.00  0.00    -0.390 OA
ATOM     26  H1  UNL     1      14.724  26.767   3.820  1.00  0.00     0.210 HD
ENDBRANCH   4  25
TORSDOF 4
ENDMDL
