MODEL 1
REMARK VINA RESULT: -6.669300975      0.000      0.000
REMARK  4 active torsions:
REMARK  status: ('A' for Active; 'I' for Inactive)
REMARK    1  A    between atoms: O1_2  and  C2_3 
REMARK    2  A    between atoms: C2_3  and  C3_5 
REMARK    3  A    between atoms: C12_16  and  O5_17 
REMARK    4  A    between atoms: C15_21  and  O6_22 
ROOT
HETATM    1  C3  UNL     1      15.035  19.889   4.908  1.00  0.00     0.162 C 
HETATM    2  C4  UNL     1      13.645  19.491   5.356  1.00  0.00     0.101 C 
HETATM    3  C5  UNL     1      12.651  19.648   4.272  1.00  0.00     0.134 C 
HETATM    4  O3  UNL     1      13.042  19.697   3.125  1.00  0.00    -0.297 OA
HETATM    5  C6  UNL     1      11.207  19.742   4.591  1.00  0.00     0.080 C 
HETATM    6  C7  UNL     1      10.332  19.280   3.436  1.00  0.00     0.020 C 
HETATM    7  C8  UNL     1      10.834  21.169   5.013  1.00  0.00     0.128 C 
HETATM    8  C9  UNL     1      10.672  21.154   6.510  1.00  0.00     0.040 C 
HETATM    9  O4  UNL     1      11.876  21.980   4.587  1.00  0.00    -0.378 OA
HETATM   10  C10 UNL     1      11.684  23.313   4.847  1.00  0.00     0.147 C 
HETATM   11  C11 UNL     1      10.220  23.640   4.517  1.00  0.00     0.042 C 
HETATM   12  C12 UNL     1      12.533  24.207   4.019  1.00  0.00     0.152 C 
HETATM   13  C13 UNL     1      13.857  23.569   3.606  1.00  0.00     0.042 C 
HETATM   14  C14 UNL     1      14.373  24.495   2.493  1.00  0.00     0.015 C 
HETATM   15  C15 UNL     1      14.853  23.524   4.703  1.00  0.00     0.135 C 
HETATM   16  C16 UNL     1      15.801  22.383   4.677  1.00  0.00     0.081 C 
HETATM   17  C17 UNL     1      16.215  21.937   3.309  1.00  0.00     0.020 C 
HETATM   18  C18 UNL     1      15.328  21.217   5.498  1.00  0.00     0.147 C 
HETATM   19  O7  UNL     1      15.171  21.344   6.699  1.00  0.00    -0.297 OA
ENDROOT
BRANCH   1  20
HETATM   20  C2  UNL     1      15.992  18.920   5.482  1.00  0.00     0.270 C 
HETATM   21  O2  UNL     1      17.195  18.858   5.196  1.00  0.00    -0.264 OA
BRANCH  20  22
HETATM   22  O1  UNL     1      15.482  18.012   6.419  1.00  0.00    -0.326 OA
HETATM   23  C1  UNL     1      16.012  17.857   7.710  1.00  0.00     0.213 C 
ENDBRANCH  20  22
ENDBRANCH   1  20
BRANCH  15  24
HETATM   24  O6  UNL     1      14.247  23.542   5.979  1.00  0.00    -0.394 OA
ATOM     25  H6  UNL     1      14.775  23.104   6.637  1.00  0.00     0.210 HD
ENDBRANCH  15  24
BRANCH  12  26
HETATM   26  O5  UNL     1      11.842  24.439   2.807  1.00  0.00    -0.393 OA
ATOM     27  H5  UNL     1      10.915  24.335   2.986  1.00  0.00     0.210 HD
ENDBRANCH  12  26
TORSDOF 4
ENDMDL
MODEL 2
REMARK VINA RESULT: -5.640553423      1.198      1.451
REMARK  4 active torsions:
REMARK  status: ('A' for Active; 'I' for Inactive)
REMARK    1  A    between atoms: O1_2  and  C2_3 
REMARK    2  A    between atoms: C2_3  and  C3_5 
REMARK    3  A    between atoms: C12_16  and  O5_17 
REMARK    4  A    between atoms: C15_21  and  O6_22 
ROOT
HETATM    1  C3  UNL     1      15.147  21.270   4.653  1.00  0.00     0.162 C 
HETATM    2  C4  UNL     1      14.005  20.384   5.103  1.00  0.00     0.101 C 
HETATM    3  C5  UNL     1      13.094  20.051   3.987  1.00  0.00     0.134 C 
HETATM    4  O3  UNL     1      13.498  20.169   2.849  1.00  0.00    -0.297 OA
HETATM    5  C6  UNL     1      11.716  19.583   4.262  1.00  0.00     0.080 C 
HETATM    6  C7  UNL     1      11.162  18.726   3.133  1.00  0.00     0.020 C 
HETATM    7  C8  UNL     1      10.784  20.769   4.546  1.00  0.00     0.128 C 
HETATM    8  C9  UNL     1      10.556  20.800   6.034  1.00  0.00     0.040 C 
HETATM    9  O4  UNL     1      11.441  21.895   4.073  1.00  0.00    -0.378 OA
HETATM   10  C10 UNL     1      10.723  23.055   4.208  1.00  0.00     0.147 C 
HETATM   11  C11 UNL     1       9.270  22.745   3.816  1.00  0.00     0.042 C 
HETATM   12  C12 UNL     1      11.194  24.151   3.323  1.00  0.00     0.152 C 
HETATM   13  C13 UNL     1      12.684  24.067   2.999  1.00  0.00     0.042 C 
HETATM   14  C14 UNL     1      12.853  25.038   1.821  1.00  0.00     0.015 C 
HETATM   15  C15 UNL     1      13.551  24.504   4.118  1.00  0.00     0.135 C 
HETATM   16  C16 UNL     1      14.874  23.839   4.217  1.00  0.00     0.081 C 
HETATM   17  C17 UNL     1      15.508  23.497   2.905  1.00  0.00     0.020 C 
HETATM   18  C18 UNL     1      14.855  22.644   5.128  1.00  0.00     0.147 C 
HETATM   19  O7  UNL     1      14.594  22.785   6.309  1.00  0.00    -0.297 OA
ENDROOT
BRANCH   1  20
HETATM   20  C2  UNL     1      16.375  20.810   5.334  1.00  0.00     0.270 C 
HETATM   21  O2  UNL     1      17.528  21.085   4.977  1.00  0.00    -0.264 OA
BRANCH  20  22
HETATM   22  O1  UNL     1      16.202  20.002   6.465  1.00  0.00    -0.326 OA
HETATM   23  C1  UNL     1      16.097  18.603   6.404  1.00  0.00     0.213 C 
ENDBRANCH  20  22
ENDBRANCH   1  20
BRANCH  15  24
HETATM   24  O6  UNL     1      12.916  24.372   5.374  1.00  0.00    -0.394 OA
ATOM     25  H6  UNL     1      12.209  23.737   5.357  1.00  0.00     0.210 HD
ENDBRANCH  15  24
BRANCH  12  26
HETATM   26  O5  UNL     1      10.537  23.999   2.079  1.00  0.00    -0.393 OA
ATOM     27  H5  UNL     1       9.864  24.667   2.032  1.00  0.00     0.210 HD
ENDBRANCH  12  26
TORSDOF 4
ENDMDL
MODEL 3
REMARK VINA RESULT: -5.277437457      1.304      1.717
REMARK  4 active torsions:
REMARK  status: ('A' for Active; 'I' for Inactive)
REMARK    1  A    between atoms: O1_2  and  C2_3 
REMARK    2  A    between atoms: C2_3  and  C3_5 
REMARK    3  A    between atoms: C12_16  and  O5_17 
REMARK    4  A    between atoms: C15_21  and  O6_22 
ROOT
HETATM    1  C3  UNL     1      15.033  21.040   4.818  1.00  0.00     0.162 C 
HETATM    2  C4  UNL     1      13.857  20.150   5.159  1.00  0.00     0.101 C 
HETATM    3  C5  UNL     1      13.006  19.886   3.979  1.00  0.00     0.134 C 
HETATM    4  O3  UNL     1      13.474  20.054   2.873  1.00  0.00    -0.297 OA
HETATM    5  C6  UNL     1      11.608  19.426   4.154  1.00  0.00     0.080 C 
HETATM    6  C7  UNL     1      11.108  18.635   2.954  1.00  0.00     0.020 C 
HETATM    7  C8  UNL     1      10.677  20.610   4.445  1.00  0.00     0.128 C 
HETATM    8  C9  UNL     1      10.366  20.572   5.917  1.00  0.00     0.040 C 
HETATM    9  O4  UNL     1      11.374  21.749   4.065  1.00  0.00    -0.378 OA
HETATM   10  C10 UNL     1      10.663  22.911   4.218  1.00  0.00     0.147 C 
HETATM   11  C11 UNL     1       9.231  22.643   3.732  1.00  0.00     0.042 C 
HETATM   12  C12 UNL     1      11.197  24.043   3.417  1.00  0.00     0.152 C 
HETATM   13  C13 UNL     1      12.701  23.952   3.172  1.00  0.00     0.042 C 
HETATM   14  C14 UNL     1      12.948  24.977   2.055  1.00  0.00     0.015 C 
HETATM   15  C15 UNL     1      13.510  24.320   4.358  1.00  0.00     0.135 C 
HETATM   16  C16 UNL     1      14.816  23.631   4.497  1.00  0.00     0.081 C 
HETATM   17  C17 UNL     1      15.519  23.344   3.206  1.00  0.00     0.020 C 
HETATM   18  C18 UNL     1      14.732  22.392   5.344  1.00  0.00     0.147 C 
HETATM   19  O7  UNL     1      14.406  22.479   6.515  1.00  0.00    -0.297 OA
ENDROOT
BRANCH   1  20
HETATM   20  C2  UNL     1      16.215  20.528   5.542  1.00  0.00     0.270 C 
HETATM   21  O2  UNL     1      16.300  19.403   6.053  1.00  0.00    -0.264 OA
BRANCH  20  22
HETATM   22  O1  UNL     1      17.311  21.393   5.648  1.00  0.00    -0.326 OA
HETATM   23  C1  UNL     1      17.663  22.049   6.840  1.00  0.00     0.213 C 
ENDBRANCH  20  22
ENDBRANCH   1  20
BRANCH  15  24
HETATM   24  O6  UNL     1      12.804  24.135   5.569  1.00  0.00    -0.394 OA
ATOM     25  H6  UNL     1      12.978  23.289   5.964  1.00  0.00     0.210 HD
ENDBRANCH  15  24
BRANCH  12  26
HETATM   26  O5  UNL     1      10.609  23.961   2.132  1.00  0.00    -0.393 OA
ATOM     27  H5  UNL     1       9.792  23.487   2.226  1.00  0.00     0.210 HD
ENDBRANCH  12  26
TORSDOF 4
ENDMDL
MODEL 4
REMARK VINA RESULT: -3.534309395      1.515      2.089
REMARK  4 active torsions:
REMARK  status: ('A' for Active; 'I' for Inactive)
REMARK    1  A    between atoms: O1_2  and  C2_3 
REMARK    2  A    between atoms: C2_3  and  C3_5 
REMARK    3  A    between atoms: C12_16  and  O5_17 
REMARK    4  A    between atoms: C15_21  and  O6_22 
ROOT
HETATM    1  C3  UNL     1      14.193  21.096   4.949  1.00  0.00     0.162 C 
HETATM    2  C4  UNL     1      13.143  20.015   5.099  1.00  0.00     0.101 C 
HETATM    3  C5  UNL     1      12.493  19.697   3.809  1.00  0.00     0.134 C 
HETATM    4  O3  UNL     1      13.058  20.004   2.780  1.00  0.00    -0.297 OA
HETATM    5  C6  UNL     1      11.177  19.017   3.783  1.00  0.00     0.080 C 
HETATM    6  C7  UNL     1      10.959  18.234   2.497  1.00  0.00     0.020 C 
HETATM    7  C8  UNL     1      10.039  20.022   4.002  1.00  0.00     0.128 C 
HETATM    8  C9  UNL     1       9.564  19.845   5.420  1.00  0.00     0.040 C 
HETATM    9  O4  UNL     1      10.584  21.276   3.764  1.00  0.00    -0.378 OA
HETATM   10  C10 UNL     1       9.682  22.303   3.874  1.00  0.00     0.147 C 
HETATM   11  C11 UNL     1       8.381  21.848   3.197  1.00  0.00     0.042 C 
HETATM   12  C12 UNL     1      10.118  23.551   3.196  1.00  0.00     0.152 C 
HETATM   13  C13 UNL     1      11.636  23.709   3.143  1.00  0.00     0.042 C 
HETATM   14  C14 UNL     1      11.847  24.828   2.111  1.00  0.00     0.015 C 
HETATM   15  C15 UNL     1      12.227  24.123   4.437  1.00  0.00     0.135 C 
HETATM   16  C16 UNL     1      13.601  23.637   4.712  1.00  0.00     0.081 C 
HETATM   17  C17 UNL     1      14.490  23.543   3.511  1.00  0.00     0.020 C 
HETATM   18  C18 UNL     1      13.617  22.350   5.489  1.00  0.00     0.147 C 
HETATM   19  O7  UNL     1      13.143  22.313   6.611  1.00  0.00    -0.297 OA
ENDROOT
BRANCH   1  20
HETATM   20  C2  UNL     1      15.346  20.729   5.796  1.00  0.00     0.270 C 
HETATM   21  O2  UNL     1      16.318  21.460   6.024  1.00  0.00    -0.264 OA
BRANCH  20  22
HETATM   22  O1  UNL     1      15.320  19.454   6.376  1.00  0.00    -0.326 OA
HETATM   23  C1  UNL     1      16.479  18.744   6.731  1.00  0.00     0.213 C 
ENDBRANCH  20  22
ENDBRANCH   1  20
BRANCH  15  24
HETATM   24  O6  UNL     1      11.420  23.757   5.538  1.00  0.00    -0.394 OA
ATOM     25  H6  UNL     1      11.576  22.863   5.820  1.00  0.00     0.210 HD
ENDBRANCH  15  24
BRANCH  12  26
HETATM   26  O5  UNL     1       9.710  23.460   1.845  1.00  0.00    -0.393 OA
ATOM     27  H5  UNL     1       8.811  23.153   1.842  1.00  0.00     0.210 HD
ENDBRANCH  12  26
TORSDOF 4
ENDMDL
MODEL 5
REMARK VINA RESULT: -3.084477552      1.688      5.983
REMARK  4 active torsions:
REMARK  status: ('A' for Active; 'I' for Inactive)
REMARK    1  A    between atoms: O1_2  and  C2_3 
REMARK    2  A    between atoms: C2_3  and  C3_5 
REMARK    3  A    between atoms: C12_16  and  O5_17 
REMARK    4  A    between atoms: C15_21  and  O6_22 
ROOT
HETATM    1  C3  UNL     1      12.784  24.393   3.435  1.00  0.00     0.162 C 
HETATM    2  C4  UNL     1      14.208  24.314   3.944  1.00  0.00     0.101 C 
HETATM    3  C5  UNL     1      14.934  23.159   3.373  1.00  0.00     0.134 C 
HETATM    4  O3  UNL     1      14.512  22.651   2.355  1.00  0.00    -0.297 OA
HETATM    5  C6  UNL     1      16.151  22.639   4.037  1.00  0.00     0.080 C 
HETATM    6  C7  UNL     1      17.080  21.929   3.063  1.00  0.00     0.020 C 
HETATM    7  C8  UNL     1      15.782  21.712   5.203  1.00  0.00     0.128 C 
HETATM    8  C9  UNL     1      16.007  22.493   6.471  1.00  0.00     0.040 C 
HETATM    9  O4  UNL     1      14.454  21.360   5.008  1.00  0.00    -0.378 OA
HETATM   10  C10 UNL     1      13.968  20.489   5.948  1.00  0.00     0.147 C 
HETATM   11  C11 UNL     1      15.053  19.431   6.201  1.00  0.00     0.042 C 
HETATM   12  C12 UNL     1      12.744  19.769   5.512  1.00  0.00     0.152 C 
HETATM   13  C13 UNL     1      11.897  20.564   4.521  1.00  0.00     0.042 C 
HETATM   14  C14 UNL     1      10.931  19.516   3.948  1.00  0.00     0.015 C 
HETATM   15  C15 UNL     1      11.115  21.649   5.160  1.00  0.00     0.135 C 
HETATM   16  C16 UNL     1      10.863  22.850   4.326  1.00  0.00     0.081 C 
HETATM   17  C17 UNL     1      10.658  22.575   2.869  1.00  0.00     0.020 C 
HETATM   18  C18 UNL     1      11.898  23.922   4.526  1.00  0.00     0.147 C 
HETATM   19  O7  UNL     1      12.031  24.440   5.620  1.00  0.00    -0.297 OA
ENDROOT
BRANCH   1  20
HETATM   20  C2  UNL     1      12.470  25.815   3.182  1.00  0.00     0.270 C 
HETATM   21  O2  UNL     1      12.907  26.765   3.845  1.00  0.00    -0.264 OA
BRANCH  20  22
HETATM   22  O1  UNL     1      11.613  26.088   2.110  1.00  0.00    -0.326 OA
HETATM   23  C1  UNL     1      11.612  25.348   0.915  1.00  0.00     0.213 C 
ENDBRANCH  20  22
ENDBRANCH   1  20
BRANCH  15  24
HETATM   24  O6  UNL     1      11.695  22.089   6.371  1.00  0.00    -0.394 OA
ATOM     25  H6  UNL     1      11.380  21.599   7.122  1.00  0.00     0.210 HD
ENDBRANCH  15  24
BRANCH  12  26
HETATM   26  O5  UNL     1      13.163  18.621   4.798  1.00  0.00    -0.393 OA
ATOM     27  H5  UNL     1      12.435  18.345   4.254  1.00  0.00     0.210 HD
ENDBRANCH  12  26
TORSDOF 4
ENDMDL
