MODEL 1
REMARK VINA RESULT: -7.880681623      0.000      0.000
REMARK  2 active torsions:
REMARK  status: ('A' for Active; 'I' for Inactive)
REMARK    1  A    between atoms: C4_5  and  O1_6 
REMARK    2  A    between atoms: C15_19  and  O2_20 
ROOT
HETATM    1  N1  UNL     1       8.526  18.604   3.482  1.00  0.00    -0.195 NA
HETATM    2  C1  UNL     1       9.402  19.345   3.626  1.00  0.00     0.085 C 
HETATM    3  C2  UNL     1      10.528  20.297   3.831  1.00  0.00     0.195 C 
HETATM    4  C3  UNL     1      10.047  21.710   3.962  1.00  0.00     0.112 C 
HETATM    5  C4  UNL     1      10.597  22.465   5.134  1.00  0.00     0.275 C 
HETATM    6  C5  UNL     1      10.596  21.647   6.402  1.00  0.00     0.116 C 
HETATM    7  C6  UNL     1      10.918  20.201   6.206  1.00  0.00     0.064 C 
HETATM    8  N2  UNL     1      11.278  19.817   4.917  1.00  0.00    -0.374 N 
HETATM    9  C7  UNL     1      12.544  19.262   4.668  1.00  0.00     0.155 C 
HETATM   10  C8  UNL     1      13.674  20.186   5.148  1.00  0.00     0.144 C 
HETATM   11  C9  UNL     1      14.808  20.214   4.153  1.00  0.00     0.034 C 
HETATM   12  C10 UNL     1      16.127  20.563   4.723  1.00  0.00     0.002 C 
HETATM   13  C11 UNL     1      16.691  21.911   4.401  1.00  0.00     0.000 C 
HETATM   14  C12 UNL     1      16.948  22.202   2.984  1.00  0.00     0.000 C 
HETATM   15  C13 UNL     1      16.036  23.089   2.245  1.00  0.00     0.002 C 
HETATM   16  C14 UNL     1      15.529  24.309   2.897  1.00  0.00     0.032 C 
HETATM   17  C15 UNL     1      14.100  24.628   2.436  1.00  0.00     0.122 C 
HETATM   18  C16 UNL     1      13.156  24.803   3.621  1.00  0.00     0.096 C 
HETATM   19  C17 UNL     1      12.173  23.666   3.685  1.00  0.00     0.375 C 
HETATM   20  O3  UNL     1      12.842  22.426   3.529  1.00  0.00    -0.300 OA
HETATM   21  C18 UNL     1      13.022  22.440   4.898  1.00  0.00     0.518 C 
HETATM   22  O4  UNL     1      13.123  21.308   5.553  1.00  0.00    -0.330 OA
HETATM   23  N3  UNL     1      11.788  23.185   4.964  1.00  0.00     0.207 N 
ENDROOT
BRANCH   5  24
HETATM   24  O1  UNL     1       9.628  23.484   5.387  1.00  0.00    -0.362 OA
ATOM     25  H1  UNL     1      10.066  24.085   5.978  1.00  0.00     0.212 HD
ENDBRANCH   5  24
BRANCH  17  26
HETATM   26  O2  UNL     1      14.069  25.704   1.564  1.00  0.00    -0.395 OA
ATOM     27  H2  UNL     1      13.254  25.739   1.077  1.00  0.00     0.210 HD
ENDBRANCH  17  26
TORSDOF 2
ENDMDL
MODEL 2
REMARK VINA RESULT: -6.132292415      2.311      6.092
REMARK  2 active torsions:
REMARK  status: ('A' for Active; 'I' for Inactive)
REMARK    1  A    between atoms: C4_5  and  O1_6 
REMARK    2  A    between atoms: C15_19  and  O2_20 
ROOT
HETATM    1  N1  UNL     1      17.748  22.967   2.258  1.00  0.00    -0.195 NA
HETATM    2  C1  UNL     1      16.716  22.632   2.659  1.00  0.00     0.085 C 
HETATM    3  C2  UNL     1      15.391  22.211   3.189  1.00  0.00     0.195 C 
HETATM    4  C3  UNL     1      15.482  20.929   3.962  1.00  0.00     0.112 C 
HETATM    5  C4  UNL     1      14.825  20.949   5.309  1.00  0.00     0.275 C 
HETATM    6  C5  UNL     1      15.126  22.209   6.083  1.00  0.00     0.116 C 
HETATM    7  C6  UNL     1      15.193  23.447   5.248  1.00  0.00     0.064 C 
HETATM    8  N2  UNL     1      14.869  23.302   3.901  1.00  0.00    -0.374 N 
HETATM    9  C7  UNL     1      13.786  24.008   3.352  1.00  0.00     0.155 C 
HETATM   10  C8  UNL     1      12.481  23.732   4.117  1.00  0.00     0.144 C 
HETATM   11  C9  UNL     1      11.320  23.573   3.166  1.00  0.00     0.034 C 
HETATM   12  C10 UNL     1       9.996  23.881   3.745  1.00  0.00     0.002 C 
HETATM   13  C11 UNL     1       9.070  22.736   4.016  1.00  0.00     0.000 C 
HETATM   14  C12 UNL     1       8.655  21.931   2.860  1.00  0.00     0.000 C 
HETATM   15  C13 UNL     1       9.246  20.599   2.649  1.00  0.00     0.002 C 
HETATM   16  C14 UNL     1       9.446  19.707   3.804  1.00  0.00     0.032 C 
HETATM   17  C15 UNL     1      10.706  18.846   3.624  1.00  0.00     0.122 C 
HETATM   18  C16 UNL     1      11.641  18.966   4.823  1.00  0.00     0.096 C 
HETATM   19  C17 UNL     1      12.895  19.704   4.441  1.00  0.00     0.375 C 
HETATM   20  O3  UNL     1      12.575  20.876   3.711  1.00  0.00    -0.300 OA
HETATM   21  C18 UNL     1      12.486  21.518   4.931  1.00  0.00     0.518 C 
HETATM   22  O4  UNL     1      12.735  22.803   5.010  1.00  0.00    -0.330 OA
HETATM   23  N3  UNL     1      13.476  20.577   5.398  1.00  0.00     0.207 N 
ENDROOT
BRANCH   5  24
HETATM   24  O1  UNL     1      15.498  19.928   6.048  1.00  0.00    -0.362 OA
ATOM     25  H1  UNL     1      15.417  19.152   5.506  1.00  0.00     0.212 HD
ENDBRANCH   5  24
BRANCH  17  26
HETATM   26  O2  UNL     1      10.390  17.532   3.322  1.00  0.00    -0.395 OA
ATOM     27  H2  UNL     1      10.518  16.959   4.068  1.00  0.00     0.210 HD
ENDBRANCH  17  26
TORSDOF 2
ENDMDL
MODEL 3
REMARK VINA RESULT: -5.965035377      2.346      6.370
REMARK  2 active torsions:
REMARK  status: ('A' for Active; 'I' for Inactive)
REMARK    1  A    between atoms: C4_5  and  O1_6 
REMARK    2  A    between atoms: C15_19  and  O2_20 
ROOT
HETATM    1  N1  UNL     1      15.178  24.693   2.836  1.00  0.00    -0.195 NA
HETATM    2  C1  UNL     1      14.234  24.061   3.053  1.00  0.00     0.085 C 
HETATM    3  C2  UNL     1      13.013  23.261   3.343  1.00  0.00     0.195 C 
HETATM    4  C3  UNL     1      13.201  22.368   4.533  1.00  0.00     0.112 C 
HETATM    5  C4  UNL     1      12.110  22.434   5.558  1.00  0.00     0.275 C 
HETATM    6  C5  UNL     1      11.680  23.849   5.857  1.00  0.00     0.116 C 
HETATM    7  C6  UNL     1      11.666  24.755   4.669  1.00  0.00     0.064 C 
HETATM    8  N2  UNL     1      11.943  24.166   3.438  1.00  0.00    -0.374 N 
HETATM    9  C7  UNL     1      10.989  24.190   2.408  1.00  0.00     0.155 C 
HETATM   10  C8  UNL     1       9.651  23.583   2.858  1.00  0.00     0.144 C 
HETATM   11  C9  UNL     1       9.055  22.722   1.771  1.00  0.00     0.034 C 
HETATM   12  C10 UNL     1       7.586  22.570   1.833  1.00  0.00     0.002 C 
HETATM   13  C11 UNL     1       7.039  21.245   2.264  1.00  0.00     0.000 C 
HETATM   14  C12 UNL     1       7.373  20.086   1.425  1.00  0.00     0.000 C 
HETATM   15  C13 UNL     1       8.388  19.123   1.885  1.00  0.00     0.002 C 
HETATM   16  C14 UNL     1       8.402  18.709   3.298  1.00  0.00     0.032 C 
HETATM   17  C15 UNL     1       9.836  18.447   3.781  1.00  0.00     0.122 C 
HETATM   18  C16 UNL     1      10.154  19.238   5.046  1.00  0.00     0.096 C 
HETATM   19  C17 UNL     1      11.156  20.321   4.752  1.00  0.00     0.375 C 
HETATM   20  O3  UNL     1      10.788  21.031   3.583  1.00  0.00    -0.300 OA
HETATM   21  C18 UNL     1      10.042  21.849   4.409  1.00  0.00     0.518 C 
HETATM   22  O4  UNL     1       9.824  23.095   4.065  1.00  0.00    -0.330 OA
HETATM   23  N3  UNL     1      11.021  21.560   5.430  1.00  0.00     0.207 N 
ENDROOT
BRANCH   5  24
HETATM   24  O1  UNL     1      12.735  22.007   6.770  1.00  0.00    -0.362 OA
ATOM     25  H1  UNL     1      12.146  22.300   7.456  1.00  0.00     0.212 HD
ENDBRANCH   5  24
BRANCH  17  26
HETATM   26  O2  UNL     1      10.092  17.093   3.920  1.00  0.00    -0.395 OA
ATOM     27  H2  UNL     1       9.733  16.591   3.197  1.00  0.00     0.210 HD
ENDBRANCH  17  26
TORSDOF 2
ENDMDL
MODEL 4
REMARK VINA RESULT: -5.835082840      4.002      6.328
REMARK  2 active torsions:
REMARK  status: ('A' for Active; 'I' for Inactive)
REMARK    1  A    between atoms: C4_5  and  O1_6 
REMARK    2  A    between atoms: C15_19  and  O2_20 
ROOT
HETATM    1  N1  UNL     1       6.438  22.355  -3.042  1.00  0.00    -0.195 NA
HETATM    2  C1  UNL     1       6.805  22.167  -1.962  1.00  0.00     0.085 C 
HETATM    3  C2  UNL     1       7.259  21.925  -0.565  1.00  0.00     0.195 C 
HETATM    4  C3  UNL     1       7.389  23.203   0.208  1.00  0.00     0.112 C 
HETATM    5  C4  UNL     1       6.727  23.203   1.553  1.00  0.00     0.275 C 
HETATM    6  C5  UNL     1       5.351  22.587   1.522  1.00  0.00     0.116 C 
HETATM    7  C6  UNL     1       5.219  21.413   0.608  1.00  0.00     0.064 C 
HETATM    8  N2  UNL     1       6.388  20.975  -0.010  1.00  0.00    -0.374 N 
HETATM    9  C7  UNL     1       6.865  19.673   0.215  1.00  0.00     0.155 C 
HETATM   10  C8  UNL     1       7.065  19.393   1.713  1.00  0.00     0.144 C 
HETATM   11  C9  UNL     1       8.339  18.620   1.952  1.00  0.00     0.034 C 
HETATM   12  C10 UNL     1       8.355  17.815   3.192  1.00  0.00     0.002 C 
HETATM   13  C11 UNL     1       9.214  18.290   4.322  1.00  0.00     0.000 C 
HETATM   14  C12 UNL     1      10.658  18.378   4.064  1.00  0.00     0.000 C 
HETATM   15  C13 UNL     1      11.281  19.695   3.851  1.00  0.00     0.002 C 
HETATM   16  C14 UNL     1      10.877  20.831   4.698  1.00  0.00     0.032 C 
HETATM   17  C15 UNL     1      10.919  22.148   3.909  1.00  0.00     0.122 C 
HETATM   18  C16 UNL     1       9.593  22.897   4.003  1.00  0.00     0.096 C 
HETATM   19  C17 UNL     1       8.890  22.892   2.673  1.00  0.00     0.375 C 
HETATM   20  O3  UNL     1       8.894  21.588   2.117  1.00  0.00    -0.300 OA
HETATM   21  C18 UNL     1       7.723  21.371   2.816  1.00  0.00     0.518 C 
HETATM   22  O4  UNL     1       6.842  20.514   2.359  1.00  0.00    -0.330 OA
HETATM   23  N3  UNL     1       7.475  22.785   2.664  1.00  0.00     0.207 N 
ENDROOT
BRANCH   5  24
HETATM   24  O1  UNL     1       6.476  24.583   1.825  1.00  0.00    -0.362 OA
ATOM     25  H1  UNL     1       5.846  24.843   1.163  1.00  0.00     0.212 HD
ENDBRANCH   5  24
BRANCH  17  26
HETATM   26  O2  UNL     1      12.001  22.930   4.273  1.00  0.00    -0.395 OA
ATOM     27  H2  UNL     1      12.827  22.501   4.080  1.00  0.00     0.210 HD
ENDBRANCH  17  26
TORSDOF 2
ENDMDL
MODEL 5
REMARK VINA RESULT: -4.402698959      2.538      4.953
REMARK  2 active torsions:
REMARK  status: ('A' for Active; 'I' for Inactive)
REMARK    1  A    between atoms: C4_5  and  O1_6 
REMARK    2  A    between atoms: C15_19  and  O2_20 
ROOT
HETATM    1  N1  UNL     1      15.385  19.494   5.310  1.00  0.00    -0.195 NA
HETATM    2  C1  UNL     1      14.538  20.197   4.953  1.00  0.00     0.085 C 
HETATM    3  C2  UNL     1      13.451  21.112   4.509  1.00  0.00     0.195 C 
HETATM    4  C3  UNL     1      12.124  20.724   5.090  1.00  0.00     0.112 C 
HETATM    5  C4  UNL     1      11.356  21.843   5.725  1.00  0.00     0.275 C 
HETATM    6  C5  UNL     1      12.223  22.724   6.591  1.00  0.00     0.116 C 
HETATM    7  C6  UNL     1      13.600  22.951   6.058  1.00  0.00     0.064 C 
HETATM    8  N2  UNL     1      13.873  22.419   4.800  1.00  0.00    -0.374 N 
HETATM    9  C7  UNL     1      14.237  23.261   3.737  1.00  0.00     0.155 C 
HETATM   10  C8  UNL     1      13.189  24.359   3.497  1.00  0.00     0.144 C 
HETATM   11  C9  UNL     1      12.960  24.575   2.021  1.00  0.00     0.034 C 
HETATM   12  C10 UNL     1      12.460  25.918   1.659  1.00  0.00     0.002 C 
HETATM   13  C11 UNL     1      11.034  26.037   1.220  1.00  0.00     0.000 C 
HETATM   14  C12 UNL     1      10.647  25.293   0.013  1.00  0.00     0.000 C 
HETATM   15  C13 UNL     1       9.861  24.055   0.141  1.00  0.00     0.002 C 
HETATM   16  C14 UNL     1       8.752  24.001   1.110  1.00  0.00     0.032 C 
HETATM   17  C15 UNL     1       8.612  22.593   1.708  1.00  0.00     0.122 C 
HETATM   18  C16 UNL     1       8.622  22.630   3.233  1.00  0.00     0.096 C 
HETATM   19  C17 UNL     1       9.885  22.012   3.767  1.00  0.00     0.375 C 
HETATM   20  O3  UNL     1      11.013  22.512   3.069  1.00  0.00    -0.300 OA
HETATM   21  C18 UNL     1      11.037  23.533   3.999  1.00  0.00     0.518 C 
HETATM   22  O4  UNL     1      12.173  24.118   4.294  1.00  0.00    -0.330 OA
HETATM   23  N3  UNL     1      10.472  22.582   4.926  1.00  0.00     0.207 N 
ENDROOT
BRANCH   5  24
HETATM   24  O1  UNL     1      10.491  21.194   6.660  1.00  0.00    -0.362 OA
ATOM     25  H1  UNL     1       9.692  21.036   6.172  1.00  0.00     0.212 HD
ENDBRANCH   5  24
BRANCH  17  26
HETATM   26  O2  UNL     1       7.512  21.925   1.197  1.00  0.00    -0.395 OA
ATOM     27  H2  UNL     1       7.636  21.688   0.285  1.00  0.00     0.210 HD
ENDBRANCH  17  26
TORSDOF 2
ENDMDL
