MODEL 1
REMARK VINA RESULT: -7.167814225      0.000      0.000
REMARK  6 active torsions:
REMARK  status: ('A' for Active; 'I' for Inactive)
REMARK    1  A    between atoms: C6_8  and  O3_9 
REMARK    2  A    between atoms: O3_9  and  C7_10 
REMARK    3  A    between atoms: C9_13  and  O5_14 
REMARK    4  A    between atoms: C10_16  and  O6_17 
REMARK    5  A    between atoms: C15_23  and  O7_24 
REMARK    6  A    between atoms: O7_24  and  C16_25 
ROOT
HETATM    1  C1  UNL     1      14.602  19.249   4.961  1.00  0.00     0.028 C 
HETATM    2  C2  UNL     1      14.027  20.416   5.155  1.00  0.00     0.037 C 
HETATM    3  C3  UNL     1      12.755  20.593   4.475  1.00  0.00     0.292 C 
HETATM    4  O1  UNL     1      12.130  19.543   4.123  1.00  0.00    -0.260 OA
HETATM    5  O2  UNL     1      12.171  21.810   4.181  1.00  0.00    -0.303 OA
HETATM    6  C4  UNL     1      12.626  23.140   4.480  1.00  0.00     0.104 C 
HETATM    7  C5  UNL     1      12.162  23.404   5.910  1.00  0.00     0.050 C 
HETATM    8  C6  UNL     1      11.862  24.045   3.584  1.00  0.00     0.198 C 
HETATM    9  C9  UNL     1      12.691  24.774   2.565  1.00  0.00     0.179 C 
HETATM   10  C10 UNL     1      13.900  25.418   3.138  1.00  0.00     0.150 C 
HETATM   11  C11 UNL     1      14.526  24.701   4.264  1.00  0.00     0.046 C 
HETATM   12  C12 UNL     1      14.111  23.224   4.359  1.00  0.00    -0.005 C 
HETATM   13  C13 UNL     1      14.630  22.555   3.126  1.00  0.00     0.018 C 
HETATM   14  C14 UNL     1      14.878  22.746   5.536  1.00  0.00     0.050 C 
HETATM   15  C15 UNL     1      14.716  21.385   6.015  1.00  0.00     0.171 C 
ENDROOT
BRANCH   8  16
HETATM   16  O3  UNL     1      10.846  23.382   2.837  1.00  0.00    -0.310 OA
BRANCH  16  17
HETATM   17  C7  UNL     1       9.545  23.262   3.234  1.00  0.00     0.255 C 
HETATM   18  C8  UNL     1       8.505  23.064   2.189  1.00  0.00     0.126 C 
HETATM   19  O4  UNL     1       9.289  23.326   4.459  1.00  0.00    -0.266 OA
ENDBRANCH  16  17
ENDBRANCH   8  16
BRANCH   9  20
HETATM   20  O5  UNL     1      11.869  25.799   2.043  1.00  0.00    -0.390 OA
ATOM     21  H5  UNL     1      11.572  25.497   1.192  1.00  0.00     0.210 HD
ENDBRANCH   9  20
BRANCH  10  22
HETATM   22  O6  UNL     1      14.794  25.693   2.077  1.00  0.00    -0.393 OA
ATOM     23  H6  UNL     1      14.284  25.971   1.326  1.00  0.00     0.210 HD
ENDBRANCH  10  22
BRANCH  15  24
HETATM   24  O7  UNL     1      15.978  20.822   6.373  1.00  0.00    -0.311 OA
BRANCH  24  25
HETATM   25  C16 UNL     1      17.191  21.375   6.072  1.00  0.00     0.255 C 
HETATM   26  C17 UNL     1      17.728  21.250   4.684  1.00  0.00     0.126 C 
HETATM   27  O8  UNL     1      17.824  21.975   6.975  1.00  0.00    -0.266 OA
ENDBRANCH  24  25
ENDBRANCH  15  24
TORSDOF 6
ENDMDL
MODEL 2
REMARK VINA RESULT: -7.070990838      1.946      2.800
REMARK  6 active torsions:
REMARK  status: ('A' for Active; 'I' for Inactive)
REMARK    1  A    between atoms: C6_8  and  O3_9 
REMARK    2  A    between atoms: O3_9  and  C7_10 
REMARK    3  A    between atoms: C9_13  and  O5_14 
REMARK    4  A    between atoms: C10_16  and  O6_17 
REMARK    5  A    between atoms: C15_23  and  O7_24 
REMARK    6  A    between atoms: O7_24  and  C16_25 
ROOT
HETATM    1  C1  UNL     1      12.378  18.924   5.122  1.00  0.00     0.028 C 
HETATM    2  C2  UNL     1      13.096  20.011   5.302  1.00  0.00     0.037 C 
HETATM    3  C3  UNL     1      12.344  21.255   5.265  1.00  0.00     0.292 C 
HETATM    4  O1  UNL     1      11.092  21.186   5.477  1.00  0.00    -0.260 OA
HETATM    5  O2  UNL     1      12.882  22.503   5.020  1.00  0.00    -0.303 OA
HETATM    6  C4  UNL     1      14.248  22.881   4.782  1.00  0.00     0.104 C 
HETATM    7  C5  UNL     1      14.865  23.027   6.170  1.00  0.00     0.050 C 
HETATM    8  C6  UNL     1      14.196  24.233   4.168  1.00  0.00     0.198 C 
HETATM    9  C9  UNL     1      14.693  24.304   2.751  1.00  0.00     0.179 C 
HETATM   10  C10 UNL     1      16.000  23.628   2.549  1.00  0.00     0.150 C 
HETATM   11  C11 UNL     1      16.233  22.436   3.385  1.00  0.00     0.046 C 
HETATM   12  C12 UNL     1      14.946  21.839   3.975  1.00  0.00    -0.005 C 
HETATM   13  C13 UNL     1      14.129  21.357   2.818  1.00  0.00     0.018 C 
HETATM   14  C14 UNL     1      15.451  20.669   4.738  1.00  0.00     0.050 C 
HETATM   15  C15 UNL     1      14.539  19.852   5.518  1.00  0.00     0.171 C 
ENDROOT
BRANCH   8  16
HETATM   16  O3  UNL     1      12.887  24.795   4.135  1.00  0.00    -0.310 OA
BRANCH  16  17
HETATM   17  C7  UNL     1      12.052  24.749   3.055  1.00  0.00     0.255 C 
HETATM   18  C8  UNL     1      11.011  23.688   3.015  1.00  0.00     0.126 C 
HETATM   19  O4  UNL     1      12.203  25.604   2.151  1.00  0.00    -0.266 OA
ENDBRANCH  16  17
ENDBRANCH   8  16
BRANCH   9  20
HETATM   20  O5  UNL     1      14.872  25.675   2.460  1.00  0.00    -0.390 OA
ATOM     21  H5  UNL     1      14.037  25.990   2.133  1.00  0.00     0.210 HD
ENDBRANCH   9  20
BRANCH  10  22
HETATM   22  O6  UNL     1      16.159  23.387   1.164  1.00  0.00    -0.393 OA
ATOM     23  H6  UNL     1      16.310  24.221   0.735  1.00  0.00     0.210 HD
ENDBRANCH  10  22
BRANCH  15  24
HETATM   24  O7  UNL     1      14.846  18.467   5.366  1.00  0.00    -0.311 OA
BRANCH  24  25
HETATM   25  C16 UNL     1      15.849  17.814   6.027  1.00  0.00     0.255 C 
HETATM   26  C17 UNL     1      16.048  18.066   7.485  1.00  0.00     0.126 C 
HETATM   27  O8  UNL     1      16.578  17.017   5.387  1.00  0.00    -0.266 OA
ENDBRANCH  24  25
ENDBRANCH  15  24
TORSDOF 6
ENDMDL
MODEL 3
REMARK VINA RESULT: -7.012764388      1.653      5.896
REMARK  6 active torsions:
REMARK  status: ('A' for Active; 'I' for Inactive)
REMARK    1  A    between atoms: C6_8  and  O3_9 
REMARK    2  A    between atoms: O3_9  and  C7_10 
REMARK    3  A    between atoms: C9_13  and  O5_14 
REMARK    4  A    between atoms: C10_16  and  O6_17 
REMARK    5  A    between atoms: C15_23  and  O7_24 
REMARK    6  A    between atoms: O7_24  and  C16_25 
ROOT
HETATM    1  C1  UNL     1      10.372  22.759   4.949  1.00  0.00     0.028 C 
HETATM    2  C2  UNL     1      11.529  22.285   4.541  1.00  0.00     0.037 C 
HETATM    3  C3  UNL     1      11.808  20.917   4.948  1.00  0.00     0.292 C 
HETATM    4  O1  UNL     1      10.815  20.191   5.271  1.00  0.00    -0.260 OA
HETATM    5  O2  UNL     1      13.064  20.345   5.009  1.00  0.00    -0.303 OA
HETATM    6  C4  UNL     1      14.344  20.908   4.678  1.00  0.00     0.104 C 
HETATM    7  C5  UNL     1      14.475  20.729   3.168  1.00  0.00     0.050 C 
HETATM    8  C6  UNL     1      15.355  20.032   5.324  1.00  0.00     0.198 C 
HETATM    9  C9  UNL     1      16.161  20.690   6.409  1.00  0.00     0.179 C 
HETATM   10  C10 UNL     1      16.710  22.012   6.018  1.00  0.00     0.150 C 
HETATM   11  C11 UNL     1      15.867  22.803   5.103  1.00  0.00     0.046 C 
HETATM   12  C12 UNL     1      14.399  22.346   5.070  1.00  0.00    -0.005 C 
HETATM   13  C13 UNL     1      13.844  22.597   6.437  1.00  0.00     0.018 C 
HETATM   14  C14 UNL     1      13.785  23.297   4.110  1.00  0.00     0.050 C 
HETATM   15  C15 UNL     1      12.387  23.165   3.739  1.00  0.00     0.171 C 
ENDROOT
BRANCH   8  16
HETATM   16  O3  UNL     1      14.798  18.866   5.925  1.00  0.00    -0.310 OA
BRANCH  16  17
HETATM   17  C7  UNL     1      15.520  17.773   6.308  1.00  0.00     0.255 C 
HETATM   18  C8  UNL     1      16.237  17.000   5.259  1.00  0.00     0.126 C 
HETATM   19  O4  UNL     1      15.544  17.473   7.525  1.00  0.00    -0.266 OA
ENDBRANCH  16  17
ENDBRANCH   8  16
BRANCH   9  20
HETATM   20  O5  UNL     1      17.255  19.833   6.668  1.00  0.00    -0.390 OA
ATOM     21  H5  UNL     1      17.814  20.291   7.283  1.00  0.00     0.210 HD
ENDBRANCH   9  20
BRANCH  10  22
HETATM   22  O6  UNL     1      17.066  22.706   7.198  1.00  0.00    -0.393 OA
ATOM     23  H6  UNL     1      18.000  22.593   7.336  1.00  0.00     0.210 HD
ENDBRANCH  10  22
BRANCH  15  24
HETATM   24  O7  UNL     1      11.757  24.443   3.681  1.00  0.00    -0.311 OA
BRANCH  24  25
HETATM   25  C16 UNL     1      12.053  25.417   2.769  1.00  0.00     0.255 C 
HETATM   26  C17 UNL     1      11.527  25.300   1.376  1.00  0.00     0.126 C 
HETATM   27  O8  UNL     1      12.762  26.389   3.128  1.00  0.00    -0.266 OA
ENDBRANCH  24  25
ENDBRANCH  15  24
TORSDOF 6
ENDMDL
MODEL 4
REMARK VINA RESULT: -6.923803245      1.838      5.921
REMARK  6 active torsions:
REMARK  status: ('A' for Active; 'I' for Inactive)
REMARK    1  A    between atoms: C6_8  and  O3_9 
REMARK    2  A    between atoms: O3_9  and  C7_10 
REMARK    3  A    between atoms: C9_13  and  O5_14 
REMARK    4  A    between atoms: C10_16  and  O6_17 
REMARK    5  A    between atoms: C15_23  and  O7_24 
REMARK    6  A    between atoms: O7_24  and  C16_25 
ROOT
HETATM    1  C1  UNL     1      11.276  23.692   5.799  1.00  0.00     0.028 C 
HETATM    2  C2  UNL     1      12.027  22.835   5.143  1.00  0.00     0.037 C 
HETATM    3  C3  UNL     1      12.124  21.516   5.747  1.00  0.00     0.292 C 
HETATM    4  O1  UNL     1      11.208  21.180   6.563  1.00  0.00    -0.260 OA
HETATM    5  O2  UNL     1      13.130  20.601   5.505  1.00  0.00    -0.303 OA
HETATM    6  C4  UNL     1      14.259  20.694   4.622  1.00  0.00     0.104 C 
HETATM    7  C5  UNL     1      13.726  20.280   3.254  1.00  0.00     0.050 C 
HETATM    8  C6  UNL     1      15.214  19.647   5.068  1.00  0.00     0.198 C 
HETATM    9  C9  UNL     1      16.516  20.167   5.608  1.00  0.00     0.179 C 
HETATM   10  C10 UNL     1      17.149  21.191   4.740  1.00  0.00     0.150 C 
HETATM   11  C11 UNL     1      16.215  22.071   4.013  1.00  0.00     0.046 C 
HETATM   12  C12 UNL     1      14.797  22.085   4.607  1.00  0.00    -0.005 C 
HETATM   13  C13 UNL     1      14.914  22.677   5.975  1.00  0.00     0.018 C 
HETATM   14  C14 UNL     1      14.084  23.038   3.720  1.00  0.00     0.050 C 
HETATM   15  C15 UNL     1      12.667  23.292   3.903  1.00  0.00     0.171 C 
ENDROOT
BRANCH   8  16
HETATM   16  O3  UNL     1      14.695  18.800   6.090  1.00  0.00    -0.310 OA
BRANCH  16  17
HETATM   17  C7  UNL     1      15.410  17.826   6.726  1.00  0.00     0.255 C 
HETATM   18  C8  UNL     1      15.620  17.951   8.193  1.00  0.00     0.126 C 
HETATM   19  O4  UNL     1      15.854  16.874   6.043  1.00  0.00    -0.266 OA
ENDBRANCH  16  17
ENDBRANCH   8  16
BRANCH   9  20
HETATM   20  O5  UNL     1      17.393  19.059   5.670  1.00  0.00    -0.390 OA
ATOM     21  H5  UNL     1      18.273  19.412   5.622  1.00  0.00     0.210 HD
ENDBRANCH   9  20
BRANCH  10  22
HETATM   22  O6  UNL     1      18.100  21.896   5.515  1.00  0.00    -0.393 OA
ATOM     23  H6  UNL     1      18.193  22.767   5.147  1.00  0.00     0.210 HD
ENDBRANCH  10  22
BRANCH  15  24
HETATM   24  O7  UNL     1      12.379  24.682   3.759  1.00  0.00    -0.311 OA
BRANCH  24  25
HETATM   25  C16 UNL     1      12.738  25.444   2.682  1.00  0.00     0.255 C 
HETATM   26  C17 UNL     1      11.813  25.543   1.514  1.00  0.00     0.126 C 
HETATM   27  O8  UNL     1      13.841  26.043   2.705  1.00  0.00    -0.266 OA
ENDBRANCH  24  25
ENDBRANCH  15  24
TORSDOF 6
ENDMDL
MODEL 5
REMARK VINA RESULT: -6.588979610      2.150      6.231
REMARK  6 active torsions:
REMARK  status: ('A' for Active; 'I' for Inactive)
REMARK    1  A    between atoms: C6_8  and  O3_9 
REMARK    2  A    between atoms: O3_9  and  C7_10 
REMARK    3  A    between atoms: C9_13  and  O5_14 
REMARK    4  A    between atoms: C10_16  and  O6_17 
REMARK    5  A    between atoms: C15_23  and  O7_24 
REMARK    6  A    between atoms: O7_24  and  C16_25 
ROOT
HETATM    1  C1  UNL     1      16.168  23.865   1.699  1.00  0.00     0.028 C 
HETATM    2  C2  UNL     1      15.765  23.434   2.875  1.00  0.00     0.037 C 
HETATM    3  C3  UNL     1      16.569  22.365   3.445  1.00  0.00     0.292 C 
HETATM    4  O1  UNL     1      17.755  22.231   3.006  1.00  0.00    -0.260 OA
HETATM    5  O2  UNL     1      16.147  21.487   4.424  1.00  0.00    -0.303 OA
HETATM    6  C4  UNL     1      14.890  21.422   5.116  1.00  0.00     0.104 C 
HETATM    7  C5  UNL     1      15.013  22.433   6.253  1.00  0.00     0.050 C 
HETATM    8  C6  UNL     1      14.827  20.068   5.723  1.00  0.00     0.198 C 
HETATM    9  C9  UNL     1      13.744  19.181   5.178  1.00  0.00     0.179 C 
HETATM   10  C10 UNL     1      12.417  19.843   5.108  1.00  0.00     0.150 C 
HETATM   11  C11 UNL     1      12.444  21.287   4.815  1.00  0.00     0.046 C 
HETATM   12  C12 UNL     1      13.768  21.763   4.194  1.00  0.00    -0.005 C 
HETATM   13  C13 UNL     1      13.884  21.087   2.865  1.00  0.00     0.018 C 
HETATM   14  C14 UNL     1      13.526  23.213   3.987  1.00  0.00     0.050 C 
HETATM   15  C15 UNL     1      14.580  24.066   3.467  1.00  0.00     0.171 C 
ENDROOT
BRANCH   8  16
HETATM   16  O3  UNL     1      16.032  19.322   5.578  1.00  0.00    -0.310 OA
BRANCH  16  17
HETATM   17  C7  UNL     1      16.312  18.165   6.247  1.00  0.00     0.255 C 
HETATM   18  C8  UNL     1      16.459  18.226   7.726  1.00  0.00     0.126 C 
HETATM   19  O4  UNL     1      16.432  17.108   5.584  1.00  0.00    -0.266 OA
ENDBRANCH  16  17
ENDBRANCH   8  16
BRANCH   9  20
HETATM   20  O5  UNL     1      13.631  18.093   6.074  1.00  0.00    -0.390 OA
ATOM     21  H5  UNL     1      14.518  17.852   6.316  1.00  0.00     0.210 HD
ENDBRANCH   9  20
BRANCH  10  22
HETATM   22  O6  UNL     1      11.603  19.102   4.219  1.00  0.00    -0.393 OA
ATOM     23  H6  UNL     1      10.796  19.585   4.086  1.00  0.00     0.210 HD
ENDBRANCH  10  22
BRANCH  15  24
HETATM   24  O7  UNL     1      14.059  24.986   2.509  1.00  0.00    -0.311 OA
BRANCH  24  25
HETATM   25  C16 UNL     1      12.817  25.553   2.569  1.00  0.00     0.255 C 
HETATM   26  C17 UNL     1      11.807  25.215   1.523  1.00  0.00     0.126 C 
HETATM   27  O8  UNL     1      12.558  26.347   3.507  1.00  0.00    -0.266 OA
ENDBRANCH  24  25
ENDBRANCH  15  24
TORSDOF 6
ENDMDL
