MODEL 1
REMARK VINA RESULT: -4.318249705      0.000      0.000
REMARK  4 active torsions:
REMARK  status: ('A' for Active; 'I' for Inactive)
REMARK    1  A    between atoms: C2_2  and  O2_4 
REMARK    2  A    between atoms: O2_4  and  C3_5 
REMARK    3  A    between atoms: C4_6  and  O3_7 
REMARK    4  A    between atoms: C8_13  and  O5_14 
ROOT
HETATM    1  C3  UNL     1      12.170  23.277   4.111  1.00  0.00     0.200 C 
HETATM    2  C4  UNL     1      13.154  22.266   3.691  1.00  0.00     0.162 C 
HETATM    3  C5  UNL     1      13.480  21.187   4.658  1.00  0.00     0.027 C 
HETATM    4  C6  UNL     1      14.804  20.558   4.190  1.00  0.00     0.022 C 
HETATM    5  C7  UNL     1      13.731  21.689   6.063  1.00  0.00     0.184 C 
HETATM    6  O4  UNL     1      13.219  22.915   6.332  1.00  0.00    -0.357 OA
HETATM    7  C8  UNL     1      11.841  22.961   6.498  1.00  0.00     0.293 C 
HETATM    8  C9  UNL     1      11.187  22.791   5.178  1.00  0.00     0.138 C 
HETATM    9  C10 UNL     1      10.038  23.818   5.094  1.00  0.00     0.054 C 
HETATM   10  O6  UNL     1      10.633  21.598   4.897  1.00  0.00    -0.341 OA
HETATM   11  C11 UNL     1      11.181  20.468   5.381  1.00  0.00     0.282 C 
HETATM   12  O7  UNL     1      10.320  19.409   5.168  1.00  0.00    -0.339 OA
HETATM   13  C12 UNL     1      10.208  19.142   3.829  1.00  0.00     0.105 C 
HETATM   14  C13 UNL     1      10.092  17.634   3.668  1.00  0.00     0.058 C 
HETATM   15  C14 UNL     1       9.080  19.798   3.131  1.00  0.00     0.058 C 
HETATM   16  S1  UNL     1      11.836  19.597   3.099  1.00  0.00    -0.116 SA
HETATM   17  C15 UNL     1      12.508  20.081   4.739  1.00  0.00     0.069 C 
HETATM   18  C16 UNL     1      13.061  18.868   5.404  1.00  0.00     0.033 C 
ENDROOT
BRANCH   1  19
HETATM   19  O2  UNL     1      11.470  23.774   2.983  1.00  0.00    -0.310 OA
BRANCH  19  20
HETATM   20  C2  UNL     1      11.838  24.960   2.362  1.00  0.00     0.255 C 
HETATM   21  C1  UNL     1      11.335  25.352   1.019  1.00  0.00     0.126 C 
HETATM   22  O1  UNL     1      12.638  25.704   3.015  1.00  0.00    -0.266 OA
ENDBRANCH  19  20
ENDBRANCH   1  19
BRANCH   2  23
HETATM   23  O3  UNL     1      14.350  22.948   3.356  1.00  0.00    -0.392 OA
ATOM     24  H3  UNL     1      15.052  22.310   3.357  1.00  0.00     0.210 HD
ENDBRANCH   2  23
BRANCH   7  25
HETATM   25  O5  UNL     1      11.598  24.280   6.968  1.00  0.00    -0.368 OA
ATOM     26  H5  UNL     1      10.993  24.157   7.691  1.00  0.00     0.212 HD
ENDBRANCH   7  25
TORSDOF 4
ENDMDL
MODEL 2
REMARK VINA RESULT: -2.927979644      4.992      8.195
REMARK  4 active torsions:
REMARK  status: ('A' for Active; 'I' for Inactive)
REMARK    1  A    between atoms: C2_2  and  O2_4 
REMARK    2  A    between atoms: O2_4  and  C3_5 
REMARK    3  A    between atoms: C4_6  and  O3_7 
REMARK    4  A    between atoms: C8_13  and  O5_14 
ROOT
HETATM    1  C3  UNL     1       7.062  20.283   1.127  1.00  0.00     0.200 C 
HETATM    2  C4  UNL     1       6.928  20.255  -0.339  1.00  0.00     0.162 C 
HETATM    3  C5  UNL     1       5.949  21.187  -0.953  1.00  0.00     0.027 C 
HETATM    4  C6  UNL     1       5.674  20.667  -2.375  1.00  0.00     0.022 C 
HETATM    5  C7  UNL     1       4.609  21.207  -0.250  1.00  0.00     0.184 C 
HETATM    6  O4  UNL     1       4.625  20.743   1.023  1.00  0.00    -0.357 OA
HETATM    7  C8  UNL     1       5.195  21.597   1.960  1.00  0.00     0.293 C 
HETATM    8  C9  UNL     1       6.665  21.615   1.768  1.00  0.00     0.138 C 
HETATM    9  C10 UNL     1       7.316  21.541   3.165  1.00  0.00     0.054 C 
HETATM   10  O6  UNL     1       7.210  22.687   1.166  1.00  0.00    -0.341 OA
HETATM   11  C11 UNL     1       6.530  23.341   0.207  1.00  0.00     0.282 C 
HETATM   12  O7  UNL     1       7.174  24.527  -0.087  1.00  0.00    -0.339 OA
HETATM   13  C12 UNL     1       8.382  24.283  -0.686  1.00  0.00     0.105 C 
HETATM   14  C13 UNL     1       8.603  25.361  -1.735  1.00  0.00     0.058 C 
HETATM   15  C14 UNL     1       9.553  24.231   0.217  1.00  0.00     0.058 C 
HETATM   16  S1  UNL     1       8.157  22.715  -1.624  1.00  0.00    -0.116 SA
HETATM   17  C15 UNL     1       6.400  22.583  -1.108  1.00  0.00     0.069 C 
HETATM   18  C16 UNL     1       5.562  23.361  -2.064  1.00  0.00     0.033 C 
ENDROOT
BRANCH   1  19
HETATM   19  O2  UNL     1       8.382  19.927   1.502  1.00  0.00    -0.310 OA
BRANCH  19  20
HETATM   20  C2  UNL     1       8.657  18.732   2.152  1.00  0.00     0.255 C 
HETATM   21  C1  UNL     1      10.034  18.186   2.279  1.00  0.00     0.126 C 
HETATM   22  O1  UNL     1       7.653  18.121   2.641  1.00  0.00    -0.266 OA
ENDBRANCH  19  20
ENDBRANCH   1  19
BRANCH   2  23
HETATM   23  O3  UNL     1       6.586  18.931  -0.710  1.00  0.00    -0.392 OA
ATOM     24  H3  UNL     1       6.663  18.389   0.066  1.00  0.00     0.210 HD
ENDBRANCH   2  23
BRANCH   7  25
HETATM   25  O5  UNL     1       4.898  20.982   3.206  1.00  0.00    -0.368 OA
ATOM     26  H5  UNL     1       5.553  21.337   3.797  1.00  0.00     0.212 HD
ENDBRANCH   7  25
TORSDOF 4
ENDMDL
MODEL 3
REMARK VINA RESULT: -2.888594262      5.479      8.579
REMARK  4 active torsions:
REMARK  status: ('A' for Active; 'I' for Inactive)
REMARK    1  A    between atoms: C2_2  and  O2_4 
REMARK    2  A    between atoms: O2_4  and  C3_5 
REMARK    3  A    between atoms: C4_6  and  O3_7 
REMARK    4  A    between atoms: C8_13  and  O5_14 
ROOT
HETATM    1  C3  UNL     1       6.928  21.928   0.636  1.00  0.00     0.200 C 
HETATM    2  C4  UNL     1       6.763  21.414  -0.734  1.00  0.00     0.162 C 
HETATM    3  C5  UNL     1       5.953  22.228  -1.675  1.00  0.00     0.027 C 
HETATM    4  C6  UNL     1       5.563  21.300  -2.840  1.00  0.00     0.022 C 
HETATM    5  C7  UNL     1       4.651  22.721  -1.082  1.00  0.00     0.184 C 
HETATM    6  O4  UNL     1       4.609  22.736   0.272  1.00  0.00    -0.357 OA
HETATM    7  C8  UNL     1       5.339  23.750   0.879  1.00  0.00     0.293 C 
HETATM    8  C9  UNL     1       6.785  23.447   0.758  1.00  0.00     0.138 C 
HETATM    9  C10 UNL     1       7.439  23.754   2.121  1.00  0.00     0.054 C 
HETATM   10  O6  UNL     1       7.499  24.131  -0.154  1.00  0.00    -0.341 OA
HETATM   11  C11 UNL     1       6.928  24.516  -1.309  1.00  0.00     0.282 C 
HETATM   12  O7  UNL     1       7.765  25.395  -1.967  1.00  0.00    -0.339 OA
HETATM   13  C12 UNL     1       8.899  24.754  -2.390  1.00  0.00     0.105 C 
HETATM   14  C13 UNL     1       9.287  25.343  -3.738  1.00  0.00     0.058 C 
HETATM   15  C14 UNL     1      10.060  24.819  -1.475  1.00  0.00     0.058 C 
HETATM   16  S1  UNL     1       8.383  23.020  -2.736  1.00  0.00    -0.116 SA
HETATM   17  C15 UNL     1       6.640  23.382  -2.284  1.00  0.00     0.069 C 
HETATM   18  C16 UNL     1       5.935  23.909  -3.486  1.00  0.00     0.033 C 
ENDROOT
BRANCH   1  19
HETATM   19  O2  UNL     1       8.171  21.504   1.169  1.00  0.00    -0.310 OA
BRANCH  19  20
HETATM   20  C2  UNL     1       8.247  20.525   2.150  1.00  0.00     0.255 C 
HETATM   21  C1  UNL     1       7.390  19.310   2.139  1.00  0.00     0.126 C 
HETATM   22  O1  UNL     1       9.102  20.726   3.072  1.00  0.00    -0.266 OA
ENDBRANCH  19  20
ENDBRANCH   1  19
BRANCH   2  23
HETATM   23  O3  UNL     1       6.185  20.124  -0.638  1.00  0.00    -0.392 OA
ATOM     24  H3  UNL     1       6.889  19.508  -0.474  1.00  0.00     0.210 HD
ENDBRANCH   2  23
BRANCH   7  25
HETATM   25  O5  UNL     1       4.962  23.670   2.247  1.00  0.00    -0.368 OA
ATOM     26  H5  UNL     1       4.032  23.477   2.217  1.00  0.00     0.212 HD
ENDBRANCH   7  25
TORSDOF 4
ENDMDL
MODEL 4
REMARK VINA RESULT: -2.319529025      2.001      2.590
REMARK  4 active torsions:
REMARK  status: ('A' for Active; 'I' for Inactive)
REMARK    1  A    between atoms: C2_2  and  O2_4 
REMARK    2  A    between atoms: O2_4  and  C3_5 
REMARK    3  A    between atoms: C4_6  and  O3_7 
REMARK    4  A    between atoms: C8_13  and  O5_14 
ROOT
HETATM    1  C3  UNL     1      14.865  22.614   4.101  1.00  0.00     0.200 C 
HETATM    2  C4  UNL     1      15.002  21.184   3.777  1.00  0.00     0.162 C 
HETATM    3  C5  UNL     1      14.739  20.210   4.865  1.00  0.00     0.027 C 
HETATM    4  C6  UNL     1      15.369  18.875   4.426  1.00  0.00     0.022 C 
HETATM    5  C7  UNL     1      15.403  20.571   6.176  1.00  0.00     0.184 C 
HETATM    6  O4  UNL     1      15.751  21.875   6.299  1.00  0.00    -0.357 OA
HETATM    7  C8  UNL     1      14.698  22.754   6.522  1.00  0.00     0.293 C 
HETATM    8  C9  UNL     1      13.919  22.905   5.269  1.00  0.00     0.138 C 
HETATM    9  C10 UNL     1      13.600  24.404   5.100  1.00  0.00     0.054 C 
HETATM   10  O6  UNL     1      12.739  22.266   5.179  1.00  0.00    -0.341 OA
HETATM   11  C11 UNL     1      12.566  21.077   5.785  1.00  0.00     0.282 C 
HETATM   12  O7  UNL     1      11.228  20.736   5.759  1.00  0.00    -0.339 OA
HETATM   13  C12 UNL     1      10.822  20.483   4.475  1.00  0.00     0.105 C 
HETATM   14  C13 UNL     1       9.819  19.340   4.525  1.00  0.00     0.058 C 
HETATM   15  C14 UNL     1      10.226  21.625   3.747  1.00  0.00     0.058 C 
HETATM   16  S1  UNL     1      12.303  19.807   3.615  1.00  0.00    -0.116 SA
HETATM   17  C15 UNL     1      13.319  19.920   5.141  1.00  0.00     0.069 C 
HETATM   18  C16 UNL     1      13.124  18.677   5.938  1.00  0.00     0.033 C 
ENDROOT
BRANCH   1  19
HETATM   19  O2  UNL     1      14.466  23.338   2.950  1.00  0.00    -0.310 OA
BRANCH  19  20
HETATM   20  C2  UNL     1      15.358  24.136   2.246  1.00  0.00     0.255 C 
HETATM   21  C1  UNL     1      15.075  25.557   1.913  1.00  0.00     0.126 C 
HETATM   22  O1  UNL     1      16.447  23.576   1.897  1.00  0.00    -0.266 OA
ENDBRANCH  19  20
ENDBRANCH   1  19
BRANCH   2  23
HETATM   23  O3  UNL     1      16.320  20.982   3.298  1.00  0.00    -0.392 OA
ATOM     24  H3  UNL     1      16.304  20.218   2.733  1.00  0.00     0.210 HD
ENDBRANCH   2  23
BRANCH   7  25
HETATM   25  O5  UNL     1      15.339  23.987   6.819  1.00  0.00    -0.368 OA
ATOM     26  H5  UNL     1      14.841  24.333   7.550  1.00  0.00     0.212 HD
ENDBRANCH   7  25
TORSDOF 4
ENDMDL
MODEL 5
REMARK VINA RESULT: -2.261001145      2.304      4.325
REMARK  4 active torsions:
REMARK  status: ('A' for Active; 'I' for Inactive)
REMARK    1  A    between atoms: C2_2  and  O2_4 
REMARK    2  A    between atoms: O2_4  and  C3_5 
REMARK    3  A    between atoms: C4_6  and  O3_7 
REMARK    4  A    between atoms: C8_13  and  O5_14 
ROOT
HETATM    1  C3  UNL     1      10.305  21.370   4.090  1.00  0.00     0.200 C 
HETATM    2  C4  UNL     1      10.790  22.655   4.621  1.00  0.00     0.162 C 
HETATM    3  C5  UNL     1      11.720  22.609   5.777  1.00  0.00     0.027 C 
HETATM    4  C6  UNL     1      11.714  24.014   6.406  1.00  0.00     0.022 C 
HETATM    5  C7  UNL     1      11.280  21.661   6.871  1.00  0.00     0.184 C 
HETATM    6  O4  UNL     1      10.396  20.711   6.482  1.00  0.00    -0.357 OA
HETATM    7  C8  UNL     1      10.929  19.678   5.720  1.00  0.00     0.293 C 
HETATM    8  C9  UNL     1      11.238  20.187   4.362  1.00  0.00     0.138 C 
HETATM    9  C10 UNL     1      10.764  19.124   3.350  1.00  0.00     0.054 C 
HETATM   10  O6  UNL     1      12.525  20.434   4.059  1.00  0.00    -0.341 OA
HETATM   11  C11 UNL     1      13.371  20.875   5.008  1.00  0.00     0.282 C 
HETATM   12  O7  UNL     1      14.666  20.827   4.531  1.00  0.00    -0.339 OA
HETATM   13  C12 UNL     1      14.841  21.738   3.524  1.00  0.00     0.105 C 
HETATM   14  C13 UNL     1      16.246  22.306   3.655  1.00  0.00     0.058 C 
HETATM   15  C14 UNL     1      14.645  21.229   2.148  1.00  0.00     0.058 C 
HETATM   16  S1  UNL     1      13.703  23.132   3.919  1.00  0.00    -0.116 SA
HETATM   17  C15 UNL     1      13.129  22.310   5.457  1.00  0.00     0.069 C 
HETATM   18  C16 UNL     1      14.063  22.663   6.564  1.00  0.00     0.033 C 
ENDROOT
BRANCH   1  19
HETATM   19  O2  UNL     1      10.043  21.484   2.702  1.00  0.00    -0.310 OA
BRANCH  19  20
HETATM   20  C2  UNL     1       8.793  21.855   2.225  1.00  0.00     0.255 C 
HETATM   21  C1  UNL     1       7.745  20.865   1.864  1.00  0.00     0.126 C 
HETATM   22  O1  UNL     1       8.591  23.107   2.114  1.00  0.00    -0.266 OA
ENDBRANCH  19  20
ENDBRANCH   1  19
BRANCH   2  23
HETATM   23  O3  UNL     1       9.654  23.420   4.985  1.00  0.00    -0.392 OA
ATOM     24  H3  UNL     1       9.876  24.335   4.864  1.00  0.00     0.210 HD
ENDBRANCH   2  23
BRANCH   7  25
HETATM   25  O5  UNL     1       9.868  18.737   5.631  1.00  0.00    -0.368 OA
ATOM     26  H5  UNL     1      10.295  17.898   5.759  1.00  0.00     0.212 HD
ENDBRANCH   7  25
TORSDOF 4
ENDMDL
