MODEL 1
REMARK VINA RESULT: -7.937013923      0.000      0.000
REMARK  6 active torsions:
REMARK  status: ('A' for Active; 'I' for Inactive)
REMARK    1  A    between atoms: C2_2  and  C3_3 
REMARK    2  A    between atoms: C3_3  and  C4_4 
REMARK    3  A    between atoms: C4_4  and  O1_5 
REMARK    4  A    between atoms: O1_5  and  C5_6 
REMARK    5  A    between atoms: C9_11  and  O2_12 
REMARK    6  A    between atoms: C19_26  and  O4_27 
ROOT
HETATM    1  C5  UNL     1      13.274  21.532   0.687  1.00  0.00     0.217 C 
HETATM    2  S1  UNL     1      11.575  21.526  -0.042  1.00  0.00    -0.092 SA
HETATM    3  C6  UNL     1      10.489  21.430   1.399  1.00  0.00     0.046 C 
HETATM    4  C7  UNL     1       9.082  21.603   1.150  1.00  0.00     0.025 A 
HETATM    5  C8  UNL     1       8.344  22.577   1.785  1.00  0.00     0.055 A 
HETATM    6  C9  UNL     1       7.035  22.892   1.450  1.00  0.00     0.105 A 
HETATM    7  C10 UNL     1       6.399  22.206   0.421  1.00  0.00     0.152 A 
HETATM    8  F1  UNL     1       5.114  22.492   0.077  1.00  0.00    -0.203 F 
HETATM    9  C11 UNL     1       7.134  21.205  -0.248  1.00  0.00     0.088 A 
HETATM   10  C12 UNL     1       8.427  20.910   0.103  1.00  0.00     0.131 A 
HETATM   11  F2  UNL     1       9.104  19.900  -0.518  1.00  0.00    -0.205 F 
HETATM   12  C13 UNL     1      10.976  20.387   2.327  1.00  0.00     0.071 C 
HETATM   13  O3  UNL     1      10.050  19.810   3.178  1.00  0.00    -0.349 OA
HETATM   14  C14 UNL     1      10.649  18.590   3.571  1.00  0.00     0.124 C 
HETATM   15  C15 UNL     1       9.674  17.527   3.908  1.00  0.00     0.040 C 
HETATM   16  C16 UNL     1      11.643  18.954   4.612  1.00  0.00     0.033 C 
HETATM   17  C17 UNL     1      12.696  19.846   4.060  1.00  0.00     0.016 C 
HETATM   18  C18 UNL     1      12.281  20.754   2.918  1.00  0.00     0.076 C 
HETATM   19  C19 UNL     1      13.368  20.660   1.875  1.00  0.00     0.167 C 
ENDROOT
BRANCH   1  20
HETATM   20  O1  UNL     1      13.772  22.820   0.836  1.00  0.00    -0.373 OA
BRANCH  20  21
HETATM   21  C4  UNL     1      15.157  22.823   0.756  1.00  0.00     0.169 C 
BRANCH  21  22
HETATM   22  C3  UNL     1      15.832  23.134   2.050  1.00  0.00     0.026 C 
BRANCH  22  23
HETATM   23  C2  UNL     1      17.301  22.686   2.035  1.00  0.00    -0.002 C 
HETATM   24  C1  UNL     1      18.108  23.651   1.191  1.00  0.00     0.005 C 
ENDBRANCH  22  23
ENDBRANCH  21  22
ENDBRANCH  20  21
ENDBRANCH   1  20
BRANCH  19  25
HETATM   25  O4  UNL     1      13.589  19.330   1.442  1.00  0.00    -0.391 OA
ATOM     26  H4  UNL     1      13.424  18.743   2.171  1.00  0.00     0.210 HD
ENDBRANCH  19  25
BRANCH   6  27
HETATM   27  O2  UNL     1       6.344  23.894   2.133  1.00  0.00    -0.358 OA
ATOM     28  H2  UNL     1       5.439  23.769   2.393  1.00  0.00     0.217 HD
ENDBRANCH   6  27
TORSDOF 6
ENDMDL
MODEL 2
REMARK VINA RESULT: -7.427268285      3.521      7.579
REMARK  6 active torsions:
REMARK  status: ('A' for Active; 'I' for Inactive)
REMARK    1  A    between atoms: C2_2  and  C3_3 
REMARK    2  A    between atoms: C3_3  and  C4_4 
REMARK    3  A    between atoms: C4_4  and  O1_5 
REMARK    4  A    between atoms: O1_5  and  C5_6 
REMARK    5  A    between atoms: C9_11  and  O2_12 
REMARK    6  A    between atoms: C19_26  and  O4_27 
ROOT
HETATM    1  C5  UNL     1       7.013  20.291   1.501  1.00  0.00     0.217 C 
HETATM    2  S1  UNL     1       8.629  20.025   2.359  1.00  0.00    -0.092 SA
HETATM    3  C6  UNL     1       9.313  21.690   2.513  1.00  0.00     0.046 C 
HETATM    4  C7  UNL     1      10.496  21.822   3.321  1.00  0.00     0.025 A 
HETATM    5  C8  UNL     1      10.549  22.676   4.401  1.00  0.00     0.055 A 
HETATM    6  C9  UNL     1      11.599  22.706   5.307  1.00  0.00     0.105 A 
HETATM    7  C10 UNL     1      12.677  21.842   5.148  1.00  0.00     0.152 A 
HETATM    8  F1  UNL     1      13.722  21.856   6.019  1.00  0.00    -0.203 F 
HETATM    9  C11 UNL     1      12.646  20.956   4.051  1.00  0.00     0.088 A 
HETATM   10  C12 UNL     1      11.597  20.945   3.167  1.00  0.00     0.131 A 
HETATM   11  F2  UNL     1      11.610  20.119   2.080  1.00  0.00    -0.205 F 
HETATM   12  C13 UNL     1       9.187  22.406   1.224  1.00  0.00     0.071 C 
HETATM   13  O3  UNL     1      10.078  23.436   0.979  1.00  0.00    -0.349 OA
HETATM   14  C14 UNL     1      10.047  23.597  -0.426  1.00  0.00     0.124 C 
HETATM   15  C15 UNL     1      11.311  24.119  -0.995  1.00  0.00     0.040 C 
HETATM   16  C16 UNL     1       8.808  24.364  -0.710  1.00  0.00     0.033 C 
HETATM   17  C17 UNL     1       7.601  23.606  -0.291  1.00  0.00     0.016 C 
HETATM   18  C18 UNL     1       7.771  22.659   0.880  1.00  0.00     0.076 C 
HETATM   19  C19 UNL     1       7.093  21.367   0.494  1.00  0.00     0.167 C 
ENDROOT
BRANCH   1  20
HETATM   20  O1  UNL     1       5.955  20.373   2.398  1.00  0.00    -0.373 OA
BRANCH  20  21
HETATM   21  C4  UNL     1       4.793  20.769   1.751  1.00  0.00     0.169 C 
BRANCH  21  22
HETATM   22  C3  UNL     1       3.967  21.731   2.537  1.00  0.00     0.026 C 
BRANCH  22  23
HETATM   23  C2  UNL     1       4.126  23.164   2.008  1.00  0.00    -0.002 C 
HETATM   24  C1  UNL     1       3.795  23.190   0.530  1.00  0.00     0.005 C 
ENDBRANCH  22  23
ENDBRANCH  21  22
ENDBRANCH  20  21
ENDBRANCH   1  20
BRANCH  19  25
HETATM   25  O4  UNL     1       7.609  20.824  -0.708  1.00  0.00    -0.391 OA
ATOM     26  H4  UNL     1       7.470  21.451  -1.408  1.00  0.00     0.210 HD
ENDBRANCH  19  25
BRANCH   6  27
HETATM   27  O2  UNL     1      11.589  23.595   6.382  1.00  0.00    -0.358 OA
ATOM     28  H2  UNL     1      11.294  23.316   7.241  1.00  0.00     0.217 HD
ENDBRANCH   6  27
TORSDOF 6
ENDMDL
MODEL 3
REMARK VINA RESULT: -7.258035629      1.902      2.231
REMARK  6 active torsions:
REMARK  status: ('A' for Active; 'I' for Inactive)
REMARK    1  A    between atoms: C2_2  and  C3_3 
REMARK    2  A    between atoms: C3_3  and  C4_4 
REMARK    3  A    between atoms: C4_4  and  O1_5 
REMARK    4  A    between atoms: O1_5  and  C5_6 
REMARK    5  A    between atoms: C9_11  and  O2_12 
REMARK    6  A    between atoms: C19_26  and  O4_27 
ROOT
HETATM    1  C5  UNL     1      14.758  21.647   1.383  1.00  0.00     0.217 C 
HETATM    2  S1  UNL     1      13.149  21.108   0.649  1.00  0.00    -0.092 SA
HETATM    3  C6  UNL     1      11.911  21.934   1.672  1.00  0.00     0.046 C 
HETATM    4  C7  UNL     1      10.548  21.853   1.216  1.00  0.00     0.025 A 
HETATM    5  C8  UNL     1       9.792  22.979   0.978  1.00  0.00     0.055 A 
HETATM    6  C9  UNL     1       8.543  22.953   0.375  1.00  0.00     0.105 A 
HETATM    7  C10 UNL     1       7.990  21.741  -0.024  1.00  0.00     0.152 A 
HETATM    8  F1  UNL     1       6.764  21.688  -0.611  1.00  0.00    -0.203 F 
HETATM    9  C11 UNL     1       8.746  20.573   0.207  1.00  0.00     0.088 A 
HETATM   10  C12 UNL     1       9.979  20.623   0.807  1.00  0.00     0.131 A 
HETATM   11  F2  UNL     1      10.672  19.477   1.072  1.00  0.00    -0.205 F 
HETATM   12  C13 UNL     1      12.247  21.764   3.103  1.00  0.00     0.071 C 
HETATM   13  O3  UNL     1      11.209  21.847   4.014  1.00  0.00    -0.349 OA
HETATM   14  C14 UNL     1      11.706  21.198   5.169  1.00  0.00     0.124 C 
HETATM   15  C15 UNL     1      10.652  20.577   6.005  1.00  0.00     0.040 C 
HETATM   16  C16 UNL     1      12.597  22.187   5.827  1.00  0.00     0.033 C 
HETATM   17  C17 UNL     1      13.743  22.542   4.949  1.00  0.00     0.016 C 
HETATM   18  C18 UNL     1      13.496  22.473   3.455  1.00  0.00     0.076 C 
HETATM   19  C19 UNL     1      14.683  21.762   2.852  1.00  0.00     0.167 C 
ENDROOT
BRANCH   1  20
HETATM   20  O1  UNL     1      15.295  22.739   0.713  1.00  0.00    -0.373 OA
BRANCH  20  21
HETATM   21  C4  UNL     1      16.144  23.456   1.545  1.00  0.00     0.169 C 
BRANCH  21  22
HETATM   22  C3  UNL     1      17.485  23.722   0.949  1.00  0.00     0.026 C 
BRANCH  22  23
HETATM   23  C2  UNL     1      18.603  23.076   1.779  1.00  0.00    -0.002 C 
HETATM   24  C1  UNL     1      17.988  22.166   2.822  1.00  0.00     0.005 C 
ENDBRANCH  22  23
ENDBRANCH  21  22
ENDBRANCH  20  21
ENDBRANCH   1  20
BRANCH  19  25
HETATM   25  O4  UNL     1      14.888  20.479   3.417  1.00  0.00    -0.391 OA
ATOM     26  H4  UNL     1      15.027  20.578   4.351  1.00  0.00     0.210 HD
ENDBRANCH  19  25
BRANCH   6  27
HETATM   27  O2  UNL     1       7.829  24.133   0.161  1.00  0.00    -0.358 OA
ATOM     28  H2  UNL     1       6.887  24.116   0.037  1.00  0.00     0.217 HD
ENDBRANCH   6  27
TORSDOF 6
ENDMDL
MODEL 4
REMARK VINA RESULT: -7.035510266      3.536      7.779
REMARK  6 active torsions:
REMARK  status: ('A' for Active; 'I' for Inactive)
REMARK    1  A    between atoms: C2_2  and  C3_3 
REMARK    2  A    between atoms: C3_3  and  C4_4 
REMARK    3  A    between atoms: C4_4  and  O1_5 
REMARK    4  A    between atoms: O1_5  and  C5_6 
REMARK    5  A    between atoms: C9_11  and  O2_12 
REMARK    6  A    between atoms: C19_26  and  O4_27 
ROOT
HETATM    1  C5  UNL     1       6.999  20.295   1.384  1.00  0.00     0.217 C 
HETATM    2  S1  UNL     1       8.611  20.020   2.246  1.00  0.00    -0.092 SA
HETATM    3  C6  UNL     1       9.290  21.683   2.431  1.00  0.00     0.046 C 
HETATM    4  C7  UNL     1      10.468  21.805   3.248  1.00  0.00     0.025 A 
HETATM    5  C8  UNL     1      10.513  22.641   4.342  1.00  0.00     0.055 A 
HETATM    6  C9  UNL     1      11.558  22.659   5.254  1.00  0.00     0.105 A 
HETATM    7  C10 UNL     1      12.639  21.801   5.087  1.00  0.00     0.152 A 
HETATM    8  F1  UNL     1      13.679  21.804   5.964  1.00  0.00    -0.203 F 
HETATM    9  C11 UNL     1      12.617  20.933   3.976  1.00  0.00     0.088 A 
HETATM   10  C12 UNL     1      11.572  20.933   3.086  1.00  0.00     0.131 A 
HETATM   11  F2  UNL     1      11.594  20.125   1.986  1.00  0.00    -0.205 F 
HETATM   12  C13 UNL     1       9.169  22.420   1.154  1.00  0.00     0.071 C 
HETATM   13  O3  UNL     1      10.058  23.456   0.931  1.00  0.00    -0.349 OA
HETATM   14  C14 UNL     1      10.035  23.640  -0.472  1.00  0.00     0.124 C 
HETATM   15  C15 UNL     1      11.301  24.174  -1.025  1.00  0.00     0.040 C 
HETATM   16  C16 UNL     1       8.795  24.409  -0.750  1.00  0.00     0.033 C 
HETATM   17  C17 UNL     1       7.588  23.641  -0.350  1.00  0.00     0.016 C 
HETATM   18  C18 UNL     1       7.754  22.675   0.807  1.00  0.00     0.076 C 
HETATM   19  C19 UNL     1       7.082  21.387   0.395  1.00  0.00     0.167 C 
ENDROOT
BRANCH   1  20
HETATM   20  O1  UNL     1       5.936  20.359   2.277  1.00  0.00    -0.373 OA
BRANCH  20  21
HETATM   21  C4  UNL     1       4.759  19.945   1.668  1.00  0.00     0.169 C 
BRANCH  21  22
HETATM   22  C3  UNL     1       4.853  18.596   1.038  1.00  0.00     0.026 C 
BRANCH  22  23
HETATM   23  C2  UNL     1       3.750  17.661   1.556  1.00  0.00    -0.002 C 
HETATM   24  C1  UNL     1       4.234  16.228   1.479  1.00  0.00     0.005 C 
ENDBRANCH  22  23
ENDBRANCH  21  22
ENDBRANCH  20  21
ENDBRANCH   1  20
BRANCH  19  25
HETATM   25  O4  UNL     1       7.606  20.865  -0.812  1.00  0.00    -0.391 OA
ATOM     26  H4  UNL     1       6.958  20.287  -1.199  1.00  0.00     0.210 HD
ENDBRANCH  19  25
BRANCH   6  27
HETATM   27  O2  UNL     1      11.539  23.531   6.344  1.00  0.00    -0.358 OA
ATOM     28  H2  UNL     1      11.513  23.197   7.233  1.00  0.00     0.217 HD
ENDBRANCH   6  27
TORSDOF 6
ENDMDL
MODEL 5
REMARK VINA RESULT: -6.867404022      2.448      5.125
REMARK  6 active torsions:
REMARK  status: ('A' for Active; 'I' for Inactive)
REMARK    1  A    between atoms: C2_2  and  C3_3 
REMARK    2  A    between atoms: C3_3  and  C4_4 
REMARK    3  A    between atoms: C4_4  and  O1_5 
REMARK    4  A    between atoms: O1_5  and  C5_6 
REMARK    5  A    between atoms: C9_11  and  O2_12 
REMARK    6  A    between atoms: C19_26  and  O4_27 
ROOT
HETATM    1  C5  UNL     1      11.183  21.917   5.117  1.00  0.00     0.217 C 
HETATM    2  S1  UNL     1      10.244  22.603   3.679  1.00  0.00    -0.092 SA
HETATM    3  C6  UNL     1      10.995  21.796   2.249  1.00  0.00     0.046 C 
HETATM    4  C7  UNL     1      10.336  21.993   0.986  1.00  0.00     0.025 A 
HETATM    5  C8  UNL     1       9.900  20.934   0.219  1.00  0.00     0.055 A 
HETATM    6  C9  UNL     1       9.109  21.078  -0.912  1.00  0.00     0.105 A 
HETATM    7  C10 UNL     1       8.716  22.346  -1.327  1.00  0.00     0.152 A 
HETATM    8  F1  UNL     1       7.946  22.514  -2.436  1.00  0.00    -0.203 F 
HETATM    9  C11 UNL     1       9.147  23.447  -0.557  1.00  0.00     0.088 A 
HETATM   10  C12 UNL     1       9.930  23.280   0.557  1.00  0.00     0.131 A 
HETATM   11  F2  UNL     1      10.383  24.361   1.258  1.00  0.00    -0.205 F 
HETATM   12  C13 UNL     1      12.469  21.855   2.356  1.00  0.00     0.071 C 
HETATM   13  O3  UNL     1      13.196  21.782   1.181  1.00  0.00    -0.349 OA
HETATM   14  C14 UNL     1      14.459  22.325   1.516  1.00  0.00     0.124 C 
HETATM   15  C15 UNL     1      15.159  22.960   0.376  1.00  0.00     0.040 C 
HETATM   16  C16 UNL     1      15.177  21.242   2.235  1.00  0.00     0.033 C 
HETATM   17  C17 UNL     1      14.470  20.869   3.488  1.00  0.00     0.016 C 
HETATM   18  C18 UNL     1      12.964  21.046   3.492  1.00  0.00     0.076 C 
HETATM   19  C19 UNL     1      12.610  21.716   4.797  1.00  0.00     0.167 C 
ENDROOT
BRANCH   1  20
HETATM   20  O1  UNL     1      10.531  20.836   5.697  1.00  0.00    -0.373 OA
BRANCH  20  21
HETATM   21  C4  UNL     1      10.992  19.641   5.163  1.00  0.00     0.169 C 
BRANCH  21  22
HETATM   22  C3  UNL     1       9.957  18.885   4.401  1.00  0.00     0.026 C 
BRANCH  22  23
HETATM   23  C2  UNL     1      10.581  18.104   3.235  1.00  0.00    -0.002 C 
HETATM   24  C1  UNL     1      10.222  16.638   3.368  1.00  0.00     0.005 C 
ENDBRANCH  22  23
ENDBRANCH  21  22
ENDBRANCH  20  21
ENDBRANCH   1  20
BRANCH  19  25
HETATM   25  O4  UNL     1      13.291  22.945   4.976  1.00  0.00    -0.391 OA
ATOM     26  H4  UNL     1      13.957  22.829   5.643  1.00  0.00     0.210 HD
ENDBRANCH  19  25
BRANCH   6  27
HETATM   27  O2  UNL     1       8.700  19.962  -1.643  1.00  0.00    -0.358 OA
ATOM     28  H2  UNL     1       8.510  19.139  -1.208  1.00  0.00     0.217 HD
ENDBRANCH   6  27
TORSDOF 6
ENDMDL
