MODEL 1
REMARK VINA RESULT: -9.211507247      0.000      0.000
REMARK  7 active torsions:
REMARK  status: ('A' for Active; 'I' for Inactive)
REMARK    1  A    between atoms: C5_6  and  C6_7 
REMARK    2  A    between atoms: N2_10  and  C9_11 
REMARK    3  A    between atoms: C9_11  and  C10_12 
REMARK    4  A    between atoms: C10_12  and  C11_13 
REMARK    5  A    between atoms: C10_12  and  N4_20 
REMARK    6  A    between atoms: C11_13  and  O1_14 
REMARK    7  A    between atoms: N3_16  and  O2_18 
ROOT
HETATM    1  N1  UNL     1      18.719  24.051   1.046  1.00  0.00    -0.191 NA
HETATM    2  C1  UNL     1      17.747  23.445   1.348  1.00  0.00     0.099 C 
HETATM    3  C2  UNL     1      16.580  22.684   1.763  1.00  0.00     0.046 A 
HETATM    4  C3  UNL     1      15.410  22.730   1.060  1.00  0.00     0.023 A 
HETATM    5  C4  UNL     1      14.296  21.987   1.482  1.00  0.00     0.011 A 
HETATM    6  C5  UNL     1      14.422  21.209   2.625  1.00  0.00    -0.032 A 
HETATM    7  C18 UNL     1      15.615  21.188   3.306  1.00  0.00     0.042 A 
HETATM    8 CL1  UNL     1      15.840  20.101   4.708  1.00  0.00    -0.084 Cl
HETATM    9  C19 UNL     1      16.698  21.887   2.931  1.00  0.00     0.047 A 
ENDROOT
BRANCH   6  10
HETATM   10  C6  UNL     1      13.305  20.488   3.244  1.00  0.00     0.029 C 
HETATM   11  C7  UNL     1      12.375  19.867   2.246  1.00  0.00     0.054 C 
HETATM   12  C8  UNL     1      11.105  20.625   1.873  1.00  0.00     0.067 C 
HETATM   13  N2  UNL     1      10.388  21.047   3.010  1.00  0.00    -0.341 N 
HETATM   14  C16 UNL     1      11.094  20.887   4.232  1.00  0.00     0.275 C 
HETATM   15  F1  UNL     1      10.427  21.411   5.309  1.00  0.00    -0.227 F 
HETATM   16  C17 UNL     1      12.472  21.543   4.047  1.00  0.00     0.069 C 
BRANCH  13  17
HETATM   17  C9  UNL     1       9.583  22.163   2.853  1.00  0.00     0.100 C 
BRANCH  17  18
HETATM   18  C10 UNL     1       8.266  22.074   2.176  1.00  0.00     0.203 C 
BRANCH  18  19
HETATM   19  C11 UNL     1       7.599  20.840   1.865  1.00  0.00     0.164 C 
HETATM   20  N3  UNL     1       6.683  20.183   2.424  1.00  0.00    -0.249 N 
ATOM     21  H3  UNL     1       6.285  20.549   3.288  1.00  0.00     0.196 HD
BRANCH  19  22
HETATM   22  O1  UNL     1       8.072  20.210   0.657  1.00  0.00    -0.346 OA
ATOM     23  H1  UNL     1       7.385  20.023   0.028  1.00  0.00     0.219 HD
ENDBRANCH  19  22
BRANCH  20  24
HETATM   24  O2  UNL     1       6.187  18.986   1.925  1.00  0.00    -0.288 OA
ATOM     25  H2  UNL     1       5.402  18.567   2.256  1.00  0.00     0.244 HD
ENDBRANCH  20  24
ENDBRANCH  18  19
BRANCH  18  26
HETATM   26  N4  UNL     1       8.354  22.874   0.921  1.00  0.00    -0.349 N 
HETATM   27  C12 UNL     1       9.480  23.237   0.284  1.00  0.00     0.092 A 
HETATM   28  C13 UNL     1       9.210  24.038  -0.811  1.00  0.00     0.019 A 
HETATM   29  C14 UNL     1       7.819  24.166  -0.831  1.00  0.00     0.019 A 
HETATM   30  C15 UNL     1       7.334  23.432   0.250  1.00  0.00     0.092 A 
ENDBRANCH  18  26
ENDBRANCH  17  18
ENDBRANCH  13  17
ENDBRANCH   6  10
TORSDOF 7
ENDMDL
MODEL 2
REMARK VINA RESULT: -9.111405774      1.594      1.926
REMARK  7 active torsions:
REMARK  status: ('A' for Active; 'I' for Inactive)
REMARK    1  A    between atoms: C5_6  and  C6_7 
REMARK    2  A    between atoms: N2_10  and  C9_11 
REMARK    3  A    between atoms: C9_11  and  C10_12 
REMARK    4  A    between atoms: C10_12  and  C11_13 
REMARK    5  A    between atoms: C10_12  and  N4_20 
REMARK    6  A    between atoms: C11_13  and  O1_14 
REMARK    7  A    between atoms: N3_16  and  O2_18 
ROOT
HETATM    1  N1  UNL     1      19.094  24.167   0.244  1.00  0.00    -0.191 NA
HETATM    2  C1  UNL     1      18.262  23.674   0.928  1.00  0.00     0.099 C 
HETATM    3  C2  UNL     1      17.281  23.048   1.799  1.00  0.00     0.046 A 
HETATM    4  C3  UNL     1      15.942  23.257   1.633  1.00  0.00     0.023 A 
HETATM    5  C4  UNL     1      15.013  22.641   2.487  1.00  0.00     0.011 A 
HETATM    6  C5  UNL     1      15.497  21.818   3.496  1.00  0.00    -0.032 A 
HETATM    7  C18 UNL     1      16.851  21.632   3.632  1.00  0.00     0.042 A 
HETATM    8 CL1  UNL     1      17.491  20.482   4.843  1.00  0.00    -0.084 Cl
HETATM    9  C19 UNL     1      17.764  22.206   2.834  1.00  0.00     0.047 A 
ENDROOT
BRANCH   6  10
HETATM   10  C6  UNL     1      14.649  21.219   4.532  1.00  0.00     0.029 C 
HETATM   11  C7  UNL     1      13.858  20.043   4.043  1.00  0.00     0.054 C 
HETATM   12  C8  UNL     1      12.413  20.273   3.612  1.00  0.00     0.067 C 
HETATM   13  N2  UNL     1      11.679  20.985   4.582  1.00  0.00    -0.341 N 
HETATM   14  C16 UNL     1      12.474  21.526   5.628  1.00  0.00     0.275 C 
HETATM   15  F1  UNL     1      11.758  22.311   6.494  1.00  0.00    -0.227 F 
HETATM   16  C17 UNL     1      13.616  22.314   4.965  1.00  0.00     0.069 C 
BRANCH  13  17
HETATM   17  C9  UNL     1      10.600  21.722   4.123  1.00  0.00     0.100 C 
BRANCH  17  18
HETATM   18  C10 UNL     1       9.414  21.060   3.526  1.00  0.00     0.203 C 
BRANCH  18  19
HETATM   19  C11 UNL     1       9.343  19.660   3.212  1.00  0.00     0.164 C 
HETATM   20  N3  UNL     1       9.028  18.637   3.872  1.00  0.00    -0.249 N 
ATOM     21  H3  UNL     1       8.755  18.756   4.847  1.00  0.00     0.196 HD
BRANCH  19  22
HETATM   22  O1  UNL     1       9.707  19.348   1.852  1.00  0.00    -0.346 OA
ATOM     23  H1  UNL     1       8.988  19.419   1.236  1.00  0.00     0.219 HD
ENDBRANCH  19  22
BRANCH  20  24
HETATM   24  O2  UNL     1       9.032  17.353   3.342  1.00  0.00    -0.288 OA
ATOM     25  H2  UNL     1       8.492  16.647   3.677  1.00  0.00     0.244 HD
ENDBRANCH  20  24
ENDBRANCH  18  19
BRANCH  18  26
HETATM   26  N4  UNL     1       9.048  21.823   2.299  1.00  0.00    -0.349 N 
HETATM   27  C12 UNL     1       9.890  22.496   1.498  1.00  0.00     0.092 A 
HETATM   28  C13 UNL     1       9.215  23.155   0.486  1.00  0.00     0.019 A 
HETATM   29  C14 UNL     1       7.867  22.855   0.697  1.00  0.00     0.019 A 
HETATM   30  C15 UNL     1       7.812  22.031   1.820  1.00  0.00     0.092 A 
ENDBRANCH  18  26
ENDBRANCH  17  18
ENDBRANCH  13  17
ENDBRANCH   6  10
TORSDOF 7
ENDMDL
MODEL 3
REMARK VINA RESULT: -9.093487506      2.965      7.003
REMARK  7 active torsions:
REMARK  status: ('A' for Active; 'I' for Inactive)
REMARK    1  A    between atoms: C5_6  and  C6_7 
REMARK    2  A    between atoms: N2_10  and  C9_11 
REMARK    3  A    between atoms: C9_11  and  C10_12 
REMARK    4  A    between atoms: C10_12  and  C11_13 
REMARK    5  A    between atoms: C10_12  and  N4_20 
REMARK    6  A    between atoms: C11_13  and  O1_14 
REMARK    7  A    between atoms: N3_16  and  O2_18 
ROOT
HETATM    1  N1  UNL     1       6.998  20.908  -0.119  1.00  0.00    -0.191 NA
HETATM    2  C1  UNL     1       7.727  21.014   0.808  1.00  0.00     0.099 C 
HETATM    3  C2  UNL     1       8.622  21.090   1.951  1.00  0.00     0.046 A 
HETATM    4  C3  UNL     1       9.122  22.283   2.389  1.00  0.00     0.023 A 
HETATM    5  C4  UNL     1       9.986  22.330   3.495  1.00  0.00     0.011 A 
HETATM    6  C5  UNL     1      10.311  21.136   4.124  1.00  0.00    -0.032 A 
HETATM    7  C18 UNL     1       9.790  19.956   3.655  1.00  0.00     0.042 A 
HETATM    8 CL1  UNL     1      10.094  18.421   4.521  1.00  0.00    -0.084 Cl
HETATM    9  C19 UNL     1       8.962  19.875   2.600  1.00  0.00     0.047 A 
ENDROOT
BRANCH   6  10
HETATM   10  C6  UNL     1      11.298  21.029   5.204  1.00  0.00     0.029 C 
HETATM   11  C7  UNL     1      11.844  22.355   5.642  1.00  0.00     0.054 C 
HETATM   12  C8  UNL     1      13.178  22.814   5.062  1.00  0.00     0.067 C 
HETATM   13  N2  UNL     1      14.171  21.820   5.168  1.00  0.00    -0.341 N 
HETATM   14  C16 UNL     1      13.677  20.550   5.570  1.00  0.00     0.275 C 
HETATM   15  F1  UNL     1      14.637  19.572   5.553  1.00  0.00    -0.227 F 
HETATM   16  C17 UNL     1      12.504  20.205   4.638  1.00  0.00     0.069 C 
BRANCH  13  17
HETATM   17  C9  UNL     1      15.193  21.866   4.235  1.00  0.00     0.100 C 
BRANCH  17  18
HETATM   18  C10 UNL     1      14.942  22.297   2.838  1.00  0.00     0.203 C 
BRANCH  18  19
HETATM   19  C11 UNL     1      14.237  21.509   1.864  1.00  0.00     0.164 C 
HETATM   20  N3  UNL     1      13.589  21.792   0.824  1.00  0.00    -0.249 N 
ATOM     21  H3  UNL     1      13.505  22.772   0.558  1.00  0.00     0.196 HD
BRANCH  19  22
HETATM   22  O1  UNL     1      14.275  20.091   2.124  1.00  0.00    -0.346 OA
ATOM     23  H1  UNL     1      14.893  19.618   1.579  1.00  0.00     0.219 HD
ENDBRANCH  19  22
BRANCH  20  24
HETATM   24  O2  UNL     1      12.980  20.836   0.020  1.00  0.00    -0.288 OA
ATOM     25  H2  UNL     1      12.089  20.913  -0.299  1.00  0.00     0.244 HD
ENDBRANCH  20  24
ENDBRANCH  18  19
BRANCH  18  26
HETATM   26  N4  UNL     1      16.254  22.686   2.248  1.00  0.00    -0.349 N 
HETATM   27  C12 UNL     1      17.464  22.245   2.632  1.00  0.00     0.092 A 
HETATM   28  C13 UNL     1      18.480  22.862   1.924  1.00  0.00     0.019 A 
HETATM   29  C14 UNL     1      17.831  23.739   1.051  1.00  0.00     0.019 A 
HETATM   30  C15 UNL     1      16.464  23.595   1.283  1.00  0.00     0.092 A 
ENDBRANCH  18  26
ENDBRANCH  17  18
ENDBRANCH  13  17
ENDBRANCH   6  10
TORSDOF 7
ENDMDL
MODEL 4
REMARK VINA RESULT: -9.066568134      1.468      1.614
REMARK  7 active torsions:
REMARK  status: ('A' for Active; 'I' for Inactive)
REMARK    1  A    between atoms: C5_6  and  C6_7 
REMARK    2  A    between atoms: N2_10  and  C9_11 
REMARK    3  A    between atoms: C9_11  and  C10_12 
REMARK    4  A    between atoms: C10_12  and  C11_13 
REMARK    5  A    between atoms: C10_12  and  N4_20 
REMARK    6  A    between atoms: C11_13  and  O1_14 
REMARK    7  A    between atoms: N3_16  and  O2_18 
ROOT
HETATM    1  N1  UNL     1      18.497  23.854   1.077  1.00  0.00    -0.191 NA
HETATM    2  C1  UNL     1      17.488  23.296   1.346  1.00  0.00     0.099 C 
HETATM    3  C2  UNL     1      16.273  22.592   1.723  1.00  0.00     0.046 A 
HETATM    4  C3  UNL     1      15.135  22.680   0.973  1.00  0.00     0.023 A 
HETATM    5  C4  UNL     1      13.973  21.991   1.357  1.00  0.00     0.011 A 
HETATM    6  C5  UNL     1      14.019  21.224   2.514  1.00  0.00    -0.032 A 
HETATM    7  C18 UNL     1      15.181  21.161   3.243  1.00  0.00     0.042 A 
HETATM    8 CL1  UNL     1      15.301  20.083   4.665  1.00  0.00    -0.084 Cl
HETATM    9  C19 UNL     1      16.308  21.807   2.904  1.00  0.00     0.047 A 
ENDROOT
BRANCH   6  10
HETATM   10  C6  UNL     1      12.847  20.562   3.095  1.00  0.00     0.029 C 
HETATM   11  C7  UNL     1      12.126  19.674   2.126  1.00  0.00     0.054 C 
HETATM   12  C8  UNL     1      10.903  20.234   1.405  1.00  0.00     0.067 C 
HETATM   13  N2  UNL     1       9.988  20.826   2.299  1.00  0.00    -0.341 N 
HETATM   14  C16 UNL     1      10.485  20.980   3.620  1.00  0.00     0.275 C 
HETATM   15  F1  UNL     1       9.625  21.661   4.440  1.00  0.00    -0.227 F 
HETATM   16  C17 UNL     1      11.845  21.691   3.511  1.00  0.00     0.069 C 
BRANCH  13  17
HETATM   17  C9  UNL     1       9.172  21.817   1.780  1.00  0.00     0.100 C 
BRANCH  17  18
HETATM   18  C10 UNL     1       7.745  21.556   1.469  1.00  0.00     0.203 C 
BRANCH  18  19
HETATM   19  C11 UNL     1       6.896  20.689   2.239  1.00  0.00     0.164 C 
HETATM   20  N3  UNL     1       5.727  20.795   2.692  1.00  0.00    -0.249 N 
ATOM     21  H3  UNL     1       5.216  21.659   2.510  1.00  0.00     0.196 HD
BRANCH  19  22
HETATM   22  O1  UNL     1       7.502  19.423   2.570  1.00  0.00    -0.346 OA
ATOM     23  H1  UNL     1       8.370  19.500   2.948  1.00  0.00     0.219 HD
ENDBRANCH  19  22
BRANCH  20  24
HETATM   24  O2  UNL     1       5.098  19.799   3.426  1.00  0.00    -0.288 OA
ATOM     25  H2  UNL     1       4.375  19.281   3.093  1.00  0.00     0.244 HD
ENDBRANCH  20  24
ENDBRANCH  18  19
BRANCH  18  26
HETATM   26  N4  UNL     1       7.670  21.122   0.045  1.00  0.00    -0.349 N 
HETATM   27  C12 UNL     1       8.343  21.655  -0.987  1.00  0.00     0.092 A 
HETATM   28  C13 UNL     1       7.987  21.065  -2.187  1.00  0.00     0.019 A 
HETATM   29  C14 UNL     1       7.028  20.107  -1.848  1.00  0.00     0.019 A 
HETATM   30  C15 UNL     1       6.867  20.175  -0.466  1.00  0.00     0.092 A 
ENDBRANCH  18  26
ENDBRANCH  17  18
ENDBRANCH  13  17
ENDBRANCH   6  10
TORSDOF 7
ENDMDL
MODEL 5
REMARK VINA RESULT: -9.012499539      3.244      4.434
REMARK  7 active torsions:
REMARK  status: ('A' for Active; 'I' for Inactive)
REMARK    1  A    between atoms: C5_6  and  C6_7 
REMARK    2  A    between atoms: N2_10  and  C9_11 
REMARK    3  A    between atoms: C9_11  and  C10_12 
REMARK    4  A    between atoms: C10_12  and  C11_13 
REMARK    5  A    between atoms: C10_12  and  N4_20 
REMARK    6  A    between atoms: C11_13  and  O1_14 
REMARK    7  A    between atoms: N3_16  and  O2_18 
ROOT
HETATM    1  N1  UNL     1      16.952  16.588   7.903  1.00  0.00    -0.191 NA
HETATM    2  C1  UNL     1      16.496  17.408   7.181  1.00  0.00     0.099 C 
HETATM    3  C2  UNL     1      15.986  18.429   6.280  1.00  0.00     0.046 A 
HETATM    4  C3  UNL     1      14.647  18.590   6.067  1.00  0.00     0.023 A 
HETATM    5  C4  UNL     1      14.179  19.583   5.192  1.00  0.00     0.011 A 
HETATM    6  C5  UNL     1      15.113  20.389   4.556  1.00  0.00    -0.032 A 
HETATM    7  C18 UNL     1      16.452  20.197   4.794  1.00  0.00     0.042 A 
HETATM    8 CL1  UNL     1      17.668  21.300   4.085  1.00  0.00    -0.084 Cl
HETATM    9  C19 UNL     1      16.933  19.257   5.624  1.00  0.00     0.047 A 
ENDROOT
BRANCH   6  10
HETATM   10  C6  UNL     1      14.770  21.374   3.525  1.00  0.00     0.029 C 
HETATM   11  C7  UNL     1      13.648  22.285   3.926  1.00  0.00     0.054 C 
HETATM   12  C8  UNL     1      12.238  21.947   3.452  1.00  0.00     0.067 C 
HETATM   13  N2  UNL     1      12.192  21.699   2.066  1.00  0.00    -0.341 N 
HETATM   14  C16 UNL     1      13.469  21.589   1.454  1.00  0.00     0.275 C 
HETATM   15  F1  UNL     1      13.402  21.232   0.133  1.00  0.00    -0.227 F 
HETATM   16  C17 UNL     1      14.277  20.570   2.274  1.00  0.00     0.069 C 
BRANCH  13  17
HETATM   17  C9  UNL     1      11.173  20.873   1.620  1.00  0.00     0.100 C 
BRANCH  17  18
HETATM   18  C10 UNL     1      10.031  20.517   2.498  1.00  0.00     0.203 C 
BRANCH  18  19
HETATM   19  C11 UNL     1       9.988  19.348   3.333  1.00  0.00     0.164 C 
HETATM   20  N3  UNL     1       9.783  19.166   4.560  1.00  0.00    -0.249 N 
ATOM     21  H3  UNL     1       9.603  19.980   5.147  1.00  0.00     0.196 HD
BRANCH  19  22
HETATM   22  O1  UNL     1      10.230  18.116   2.624  1.00  0.00    -0.346 OA
ATOM     23  H1  UNL     1      11.019  18.126   2.095  1.00  0.00     0.219 HD
ENDBRANCH  19  22
BRANCH  20  24
HETATM   24  O2  UNL     1       9.789  17.912   5.158  1.00  0.00    -0.288 OA
ATOM     25  H2  UNL     1       9.507  17.757   6.051  1.00  0.00     0.244 HD
ENDBRANCH  20  24
ENDBRANCH  18  19
BRANCH  18  26
HETATM   26  N4  UNL     1       8.802  20.522   1.655  1.00  0.00    -0.349 N 
HETATM   27  C12 UNL     1       7.537  20.397   2.090  1.00  0.00     0.092 A 
HETATM   28  C13 UNL     1       6.637  20.369   1.039  1.00  0.00     0.019 A 
HETATM   29  C14 UNL     1       7.422  20.484  -0.111  1.00  0.00     0.019 A 
HETATM   30  C15 UNL     1       8.745  20.578   0.315  1.00  0.00     0.092 A 
ENDBRANCH  18  26
ENDBRANCH  17  18
ENDBRANCH  13  17
ENDBRANCH   6  10
TORSDOF 7
ENDMDL
