MODEL 1
REMARK VINA RESULT: -8.644201290      0.000      0.000
REMARK  7 active torsions:
REMARK  status: ('A' for Active; 'I' for Inactive)
REMARK    1  A    between atoms: C2_2  and  C9_12 
REMARK    2  A    between atoms: N1_3  and  O1_5 
REMARK    3  A    between atoms: O1_5  and  C3_6 
REMARK    4  A    between atoms: C11_15  and  N2_16 
REMARK    5  A    between atoms: N2_16  and  C12_18 
REMARK    6  A    between atoms: C14_20  and  C15_21 
REMARK    7  A    between atoms: C15_21  and  C16_22 
ROOT
HETATM    1  C9  UNL     1      11.641  20.311   2.883  1.00  0.00     0.065 A 
HETATM    2  C10 UNL     1      11.636  19.668   1.672  1.00  0.00     0.084 A 
HETATM    3  S1  UNL     1      13.196  20.090   1.052  1.00  0.00    -0.063 SA
HETATM    4  C11 UNL     1      13.737  21.037   2.349  1.00  0.00     0.150 A 
HETATM    5  N5  UNL     1      12.725  20.987   3.174  1.00  0.00    -0.334 N 
ATOM      6  H5  UNL     1      12.780  21.484   4.063  1.00  0.00     0.168 HD
ENDROOT
BRANCH   4   7
HETATM    7  N2  UNL     1      14.982  21.721   2.514  1.00  0.00    -0.322 N 
ATOM      8  H2  UNL     1      15.175  22.539   1.937  1.00  0.00     0.169 HD
BRANCH   7   9
HETATM    9  C12 UNL     1      15.867  21.337   3.369  1.00  0.00     0.123 A 
HETATM   10  C13 UNL     1      15.608  20.547   4.468  1.00  0.00     0.076 A 
HETATM   11  C14 UNL     1      16.793  20.341   5.154  1.00  0.00     0.035 A 
HETATM   12  N3  UNL     1      17.730  21.000   4.463  1.00  0.00    -0.303 N 
HETATM   13  N4  UNL     1      17.190  21.590   3.411  1.00  0.00    -0.285 N 
ATOM     14  H3  UNL     1      18.718  21.042   4.713  1.00  0.00     0.186 HD
ATOM     15  H4  UNL     1      17.701  22.153   2.731  1.00  0.00     0.188 HD
BRANCH  11  16
HETATM   16  C15 UNL     1      16.975  19.556   6.383  1.00  0.00     0.137 C 
BRANCH  16  17
HETATM   17  C16 UNL     1      16.326  18.203   6.301  1.00  0.00     0.245 C 
HETATM   18  C17 UNL     1      16.600  17.464   7.618  1.00  0.00     0.090 C 
HETATM   19  F1  UNL     1      16.882  17.477   5.261  1.00  0.00    -0.206 F 
HETATM   20  F2  UNL     1      14.968  18.261   6.143  1.00  0.00    -0.206 F 
ENDBRANCH  16  17
ENDBRANCH  11  16
ENDBRANCH   7   9
ENDBRANCH   4   7
BRANCH   1  21
HETATM   21  C2  UNL     1      10.498  20.260   3.827  1.00  0.00     0.055 C 
HETATM   22  C1  UNL     1      10.600  19.340   5.015  1.00  0.00     0.072 C 
HETATM   23  N1  UNL     1       9.471  20.928   3.691  1.00  0.00    -0.269 N 
ATOM     24  H1  UNL     1       8.780  20.779   4.426  1.00  0.00     0.194 HD
BRANCH  23  25
HETATM   25  O1  UNL     1       9.100  21.800   2.775  1.00  0.00    -0.275 OA
BRANCH  25  26
HETATM   26  C3  UNL     1       7.930  21.649   2.014  1.00  0.00     0.152 C 
HETATM   27  C4  UNL     1       8.329  20.968   0.717  1.00  0.00     0.034 C 
HETATM   28  C5  UNL     1       9.287  21.810  -0.079  1.00  0.00     0.002 C 
HETATM   29  C6  UNL     1       8.942  23.294   0.017  1.00  0.00     0.000 C 
HETATM   30  C7  UNL     1       7.477  23.464   0.360  1.00  0.00     0.002 C 
HETATM   31  C8  UNL     1       7.283  22.977   1.794  1.00  0.00     0.034 C 
ENDBRANCH  25  26
ENDBRANCH  23  25
ENDBRANCH   1  21
TORSDOF 7
ENDMDL
MODEL 2
REMARK VINA RESULT: -8.514906748      2.506      3.413
REMARK  7 active torsions:
REMARK  status: ('A' for Active; 'I' for Inactive)
REMARK    1  A    between atoms: C2_2  and  C9_12 
REMARK    2  A    between atoms: N1_3  and  O1_5 
REMARK    3  A    between atoms: O1_5  and  C3_6 
REMARK    4  A    between atoms: C11_15  and  N2_16 
REMARK    5  A    between atoms: N2_16  and  C12_18 
REMARK    6  A    between atoms: C14_20  and  C15_21 
REMARK    7  A    between atoms: C15_21  and  C16_22 
ROOT
HETATM    1  C9  UNL     1      13.167  20.901   1.437  1.00  0.00     0.065 A 
HETATM    2  C10 UNL     1      12.989  21.682   0.324  1.00  0.00     0.084 A 
HETATM    3  S1  UNL     1      14.404  22.677   0.372  1.00  0.00    -0.063 SA
HETATM    4  C11 UNL     1      15.112  22.044   1.776  1.00  0.00     0.150 A 
HETATM    5  N5  UNL     1      14.254  21.125   2.133  1.00  0.00    -0.334 N 
ATOM      6  H5  UNL     1      14.434  20.572   2.971  1.00  0.00     0.168 HD
ENDROOT
BRANCH   4   7
HETATM    7  N2  UNL     1      16.336  22.410   2.418  1.00  0.00    -0.322 N 
ATOM      8  H2  UNL     1      16.838  23.234   2.088  1.00  0.00     0.169 HD
BRANCH   7   9
HETATM    9  C12 UNL     1      16.826  21.732   3.399  1.00  0.00     0.123 A 
HETATM   10  C13 UNL     1      16.083  21.182   4.421  1.00  0.00     0.076 A 
HETATM   11  C14 UNL     1      16.942  20.530   5.290  1.00  0.00     0.035 A 
HETATM   12  N3  UNL     1      18.167  20.698   4.781  1.00  0.00    -0.303 N 
HETATM   13  N4  UNL     1      18.105  21.405   3.667  1.00  0.00    -0.285 N 
ATOM     14  H3  UNL     1      19.025  20.332   5.193  1.00  0.00     0.186 HD
ATOM     15  H4  UNL     1      18.908  21.666   3.095  1.00  0.00     0.188 HD
BRANCH  11  16
HETATM   16  C15 UNL     1      16.574  19.805   6.515  1.00  0.00     0.137 C 
BRANCH  16  17
HETATM   17  C16 UNL     1      16.221  18.368   6.247  1.00  0.00     0.245 C 
HETATM   18  C17 UNL     1      16.516  17.562   7.517  1.00  0.00     0.090 C 
HETATM   19  F1  UNL     1      17.004  17.877   5.216  1.00  0.00    -0.206 F 
HETATM   20  F2  UNL     1      14.899  18.182   5.945  1.00  0.00    -0.206 F 
ENDBRANCH  16  17
ENDBRANCH  11  16
ENDBRANCH   7   9
ENDBRANCH   4   7
BRANCH   1  21
HETATM   21  C2  UNL     1      12.199  19.855   1.850  1.00  0.00     0.055 C 
HETATM   22  C1  UNL     1      12.250  18.525   1.147  1.00  0.00     0.072 C 
HETATM   23  N1  UNL     1      11.358  20.016   2.736  1.00  0.00    -0.269 N 
ATOM     24  H1  UNL     1      10.768  19.201   2.901  1.00  0.00     0.194 HD
BRANCH  23  25
HETATM   25  O1  UNL     1      11.078  21.046   3.511  1.00  0.00    -0.275 OA
BRANCH  25  26
HETATM   26  C3  UNL     1      11.167  20.989   4.911  1.00  0.00     0.152 C 
HETATM   27  C4  UNL     1      10.626  22.302   5.445  1.00  0.00     0.034 C 
HETATM   28  C5  UNL     1      11.451  23.470   4.981  1.00  0.00     0.002 C 
HETATM   29  C6  UNL     1      12.938  23.128   4.947  1.00  0.00     0.000 C 
HETATM   30  C7  UNL     1      13.229  21.989   5.902  1.00  0.00     0.002 C 
HETATM   31  C8  UNL     1      12.579  20.733   5.327  1.00  0.00     0.034 C 
ENDBRANCH  25  26
ENDBRANCH  23  25
ENDBRANCH   1  21
TORSDOF 7
ENDMDL
MODEL 3
REMARK VINA RESULT: -8.503957590      3.451      8.238
REMARK  7 active torsions:
REMARK  status: ('A' for Active; 'I' for Inactive)
REMARK    1  A    between atoms: C2_2  and  C9_12 
REMARK    2  A    between atoms: N1_3  and  O1_5 
REMARK    3  A    between atoms: O1_5  and  C3_6 
REMARK    4  A    between atoms: C11_15  and  N2_16 
REMARK    5  A    between atoms: N2_16  and  C12_18 
REMARK    6  A    between atoms: C14_20  and  C15_21 
REMARK    7  A    between atoms: C15_21  and  C16_22 
ROOT
HETATM    1  C9  UNL     1      14.412  21.909   1.338  1.00  0.00     0.065 A 
HETATM    2  C10 UNL     1      13.789  22.627   0.349  1.00  0.00     0.084 A 
HETATM    3  S1  UNL     1      12.346  21.701   0.110  1.00  0.00    -0.063 SA
HETATM    4  C11 UNL     1      12.629  20.489   1.259  1.00  0.00     0.150 A 
HETATM    5  N5  UNL     1      13.784  20.840   1.760  1.00  0.00    -0.334 N 
ATOM      6  H5  UNL     1      14.204  20.270   2.494  1.00  0.00     0.168 HD
ENDROOT
BRANCH   4   7
HETATM    7  N2  UNL     1      11.819  19.363   1.607  1.00  0.00    -0.322 N 
ATOM      8  H2  UNL     1      12.212  18.426   1.517  1.00  0.00     0.169 HD
BRANCH   7   9
HETATM    9  C12 UNL     1      10.608  19.493   2.028  1.00  0.00     0.123 A 
HETATM   10  C13 UNL     1       9.628  20.221   1.389  1.00  0.00     0.076 A 
HETATM   11  C14 UNL     1       8.460  20.135   2.129  1.00  0.00     0.035 A 
HETATM   12  N3  UNL     1       8.756  19.367   3.183  1.00  0.00    -0.303 N 
HETATM   13  N4  UNL     1      10.020  18.986   3.130  1.00  0.00    -0.285 N 
ATOM     14  H3  UNL     1       8.100  19.113   3.922  1.00  0.00     0.186 HD
ATOM     15  H4  UNL     1      10.482  18.395   3.821  1.00  0.00     0.188 HD
BRANCH  11  16
HETATM   16  C15 UNL     1       7.168  20.760   1.812  1.00  0.00     0.137 C 
BRANCH  16  17
HETATM   17  C16 UNL     1       7.286  22.241   1.586  1.00  0.00     0.245 C 
HETATM   18  C17 UNL     1       5.889  22.857   1.738  1.00  0.00     0.090 C 
HETATM   19  F1  UNL     1       7.742  22.486   0.303  1.00  0.00    -0.206 F 
HETATM   20  F2  UNL     1       8.104  22.863   2.489  1.00  0.00    -0.206 F 
ENDBRANCH  16  17
ENDBRANCH  11  16
ENDBRANCH   7   9
ENDBRANCH   4   7
BRANCH   1  21
HETATM   21  C2  UNL     1      15.722  22.300   1.913  1.00  0.00     0.055 C 
HETATM   22  C1  UNL     1      16.425  23.497   1.327  1.00  0.00     0.072 C 
HETATM   23  N1  UNL     1      16.266  21.699   2.841  1.00  0.00    -0.269 N 
ATOM     24  H1  UNL     1      17.164  22.094   3.120  1.00  0.00     0.194 HD
BRANCH  23  25
HETATM   25  O1  UNL     1      15.904  20.642   3.541  1.00  0.00    -0.275 OA
BRANCH  25  26
HETATM   26  C3  UNL     1      15.487  20.724   4.878  1.00  0.00     0.152 C 
HETATM   27  C4  UNL     1      16.739  20.842   5.728  1.00  0.00     0.034 C 
HETATM   28  C5  UNL     1      17.615  19.627   5.595  1.00  0.00     0.002 C 
HETATM   29  C6  UNL     1      16.788  18.349   5.495  1.00  0.00     0.000 C 
HETATM   30  C7  UNL     1      15.427  18.561   6.124  1.00  0.00     0.002 C 
HETATM   31  C8  UNL     1      14.658  19.533   5.233  1.00  0.00     0.034 C 
ENDBRANCH  25  26
ENDBRANCH  23  25
ENDBRANCH   1  21
TORSDOF 7
ENDMDL
MODEL 4
REMARK VINA RESULT: -8.403398494      2.866      3.958
REMARK  7 active torsions:
REMARK  status: ('A' for Active; 'I' for Inactive)
REMARK    1  A    between atoms: C2_2  and  C9_12 
REMARK    2  A    between atoms: N1_3  and  O1_5 
REMARK    3  A    between atoms: O1_5  and  C3_6 
REMARK    4  A    between atoms: C11_15  and  N2_16 
REMARK    5  A    between atoms: N2_16  and  C12_18 
REMARK    6  A    between atoms: C14_20  and  C15_21 
REMARK    7  A    between atoms: C15_21  and  C16_22 
ROOT
HETATM    1  C9  UNL     1      11.736  19.903   4.353  1.00  0.00     0.065 A 
HETATM    2  C10 UNL     1      11.448  21.136   4.879  1.00  0.00     0.084 A 
HETATM    3  S1  UNL     1      12.994  21.620   5.489  1.00  0.00    -0.063 SA
HETATM    4  C11 UNL     1      13.883  20.248   5.043  1.00  0.00     0.150 A 
HETATM    5  N5  UNL     1      12.979  19.504   4.463  1.00  0.00    -0.334 N 
ATOM      6  H5  UNL     1      13.247  18.594   4.089  1.00  0.00     0.168 HD
ENDROOT
BRANCH   4   7
HETATM    7  N2  UNL     1      15.270  19.963   5.242  1.00  0.00    -0.322 N 
ATOM      8  H2  UNL     1      15.534  19.235   5.906  1.00  0.00     0.169 HD
BRANCH   7   9
HETATM    9  C12 UNL     1      16.198  20.597   4.610  1.00  0.00     0.123 A 
HETATM   10  C13 UNL     1      16.016  21.284   3.429  1.00  0.00     0.076 A 
HETATM   11  C14 UNL     1      17.228  21.835   3.048  1.00  0.00     0.035 A 
HETATM   12  N3  UNL     1      18.103  21.476   3.993  1.00  0.00    -0.303 N 
HETATM   13  N4  UNL     1      17.502  20.746   4.916  1.00  0.00    -0.285 N 
ATOM     14  H3  UNL     1      19.091  21.729   4.001  1.00  0.00     0.186 HD
ATOM     15  H4  UNL     1      17.959  20.353   5.739  1.00  0.00     0.188 HD
BRANCH  11  16
HETATM   16  C15 UNL     1      17.488  22.648   1.851  1.00  0.00     0.137 C 
BRANCH  16  17
HETATM   17  C16 UNL     1      16.350  23.575   1.528  1.00  0.00     0.245 C 
HETATM   18  C17 UNL     1      15.531  22.945   0.394  1.00  0.00     0.090 C 
HETATM   19  F1  UNL     1      16.844  24.793   1.095  1.00  0.00    -0.206 F 
HETATM   20  F2  UNL     1      15.499  23.776   2.580  1.00  0.00    -0.206 F 
ENDBRANCH  16  17
ENDBRANCH  11  16
ENDBRANCH   7   9
ENDBRANCH   4   7
BRANCH   1  21
HETATM   21  C2  UNL     1      10.718  19.051   3.693  1.00  0.00     0.055 C 
HETATM   22  C1  UNL     1      10.071  17.961   4.506  1.00  0.00     0.072 C 
HETATM   23  N1  UNL     1      10.373  19.186   2.517  1.00  0.00    -0.269 N 
ATOM     24  H1  UNL     1       9.661  18.521   2.215  1.00  0.00     0.194 HD
BRANCH  23  25
HETATM   25  O1  UNL     1      10.752  20.030   1.578  1.00  0.00    -0.275 OA
BRANCH  25  26
HETATM   26  C3  UNL     1       9.848  20.628   0.686  1.00  0.00     0.152 C 
HETATM   27  C4  UNL     1      10.280  22.073   0.517  1.00  0.00     0.034 C 
HETATM   28  C5  UNL     1      10.207  22.827   1.815  1.00  0.00     0.002 C 
HETATM   29  C6  UNL     1       8.996  22.406   2.641  1.00  0.00     0.000 C 
HETATM   30  C7  UNL     1       7.928  21.828   1.737  1.00  0.00     0.002 C 
HETATM   31  C8  UNL     1       8.453  20.498   1.202  1.00  0.00     0.034 C 
ENDBRANCH  25  26
ENDBRANCH  23  25
ENDBRANCH   1  21
TORSDOF 7
ENDMDL
MODEL 5
REMARK VINA RESULT: -8.402839794      2.232      3.605
REMARK  7 active torsions:
REMARK  status: ('A' for Active; 'I' for Inactive)
REMARK    1  A    between atoms: C2_2  and  C9_12 
REMARK    2  A    between atoms: N1_3  and  O1_5 
REMARK    3  A    between atoms: O1_5  and  C3_6 
REMARK    4  A    between atoms: C11_15  and  N2_16 
REMARK    5  A    between atoms: N2_16  and  C12_18 
REMARK    6  A    between atoms: C14_20  and  C15_21 
REMARK    7  A    between atoms: C15_21  and  C16_22 
ROOT
HETATM    1  C9  UNL     1      13.376  22.064   1.358  1.00  0.00     0.065 A 
HETATM    2  C10 UNL     1      14.521  22.436   0.703  1.00  0.00     0.084 A 
HETATM    3  S1  UNL     1      15.675  22.424   1.993  1.00  0.00    -0.063 SA
HETATM    4  C11 UNL     1      14.642  21.958   3.253  1.00  0.00     0.150 A 
HETATM    5  N5  UNL     1      13.493  21.836   2.643  1.00  0.00    -0.334 N 
ATOM      6  H5  UNL     1      12.671  21.557   3.178  1.00  0.00     0.168 HD
ENDROOT
BRANCH   4   7
HETATM    7  N2  UNL     1      14.938  21.745   4.635  1.00  0.00    -0.322 N 
ATOM      8  H2  UNL     1      14.492  22.342   5.333  1.00  0.00     0.169 HD
BRANCH   7   9
HETATM    9  C12 UNL     1      15.750  20.825   5.030  1.00  0.00     0.123 A 
HETATM   10  C13 UNL     1      15.372  19.558   5.419  1.00  0.00     0.076 A 
HETATM   11  C14 UNL     1      16.506  18.849   5.776  1.00  0.00     0.035 A 
HETATM   12  N3  UNL     1      17.530  19.690   5.597  1.00  0.00    -0.303 N 
HETATM   13  N4  UNL     1      17.091  20.856   5.157  1.00  0.00    -0.285 N 
ATOM     14  H3  UNL     1      18.509  19.463   5.773  1.00  0.00     0.186 HD
ATOM     15  H4  UNL     1      17.681  21.661   4.946  1.00  0.00     0.188 HD
BRANCH  11  16
HETATM   16  C15 UNL     1      16.563  17.458   6.251  1.00  0.00     0.137 C 
BRANCH  16  17
HETATM   17  C16 UNL     1      16.614  17.365   7.750  1.00  0.00     0.245 C 
HETATM   18  C17 UNL     1      16.940  15.913   8.124  1.00  0.00     0.090 C 
HETATM   19  F1  UNL     1      15.380  17.695   8.283  1.00  0.00    -0.206 F 
HETATM   20  F2  UNL     1      17.580  18.155   8.310  1.00  0.00    -0.206 F 
ENDBRANCH  16  17
ENDBRANCH  11  16
ENDBRANCH   7   9
ENDBRANCH   4   7
BRANCH   1  21
HETATM   21  C2  UNL     1      12.066  21.923   0.676  1.00  0.00     0.055 C 
HETATM   22  C1  UNL     1      11.655  22.995  -0.299  1.00  0.00     0.072 C 
HETATM   23  N1  UNL     1      11.298  20.977   0.863  1.00  0.00    -0.269 N 
ATOM     24  H1  UNL     1      10.438  21.028   0.316  1.00  0.00     0.194 HD
BRANCH  23  25
HETATM   25  O1  UNL     1      11.380  19.913   1.636  1.00  0.00    -0.275 OA
BRANCH  25  26
HETATM   26  C3  UNL     1      10.250  19.278   2.175  1.00  0.00     0.152 C 
HETATM   27  C4  UNL     1       9.476  20.329   2.948  1.00  0.00     0.034 C 
HETATM   28  C5  UNL     1      10.281  20.879   4.093  1.00  0.00     0.002 C 
HETATM   29  C6  UNL     1      11.117  19.793   4.763  1.00  0.00     0.000 C 
HETATM   30  C7  UNL     1      10.499  18.434   4.511  1.00  0.00     0.002 C 
HETATM   31  C8  UNL     1      10.665  18.123   3.026  1.00  0.00     0.034 C 
ENDBRANCH  25  26
ENDBRANCH  23  25
ENDBRANCH   1  21
TORSDOF 7
ENDMDL
