MODEL 1
REMARK VINA RESULT: -7.843093569      0.000      0.000
REMARK  5 active torsions:
REMARK  status: ('A' for Active; 'I' for Inactive)
REMARK    1  A    between atoms: N1_7  and  C7_8 
REMARK    2  A    between atoms: C7_8  and  C8_9 
REMARK    3  A    between atoms: C8_9  and  N2_10 
REMARK    4  A    between atoms: N2_10  and  C9_12 
REMARK    5  A    between atoms: C10_13  and  N3_14 
ROOT
HETATM    1  C9  UNL     1      14.907  20.910   3.307  1.00  0.00     0.081 A 
HETATM    2  C10 UNL     1      16.094  20.827   4.027  1.00  0.00     0.132 A 
HETATM    3  C11 UNL     1      17.187  21.559   3.542  1.00  0.00     0.066 A 
HETATM    4  C12 UNL     1      17.118  22.332   2.406  1.00  0.00     0.071 A 
HETATM    5  N4  UNL     1      18.250  23.065   1.938  1.00  0.00    -0.101 NA
HETATM    6  C13 UNL     1      15.925  22.382   1.726  1.00  0.00     0.078 A 
HETATM    7 CL1  UNL     1      15.769  23.355   0.260  1.00  0.00    -0.081 Cl
HETATM    8  C14 UNL     1      14.804  21.673   2.167  1.00  0.00     0.063 A 
HETATM    9 BR1  UNL     1      13.190  21.818   1.128  1.00  0.00    -0.047 Br
ENDROOT
BRANCH   1  10
HETATM   10  N2  UNL     1      13.784  20.234   3.798  1.00  0.00    -0.385 N 
ATOM     11  H2  UNL     1      13.589  19.345   3.339  1.00  0.00     0.159 HD
BRANCH  10  12
HETATM   12  C8  UNL     1      12.864  20.584   4.839  1.00  0.00     0.150 C 
BRANCH  12  13
HETATM   13  C7  UNL     1      11.623  21.302   4.236  1.00  0.00     0.292 C 
BRANCH  13  14
HETATM   14  N1  UNL     1      10.606  20.287   4.076  1.00  0.00     0.094 N 
HETATM   15  C2  UNL     1      10.520  19.847   2.705  1.00  0.00     0.219 C 
HETATM   16  C1  UNL     1       9.105  20.105   2.227  1.00  0.00     0.043 C 
HETATM   17  C3  UNL     1      10.847  18.417   2.468  1.00  0.00     0.035 C 
HETATM   18  C4  UNL     1       9.950  17.573   3.346  1.00  0.00     0.004 C 
HETATM   19  C5  UNL     1      10.036  17.979   4.775  1.00  0.00     0.030 C 
HETATM   20  C6  UNL     1      10.794  19.258   5.030  1.00  0.00     0.273 C 
ENDBRANCH  13  14
ENDBRANCH  12  13
ENDBRANCH  10  12
ENDBRANCH   1  10
BRANCH   2  21
HETATM   21  N3  UNL     1      16.295  20.067   5.194  1.00  0.00    -0.113 N 
HETATM   22  O1  UNL     1      16.940  20.664   6.117  1.00  0.00    -0.532 OA
HETATM   23  O2  UNL     1      15.906  18.810   5.485  1.00  0.00    -0.532 OA
ENDBRANCH   2  21
TORSDOF 5
ENDMDL
MODEL 2
REMARK VINA RESULT: -7.772151728      1.025      2.052
REMARK  5 active torsions:
REMARK  status: ('A' for Active; 'I' for Inactive)
REMARK    1  A    between atoms: N1_7  and  C7_8 
REMARK    2  A    between atoms: C7_8  and  C8_9 
REMARK    3  A    between atoms: C8_9  and  N2_10 
REMARK    4  A    between atoms: N2_10  and  C9_12 
REMARK    5  A    between atoms: C10_13  and  N3_14 
ROOT
HETATM    1  C9  UNL     1      14.953  20.773   3.379  1.00  0.00     0.081 A 
HETATM    2  C10 UNL     1      16.119  20.737   4.137  1.00  0.00     0.132 A 
HETATM    3  C11 UNL     1      17.204  21.496   3.674  1.00  0.00     0.066 A 
HETATM    4  C12 UNL     1      17.146  22.251   2.525  1.00  0.00     0.071 A 
HETATM    5  N4  UNL     1      18.268  23.012   2.081  1.00  0.00    -0.101 NA
HETATM    6  C13 UNL     1      15.973  22.254   1.808  1.00  0.00     0.078 A 
HETATM    7 CL1  UNL     1      15.833  23.201   0.325  1.00  0.00    -0.081 Cl
HETATM    8  C14 UNL     1      14.862  21.516   2.226  1.00  0.00     0.063 A 
HETATM    9 BR1  UNL     1      13.277  21.597   1.137  1.00  0.00    -0.047 Br
ENDROOT
BRANCH   1  10
HETATM   10  N2  UNL     1      13.837  20.069   3.847  1.00  0.00    -0.385 N 
ATOM     11  H2  UNL     1      13.902  19.056   3.750  1.00  0.00     0.159 HD
BRANCH  10  12
HETATM   12  C8  UNL     1      12.619  20.536   4.438  1.00  0.00     0.150 C 
BRANCH  12  13
HETATM   13  C7  UNL     1      11.425  19.655   3.969  1.00  0.00     0.292 C 
BRANCH  13  14
HETATM   14  N1  UNL     1      10.278  20.531   3.900  1.00  0.00     0.094 N 
HETATM   15  C2  UNL     1      10.681  21.908   3.755  1.00  0.00     0.219 C 
HETATM   16  C1  UNL     1      10.108  22.681   4.926  1.00  0.00     0.043 C 
HETATM   17  C3  UNL     1      10.257  22.573   2.496  1.00  0.00     0.035 C 
HETATM   18  C4  UNL     1       8.753  22.453   2.379  1.00  0.00     0.004 C 
HETATM   19  C5  UNL     1       8.303  21.040   2.493  1.00  0.00     0.030 C 
HETATM   20  C6  UNL     1       9.368  20.063   2.922  1.00  0.00     0.273 C 
ENDBRANCH  13  14
ENDBRANCH  12  13
ENDBRANCH  10  12
ENDBRANCH   1  10
BRANCH   2  21
HETATM   21  N3  UNL     1      16.308  20.000   5.320  1.00  0.00    -0.113 N 
HETATM   22  O1  UNL     1      17.192  20.471   6.109  1.00  0.00    -0.532 OA
HETATM   23  O2  UNL     1      15.694  18.879   5.748  1.00  0.00    -0.532 OA
ENDBRANCH   2  21
TORSDOF 5
ENDMDL
MODEL 3
REMARK VINA RESULT: -7.592223344      3.057      6.481
REMARK  5 active torsions:
REMARK  status: ('A' for Active; 'I' for Inactive)
REMARK    1  A    between atoms: N1_7  and  C7_8 
REMARK    2  A    between atoms: C7_8  and  C8_9 
REMARK    3  A    between atoms: C8_9  and  N2_10 
REMARK    4  A    between atoms: N2_10  and  C9_12 
REMARK    5  A    between atoms: C10_13  and  N3_14 
ROOT
HETATM    1  C9  UNL     1      10.647  20.232   1.504  1.00  0.00     0.081 A 
HETATM    2  C10 UNL     1       9.965  19.448   2.429  1.00  0.00     0.132 A 
HETATM    3  C11 UNL     1       8.614  19.753   2.650  1.00  0.00     0.066 A 
HETATM    4  C12 UNL     1       7.967  20.776   1.997  1.00  0.00     0.071 A 
HETATM    5  N4  UNL     1       6.590  21.060   2.244  1.00  0.00    -0.101 NA
HETATM    6  C13 UNL     1       8.682  21.524   1.092  1.00  0.00     0.078 A 
HETATM    7 CL1  UNL     1       7.912  22.852   0.220  1.00  0.00    -0.081 Cl
HETATM    8  C14 UNL     1      10.031  21.262   0.835  1.00  0.00     0.063 A 
HETATM    9 BR1  UNL     1      10.928  22.382  -0.449  1.00  0.00    -0.047 Br
ENDROOT
BRANCH   1  10
HETATM   10  N2  UNL     1      11.982  19.915   1.224  1.00  0.00    -0.385 N 
ATOM     11  H2  UNL     1      12.107  19.181   0.528  1.00  0.00     0.159 HD
BRANCH  10  12
HETATM   12  C8  UNL     1      13.200  20.452   1.752  1.00  0.00     0.150 C 
BRANCH  12  13
HETATM   13  C7  UNL     1      12.886  21.548   2.810  1.00  0.00     0.292 C 
BRANCH  13  14
HETATM   14  N1  UNL     1      14.151  21.905   3.412  1.00  0.00     0.094 N 
HETATM   15  C2  UNL     1      14.350  21.208   4.659  1.00  0.00     0.219 C 
HETATM   16  C1  UNL     1      14.531  22.250   5.744  1.00  0.00     0.043 C 
HETATM   17  C3  UNL     1      15.508  20.278   4.697  1.00  0.00     0.035 C 
HETATM   18  C4  UNL     1      16.753  21.054   4.327  1.00  0.00     0.004 C 
HETATM   19  C5  UNL     1      16.595  21.762   3.028  1.00  0.00     0.030 C 
HETATM   20  C6  UNL     1      15.195  21.761   2.467  1.00  0.00     0.273 C 
ENDBRANCH  13  14
ENDBRANCH  12  13
ENDBRANCH  10  12
ENDBRANCH   1  10
BRANCH   2  21
HETATM   21  N3  UNL     1      10.513  18.383   3.168  1.00  0.00    -0.113 N 
HETATM   22  O1  UNL     1      11.319  18.731   4.092  1.00  0.00    -0.532 OA
HETATM   23  O2  UNL     1      10.311  17.056   3.050  1.00  0.00    -0.532 OA
ENDBRANCH   2  21
TORSDOF 5
ENDMDL
MODEL 4
REMARK VINA RESULT: -7.411525707      2.924      6.266
REMARK  5 active torsions:
REMARK  status: ('A' for Active; 'I' for Inactive)
REMARK    1  A    between atoms: N1_7  and  C7_8 
REMARK    2  A    between atoms: C7_8  and  C8_9 
REMARK    3  A    between atoms: C8_9  and  N2_10 
REMARK    4  A    between atoms: N2_10  and  C9_12 
REMARK    5  A    between atoms: C10_13  and  N3_14 
ROOT
HETATM    1  C9  UNL     1      11.116  20.588   2.501  1.00  0.00     0.081 A 
HETATM    2  C10 UNL     1      10.109  19.879   3.148  1.00  0.00     0.132 A 
HETATM    3  C11 UNL     1       8.881  19.764   2.481  1.00  0.00     0.066 A 
HETATM    4  C12 UNL     1       8.653  20.317   1.243  1.00  0.00     0.071 A 
HETATM    5  N4  UNL     1       7.391  20.181   0.590  1.00  0.00    -0.101 NA
HETATM    6  C13 UNL     1       9.677  21.010   0.642  1.00  0.00     0.078 A 
HETATM    7 CL1  UNL     1       9.451  21.746  -0.946  1.00  0.00    -0.081 Cl
HETATM    8  C14 UNL     1      10.922  21.155   1.264  1.00  0.00     0.063 A 
HETATM    9 BR1  UNL     1      12.276  22.151   0.327  1.00  0.00    -0.047 Br
ENDROOT
BRANCH   1  10
HETATM   10  N2  UNL     1      12.370  20.673   3.119  1.00  0.00    -0.385 N 
ATOM     11  H2  UNL     1      12.933  19.825   3.054  1.00  0.00     0.159 HD
BRANCH  10  12
HETATM   12  C8  UNL     1      12.991  21.752   3.826  1.00  0.00     0.150 C 
BRANCH  12  13
HETATM   13  C7  UNL     1      13.632  21.229   5.143  1.00  0.00     0.292 C 
BRANCH  13  14
HETATM   14  N1  UNL     1      14.831  20.521   4.757  1.00  0.00     0.094 N 
HETATM   15  C2  UNL     1      15.991  21.372   4.847  1.00  0.00     0.219 C 
HETATM   16  C1  UNL     1      16.628  21.430   3.472  1.00  0.00     0.043 C 
HETATM   17  C3  UNL     1      17.024  20.950   5.829  1.00  0.00     0.035 C 
HETATM   18  C4  UNL     1      17.439  19.533   5.503  1.00  0.00     0.004 C 
HETATM   19  C5  UNL     1      16.268  18.618   5.432  1.00  0.00     0.030 C 
HETATM   20  C6  UNL     1      14.923  19.299   5.466  1.00  0.00     0.273 C 
ENDBRANCH  13  14
ENDBRANCH  12  13
ENDBRANCH  10  12
ENDBRANCH   1  10
BRANCH   2  21
HETATM   21  N3  UNL     1      10.213  19.276   4.415  1.00  0.00    -0.113 N 
HETATM   22  O1  UNL     1       9.932  18.033   4.441  1.00  0.00    -0.532 OA
HETATM   23  O2  UNL     1      10.568  19.810   5.600  1.00  0.00    -0.532 OA
ENDBRANCH   2  21
TORSDOF 5
ENDMDL
MODEL 5
REMARK VINA RESULT: -7.402734618      3.075      6.430
REMARK  5 active torsions:
REMARK  status: ('A' for Active; 'I' for Inactive)
REMARK    1  A    between atoms: N1_7  and  C7_8 
REMARK    2  A    between atoms: C7_8  and  C8_9 
REMARK    3  A    between atoms: C8_9  and  N2_10 
REMARK    4  A    between atoms: N2_10  and  C9_12 
REMARK    5  A    between atoms: C10_13  and  N3_14 
ROOT
HETATM    1  C9  UNL     1      10.712  21.217   2.299  1.00  0.00     0.081 A 
HETATM    2  C10 UNL     1       9.935  20.460   3.169  1.00  0.00     0.132 A 
HETATM    3  C11 UNL     1       8.692  20.016   2.692  1.00  0.00     0.066 A 
HETATM    4  C12 UNL     1       8.237  20.302   1.427  1.00  0.00     0.071 A 
HETATM    5  N4  UNL     1       6.968  19.836   0.972  1.00  0.00    -0.101 NA
HETATM    6  C13 UNL     1       9.039  21.056   0.603  1.00  0.00     0.078 A 
HETATM    7 CL1  UNL     1       8.514  21.460  -1.034  1.00  0.00    -0.081 Cl
HETATM    8  C14 UNL     1      10.287  21.523   1.028  1.00  0.00     0.063 A 
HETATM    9 BR1  UNL     1      11.317  22.572  -0.214  1.00  0.00    -0.047 Br
ENDROOT
BRANCH   1  10
HETATM   10  N2  UNL     1      11.980  21.627   2.729  1.00  0.00    -0.385 N 
ATOM     11  H2  UNL     1      12.013  22.569   3.118  1.00  0.00     0.159 HD
BRANCH  10  12
HETATM   12  C8  UNL     1      13.238  20.943   2.712  1.00  0.00     0.150 C 
BRANCH  12  13
HETATM   13  C7  UNL     1      14.390  21.948   2.427  1.00  0.00     0.292 C 
BRANCH  13  14
HETATM   14  N1  UNL     1      15.235  21.940   3.599  1.00  0.00     0.094 N 
HETATM   15  C2  UNL     1      14.599  21.251   4.695  1.00  0.00     0.219 C 
HETATM   16  C1  UNL     1      14.490  22.226   5.850  1.00  0.00     0.043 C 
HETATM   17  C3  UNL     1      15.293  20.027   5.173  1.00  0.00     0.035 C 
HETATM   18  C4  UNL     1      16.713  20.399   5.541  1.00  0.00     0.004 C 
HETATM   19  C5  UNL     1      17.411  21.086   4.421  1.00  0.00     0.030 C 
HETATM   20  C6  UNL     1      16.528  21.474   3.261  1.00  0.00     0.273 C 
ENDBRANCH  13  14
ENDBRANCH  12  13
ENDBRANCH  10  12
ENDBRANCH   1  10
BRANCH   2  21
HETATM   21  N3  UNL     1      10.281  20.107   4.486  1.00  0.00    -0.113 N 
HETATM   22  O1  UNL     1      10.682  21.075   5.212  1.00  0.00    -0.532 OA
HETATM   23  O2  UNL     1      10.248  18.906   5.097  1.00  0.00    -0.532 OA
ENDBRANCH   2  21
TORSDOF 5
ENDMDL
