MODEL 1
REMARK VINA RESULT: -8.521873664      0.000      0.000
REMARK  5 active torsions:
REMARK  status: ('A' for Active; 'I' for Inactive)
REMARK    1  A    between atoms: C1_2  and  C2_3 
REMARK       I    between atoms: C1_2  and  N4_20 
REMARK    2  A    between atoms: C2_3  and  S1_4 
REMARK    3  A    between atoms: S1_4  and  C3_5 
REMARK    4  A    between atoms: C4_8  and  C5_9 
REMARK    5  A    between atoms: N4_20  and  C9_22 
ROOT
HETATM    1  C3  UNL     1      10.777  22.034   0.738  1.00  0.00     0.161 A 
HETATM    2  N1  UNL     1      11.909  22.627   1.115  1.00  0.00    -0.320 N 
ATOM      3  H1  UNL     1      11.970  23.570   1.498  1.00  0.00     0.169 HD
HETATM    4  C4  UNL     1      12.962  21.812   0.921  1.00  0.00     0.139 A 
HETATM    5  N2  UNL     1      12.462  20.685   0.410  1.00  0.00    -0.282 N 
ATOM      6  H2  UNL     1      13.002  19.861   0.148  1.00  0.00     0.188 HD
HETATM    7  N3  UNL     1      11.130  20.813   0.296  1.00  0.00    -0.278 N 
ATOM      8  H3  UNL     1      10.492  20.104  -0.065  1.00  0.00     0.189 HD
ENDROOT
BRANCH   1   9
HETATM    9  S1  UNL     1       9.109  22.674   0.785  1.00  0.00    -0.083 SA
BRANCH   9  10
HETATM   10  C2  UNL     1       8.352  22.337   2.396  1.00  0.00     0.185 C 
BRANCH  10  11
HETATM   11  C1  UNL     1       9.339  21.675   3.270  1.00  0.00     0.227 C 
HETATM   12  O1  UNL     1       9.380  20.415   3.276  1.00  0.00    -0.273 OA
HETATM   13  N4  UNL     1      10.228  22.427   4.091  1.00  0.00    -0.356 N 
ATOM     14  H4  UNL     1      10.182  23.446   4.076  1.00  0.00     0.162 HD
BRANCH  13  15
HETATM   15  C9  UNL     1      11.185  21.779   4.940  1.00  0.00     0.084 C 
HETATM   16  C10 UNL     1      11.986  22.740   5.769  1.00  0.00     0.025 C 
HETATM   17  C11 UNL     1      13.430  22.752   5.338  1.00  0.00     0.002 C 
HETATM   18  C12 UNL     1      14.017  21.371   5.557  1.00  0.00     0.000 C 
HETATM   19  C13 UNL     1      13.134  20.282   5.019  1.00  0.00     0.002 C 
HETATM   20  C14 UNL     1      12.100  20.907   4.110  1.00  0.00     0.025 C 
ENDBRANCH  13  15
ENDBRANCH  10  11
ENDBRANCH   9  10
ENDBRANCH   1   9
BRANCH   4  21
HETATM   21  C5  UNL     1      14.367  22.134   1.224  1.00  0.00     0.053 A 
HETATM   22  C6  UNL     1      15.162  21.679   2.242  1.00  0.00     0.048 A 
HETATM   23  C7  UNL     1      16.417  22.135   2.290  1.00  0.00     0.064 A 
HETATM   24 CL1  UNL     1      17.570  21.633   3.555  1.00  0.00    -0.082 Cl
HETATM   25  C8  UNL     1      16.807  23.018   1.322  1.00  0.00     0.097 A 
HETATM   26 CL2  UNL     1      18.389  23.791   1.117  1.00  0.00    -0.074 Cl
HETATM   27  S2  UNL     1      15.396  23.182   0.369  1.00  0.00    -0.072 SA
ENDBRANCH   4  21
TORSDOF 5
ENDMDL
MODEL 2
REMARK VINA RESULT: -8.221770393      3.675      5.703
REMARK  5 active torsions:
REMARK  status: ('A' for Active; 'I' for Inactive)
REMARK    1  A    between atoms: C1_2  and  C2_3 
REMARK       I    between atoms: C1_2  and  N4_20 
REMARK    2  A    between atoms: C2_3  and  S1_4 
REMARK    3  A    between atoms: S1_4  and  C3_5 
REMARK    4  A    between atoms: C4_8  and  C5_9 
REMARK    5  A    between atoms: N4_20  and  C9_22 
ROOT
HETATM    1  C3  UNL     1      10.810  22.122   0.717  1.00  0.00     0.161 A 
HETATM    2  N1  UNL     1      11.837  22.363   1.530  1.00  0.00    -0.320 N 
ATOM      3  H1  UNL     1      11.793  22.953   2.361  1.00  0.00     0.169 HD
HETATM    4  C4  UNL     1      12.941  21.721   1.107  1.00  0.00     0.139 A 
HETATM    5  N2  UNL     1      12.581  21.066   0.001  1.00  0.00    -0.282 N 
ATOM      6  H2  UNL     1      13.192  20.479  -0.566  1.00  0.00     0.188 HD
HETATM    7  N3  UNL     1      11.282  21.305  -0.243  1.00  0.00    -0.278 N 
ATOM      8  H3  UNL     1      10.744  20.932  -1.024  1.00  0.00     0.189 HD
ENDROOT
BRANCH   1   9
HETATM    9  S1  UNL     1       9.131  22.726   0.824  1.00  0.00    -0.083 SA
BRANCH   9  10
HETATM   10  C2  UNL     1       8.483  23.078  -0.830  1.00  0.00     0.185 C 
BRANCH  10  11
HETATM   11  C1  UNL     1       9.159  24.271  -1.376  1.00  0.00     0.227 C 
HETATM   12  O1  UNL     1       8.690  25.405  -1.089  1.00  0.00    -0.273 OA
HETATM   13  N4  UNL     1      10.311  24.158  -2.207  1.00  0.00    -0.356 N 
ATOM     14  H4  UNL     1      10.678  23.233  -2.430  1.00  0.00     0.162 HD
BRANCH  13  15
HETATM   15  C9  UNL     1      10.964  25.320  -2.735  1.00  0.00     0.084 C 
HETATM   16  C10 UNL     1      10.945  25.378  -4.234  1.00  0.00     0.025 C 
HETATM   17  C11 UNL     1      12.332  25.210  -4.800  1.00  0.00     0.002 C 
HETATM   18  C12 UNL     1      13.199  26.356  -4.316  1.00  0.00     0.000 C 
HETATM   19  C13 UNL     1      13.069  26.588  -2.838  1.00  0.00     0.002 C 
HETATM   20  C14 UNL     1      12.386  25.388  -2.222  1.00  0.00     0.025 C 
ENDBRANCH  13  15
ENDBRANCH  10  11
ENDBRANCH   9  10
ENDBRANCH   1   9
BRANCH   4  21
HETATM   21  C5  UNL     1      14.261  21.758   1.760  1.00  0.00     0.053 A 
HETATM   22  C6  UNL     1      15.386  22.452   1.403  1.00  0.00     0.048 A 
HETATM   23  C7  UNL     1      16.466  22.308   2.178  1.00  0.00     0.064 A 
HETATM   24 CL1  UNL     1      18.003  23.148   1.841  1.00  0.00    -0.082 Cl
HETATM   25  C8  UNL     1      16.361  21.481   3.261  1.00  0.00     0.097 A 
HETATM   26 CL2  UNL     1      17.603  21.090   4.464  1.00  0.00    -0.074 Cl
HETATM   27  S2  UNL     1      14.746  20.929   3.161  1.00  0.00    -0.072 SA
ENDBRANCH   4  21
TORSDOF 5
ENDMDL
MODEL 3
REMARK VINA RESULT: -8.153874239      3.559      5.530
REMARK  5 active torsions:
REMARK  status: ('A' for Active; 'I' for Inactive)
REMARK    1  A    between atoms: C1_2  and  C2_3 
REMARK       I    between atoms: C1_2  and  N4_20 
REMARK    2  A    between atoms: C2_3  and  S1_4 
REMARK    3  A    between atoms: S1_4  and  C3_5 
REMARK    4  A    between atoms: C4_8  and  C5_9 
REMARK    5  A    between atoms: N4_20  and  C9_22 
ROOT
HETATM    1  C3  UNL     1      10.555  21.746   0.821  1.00  0.00     0.161 A 
HETATM    2  N1  UNL     1      11.694  22.391   1.070  1.00  0.00    -0.320 N 
ATOM      3  H1  UNL     1      11.777  23.403   1.168  1.00  0.00     0.169 HD
HETATM    4  C4  UNL     1      12.719  21.527   1.175  1.00  0.00     0.139 A 
HETATM    5  N2  UNL     1      12.194  20.314   0.985  1.00  0.00    -0.282 N 
ATOM      6  H2  UNL     1      12.711  19.435   1.001  1.00  0.00     0.188 HD
HETATM    7  N3  UNL     1      10.875  20.440   0.769  1.00  0.00    -0.278 N 
ATOM      8  H3  UNL     1      10.225  19.674   0.594  1.00  0.00     0.189 HD
ENDROOT
BRANCH   1   9
HETATM    9  S1  UNL     1       8.914  22.417   0.592  1.00  0.00    -0.083 SA
BRANCH   9  10
HETATM   10  C2  UNL     1       8.622  22.781  -1.158  1.00  0.00     0.185 C 
BRANCH  10  11
HETATM   11  C1  UNL     1       9.324  24.027  -1.521  1.00  0.00     0.227 C 
HETATM   12  O1  UNL     1       9.052  25.074  -0.875  1.00  0.00    -0.273 OA
HETATM   13  N4  UNL     1      10.285  24.059  -2.573  1.00  0.00    -0.356 N 
ATOM     14  H4  UNL     1      10.494  23.203  -3.086  1.00  0.00     0.162 HD
BRANCH  13  15
HETATM   15  C9  UNL     1      10.965  25.273  -2.923  1.00  0.00     0.084 C 
HETATM   16  C10 UNL     1      11.146  25.442  -4.402  1.00  0.00     0.025 C 
HETATM   17  C11 UNL     1      12.601  25.349  -4.783  1.00  0.00     0.002 C 
HETATM   18  C12 UNL     1      13.357  26.476  -4.104  1.00  0.00     0.000 C 
HETATM   19  C13 UNL     1      13.021  26.594  -2.645  1.00  0.00     0.002 C 
HETATM   20  C14 UNL     1      12.301  25.335  -2.216  1.00  0.00     0.025 C 
ENDBRANCH  13  15
ENDBRANCH  10  11
ENDBRANCH   9  10
ENDBRANCH   1   9
BRANCH   4  21
HETATM   21  C5  UNL     1      14.122  21.885   1.446  1.00  0.00     0.053 A 
HETATM   22  C6  UNL     1      14.949  21.453   2.448  1.00  0.00     0.048 A 
HETATM   23  C7  UNL     1      16.194  21.940   2.467  1.00  0.00     0.064 A 
HETATM   24 CL1  UNL     1      17.386  21.472   3.709  1.00  0.00    -0.082 Cl
HETATM   25  C8  UNL     1      16.540  22.829   1.487  1.00  0.00     0.097 A 
HETATM   26 CL2  UNL     1      18.098  23.639   1.246  1.00  0.00    -0.074 Cl
HETATM   27  S2  UNL     1      15.105  22.954   0.565  1.00  0.00    -0.072 SA
ENDBRANCH   4  21
TORSDOF 5
ENDMDL
MODEL 4
REMARK VINA RESULT: -8.096974098      1.288      1.856
REMARK  5 active torsions:
REMARK  status: ('A' for Active; 'I' for Inactive)
REMARK    1  A    between atoms: C1_2  and  C2_3 
REMARK       I    between atoms: C1_2  and  N4_20 
REMARK    2  A    between atoms: C2_3  and  S1_4 
REMARK    3  A    between atoms: S1_4  and  C3_5 
REMARK    4  A    between atoms: C4_8  and  C5_9 
REMARK    5  A    between atoms: N4_20  and  C9_22 
ROOT
HETATM    1  C3  UNL     1      10.696  21.726  -0.113  1.00  0.00     0.161 A 
HETATM    2  N1  UNL     1      11.788  21.400   0.577  1.00  0.00    -0.320 N 
ATOM      3  H1  UNL     1      11.891  20.551   1.133  1.00  0.00     0.169 HD
HETATM    4  C4  UNL     1      12.737  22.344   0.441  1.00  0.00     0.139 A 
HETATM    5  N2  UNL     1      12.212  23.276  -0.357  1.00  0.00    -0.282 N 
ATOM      6  H2  UNL     1      12.680  24.131  -0.657  1.00  0.00     0.188 HD
HETATM    7  N3  UNL     1      10.968  22.906  -0.699  1.00  0.00    -0.278 N 
ATOM      8  H3  UNL     1      10.334  23.431  -1.301  1.00  0.00     0.189 HD
ENDROOT
BRANCH   1   9
HETATM    9  S1  UNL     1       9.159  20.825  -0.268  1.00  0.00    -0.083 SA
BRANCH   9  10
HETATM   10  C2  UNL     1       8.100  21.138   1.168  1.00  0.00     0.185 C 
BRANCH  10  11
HETATM   11  C1  UNL     1       8.870  20.895   2.404  1.00  0.00     0.227 C 
HETATM   12  O1  UNL     1       9.031  19.703   2.780  1.00  0.00    -0.273 OA
HETATM   13  N4  UNL     1       9.419  21.969   3.161  1.00  0.00    -0.356 N 
ATOM     14  H4  UNL     1       9.279  22.929   2.844  1.00  0.00     0.162 HD
BRANCH  13  15
HETATM   15  C9  UNL     1      10.165  21.728   4.362  1.00  0.00     0.084 C 
HETATM   16  C10 UNL     1      10.310  22.949   5.223  1.00  0.00     0.025 C 
HETATM   17  C11 UNL     1      11.743  23.412   5.266  1.00  0.00     0.002 C 
HETATM   18  C12 UNL     1      12.592  22.320   5.887  1.00  0.00     0.000 C 
HETATM   19  C13 UNL     1      12.310  20.969   5.294  1.00  0.00     0.002 C 
HETATM   20  C14 UNL     1      11.524  21.160   4.017  1.00  0.00     0.025 C 
ENDBRANCH  13  15
ENDBRANCH  10  11
ENDBRANCH   9  10
ENDBRANCH   1   9
BRANCH   4  21
HETATM   21  C5  UNL     1      14.073  22.317   1.062  1.00  0.00     0.053 A 
HETATM   22  C6  UNL     1      15.204  23.006   0.717  1.00  0.00     0.048 A 
HETATM   23  C7  UNL     1      16.299  22.797   1.455  1.00  0.00     0.064 A 
HETATM   24 CL1  UNL     1      17.846  23.621   1.128  1.00  0.00    -0.082 Cl
HETATM   25  C8  UNL     1      16.201  21.912   2.493  1.00  0.00     0.097 A 
HETATM   26 CL2  UNL     1      17.462  21.429   3.641  1.00  0.00    -0.074 Cl
HETATM   27  S2  UNL     1      14.572  21.400   2.403  1.00  0.00    -0.072 SA
ENDBRANCH   4  21
TORSDOF 5
ENDMDL
MODEL 5
REMARK VINA RESULT: -8.059114810      1.200      1.732
REMARK  5 active torsions:
REMARK  status: ('A' for Active; 'I' for Inactive)
REMARK    1  A    between atoms: C1_2  and  C2_3 
REMARK       I    between atoms: C1_2  and  N4_20 
REMARK    2  A    between atoms: C2_3  and  S1_4 
REMARK    3  A    between atoms: S1_4  and  C3_5 
REMARK    4  A    between atoms: C4_8  and  C5_9 
REMARK    5  A    between atoms: N4_20  and  C9_22 
ROOT
HETATM    1  C3  UNL     1      10.767  22.604   0.070  1.00  0.00     0.161 A 
HETATM    2  N1  UNL     1      11.869  22.982   0.717  1.00  0.00    -0.320 N 
ATOM      3  H1  UNL     1      11.984  23.877   1.193  1.00  0.00     0.169 HD
HETATM    4  C4  UNL     1      12.810  22.022   0.657  1.00  0.00     0.139 A 
HETATM    5  N2  UNL     1      12.270  21.026  -0.048  1.00  0.00    -0.282 N 
ATOM      6  H2  UNL     1      12.728  20.144  -0.275  1.00  0.00     0.188 HD
HETATM    7  N3  UNL     1      11.024  21.374  -0.409  1.00  0.00    -0.278 N 
ATOM      8  H3  UNL     1      10.380  20.801  -0.954  1.00  0.00     0.189 HD
ENDROOT
BRANCH   1   9
HETATM    9  S1  UNL     1       9.236  23.501  -0.151  1.00  0.00    -0.083 SA
BRANCH   9  10
HETATM   10  C2  UNL     1       7.907  22.717   0.797  1.00  0.00     0.185 C 
BRANCH  10  11
HETATM   11  C1  UNL     1       8.485  22.011   1.957  1.00  0.00     0.227 C 
HETATM   12  O1  UNL     1       8.208  20.791   2.110  1.00  0.00    -0.273 OA
HETATM   13  N4  UNL     1       9.334  22.678   2.886  1.00  0.00    -0.356 N 
ATOM     14  H4  UNL     1       9.549  23.666   2.748  1.00  0.00     0.162 HD
BRANCH  13  15
HETATM   15  C9  UNL     1       9.893  21.988   4.012  1.00  0.00     0.084 C 
HETATM   16  C10 UNL     1      10.349  22.911   5.104  1.00  0.00     0.025 C 
HETATM   17  C11 UNL     1      11.849  22.888   5.240  1.00  0.00     0.002 C 
HETATM   18  C12 UNL     1      12.283  21.486   5.625  1.00  0.00     0.000 C 
HETATM   19  C13 UNL     1      11.641  20.432   4.769  1.00  0.00     0.002 C 
HETATM   20  C14 UNL     1      11.033  21.103   3.558  1.00  0.00     0.025 C 
ENDBRANCH  13  15
ENDBRANCH  10  11
ENDBRANCH   9  10
ENDBRANCH   1   9
BRANCH   4  21
HETATM   21  C5  UNL     1      14.152  22.094   1.259  1.00  0.00     0.053 A 
HETATM   22  C6  UNL     1      15.239  22.832   0.872  1.00  0.00     0.048 A 
HETATM   23  C7  UNL     1      16.352  22.713   1.603  1.00  0.00     0.064 A 
HETATM   24 CL1  UNL     1      17.846  23.609   1.222  1.00  0.00    -0.082 Cl
HETATM   25  C8  UNL     1      16.317  21.866   2.675  1.00  0.00     0.097 A 
HETATM   26 CL2  UNL     1      17.617  21.499   3.824  1.00  0.00    -0.074 Cl
HETATM   27  S2  UNL     1      14.718  21.260   2.627  1.00  0.00    -0.072 SA
ENDBRANCH   4  21
TORSDOF 5
ENDMDL
