MODEL 1
REMARK VINA RESULT: -8.305481561      0.000      0.000
REMARK  8 active torsions:
REMARK  status: ('A' for Active; 'I' for Inactive)
REMARK    1  A    between atoms: C2_2  and  C3_3 
REMARK    2  A    between atoms: C5_8  and  C6_9 
REMARK       I    between atoms: C6_9  and  N2_11 
REMARK    3  A    between atoms: N2_11  and  C7_13 
REMARK    4  A    between atoms: C11_18  and  C12_19 
REMARK    5  A    between atoms: C12_19  and  C13_20 
REMARK    6  A    between atoms: C13_20  and  O2_22 
REMARK    7  A    between atoms: C13_20  and  C15_24 
REMARK    8  A    between atoms: C15_24  and  C18_27 
ROOT
HETATM    1  C3  UNL     1      15.898  22.577   1.857  1.00  0.00     0.034 A 
HETATM    2  N1  UNL     1      15.317  22.670   0.638  1.00  0.00    -0.338 N 
ATOM      3  H1  UNL     1      15.784  22.900  -0.239  1.00  0.00     0.168 HD
HETATM    4  C4  UNL     1      13.992  22.400   0.801  1.00  0.00     0.156 A 
HETATM    5  S1  UNL     1      12.485  22.242  -0.006  1.00  0.00    -0.046 SA
HETATM    6  C5  UNL     1      11.526  21.843   1.344  1.00  0.00     0.092 A 
HETATM    7  C10 UNL     1      12.442  21.853   2.364  1.00  0.00     0.124 A 
HETATM    8  N3  UNL     1      13.690  22.137   2.063  1.00  0.00    -0.303 N 
HETATM    9  C11 UNL     1      14.893  22.243   2.737  1.00  0.00     0.043 A 
ENDROOT
BRANCH   9  10
HETATM   10  C12 UNL     1      15.143  21.972   4.169  1.00  0.00     0.098 C 
BRANCH  10  11
HETATM   11  C13 UNL     1      15.063  20.540   4.584  1.00  0.00     0.075 C 
HETATM   12  C14 UNL     1      13.747  20.262   5.273  1.00  0.00     0.047 C 
BRANCH  11  13
HETATM   13  O2  UNL     1      15.045  19.702   3.448  1.00  0.00    -0.389 OA
ATOM     14  H2  UNL     1      14.274  19.148   3.460  1.00  0.00     0.210 HD
ENDBRANCH  11  13
BRANCH  11  15
HETATM   15  C15 UNL     1      16.272  20.235   5.422  1.00  0.00     0.081 C 
HETATM   16  C16 UNL     1      17.544  20.540   4.677  1.00  0.00     0.027 C 
HETATM   17  C17 UNL     1      16.303  21.215   6.632  1.00  0.00     0.027 C 
BRANCH  15  18
HETATM   18  C18 UNL     1      16.344  18.885   6.022  1.00  0.00     0.397 C 
HETATM   19  F1  UNL     1      17.331  18.188   5.289  1.00  0.00    -0.170 F 
HETATM   20  F2  UNL     1      16.936  18.922   7.312  1.00  0.00    -0.170 F 
HETATM   21  F3  UNL     1      15.225  18.133   5.997  1.00  0.00    -0.170 F 
ENDBRANCH  15  18
ENDBRANCH  11  15
ENDBRANCH  10  11
ENDBRANCH   9  10
BRANCH   1  22
HETATM   22  C2  UNL     1      17.334  22.867   2.035  1.00  0.00     0.055 C 
HETATM   23  C1  UNL     1      17.816  23.841   0.941  1.00  0.00     0.011 C 
ENDBRANCH   1  22
BRANCH   6  24
HETATM   24  C6  UNL     1      10.090  21.498   1.401  1.00  0.00     0.260 C 
HETATM   25  O1  UNL     1       9.733  20.362   1.804  1.00  0.00    -0.267 OA
HETATM   26  N2  UNL     1       9.150  22.462   0.995  1.00  0.00    -0.352 N 
ATOM     27  H2  UNL     1       9.494  23.361   0.655  1.00  0.00     0.163 HD
BRANCH  26  28
HETATM   28  C7  UNL     1       7.704  22.243   1.033  1.00  0.00     0.084 A 
HETATM   29  C8  UNL     1       6.936  23.300   0.202  1.00  0.00     0.027 A 
HETATM   30  C9  UNL     1       6.848  23.226   1.703  1.00  0.00     0.027 A 
ENDBRANCH  26  28
ENDBRANCH   6  24
TORSDOF 8
ENDMDL
MODEL 2
REMARK VINA RESULT: -8.222682901      0.943      1.084
REMARK  8 active torsions:
REMARK  status: ('A' for Active; 'I' for Inactive)
REMARK    1  A    between atoms: C2_2  and  C3_3 
REMARK    2  A    between atoms: C5_8  and  C6_9 
REMARK       I    between atoms: C6_9  and  N2_11 
REMARK    3  A    between atoms: N2_11  and  C7_13 
REMARK    4  A    between atoms: C11_18  and  C12_19 
REMARK    5  A    between atoms: C12_19  and  C13_20 
REMARK    6  A    between atoms: C13_20  and  O2_22 
REMARK    7  A    between atoms: C13_20  and  C15_24 
REMARK    8  A    between atoms: C15_24  and  C18_27 
ROOT
HETATM    1  C3  UNL     1      16.086  22.580   1.879  1.00  0.00     0.034 A 
HETATM    2  N1  UNL     1      15.543  22.698   0.644  1.00  0.00    -0.338 N 
ATOM      3  H1  UNL     1      16.040  22.929  -0.216  1.00  0.00     0.168 HD
HETATM    4  C4  UNL     1      14.209  22.450   0.764  1.00  0.00     0.156 A 
HETATM    5  S1  UNL     1      12.724  22.329  -0.089  1.00  0.00    -0.046 SA
HETATM    6  C5  UNL     1      11.718  21.933   1.227  1.00  0.00     0.092 A 
HETATM    7  C10 UNL     1      12.603  21.914   2.274  1.00  0.00     0.124 A 
HETATM    8  N3  UNL     1      13.865  22.178   2.013  1.00  0.00    -0.303 N 
HETATM    9  C11 UNL     1      15.049  22.255   2.724  1.00  0.00     0.043 A 
ENDROOT
BRANCH   9  10
HETATM   10  C12 UNL     1      15.250  21.964   4.159  1.00  0.00     0.098 C 
BRANCH  10  11
HETATM   11  C13 UNL     1      15.125  20.530   4.556  1.00  0.00     0.075 C 
HETATM   12  C14 UNL     1      13.774  20.270   5.183  1.00  0.00     0.047 C 
BRANCH  11  13
HETATM   13  O2  UNL     1      15.143  19.702   3.412  1.00  0.00    -0.389 OA
ATOM     14  H2  UNL     1      14.646  20.103   2.709  1.00  0.00     0.210 HD
ENDBRANCH  11  13
BRANCH  11  15
HETATM   15  C15 UNL     1      16.289  20.194   5.445  1.00  0.00     0.081 C 
HETATM   16  C16 UNL     1      17.599  20.465   4.755  1.00  0.00     0.027 C 
HETATM   17  C17 UNL     1      16.294  21.174   6.656  1.00  0.00     0.027 C 
BRANCH  15  18
HETATM   18  C18 UNL     1      16.300  18.842   6.047  1.00  0.00     0.397 C 
HETATM   19  F1  UNL     1      17.221  18.088   5.286  1.00  0.00    -0.170 F 
HETATM   20  F2  UNL     1      16.933  18.847   7.318  1.00  0.00    -0.170 F 
HETATM   21  F3  UNL     1      15.139  18.158   6.059  1.00  0.00    -0.170 F 
ENDBRANCH  15  18
ENDBRANCH  11  15
ENDBRANCH  10  11
ENDBRANCH   9  10
BRANCH   1  22
HETATM   22  C2  UNL     1      17.520  22.841   2.103  1.00  0.00     0.055 C 
HETATM   23  C1  UNL     1      18.059  23.797   1.020  1.00  0.00     0.011 C 
ENDBRANCH   1  22
BRANCH   6  24
HETATM   24  C6  UNL     1      10.275  21.613   1.236  1.00  0.00     0.260 C 
HETATM   25  O1  UNL     1       9.559  21.975   2.203  1.00  0.00    -0.267 OA
HETATM   26  N2  UNL     1       9.737  20.903   0.147  1.00  0.00    -0.352 N 
ATOM     27  H2  UNL     1      10.366  20.615  -0.602  1.00  0.00     0.163 HD
BRANCH  26  28
HETATM   28  C7  UNL     1       8.319  20.556   0.035  1.00  0.00     0.084 A 
HETATM   29  C8  UNL     1       7.883  20.376  -1.440  1.00  0.00     0.027 A 
HETATM   30  C9  UNL     1       7.395  21.511  -0.581  1.00  0.00     0.027 A 
ENDBRANCH  26  28
ENDBRANCH   6  24
TORSDOF 8
ENDMDL
MODEL 3
REMARK VINA RESULT: -7.952633986      3.454      5.049
REMARK  8 active torsions:
REMARK  status: ('A' for Active; 'I' for Inactive)
REMARK    1  A    between atoms: C2_2  and  C3_3 
REMARK    2  A    between atoms: C5_8  and  C6_9 
REMARK       I    between atoms: C6_9  and  N2_11 
REMARK    3  A    between atoms: N2_11  and  C7_13 
REMARK    4  A    between atoms: C11_18  and  C12_19 
REMARK    5  A    between atoms: C12_19  and  C13_20 
REMARK    6  A    between atoms: C13_20  and  O2_22 
REMARK    7  A    between atoms: C13_20  and  C15_24 
REMARK    8  A    between atoms: C15_24  and  C18_27 
ROOT
HETATM    1  C3  UNL     1      10.764  19.503   3.225  1.00  0.00     0.034 A 
HETATM    2  N1  UNL     1       9.848  19.451   2.230  1.00  0.00    -0.338 N 
ATOM      3  H1  UNL     1       9.184  18.696   2.056  1.00  0.00     0.168 HD
HETATM    4  C4  UNL     1       9.977  20.596   1.503  1.00  0.00     0.156 A 
HETATM    5  S1  UNL     1       9.368  21.481   0.164  1.00  0.00    -0.046 SA
HETATM    6  C5  UNL     1      10.390  22.838   0.284  1.00  0.00     0.092 A 
HETATM    7  C10 UNL     1      11.159  22.527   1.375  1.00  0.00     0.124 A 
HETATM    8  N3  UNL     1      10.929  21.383   1.980  1.00  0.00    -0.303 N 
HETATM    9  C11 UNL     1      11.430  20.698   3.073  1.00  0.00     0.043 A 
ENDROOT
BRANCH   9  10
HETATM   10  C12 UNL     1      12.464  21.163   4.021  1.00  0.00     0.098 C 
BRANCH  10  11
HETATM   11  C13 UNL     1      13.830  20.594   3.824  1.00  0.00     0.075 C 
HETATM   12  C14 UNL     1      14.139  19.575   4.896  1.00  0.00     0.047 C 
BRANCH  11  13
HETATM   13  O2  UNL     1      13.885  19.861   2.619  1.00  0.00    -0.389 OA
ATOM     14  H2  UNL     1      14.721  19.998   2.189  1.00  0.00     0.210 HD
ENDBRANCH  11  13
BRANCH  11  15
HETATM   15  C15 UNL     1      14.802  21.739   3.767  1.00  0.00     0.081 C 
HETATM   16  C16 UNL     1      14.316  22.909   4.581  1.00  0.00     0.027 C 
HETATM   17  C17 UNL     1      16.121  21.312   4.478  1.00  0.00     0.027 C 
BRANCH  15  18
HETATM   18  C18 UNL     1      15.221  22.192   2.423  1.00  0.00     0.397 C 
HETATM   19  F1  UNL     1      15.439  23.584   2.535  1.00  0.00    -0.170 F 
HETATM   20  F2  UNL     1      16.527  21.735   2.106  1.00  0.00    -0.170 F 
HETATM   21  F3  UNL     1      14.356  22.005   1.406  1.00  0.00    -0.170 F 
ENDBRANCH  15  18
ENDBRANCH  11  15
ENDBRANCH  10  11
ENDBRANCH   9  10
BRANCH   1  22
HETATM   22  C2  UNL     1      10.921  18.379   4.168  1.00  0.00     0.055 C 
HETATM   23  C1  UNL     1      10.143  17.149   3.659  1.00  0.00     0.011 C 
ENDBRANCH   1  22
BRANCH   6  24
HETATM   24  C6  UNL     1      10.400  24.074  -0.528  1.00  0.00     0.260 C 
HETATM   25  O1  UNL     1       9.366  24.786  -0.600  1.00  0.00    -0.267 OA
HETATM   26  N2  UNL     1      11.582  24.423  -1.206  1.00  0.00    -0.352 N 
ATOM     27  H2  UNL     1      12.386  23.799  -1.131  1.00  0.00     0.163 HD
BRANCH  26  28
HETATM   28  C7  UNL     1      11.718  25.635  -2.015  1.00  0.00     0.084 A 
HETATM   29  C8  UNL     1      11.813  25.313  -3.527  1.00  0.00     0.027 A 
HETATM   30  C9  UNL     1      12.967  25.875  -2.741  1.00  0.00     0.027 A 
ENDBRANCH  26  28
ENDBRANCH   6  24
TORSDOF 8
ENDMDL
MODEL 4
REMARK VINA RESULT: -7.724283390      3.261      4.892
REMARK  8 active torsions:
REMARK  status: ('A' for Active; 'I' for Inactive)
REMARK    1  A    between atoms: C2_2  and  C3_3 
REMARK    2  A    between atoms: C5_8  and  C6_9 
REMARK       I    between atoms: C6_9  and  N2_11 
REMARK    3  A    between atoms: N2_11  and  C7_13 
REMARK    4  A    between atoms: C11_18  and  C12_19 
REMARK    5  A    between atoms: C12_19  and  C13_20 
REMARK    6  A    between atoms: C13_20  and  O2_22 
REMARK    7  A    between atoms: C13_20  and  C15_24 
REMARK    8  A    between atoms: C15_24  and  C18_27 
ROOT
HETATM    1  C3  UNL     1      10.702  19.544   2.013  1.00  0.00     0.034 A 
HETATM    2  N1  UNL     1       9.575  19.991   1.412  1.00  0.00    -0.338 N 
ATOM      3  H1  UNL     1       8.652  19.557   1.457  1.00  0.00     0.168 HD
HETATM    4  C4  UNL     1       9.901  21.128   0.736  1.00  0.00     0.156 A 
HETATM    5  S1  UNL     1       9.293  22.390  -0.258  1.00  0.00    -0.046 SA
HETATM    6  C5  UNL     1      10.743  23.262  -0.456  1.00  0.00     0.092 A 
HETATM    7  C10 UNL     1      11.633  22.516   0.271  1.00  0.00     0.124 A 
HETATM    8  N3  UNL     1      11.181  21.436   0.870  1.00  0.00    -0.303 N 
HETATM    9  C11 UNL     1      11.694  20.440   1.681  1.00  0.00     0.043 A 
ENDROOT
BRANCH   9  10
HETATM   10  C12 UNL     1      13.070  20.340   2.212  1.00  0.00     0.098 C 
BRANCH  10  11
HETATM   11  C13 UNL     1      13.267  20.841   3.605  1.00  0.00     0.075 C 
HETATM   12  C14 UNL     1      12.109  21.718   4.022  1.00  0.00     0.047 C 
BRANCH  11  13
HETATM   13  O2  UNL     1      13.237  19.766   4.520  1.00  0.00    -0.389 OA
ATOM     14  H2  UNL     1      13.719  19.025   4.173  1.00  0.00     0.210 HD
ENDBRANCH  11  13
BRANCH  11  15
HETATM   15  C15 UNL     1      14.606  21.522   3.665  1.00  0.00     0.081 C 
HETATM   16  C16 UNL     1      15.079  21.915   2.291  1.00  0.00     0.027 C 
HETATM   17  C17 UNL     1      14.443  22.882   4.407  1.00  0.00     0.027 C 
BRANCH  15  18
HETATM   18  C18 UNL     1      15.682  20.816   4.393  1.00  0.00     0.397 C 
HETATM   19  F1  UNL     1      16.895  21.339   3.892  1.00  0.00    -0.170 F 
HETATM   20  F2  UNL     1      15.745  21.227   5.750  1.00  0.00    -0.170 F 
HETATM   21  F3  UNL     1      15.743  19.475   4.264  1.00  0.00    -0.170 F 
ENDBRANCH  15  18
ENDBRANCH  11  15
ENDBRANCH  10  11
ENDBRANCH   9  10
BRANCH   1  22
HETATM   22  C2  UNL     1      10.700  18.290   2.788  1.00  0.00     0.055 C 
HETATM   23  C1  UNL     1       9.940  18.489   4.115  1.00  0.00     0.011 C 
ENDBRANCH   1  22
BRANCH   6  24
HETATM   24  C6  UNL     1      10.975  24.538  -1.165  1.00  0.00     0.260 C 
HETATM   25  O1  UNL     1      10.859  25.628  -0.549  1.00  0.00    -0.267 OA
HETATM   26  N2  UNL     1      11.322  24.497  -2.528  1.00  0.00    -0.352 N 
ATOM     27  H2  UNL     1      11.382  23.587  -2.985  1.00  0.00     0.163 HD
BRANCH  26  28
HETATM   28  C7  UNL     1      11.602  25.693  -3.323  1.00  0.00     0.084 A 
HETATM   29  C8  UNL     1      12.240  25.342  -4.690  1.00  0.00     0.027 A 
HETATM   30  C9  UNL     1      12.993  26.058  -3.602  1.00  0.00     0.027 A 
ENDBRANCH  26  28
ENDBRANCH   6  24
TORSDOF 8
ENDMDL
MODEL 5
REMARK VINA RESULT: -7.658456682      3.486      5.134
REMARK  8 active torsions:
REMARK  status: ('A' for Active; 'I' for Inactive)
REMARK    1  A    between atoms: C2_2  and  C3_3 
REMARK    2  A    between atoms: C5_8  and  C6_9 
REMARK       I    between atoms: C6_9  and  N2_11 
REMARK    3  A    between atoms: N2_11  and  C7_13 
REMARK    4  A    between atoms: C11_18  and  C12_19 
REMARK    5  A    between atoms: C12_19  and  C13_20 
REMARK    6  A    between atoms: C13_20  and  O2_22 
REMARK    7  A    between atoms: C13_20  and  C15_24 
REMARK    8  A    between atoms: C15_24  and  C18_27 
ROOT
HETATM    1  C3  UNL     1      10.683  19.529   1.943  1.00  0.00     0.034 A 
HETATM    2  N1  UNL     1       9.604  19.926   1.229  1.00  0.00    -0.338 N 
ATOM      3  H1  UNL     1       8.706  19.446   1.173  1.00  0.00     0.168 HD
HETATM    4  C4  UNL     1       9.941  21.085   0.598  1.00  0.00     0.156 A 
HETATM    5  S1  UNL     1       9.378  22.327  -0.445  1.00  0.00    -0.046 SA
HETATM    6  C5  UNL     1      10.794  23.273  -0.483  1.00  0.00     0.092 A 
HETATM    7  C10 UNL     1      11.640  22.564   0.330  1.00  0.00     0.124 A 
HETATM    8  N3  UNL     1      11.182  21.456   0.871  1.00  0.00    -0.303 N 
HETATM    9  C11 UNL     1      11.658  20.477   1.725  1.00  0.00     0.043 A 
ENDROOT
BRANCH   9  10
HETATM   10  C12 UNL     1      12.973  20.440   2.399  1.00  0.00     0.098 C 
BRANCH  10  11
HETATM   11  C13 UNL     1      12.964  20.753   3.859  1.00  0.00     0.075 C 
HETATM   12  C14 UNL     1      11.764  21.600   4.212  1.00  0.00     0.047 C 
BRANCH  11  13
HETATM   13  O2  UNL     1      12.790  19.571   4.611  1.00  0.00    -0.389 OA
ATOM     14  H2  UNL     1      13.627  19.261   4.935  1.00  0.00     0.210 HD
ENDBRANCH  11  13
BRANCH  11  15
HETATM   15  C15 UNL     1      14.284  21.384   4.203  1.00  0.00     0.081 C 
HETATM   16  C16 UNL     1      15.359  20.344   4.372  1.00  0.00     0.027 C 
HETATM   17  C17 UNL     1      14.768  22.228   2.986  1.00  0.00     0.027 C 
BRANCH  15  18
HETATM   18  C18 UNL     1      14.297  22.321   5.347  1.00  0.00     0.397 C 
HETATM   19  F1  UNL     1      15.586  22.218   5.917  1.00  0.00    -0.170 F 
HETATM   20  F2  UNL     1      14.298  23.672   4.910  1.00  0.00    -0.170 F 
HETATM   21  F3  UNL     1      13.406  22.107   6.336  1.00  0.00    -0.170 F 
ENDBRANCH  15  18
ENDBRANCH  11  15
ENDBRANCH  10  11
ENDBRANCH   9  10
BRANCH   1  22
HETATM   22  C2  UNL     1      10.664  18.267   2.706  1.00  0.00     0.055 C 
HETATM   23  C1  UNL     1       9.613  18.345   3.832  1.00  0.00     0.011 C 
ENDBRANCH   1  22
BRANCH   6  24
HETATM   24  C6  UNL     1      11.034  24.568  -1.154  1.00  0.00     0.260 C 
HETATM   25  O1  UNL     1      10.881  25.642  -0.519  1.00  0.00    -0.267 OA
HETATM   26  N2  UNL     1      11.432  24.562  -2.504  1.00  0.00    -0.352 N 
ATOM     27  H2  UNL     1      11.521  23.663  -2.978  1.00  0.00     0.163 HD
BRANCH  26  28
HETATM   28  C7  UNL     1      11.724  25.779  -3.262  1.00  0.00     0.084 A 
HETATM   29  C8  UNL     1      12.464  25.472  -4.587  1.00  0.00     0.027 A 
HETATM   30  C9  UNL     1      13.117  26.195  -3.440  1.00  0.00     0.027 A 
ENDBRANCH  26  28
ENDBRANCH   6  24
TORSDOF 8
ENDMDL
