MODEL 1
REMARK VINA RESULT: -5.882754821      0.000      0.000
REMARK  4 active torsions:
REMARK  status: ('A' for Active; 'I' for Inactive)
REMARK    1  A    between atoms: C2_2  and  N1_3 
REMARK       I    between atoms: C3_5  and  N3_7 
REMARK    2  A    between atoms: N3_7  and  C4_9 
REMARK    3  A    between atoms: N4_14  and  C9_15 
REMARK    4  A    between atoms: C9_15  and  C10_16 
ROOT
HETATM    1  C4  UNL     1     122.212 108.347 -42.625  1.00  0.00     0.109 A 
HETATM    2  C5  UNL     1     120.934 108.737 -42.229  1.00  0.00     0.049 A 
HETATM    3  C6  UNL     1     119.810 108.441 -42.973  1.00  0.00     0.005 A 
HETATM    4  C7  UNL     1     119.957 107.736 -44.146  1.00  0.00     0.017 A 
HETATM    5  C8  UNL     1     121.234 107.364 -44.511  1.00  0.00     0.093 A 
HETATM    6  N4  UNL     1     122.337 107.662 -43.765  1.00  0.00    -0.339 N 
ENDROOT
BRANCH   1   7
HETATM    7  N3  UNL     1     123.272 108.732 -41.790  1.00  0.00    -0.316 N 
HETATM    8  C3  UNL     1     123.949 109.976 -41.913  1.00  0.00     0.193 C 
HETATM    9  N1  UNL     1     125.057 110.066 -42.558  1.00  0.00    -0.341 N 
HETATM   10  N2  UNL     1     123.422 111.154 -41.328  1.00  0.00    -0.063 NA
ATOM     11  H1  UNL     1     125.443 109.222 -42.982  1.00  0.00     0.167 HD
ATOM     12  H3  UNL     1     123.572 108.087 -41.058  1.00  0.00     0.170 HD
BRANCH   9  13
HETATM   13  C2  UNL     1     125.768 111.279 -42.708  1.00  0.00     0.080 C 
HETATM   14  C1  UNL     1     126.874 111.472 -42.027  1.00  0.00     0.030 C 
ENDBRANCH   9  13
ENDBRANCH   1   7
BRANCH   6  15
HETATM   15  C9  UNL     1     123.619 107.184 -44.237  1.00  0.00     0.168 C 
BRANCH  15  16
HETATM   16  C10 UNL     1     123.823 105.748 -43.945  1.00  0.00    -0.040 A 
HETATM   17  C11 UNL     1     123.972 104.839 -44.989  1.00  0.00     0.010 A 
HETATM   18  C12 UNL     1     124.170 103.500 -44.760  1.00  0.00     0.024 A 
HETATM   19  C13 UNL     1     124.223 103.044 -43.468  1.00  0.00     0.034 A 
HETATM   20 CL1  UNL     1     124.476 101.329 -43.181  1.00  0.00    -0.084 Cl
HETATM   21  C14 UNL     1     124.082 103.905 -42.403  1.00  0.00     0.024 A 
HETATM   22  C15 UNL     1     123.885 105.241 -42.680  1.00  0.00     0.010 A 
ENDBRANCH  15  16
ENDBRANCH   6  15
TORSDOF 4
ENDMDL
MODEL 2
REMARK VINA RESULT: -5.846600776      1.794      3.659
REMARK  4 active torsions:
REMARK  status: ('A' for Active; 'I' for Inactive)
REMARK    1  A    between atoms: C2_2  and  N1_3 
REMARK       I    between atoms: C3_5  and  N3_7 
REMARK    2  A    between atoms: N3_7  and  C4_9 
REMARK    3  A    between atoms: N4_14  and  C9_15 
REMARK    4  A    between atoms: C9_15  and  C10_16 
ROOT
HETATM    1  C4  UNL     1     123.329 108.111 -43.074  1.00  0.00     0.109 A 
HETATM    2  C5  UNL     1     124.057 109.290 -42.933  1.00  0.00     0.049 A 
HETATM    3  C6  UNL     1     125.219 109.527 -43.639  1.00  0.00     0.005 A 
HETATM    4  C7  UNL     1     125.674 108.565 -44.512  1.00  0.00     0.017 A 
HETATM    5  C8  UNL     1     124.931 107.409 -44.629  1.00  0.00     0.093 A 
HETATM    6  N4  UNL     1     123.783 107.188 -43.926  1.00  0.00    -0.339 N 
ENDROOT
BRANCH   1   7
HETATM    7  N3  UNL     1     122.177 107.986 -42.281  1.00  0.00    -0.316 N 
HETATM    8  C3  UNL     1     120.928 108.572 -42.623  1.00  0.00     0.193 C 
HETATM    9  N1  UNL     1     120.568 109.701 -42.123  1.00  0.00    -0.341 N 
HETATM   10  N2  UNL     1     120.044 107.931 -43.525  1.00  0.00    -0.063 NA
ATOM     11  H1  UNL     1     121.200 110.169 -41.473  1.00  0.00     0.167 HD
ATOM     12  H3  UNL     1     122.240 107.448 -41.417  1.00  0.00     0.170 HD
BRANCH   9  13
HETATM   13  C2  UNL     1     119.337 110.325 -42.431  1.00  0.00     0.080 C 
HETATM   14  C1  UNL     1     119.330 111.543 -42.919  1.00  0.00     0.030 C 
ENDBRANCH   9  13
ENDBRANCH   1   7
BRANCH   6  15
HETATM   15  C9  UNL     1     123.074 105.949 -44.166  1.00  0.00     0.168 C 
BRANCH  15  16
HETATM   16  C10 UNL     1     123.733 104.792 -43.521  1.00  0.00    -0.040 A 
HETATM   17  C11 UNL     1     124.161 103.714 -44.291  1.00  0.00     0.010 A 
HETATM   18  C12 UNL     1     124.783 102.626 -43.731  1.00  0.00     0.024 A 
HETATM   19  C13 UNL     1     124.989 102.598 -42.376  1.00  0.00     0.034 A 
HETATM   20 CL1  UNL     1     125.785 101.202 -41.665  1.00  0.00    -0.084 Cl
HETATM   21  C14 UNL     1     124.584 103.641 -41.573  1.00  0.00     0.024 A 
HETATM   22  C15 UNL     1     123.964 104.713 -42.178  1.00  0.00     0.010 A 
ENDBRANCH  15  16
ENDBRANCH   6  15
TORSDOF 4
ENDMDL
MODEL 3
REMARK VINA RESULT: -5.818729379      0.035      1.060
REMARK  4 active torsions:
REMARK  status: ('A' for Active; 'I' for Inactive)
REMARK    1  A    between atoms: C2_2  and  N1_3 
REMARK       I    between atoms: C3_5  and  N3_7 
REMARK    2  A    between atoms: N3_7  and  C4_9 
REMARK    3  A    between atoms: N4_14  and  C9_15 
REMARK    4  A    between atoms: C9_15  and  C10_16 
ROOT
HETATM    1  C4  UNL     1     122.229 108.338 -42.625  1.00  0.00     0.109 A 
HETATM    2  C5  UNL     1     120.947 108.712 -42.228  1.00  0.00     0.049 A 
HETATM    3  C6  UNL     1     119.827 108.411 -42.977  1.00  0.00     0.005 A 
HETATM    4  C7  UNL     1     119.984 107.717 -44.156  1.00  0.00     0.017 A 
HETATM    5  C8  UNL     1     121.265 107.361 -44.521  1.00  0.00     0.093 A 
HETATM    6  N4  UNL     1     122.364 107.665 -43.771  1.00  0.00    -0.339 N 
ENDROOT
BRANCH   1   7
HETATM    7  N3  UNL     1     123.284 108.727 -41.784  1.00  0.00    -0.316 N 
HETATM    8  C3  UNL     1     123.954 109.975 -41.901  1.00  0.00     0.193 C 
HETATM    9  N1  UNL     1     125.065 110.073 -42.542  1.00  0.00    -0.341 N 
HETATM   10  N2  UNL     1     123.418 111.148 -41.315  1.00  0.00    -0.063 NA
ATOM     11  H1  UNL     1     125.457 109.232 -42.967  1.00  0.00     0.167 HD
ATOM     12  H3  UNL     1     123.585 108.081 -41.054  1.00  0.00     0.170 HD
BRANCH   9  13
HETATM   13  C2  UNL     1     125.769 111.291 -42.685  1.00  0.00     0.080 C 
HETATM   14  C1  UNL     1     126.877 111.484 -42.008  1.00  0.00     0.030 C 
ENDBRANCH   9  13
ENDBRANCH   1   7
BRANCH   6  15
HETATM   15  C9  UNL     1     123.652 107.203 -44.244  1.00  0.00     0.168 C 
BRANCH  15  16
HETATM   16  C10 UNL     1     123.850 105.756 -44.007  1.00  0.00    -0.040 A 
HETATM   17  C11 UNL     1     123.885 105.261 -42.706  1.00  0.00     0.010 A 
HETATM   18  C12 UNL     1     124.060 103.925 -42.446  1.00  0.00     0.024 A 
HETATM   19  C13 UNL     1     124.205 103.053 -43.494  1.00  0.00     0.034 A 
HETATM   20 CL1  UNL     1     124.429 101.344 -43.153  1.00  0.00    -0.084 Cl
HETATM   21  C14 UNL     1     124.177 103.496 -44.797  1.00  0.00     0.024 A 
HETATM   22  C15 UNL     1     123.999 104.845 -45.012  1.00  0.00     0.010 A 
ENDBRANCH  15  16
ENDBRANCH   6  15
TORSDOF 4
ENDMDL
MODEL 4
REMARK VINA RESULT: -5.727028414      1.715      3.825
REMARK  4 active torsions:
REMARK  status: ('A' for Active; 'I' for Inactive)
REMARK    1  A    between atoms: C2_2  and  N1_3 
REMARK       I    between atoms: C3_5  and  N3_7 
REMARK    2  A    between atoms: N3_7  and  C4_9 
REMARK    3  A    between atoms: N4_14  and  C9_15 
REMARK    4  A    between atoms: C9_15  and  C10_16 
ROOT
HETATM    1  C4  UNL     1     123.255 108.367 -42.977  1.00  0.00     0.109 A 
HETATM    2  C5  UNL     1     124.002 109.530 -42.803  1.00  0.00     0.049 A 
HETATM    3  C6  UNL     1     125.183 109.755 -43.482  1.00  0.00     0.005 A 
HETATM    4  C7  UNL     1     125.637 108.797 -44.360  1.00  0.00     0.017 A 
HETATM    5  C8  UNL     1     124.875 107.657 -44.510  1.00  0.00     0.093 A 
HETATM    6  N4  UNL     1     123.709 107.448 -43.833  1.00  0.00    -0.339 N 
ENDROOT
BRANCH   1   7
HETATM    7  N3  UNL     1     122.085 108.253 -42.209  1.00  0.00    -0.316 N 
HETATM    8  C3  UNL     1     120.825 108.760 -42.629  1.00  0.00     0.193 C 
HETATM    9  N1  UNL     1     120.405 109.907 -42.225  1.00  0.00    -0.341 N 
HETATM   10  N2  UNL     1     119.995 108.018 -43.505  1.00  0.00    -0.063 NA
ATOM     11  H1  UNL     1     120.998 110.447 -41.594  1.00  0.00     0.167 HD
ATOM     12  H3  UNL     1     122.142 107.784 -41.305  1.00  0.00     0.170 HD
BRANCH   9  13
HETATM   13  C2  UNL     1     119.160 110.454 -42.613  1.00  0.00     0.080 C 
HETATM   14  C1  UNL     1     119.058 111.745 -42.830  1.00  0.00     0.030 C 
ENDBRANCH   9  13
ENDBRANCH   1   7
BRANCH   6  15
HETATM   15  C9  UNL     1     122.981 106.227 -44.106  1.00  0.00     0.168 C 
BRANCH  15  16
HETATM   16  C10 UNL     1     123.634 105.040 -43.510  1.00  0.00    -0.040 A 
HETATM   17  C11 UNL     1     123.892 105.000 -42.142  1.00  0.00     0.010 A 
HETATM   18  C12 UNL     1     124.489 103.915 -41.551  1.00  0.00     0.024 A 
HETATM   19  C13 UNL     1     124.843 102.841 -42.326  1.00  0.00     0.034 A 
HETATM   20 CL1  UNL     1     125.607 101.456 -41.563  1.00  0.00    -0.084 Cl
HETATM   21  C14 UNL     1     124.607 102.835 -43.682  1.00  0.00     0.024 A 
HETATM   22  C15 UNL     1     124.005 103.945 -44.234  1.00  0.00     0.010 A 
ENDBRANCH  15  16
ENDBRANCH   6  15
TORSDOF 4
ENDMDL
MODEL 5
REMARK VINA RESULT: -5.595168687      1.772      3.957
REMARK  4 active torsions:
REMARK  status: ('A' for Active; 'I' for Inactive)
REMARK    1  A    between atoms: C2_2  and  N1_3 
REMARK       I    between atoms: C3_5  and  N3_7 
REMARK    2  A    between atoms: N3_7  and  C4_9 
REMARK    3  A    between atoms: N4_14  and  C9_15 
REMARK    4  A    between atoms: C9_15  and  C10_16 
ROOT
HETATM    1  C4  UNL     1     122.681 108.618 -42.649  1.00  0.00     0.109 A 
HETATM    2  C5  UNL     1     123.188 109.841 -42.214  1.00  0.00     0.049 A 
HETATM    3  C6  UNL     1     124.403 110.331 -42.648  1.00  0.00     0.005 A 
HETATM    4  C7  UNL     1     125.138 109.586 -43.542  1.00  0.00     0.017 A 
HETATM    5  C8  UNL     1     124.610 108.381 -43.954  1.00  0.00     0.093 A 
HETATM    6  N4  UNL     1     123.406 107.908 -43.518  1.00  0.00    -0.339 N 
ENDROOT
BRANCH   1   7
HETATM    7  N3  UNL     1     121.444 108.225 -42.113  1.00  0.00    -0.316 N 
HETATM    8  C3  UNL     1     120.195 108.661 -42.634  1.00  0.00     0.193 C 
HETATM    9  N1  UNL     1     119.567 109.651 -42.106  1.00  0.00    -0.341 N 
HETATM   10  N2  UNL     1     119.606 108.017 -43.750  1.00  0.00    -0.063 NA
ATOM     11  H1  UNL     1     119.986 110.120 -41.302  1.00  0.00     0.167 HD
ATOM     12  H3  UNL     1     121.442 107.596 -41.310  1.00  0.00     0.170 HD
BRANCH   9  13
HETATM   13  C2  UNL     1     118.323 110.121 -42.587  1.00  0.00     0.080 C 
HETATM   14  C1  UNL     1     117.582 110.891 -41.825  1.00  0.00     0.030 C 
ENDBRANCH   9  13
ENDBRANCH   1   7
BRANCH   6  15
HETATM   15  C9  UNL     1     122.943 106.646 -44.054  1.00  0.00     0.168 C 
BRANCH  15  16
HETATM   16  C10 UNL     1     123.545 105.487 -43.358  1.00  0.00    -0.040 A 
HETATM   17  C11 UNL     1     123.867 104.336 -44.071  1.00  0.00     0.010 A 
HETATM   18  C12 UNL     1     124.433 103.243 -43.463  1.00  0.00     0.024 A 
HETATM   19  C13 UNL     1     124.688 103.285 -42.117  1.00  0.00     0.034 A 
HETATM   20 CL1  UNL     1     125.413 101.882 -41.345  1.00  0.00    -0.084 Cl
HETATM   21  C14 UNL     1     124.388 104.401 -41.370  1.00  0.00     0.024 A 
HETATM   22  C15 UNL     1     123.821 105.475 -42.021  1.00  0.00     0.010 A 
ENDBRANCH  15  16
ENDBRANCH   6  15
TORSDOF 4
ENDMDL
