MODEL 1
REMARK VINA RESULT: -6.938085551      0.000      0.000
REMARK  2 active torsions:
REMARK  status: ('A' for Active; 'I' for Inactive)
REMARK       I    between atoms: N3_4  and  C2_6 
REMARK       I    between atoms: C2_6  and  N4_7 
REMARK    1  A    between atoms: N5_15  and  C8_17 
REMARK    2  A    between atoms: C8_17  and  C9_18 
ROOT
HETATM    1  N1  UNL     1     124.254 101.748 -47.149  1.00  0.00    -0.066 NA
HETATM    2  C1  UNL     1     123.353 100.999 -46.374  1.00  0.00     0.215 C 
HETATM    3  N2  UNL     1     122.755  99.813 -46.861  1.00  0.00    -0.066 NA
HETATM    4  N3  UNL     1     123.068 101.418 -45.173  1.00  0.00    -0.166 N 
ATOM      5  H3  UNL     1     122.415 100.879 -44.604  1.00  0.00     0.186 HD
HETATM    6  C2  UNL     1     123.633 102.592 -44.635  1.00  0.00     0.680 C 
HETATM    7  N4  UNL     1     123.970 102.658 -43.276  1.00  0.00    -0.199 N 
ATOM      8  H4  UNL     1     123.263 103.049 -42.652  1.00  0.00     0.183 HD
HETATM    9  C3  UNL     1     125.049 102.290 -42.738  1.00  0.00     0.007 C 
HETATM   10  C4  UNL     1     125.380 102.369 -41.311  1.00  0.00     0.056 C 
HETATM   11  C5  UNL     1     126.008 100.994 -41.090  1.00  0.00     0.043 C 
HETATM   12  C6  UNL     1     126.711 100.691 -42.374  1.00  0.00     0.175 C 
HETATM   13  F1  UNL     1     128.069 100.814 -42.154  1.00  0.00    -0.249 F 
HETATM   14  C7  UNL     1     126.215 101.704 -43.401  1.00  0.00     0.090 C 
HETATM   15  N5  UNL     1     123.838 103.599 -45.387  1.00  0.00    -0.222 N 
ATOM     16  H5  UNL     1     123.592 103.547 -46.375  1.00  0.00     0.178 HD
ENDROOT
BRANCH  15  17
HETATM   17  C8  UNL     1     124.408 104.796 -44.867  1.00  0.00     0.176 C 
BRANCH  17  18
HETATM   18  C9  UNL     1     123.398 105.830 -44.526  1.00  0.00    -0.040 A 
HETATM   19  C10 UNL     1     123.595 106.578 -43.389  1.00  0.00     0.009 A 
HETATM   20  C11 UNL     1     122.706 107.555 -43.006  1.00  0.00     0.001 A 
HETATM   21  C12 UNL     1     121.584 107.805 -43.768  1.00  0.00     0.000 A 
HETATM   22  C13 UNL     1     121.404 107.048 -44.900  1.00  0.00     0.001 A 
HETATM   23  C14 UNL     1     122.281 106.071 -45.295  1.00  0.00     0.009 A 
ENDBRANCH  17  18
ENDBRANCH  15  17
TORSDOF 2
ENDMDL
MODEL 2
REMARK VINA RESULT: -6.813067069      2.636      6.256
REMARK  2 active torsions:
REMARK  status: ('A' for Active; 'I' for Inactive)
REMARK       I    between atoms: N3_4  and  C2_6 
REMARK       I    between atoms: C2_6  and  N4_7 
REMARK    1  A    between atoms: N5_15  and  C8_17 
REMARK    2  A    between atoms: C8_17  and  C9_18 
ROOT
HETATM    1  N1  UNL     1     126.000 100.946 -43.721  1.00  0.00    -0.066 NA
HETATM    2  C1  UNL     1     124.916 101.107 -42.842  1.00  0.00     0.215 C 
HETATM    3  N2  UNL     1     125.021 100.803 -41.464  1.00  0.00    -0.066 NA
HETATM    4  N3  UNL     1     123.788 101.551 -43.319  1.00  0.00    -0.166 N 
ATOM      5  H3  UNL     1     122.997 101.672 -42.686  1.00  0.00     0.186 HD
HETATM    6  C2  UNL     1     123.624 101.870 -44.682  1.00  0.00     0.680 C 
HETATM    7  N4  UNL     1     122.829 102.959 -45.065  1.00  0.00    -0.199 N 
ATOM      8  H4  UNL     1     121.854 102.753 -45.286  1.00  0.00     0.183 HD
HETATM    9  C3  UNL     1     123.183 104.165 -45.168  1.00  0.00     0.007 C 
HETATM   10  C4  UNL     1     122.332 105.289 -45.571  1.00  0.00     0.056 C 
HETATM   11  C5  UNL     1     122.741 106.338 -44.539  1.00  0.00     0.043 C 
HETATM   12  C6  UNL     1     124.194 106.081 -44.296  1.00  0.00     0.175 C 
HETATM   13  F1  UNL     1     124.911 107.094 -44.900  1.00  0.00    -0.249 F 
HETATM   14  C7  UNL     1     124.512 104.723 -44.914  1.00  0.00     0.090 C 
HETATM   15  N5  UNL     1     124.202 101.166 -45.572  1.00  0.00    -0.222 N 
ATOM     16  H5  UNL     1     124.779 100.374 -45.290  1.00  0.00     0.178 HD
ENDROOT
BRANCH  15  17
HETATM   17  C8  UNL     1     124.052 101.468 -46.955  1.00  0.00     0.176 C 
BRANCH  17  18
HETATM   18  C9  UNL     1     123.430 100.369 -47.736  1.00  0.00    -0.040 A 
HETATM   19  C10 UNL     1     122.228 100.615 -48.357  1.00  0.00     0.009 A 
HETATM   20  C11 UNL     1     121.589  99.649 -49.099  1.00  0.00     0.001 A 
HETATM   21  C12 UNL     1     122.151  98.398 -49.233  1.00  0.00     0.000 A 
HETATM   22  C13 UNL     1     123.352  98.169 -48.606  1.00  0.00     0.001 A 
HETATM   23  C14 UNL     1     124.002  99.122 -47.864  1.00  0.00     0.009 A 
ENDBRANCH  17  18
ENDBRANCH  15  17
TORSDOF 2
ENDMDL
MODEL 3
REMARK VINA RESULT: -6.342722079      4.548      7.393
REMARK  2 active torsions:
REMARK  status: ('A' for Active; 'I' for Inactive)
REMARK       I    between atoms: N3_4  and  C2_6 
REMARK       I    between atoms: C2_6  and  N4_7 
REMARK    1  A    between atoms: N5_15  and  C8_17 
REMARK    2  A    between atoms: C8_17  and  C9_18 
ROOT
HETATM    1  N1  UNL     1     121.042  98.205 -48.215  1.00  0.00    -0.066 NA
HETATM    2  C1  UNL     1     122.070  97.751 -49.059  1.00  0.00     0.215 C 
HETATM    3  N2  UNL     1     122.105  96.423 -49.546  1.00  0.00    -0.066 NA
HETATM    4  N3  UNL     1     123.012  98.586 -49.396  1.00  0.00    -0.166 N 
ATOM      5  H3  UNL     1     123.761  98.264 -50.009  1.00  0.00     0.186 HD
HETATM    6  C2  UNL     1     123.030  99.919 -48.940  1.00  0.00     0.680 C 
HETATM    7  N4  UNL     1     123.477 100.950 -49.780  1.00  0.00    -0.199 N 
ATOM      8  H4  UNL     1     124.462 101.205 -49.699  1.00  0.00     0.183 HD
HETATM    9  C3  UNL     1     122.798 101.597 -50.623  1.00  0.00     0.007 C 
HETATM   10  C4  UNL     1     123.288 102.671 -51.492  1.00  0.00     0.056 C 
HETATM   11  C5  UNL     1     122.642 102.278 -52.820  1.00  0.00     0.043 C 
HETATM   12  C6  UNL     1     121.328 101.678 -52.436  1.00  0.00     0.175 C 
HETATM   13  F1  UNL     1     120.336 102.577 -52.771  1.00  0.00    -0.249 F 
HETATM   14  C7  UNL     1     121.377 101.431 -50.931  1.00  0.00     0.090 C 
HETATM   15  N5  UNL     1     122.638 100.192 -47.760  1.00  0.00    -0.222 N 
ATOM     16  H5  UNL     1     122.314  99.440 -47.152  1.00  0.00     0.178 HD
ENDROOT
BRANCH  15  17
HETATM   17  C8  UNL     1     122.647 101.531 -47.277  1.00  0.00     0.176 C 
BRANCH  17  18
HETATM   18  C9  UNL     1     123.329 101.683 -45.967  1.00  0.00    -0.040 A 
HETATM   19  C10 UNL     1     123.213 102.886 -45.312  1.00  0.00     0.009 A 
HETATM   20  C11 UNL     1     123.815 103.104 -44.094  1.00  0.00     0.001 A 
HETATM   21  C12 UNL     1     124.557 102.104 -43.502  1.00  0.00     0.000 A 
HETATM   22  C13 UNL     1     124.662 100.909 -44.171  1.00  0.00     0.001 A 
HETATM   23  C14 UNL     1     124.068 100.676 -45.385  1.00  0.00     0.009 A 
ENDBRANCH  17  18
ENDBRANCH  15  17
TORSDOF 2
ENDMDL
MODEL 4
REMARK VINA RESULT: -6.252612052      4.507      7.324
REMARK  2 active torsions:
REMARK  status: ('A' for Active; 'I' for Inactive)
REMARK       I    between atoms: N3_4  and  C2_6 
REMARK       I    between atoms: C2_6  and  N4_7 
REMARK    1  A    between atoms: N5_15  and  C8_17 
REMARK    2  A    between atoms: C8_17  and  C9_18 
ROOT
HETATM    1  N1  UNL     1     125.284 108.172 -45.309  1.00  0.00    -0.066 NA
HETATM    2  C1  UNL     1     125.103 109.454 -44.762  1.00  0.00     0.215 C 
HETATM    3  N2  UNL     1     125.652 110.609 -45.367  1.00  0.00    -0.066 NA
HETATM    4  N3  UNL     1     124.406 109.571 -43.667  1.00  0.00    -0.166 N 
ATOM      5  H3  UNL     1     124.269 110.498 -43.265  1.00  0.00     0.186 HD
HETATM    6  C2  UNL     1     123.835 108.457 -43.020  1.00  0.00     0.680 C 
HETATM    7  N4  UNL     1     122.581 108.561 -42.400  1.00  0.00    -0.199 N 
ATOM      8  H4  UNL     1     122.585 108.784 -41.404  1.00  0.00     0.183 HD
HETATM    9  C3  UNL     1     121.450 108.411 -42.936  1.00  0.00     0.007 C 
HETATM   10  C4  UNL     1     120.150 108.526 -42.267  1.00  0.00     0.056 C 
HETATM   11  C5  UNL     1     119.375 109.349 -43.295  1.00  0.00     0.043 C 
HETATM   12  C6  UNL     1     119.903 108.894 -44.617  1.00  0.00     0.175 C 
HETATM   13  F1  UNL     1     118.931 108.119 -45.218  1.00  0.00    -0.249 F 
HETATM   14  C7  UNL     1     121.168 108.089 -44.335  1.00  0.00     0.090 C 
HETATM   15  N5  UNL     1     124.460 107.347 -42.996  1.00  0.00    -0.222 N 
ATOM     16  H5  UNL     1     125.372 107.275 -43.447  1.00  0.00     0.178 HD
ENDROOT
BRANCH  15  17
HETATM   17  C8  UNL     1     123.904 106.208 -42.349  1.00  0.00     0.176 C 
BRANCH  17  18
HETATM   18  C9  UNL     1     123.742 105.038 -43.249  1.00  0.00    -0.040 A 
HETATM   19  C10 UNL     1     124.054 103.793 -42.756  1.00  0.00     0.009 A 
HETATM   20  C11 UNL     1     123.930 102.661 -43.527  1.00  0.00     0.001 A 
HETATM   21  C12 UNL     1     123.485 102.757 -44.828  1.00  0.00     0.000 A 
HETATM   22  C13 UNL     1     123.178 104.008 -45.304  1.00  0.00     0.001 A 
HETATM   23  C14 UNL     1     123.296 105.146 -44.548  1.00  0.00     0.009 A 
ENDBRANCH  17  18
ENDBRANCH  15  17
TORSDOF 2
ENDMDL
MODEL 5
REMARK VINA RESULT: -6.226676257      4.506      7.360
REMARK  2 active torsions:
REMARK  status: ('A' for Active; 'I' for Inactive)
REMARK       I    between atoms: N3_4  and  C2_6 
REMARK       I    between atoms: C2_6  and  N4_7 
REMARK    1  A    between atoms: N5_15  and  C8_17 
REMARK    2  A    between atoms: C8_17  and  C9_18 
ROOT
HETATM    1  N1  UNL     1     125.269 108.094 -45.327  1.00  0.00    -0.066 NA
HETATM    2  C1  UNL     1     125.117 109.388 -44.800  1.00  0.00     0.215 C 
HETATM    3  N2  UNL     1     125.680 110.522 -45.431  1.00  0.00    -0.066 NA
HETATM    4  N3  UNL     1     124.435 109.535 -43.700  1.00  0.00    -0.166 N 
ATOM      5  H3  UNL     1     124.319 110.471 -43.312  1.00  0.00     0.186 HD
HETATM    6  C2  UNL     1     123.852 108.442 -43.027  1.00  0.00     0.680 C 
HETATM    7  N4  UNL     1     122.607 108.580 -42.396  1.00  0.00    -0.199 N 
ATOM      8  H4  UNL     1     122.627 108.819 -41.404  1.00  0.00     0.183 HD
HETATM    9  C3  UNL     1     121.467 108.441 -42.916  1.00  0.00     0.007 C 
HETATM   10  C4  UNL     1     120.178 108.591 -42.235  1.00  0.00     0.056 C 
HETATM   11  C5  UNL     1     119.406 109.410 -43.268  1.00  0.00     0.043 C 
HETATM   12  C6  UNL     1     119.910 108.923 -44.588  1.00  0.00     0.175 C 
HETATM   13  F1  UNL     1     118.918 108.156 -45.165  1.00  0.00    -0.249 F 
HETATM   14  C7  UNL     1     121.164 108.101 -44.307  1.00  0.00     0.090 C 
HETATM   15  N5  UNL     1     124.457 107.323 -42.992  1.00  0.00    -0.222 N 
ATOM     16  H5  UNL     1     125.362 107.226 -43.452  1.00  0.00     0.178 HD
ENDROOT
BRANCH  15  17
HETATM   17  C8  UNL     1     123.889 106.204 -42.319  1.00  0.00     0.176 C 
BRANCH  17  18
HETATM   18  C9  UNL     1     123.755 105.002 -43.181  1.00  0.00    -0.040 A 
HETATM   19  C10 UNL     1     123.308 105.174 -44.469  1.00  0.00     0.009 A 
HETATM   20  C11 UNL     1     123.159 104.110 -45.328  1.00  0.00     0.001 A 
HETATM   21  C12 UNL     1     123.459 102.833 -44.904  1.00  0.00     0.000 A 
HETATM   22  C13 UNL     1     123.905 102.680 -43.614  1.00  0.00     0.001 A 
HETATM   23  C14 UNL     1     124.060 103.730 -42.746  1.00  0.00     0.009 A 
ENDBRANCH  17  18
ENDBRANCH  15  17
TORSDOF 2
ENDMDL
