MODEL 1
REMARK VINA RESULT: -7.117167653      0.000      0.000
REMARK  4 active torsions:
REMARK  status: ('A' for Active; 'I' for Inactive)
REMARK    1  A    between atoms: N1_2  and  C2_4 
REMARK    2  A    between atoms: C5_10  and  N3_11 
REMARK    3  A    between atoms: N3_11  and  C6_13 
REMARK    4  A    between atoms: C6_13  and  C7_14 
ROOT
HETATM    1  N3  UNL     1      91.521  95.402 -43.942  1.00  0.00    -0.375 N 
ATOM      2  H3  UNL     1      91.485  95.823 -43.014  1.00  0.00     0.161 HD
ENDROOT
BRANCH   1   3
HETATM    3  C5  UNL     1      91.558  94.123 -44.033  1.00  0.00     0.119 A 
HETATM    4  C4  UNL     1      91.404  93.504 -45.255  1.00  0.00     0.086 A 
HETATM    5  C3  UNL     1      91.442  92.121 -45.359  1.00  0.00     0.099 A 
HETATM    6  N2  UNL     1      91.635  91.422 -44.224  1.00  0.00    -0.185 N 
HETATM    7 BR1  UNL     1      91.228  91.296 -47.046  1.00  0.00    -0.031 Br
HETATM    8  C2  UNL     1      91.787  92.009 -43.027  1.00  0.00     0.680 A 
ATOM      9  H2  UNL     1      91.666  90.404 -44.276  1.00  0.00     0.185 HD
HETATM   10  N4  UNL     1      91.744  93.360 -42.963  1.00  0.00    -0.177 N 
ATOM     11  H4  UNL     1      91.858  93.811 -42.055  1.00  0.00     0.185 HD
BRANCH   8  12
HETATM   12  N1  UNL     1      91.969  91.355 -41.951  1.00  0.00    -0.230 N 
HETATM   13  C1  UNL     1      92.095  89.935 -41.853  1.00  0.00     0.165 C 
ATOM     14  H1  UNL     1      92.029  91.890 -41.085  1.00  0.00     0.177 HD
ENDBRANCH   8  12
ENDBRANCH   1   3
BRANCH   1  15
HETATM   15  C6  UNL     1      91.529  96.277 -45.099  1.00  0.00     0.128 C 
BRANCH  15  16
HETATM   16  C7  UNL     1      90.489  97.330 -44.867  1.00  0.00     0.035 C 
HETATM   17  C8  UNL     1      90.799  98.647 -45.553  1.00  0.00     0.033 C 
HETATM   18  C9  UNL     1      90.593  99.726 -44.474  1.00  0.00     0.058 C 
HETATM   19 BR2  UNL     1      90.215 101.426 -45.073  1.00  0.00    -0.081 Br
HETATM   20  C10 UNL     1      91.834  99.563 -43.588  1.00  0.00     0.072 C 
HETATM   21  C14 UNL     1      89.557  99.022 -43.629  1.00  0.00    -0.001 C 
HETATM   22  C11 UNL     1      91.960 100.658 -42.570  1.00  0.00     0.047 C 
HETATM   23  C12 UNL     1      93.090  99.683 -44.467  1.00  0.00     0.047 C 
HETATM   24  O1  UNL     1      91.681  98.302 -43.063  1.00  0.00    -0.373 OA
HETATM   25  C13 UNL     1      90.454  97.786 -43.400  1.00  0.00     0.137 C 
HETATM   26  C15 UNL     1      88.342  98.594 -44.392  1.00  0.00     0.019 C 
HETATM   27  C16 UNL     1      89.150  99.684 -42.384  1.00  0.00     0.019 C 
ENDBRANCH  15  16
ENDBRANCH   1  15
TORSDOF 4
ENDMDL
MODEL 2
REMARK VINA RESULT: -6.939170519      1.614      2.203
REMARK  4 active torsions:
REMARK  status: ('A' for Active; 'I' for Inactive)
REMARK    1  A    between atoms: N1_2  and  C2_4 
REMARK    2  A    between atoms: C5_10  and  N3_11 
REMARK    3  A    between atoms: N3_11  and  C6_13 
REMARK    4  A    between atoms: C6_13  and  C7_14 
ROOT
HETATM    1  N3  UNL     1      91.549  95.185 -44.078  1.00  0.00    -0.375 N 
ATOM      2  H3  UNL     1      91.252  95.545 -43.170  1.00  0.00     0.161 HD
ENDROOT
BRANCH   1   3
HETATM    3  C5  UNL     1      91.905  93.955 -44.161  1.00  0.00     0.119 A 
HETATM    4  C4  UNL     1      92.856  93.444 -43.304  1.00  0.00     0.086 A 
HETATM    5  C3  UNL     1      93.246  92.116 -43.389  1.00  0.00     0.099 A 
HETATM    6  N2  UNL     1      92.658  91.360 -44.338  1.00  0.00    -0.185 N 
HETATM    7 BR1  UNL     1      94.551  91.437 -42.203  1.00  0.00    -0.031 Br
HETATM    8  C2  UNL     1      91.732  91.842 -45.179  1.00  0.00     0.680 A 
ATOM      9  H2  UNL     1      92.930  90.380 -44.419  1.00  0.00     0.185 HD
HETATM   10  N4  UNL     1      91.376  93.143 -45.067  1.00  0.00    -0.177 N 
ATOM     11  H4  UNL     1      90.672  93.515 -45.705  1.00  0.00     0.185 HD
BRANCH   8  12
HETATM   12  N1  UNL     1      91.174  91.135 -46.077  1.00  0.00    -0.230 N 
HETATM   13  C1  UNL     1      90.799  91.588 -47.379  1.00  0.00     0.165 C 
ATOM     14  H1  UNL     1      90.977  90.160 -45.847  1.00  0.00     0.177 HD
ENDBRANCH   8  12
ENDBRANCH   1   3
BRANCH   1  15
HETATM   15  C6  UNL     1      91.547  96.087 -45.214  1.00  0.00     0.128 C 
BRANCH  15  16
HETATM   16  C7  UNL     1      90.489  97.116 -44.963  1.00  0.00     0.035 C 
HETATM   17  C8  UNL     1      90.784  98.456 -45.610  1.00  0.00     0.033 C 
HETATM   18  C9  UNL     1      90.551  99.502 -44.505  1.00  0.00     0.058 C 
HETATM   19 BR2  UNL     1      90.151 101.212 -45.061  1.00  0.00    -0.081 Br
HETATM   20  C10 UNL     1      91.787  99.335 -43.612  1.00  0.00     0.072 C 
HETATM   21  C14 UNL     1      89.519  98.760 -43.689  1.00  0.00    -0.001 C 
HETATM   22  C11 UNL     1      91.886 100.404 -42.563  1.00  0.00     0.047 C 
HETATM   23  C12 UNL     1      93.048  99.498 -44.475  1.00  0.00     0.047 C 
HETATM   24  O1  UNL     1      91.649  98.058 -43.123  1.00  0.00    -0.373 OA
HETATM   25  C13 UNL     1      90.433  97.532 -43.484  1.00  0.00     0.137 C 
HETATM   26  C15 UNL     1      88.318  98.333 -44.475  1.00  0.00     0.019 C 
HETATM   27  C16 UNL     1      89.090  99.380 -42.431  1.00  0.00     0.019 C 
ENDBRANCH  15  16
ENDBRANCH   1  15
TORSDOF 4
ENDMDL
MODEL 3
REMARK VINA RESULT: -6.590035953      1.157      2.332
REMARK  4 active torsions:
REMARK  status: ('A' for Active; 'I' for Inactive)
REMARK    1  A    between atoms: N1_2  and  C2_4 
REMARK    2  A    between atoms: C5_10  and  N3_11 
REMARK    3  A    between atoms: N3_11  and  C6_13 
REMARK    4  A    between atoms: C6_13  and  C7_14 
ROOT
HETATM    1  N3  UNL     1      91.265  95.534 -44.503  1.00  0.00    -0.375 N 
ATOM      2  H3  UNL     1      91.197  95.997 -45.410  1.00  0.00     0.161 HD
ENDROOT
BRANCH   1   3
HETATM    3  C5  UNL     1      91.356  94.255 -44.474  1.00  0.00     0.119 A 
HETATM    4  C4  UNL     1      91.222  93.518 -45.632  1.00  0.00     0.086 A 
HETATM    5  C3  UNL     1      91.319  92.135 -45.607  1.00  0.00     0.099 A 
HETATM    6  N2  UNL     1      91.548  91.554 -44.413  1.00  0.00    -0.185 N 
HETATM    7 BR1  UNL     1      91.131  91.147 -47.207  1.00  0.00    -0.031 Br
HETATM    8  C2  UNL     1      91.681  92.256 -43.278  1.00  0.00     0.680 A 
ATOM      9  H2  UNL     1      91.622  90.538 -44.371  1.00  0.00     0.185 HD
HETATM   10  N4  UNL     1      91.580  93.604 -43.340  1.00  0.00    -0.177 N 
ATOM     11  H4  UNL     1      91.680  94.143 -42.479  1.00  0.00     0.185 HD
BRANCH   8  12
HETATM   12  N1  UNL     1      91.897  91.713 -42.148  1.00  0.00    -0.230 N 
HETATM   13  C1  UNL     1      92.247  90.345 -41.935  1.00  0.00     0.165 C 
ATOM     14  H1  UNL     1      91.812  92.307 -41.323  1.00  0.00     0.177 HD
ENDBRANCH   8  12
ENDBRANCH   1   3
BRANCH   1  15
HETATM   15  C6  UNL     1      91.253  96.354 -43.306  1.00  0.00     0.128 C 
BRANCH  15  16
HETATM   16  C7  UNL     1      91.761  97.709 -43.690  1.00  0.00     0.035 C 
HETATM   17  C8  UNL     1      91.395  98.795 -42.696  1.00  0.00     0.033 C 
HETATM   18  C9  UNL     1      90.828  99.948 -43.544  1.00  0.00     0.058 C 
HETATM   19 BR2  UNL     1      90.914 101.633 -42.804  1.00  0.00    -0.081 Br
HETATM   20  C10 UNL     1      89.436  99.432 -43.932  1.00  0.00     0.072 C 
HETATM   21  C14 UNL     1      91.583  99.695 -44.826  1.00  0.00    -0.001 C 
HETATM   22  C11 UNL     1      88.600 100.484 -44.601  1.00  0.00     0.047 C 
HETATM   23  C12 UNL     1      88.669  99.061 -42.652  1.00  0.00     0.047 C 
HETATM   24  O1  UNL     1      89.715  98.335 -44.711  1.00  0.00    -0.373 OA
HETATM   25  C13 UNL     1      91.064  98.245 -44.951  1.00  0.00     0.137 C 
HETATM   26  C15 UNL     1      93.071  99.654 -44.655  1.00  0.00     0.019 C 
HETATM   27  C16 UNL     1      91.242 100.535 -45.980  1.00  0.00     0.019 C 
ENDBRANCH  15  16
ENDBRANCH   1  15
TORSDOF 4
ENDMDL
MODEL 4
REMARK VINA RESULT: -6.575257936      1.212      2.154
REMARK  4 active torsions:
REMARK  status: ('A' for Active; 'I' for Inactive)
REMARK    1  A    between atoms: N1_2  and  C2_4 
REMARK    2  A    between atoms: C5_10  and  N3_11 
REMARK    3  A    between atoms: N3_11  and  C6_13 
REMARK    4  A    between atoms: C6_13  and  C7_14 
ROOT
HETATM    1  N3  UNL     1      91.551  95.394 -45.116  1.00  0.00    -0.375 N 
ATOM      2  H3  UNL     1      92.427  95.828 -45.407  1.00  0.00     0.161 HD
ENDROOT
BRANCH   1   3
HETATM    3  C5  UNL     1      91.530  94.124 -44.930  1.00  0.00     0.119 A 
HETATM    4  C4  UNL     1      91.328  93.266 -45.991  1.00  0.00     0.086 A 
HETATM    5  C3  UNL     1      91.304  91.893 -45.797  1.00  0.00     0.099 A 
HETATM    6  N2  UNL     1      91.485  91.445 -44.539  1.00  0.00    -0.185 N 
HETATM    7 BR1  UNL     1      91.024  90.737 -47.266  1.00  0.00    -0.031 Br
HETATM    8  C2  UNL     1      91.684  92.265 -43.497  1.00  0.00     0.680 A 
ATOM      9  H2  UNL     1      91.471  90.438 -44.373  1.00  0.00     0.185 HD
HETATM   10  N4  UNL     1      91.701  93.600 -43.724  1.00  0.00    -0.177 N 
ATOM     11  H4  UNL     1      91.850  94.228 -42.934  1.00  0.00     0.185 HD
BRANCH   8  12
HETATM   12  N1  UNL     1      91.855  91.848 -42.308  1.00  0.00    -0.230 N 
HETATM   13  C1  UNL     1      92.220  90.517 -41.938  1.00  0.00     0.165 C 
ATOM     14  H1  UNL     1      91.720  92.522 -41.554  1.00  0.00     0.177 HD
ENDBRANCH   8  12
ENDBRANCH   1   3
BRANCH   1  15
HETATM   15  C6  UNL     1      90.387  96.239 -44.929  1.00  0.00     0.128 C 
BRANCH  15  16
HETATM   16  C7  UNL     1      90.824  97.424 -44.123  1.00  0.00     0.035 C 
HETATM   17  C8  UNL     1      89.804  98.546 -44.099  1.00  0.00     0.033 C 
HETATM   18  C9  UNL     1      90.597  99.825 -44.423  1.00  0.00     0.058 C 
HETATM   19 BR2  UNL     1      89.876 101.413 -43.831  1.00  0.00    -0.081 Br
HETATM   20  C10 UNL     1      90.848  99.697 -45.931  1.00  0.00     0.072 C 
HETATM   21  C14 UNL     1      91.946  99.411 -43.883  1.00  0.00    -0.001 C 
HETATM   22  C11 UNL     1      91.438 100.944 -46.522  1.00  0.00     0.047 C 
HETATM   23  C12 UNL     1      89.499  99.511 -46.644  1.00  0.00     0.047 C 
HETATM   24  O1  UNL     1      91.647  98.582 -46.021  1.00  0.00    -0.373 OA
HETATM   25  C13 UNL     1      92.014  98.150 -44.771  1.00  0.00     0.137 C 
HETATM   26  C15 UNL     1      91.918  98.982 -42.448  1.00  0.00     0.019 C 
HETATM   27  C16 UNL     1      93.064 100.336 -44.099  1.00  0.00     0.019 C 
ENDBRANCH  15  16
ENDBRANCH   1  15
TORSDOF 4
ENDMDL
MODEL 5
REMARK VINA RESULT: -6.557264627      1.158      2.519
REMARK  4 active torsions:
REMARK  status: ('A' for Active; 'I' for Inactive)
REMARK    1  A    between atoms: N1_2  and  C2_4 
REMARK    2  A    between atoms: C5_10  and  N3_11 
REMARK    3  A    between atoms: N3_11  and  C6_13 
REMARK    4  A    between atoms: C6_13  and  C7_14 
ROOT
HETATM    1  N3  UNL     1      91.668  95.482 -44.528  1.00  0.00    -0.375 N 
ATOM      2  H3  UNL     1      92.068  95.925 -45.356  1.00  0.00     0.161 HD
ENDROOT
BRANCH   1   3
HETATM    3  C5  UNL     1      91.628  94.200 -44.479  1.00  0.00     0.119 A 
HETATM    4  C4  UNL     1      91.428  93.462 -45.626  1.00  0.00     0.086 A 
HETATM    5  C3  UNL     1      91.383  92.077 -45.579  1.00  0.00     0.099 A 
HETATM    6  N2  UNL     1      91.542  91.496 -44.374  1.00  0.00    -0.185 N 
HETATM    7 BR1  UNL     1      91.108  91.087 -47.165  1.00  0.00    -0.031 Br
HETATM    8  C2  UNL     1      91.737  92.199 -43.248  1.00  0.00     0.680 A 
ATOM      9  H2  UNL     1      91.512  90.478 -44.315  1.00  0.00     0.185 HD
HETATM   10  N4  UNL     1      91.775  93.549 -43.332  1.00  0.00    -0.177 N 
ATOM     11  H4  UNL     1      91.923  94.089 -42.479  1.00  0.00     0.185 HD
BRANCH   8  12
HETATM   12  N1  UNL     1      91.887  91.656 -42.108  1.00  0.00    -0.230 N 
HETATM   13  C1  UNL     1      92.247  90.293 -41.876  1.00  0.00     0.165 C 
ATOM     14  H1  UNL     1      91.738  92.245 -41.288  1.00  0.00     0.177 HD
ENDBRANCH   8  12
ENDBRANCH   1   3
BRANCH   1  15
HETATM   15  C6  UNL     1      91.172  96.331 -43.462  1.00  0.00     0.128 C 
BRANCH  15  16
HETATM   16  C7  UNL     1      91.658  97.721 -43.737  1.00  0.00     0.035 C 
HETATM   17  C8  UNL     1      90.605  98.786 -43.502  1.00  0.00     0.033 C 
HETATM   18  C9  UNL     1      90.640  99.677 -44.756  1.00  0.00     0.058 C 
HETATM   19 BR2  UNL     1      90.025 101.402 -44.558  1.00  0.00    -0.081 Br
HETATM   20  C10 UNL     1      89.940  98.809 -45.810  1.00  0.00     0.072 C 
HETATM   21  C14 UNL     1      92.084  99.478 -45.150  1.00  0.00    -0.001 C 
HETATM   22  C11 UNL     1      89.670  99.557 -47.082  1.00  0.00     0.047 C 
HETATM   23  C12 UNL     1      88.556  98.403 -45.278  1.00  0.00     0.047 C 
HETATM   24  O1  UNL     1      90.787  97.734 -45.941  1.00  0.00    -0.373 OA
HETATM   25  C13 UNL     1      91.943  97.942 -45.231  1.00  0.00     0.137 C 
HETATM   26  C15 UNL     1      93.059  99.809 -44.062  1.00  0.00     0.019 C 
HETATM   27  C16 UNL     1      92.524 100.088 -46.409  1.00  0.00     0.019 C 
ENDBRANCH  15  16
ENDBRANCH   1  15
TORSDOF 4
ENDMDL
