MODEL 1
REMARK VINA RESULT: -6.001949708      0.000      0.000
REMARK  2 active torsions:
REMARK  status: ('A' for Active; 'I' for Inactive)
REMARK    1  A    between atoms: C2_2  and  C3_3 
REMARK    2  A    between atoms: C3_3  and  C4_4 
ROOT
HETATM    1  C4  UNL     1      90.682  97.677 -45.202  1.00  0.00     0.025 C 
HETATM    2  C5  UNL     1      89.922  98.470 -46.198  1.00  0.00     0.023 C 
HETATM    3  C6  UNL     1      90.024  99.894 -45.704  1.00  0.00     0.073 C 
HETATM    4  C7  UNL     1      90.956 100.594 -46.577  1.00  0.00     0.183 C 
HETATM    5  O1  UNL     1      91.343 100.091 -47.611  1.00  0.00    -0.293 OA
HETATM    6  C8  UNL     1      91.405 101.919 -46.164  1.00  0.00     0.230 C 
HETATM    7  F1  UNL     1      92.448 102.278 -47.009  1.00  0.00    -0.221 F 
HETATM    8 BR1  UNL     1      89.969 103.164 -46.610  1.00  0.00    -0.039 Br
HETATM    9  C9  UNL     1      91.776 101.976 -44.695  1.00  0.00     0.036 C 
HETATM   10  C10 UNL     1      90.935 103.080 -44.093  1.00  0.00     0.022 C 
HETATM   11  C11 UNL     1      93.176 102.579 -44.700  1.00  0.00     0.017 C 
HETATM   12  C12 UNL     1      93.554 103.352 -43.487  1.00  0.00     0.010 C 
HETATM   13  C13 UNL     1      93.867 102.594 -42.272  1.00  0.00     0.103 C 
HETATM   14  C14 UNL     1      92.859 101.642 -41.829  1.00  0.00     0.218 C 
HETATM   15  O2  UNL     1      92.903 101.422 -40.569  1.00  0.00    -0.274 OA
HETATM   16  N1  UNL     1      91.859 100.937 -42.560  1.00  0.00    -0.350 N 
ATOM     17  H1  UNL     1      91.112 100.559 -41.978  1.00  0.00     0.163 HD
HETATM   18  C15 UNL     1      91.703 100.655 -43.981  1.00  0.00     0.050 C 
HETATM   19  C16 UNL     1      93.011  99.917 -44.312  1.00  0.00     0.040 C 
HETATM   20  C17 UNL     1      90.484  99.880 -44.234  1.00  0.00     0.011 C 
HETATM   21  C18 UNL     1      89.327 100.551 -43.481  1.00  0.00     0.021 C 
HETATM   22  C19 UNL     1      88.638  99.419 -42.692  1.00  0.00     0.080 C 
HETATM   23  C20 UNL     1      88.811  98.430 -43.788  1.00  0.00     0.136 C 
HETATM   24  O3  UNL     1      87.866  97.893 -44.246  1.00  0.00    -0.297 OA
HETATM   25  C21 UNL     1      90.301  98.462 -43.953  1.00  0.00     0.034 C 
HETATM   26  C22 UNL     1      90.858  97.738 -42.836  1.00  0.00     0.025 C 
ENDROOT
BRANCH   1  27
HETATM   27  C3  UNL     1      90.675  96.248 -45.192  1.00  0.00    -0.022 C 
BRANCH  27  28
HETATM   28  C2  UNL     1      91.806  95.378 -45.331  1.00  0.00    -0.014 C 
HETATM   29  C1  UNL     1      91.970  94.240 -44.645  1.00  0.00     0.011 C 
ENDBRANCH  27  28
ENDBRANCH   1  27
TORSDOF 2
ENDMDL
MODEL 2
REMARK VINA RESULT: -5.926775724      3.059      5.674
REMARK  2 active torsions:
REMARK  status: ('A' for Active; 'I' for Inactive)
REMARK    1  A    between atoms: C2_2  and  C3_3 
REMARK    2  A    between atoms: C3_3  and  C4_4 
ROOT
HETATM    1  C4  UNL     1      90.892  97.568 -43.149  1.00  0.00     0.025 C 
HETATM    2  C5  UNL     1      90.368  98.866 -42.660  1.00  0.00     0.023 C 
HETATM    3  C6  UNL     1      89.655  99.458 -43.853  1.00  0.00     0.073 C 
HETATM    4  C7  UNL     1      88.224  99.341 -43.609  1.00  0.00     0.183 C 
HETATM    5  O1  UNL     1      87.799  99.018 -42.520  1.00  0.00    -0.293 OA
HETATM    6  C8  UNL     1      87.322  99.625 -44.721  1.00  0.00     0.230 C 
HETATM    7  F1  UNL     1      86.052  99.221 -44.330  1.00  0.00    -0.221 F 
HETATM    8 BR1  UNL     1      87.193 101.568 -44.857  1.00  0.00    -0.039 Br
HETATM    9  C9  UNL     1      87.780  98.989 -46.019  1.00  0.00     0.036 C 
HETATM   10  C10 UNL     1      87.893 100.116 -47.021  1.00  0.00     0.022 C 
HETATM   11  C11 UNL     1      86.552  98.226 -46.500  1.00  0.00     0.017 C 
HETATM   12  C12 UNL     1      86.432  98.053 -47.973  1.00  0.00     0.010 C 
HETATM   13  C13 UNL     1      87.312  97.070 -48.612  1.00  0.00     0.103 C 
HETATM   14  C14 UNL     1      88.737  97.217 -48.351  1.00  0.00     0.218 C 
HETATM   15  O2  UNL     1      89.465  96.736 -49.288  1.00  0.00    -0.274 OA
HETATM   16  N1  UNL     1      89.427  97.795 -47.247  1.00  0.00    -0.350 N 
ATOM     17  H1  UNL     1      90.402  98.022 -47.442  1.00  0.00     0.163 HD
HETATM   18  C15 UNL     1      89.003  98.123 -45.892  1.00  0.00     0.050 C 
HETATM   19  C16 UNL     1      88.512  96.764 -45.367  1.00  0.00     0.040 C 
HETATM   20  C17 UNL     1      90.104  98.713 -45.123  1.00  0.00     0.011 C 
HETATM   21  C18 UNL     1      90.752  99.807 -45.982  1.00  0.00     0.021 C 
HETATM   22  C19 UNL     1      92.267  99.513 -45.949  1.00  0.00     0.080 C 
HETATM   23  C20 UNL     1      92.246  99.103 -44.520  1.00  0.00     0.136 C 
HETATM   24  O3  UNL     1      92.931  99.662 -43.741  1.00  0.00    -0.297 OA
HETATM   25  C21 UNL     1      91.242  97.989 -44.571  1.00  0.00     0.034 C 
HETATM   26  C22 UNL     1      91.905  96.859 -45.174  1.00  0.00     0.025 C 
ENDROOT
BRANCH   1  27
HETATM   27  C3  UNL     1      91.798  96.770 -42.384  1.00  0.00    -0.022 C 
BRANCH  27  28
HETATM   28  C2  UNL     1      91.459  95.789 -41.395  1.00  0.00    -0.014 C 
HETATM   29  C1  UNL     1      91.800  94.496 -41.468  1.00  0.00     0.011 C 
ENDBRANCH  27  28
ENDBRANCH   1  27
TORSDOF 2
ENDMDL
MODEL 3
REMARK VINA RESULT: -5.659095774      2.473      4.343
REMARK  2 active torsions:
REMARK  status: ('A' for Active; 'I' for Inactive)
REMARK    1  A    between atoms: C2_2  and  C3_3 
REMARK    2  A    between atoms: C3_3  and  C4_4 
ROOT
HETATM    1  C4  UNL     1      91.236  98.186 -42.903  1.00  0.00     0.025 C 
HETATM    2  C5  UNL     1      92.442  99.046 -42.859  1.00  0.00     0.023 C 
HETATM    3  C6  UNL     1      91.969 100.388 -43.365  1.00  0.00     0.073 C 
HETATM    4  C7  UNL     1      91.883 101.282 -42.218  1.00  0.00     0.183 C 
HETATM    5  O1  UNL     1      92.348 100.966 -41.143  1.00  0.00    -0.293 OA
HETATM    6  C8  UNL     1      91.222 102.568 -42.409  1.00  0.00     0.230 C 
HETATM    7  F1  UNL     1      91.051 103.130 -41.151  1.00  0.00    -0.221 F 
HETATM    8 BR1  UNL     1      92.511 103.738 -43.293  1.00  0.00    -0.039 Br
HETATM    9  C9  UNL     1      89.929 102.446 -43.193  1.00  0.00     0.036 C 
HETATM   10  C10 UNL     1      90.066 103.377 -44.377  1.00  0.00     0.022 C 
HETATM   11  C11 UNL     1      88.907 103.159 -42.315  1.00  0.00     0.017 C 
HETATM   12  C12 UNL     1      87.760 103.781 -43.029  1.00  0.00     0.010 C 
HETATM   13  C13 UNL     1      86.718 102.886 -43.543  1.00  0.00     0.103 C 
HETATM   14  C14 UNL     1      87.169 101.799 -44.400  1.00  0.00     0.218 C 
HETATM   15  O2  UNL     1      86.266 101.406 -45.218  1.00  0.00    -0.274 OA
HETATM   16  N1  UNL     1      88.421 101.124 -44.467  1.00  0.00    -0.350 N 
ATOM     17  H1  UNL     1      88.565 100.604 -45.333  1.00  0.00     0.163 HD
HETATM   18  C15 UNL     1      89.536 101.035 -43.532  1.00  0.00     0.050 C 
HETATM   19  C16 UNL     1      88.860 100.465 -42.273  1.00  0.00     0.040 C 
HETATM   20  C17 UNL     1      90.615 100.204 -44.075  1.00  0.00     0.011 C 
HETATM   21  C18 UNL     1      90.890 100.661 -45.514  1.00  0.00     0.021 C 
HETATM   22  C19 UNL     1      90.878  99.373 -46.364  1.00  0.00     0.080 C 
HETATM   23  C20 UNL     1      91.558  98.568 -45.315  1.00  0.00     0.136 C 
HETATM   24  O3  UNL     1      92.575  98.024 -45.563  1.00  0.00    -0.297 OA
HETATM   25  C21 UNL     1      90.605  98.750 -44.171  1.00  0.00     0.034 C 
HETATM   26  C22 UNL     1      89.457  97.923 -44.452  1.00  0.00     0.025 C 
ENDROOT
BRANCH   1  27
HETATM   27  C3  UNL     1      91.291  96.775 -42.685  1.00  0.00    -0.022 C 
BRANCH  27  28
HETATM   28  C2  UNL     1      91.674  96.102 -41.479  1.00  0.00    -0.014 C 
HETATM   29  C1  UNL     1      92.021  94.810 -41.413  1.00  0.00     0.011 C 
ENDBRANCH  27  28
ENDBRANCH   1  27
TORSDOF 2
ENDMDL
MODEL 4
REMARK VINA RESULT: -5.615453156      2.688      5.105
REMARK  2 active torsions:
REMARK  status: ('A' for Active; 'I' for Inactive)
REMARK    1  A    between atoms: C2_2  and  C3_3 
REMARK    2  A    between atoms: C3_3  and  C4_4 
ROOT
HETATM    1  C4  UNL     1      90.564  97.680 -43.552  1.00  0.00     0.025 C 
HETATM    2  C5  UNL     1      89.651  98.545 -42.769  1.00  0.00     0.023 C 
HETATM    3  C6  UNL     1      89.183  99.590 -43.756  1.00  0.00     0.073 C 
HETATM    4  C7  UNL     1      87.804  99.276 -44.104  1.00  0.00     0.183 C 
HETATM    5  O1  UNL     1      87.176  98.443 -43.486  1.00  0.00    -0.293 OA
HETATM    6  C8  UNL     1      87.207  99.999 -45.221  1.00  0.00     0.230 C 
HETATM    7  F1  UNL     1      86.001  99.375 -45.514  1.00  0.00    -0.221 F 
HETATM    8 BR1  UNL     1      86.691 101.756 -44.543  1.00  0.00    -0.039 Br
HETATM    9  C9  UNL     1      88.137 100.098 -46.415  1.00  0.00     0.036 C 
HETATM   10  C10 UNL     1      88.269 101.573 -46.724  1.00  0.00     0.022 C 
HETATM   11  C11 UNL     1      87.292  99.581 -47.574  1.00  0.00     0.017 C 
HETATM   12  C12 UNL     1      87.627 100.129 -48.915  1.00  0.00     0.010 C 
HETATM   13  C13 UNL     1      88.846  99.635 -49.563  1.00  0.00     0.103 C 
HETATM   14  C14 UNL     1      90.072  99.732 -48.785  1.00  0.00     0.218 C 
HETATM   15  O2  UNL     1      91.120  99.809 -49.517  1.00  0.00    -0.274 OA
HETATM   16  N1  UNL     1      90.282  99.752 -47.376  1.00  0.00    -0.350 N 
ATOM     17  H1  UNL     1      91.197 100.109 -47.099  1.00  0.00     0.163 HD
HETATM   18  C15 UNL     1      89.437  99.360 -46.255  1.00  0.00     0.050 C 
HETATM   19  C16 UNL     1      89.135  97.886 -46.576  1.00  0.00     0.040 C 
HETATM   20  C17 UNL     1      90.121  99.578 -44.977  1.00  0.00     0.011 C 
HETATM   21  C18 UNL     1      90.722 100.991 -44.992  1.00  0.00     0.021 C 
HETATM   22  C19 UNL     1      92.193 100.817 -44.562  1.00  0.00     0.080 C 
HETATM   23  C20 UNL     1      91.869  99.770 -43.558  1.00  0.00     0.136 C 
HETATM   24  O3  UNL     1      92.168  99.930 -42.429  1.00  0.00    -0.297 OA
HETATM   25  C21 UNL     1      91.192  98.754 -44.431  1.00  0.00     0.034 C 
HETATM   26  C22 UNL     1      92.232  98.100 -45.188  1.00  0.00     0.025 C 
ENDROOT
BRANCH   1  27
HETATM   27  C3  UNL     1      91.377  96.674 -42.943  1.00  0.00    -0.022 C 
BRANCH  27  28
HETATM   28  C2  UNL     1      91.643  96.509 -41.544  1.00  0.00    -0.014 C 
HETATM   29  C1  UNL     1      92.115  95.383 -40.993  1.00  0.00     0.011 C 
ENDBRANCH  27  28
ENDBRANCH   1  27
TORSDOF 2
ENDMDL
MODEL 5
REMARK VINA RESULT: -5.583559377      2.808      5.272
REMARK  2 active torsions:
REMARK  status: ('A' for Active; 'I' for Inactive)
REMARK    1  A    between atoms: C2_2  and  C3_3 
REMARK    2  A    between atoms: C3_3  and  C4_4 
ROOT
HETATM    1  C4  UNL     1      86.890 100.551 -43.717  1.00  0.00     0.025 C 
HETATM    2  C5  UNL     1      87.490  99.859 -42.553  1.00  0.00     0.023 C 
HETATM    3  C6  UNL     1      88.783  99.283 -43.081  1.00  0.00     0.073 C 
HETATM    4  C7  UNL     1      89.872 100.090 -42.548  1.00  0.00     0.183 C 
HETATM    5  O1  UNL     1      89.675 100.906 -41.673  1.00  0.00    -0.293 OA
HETATM    6  C8  UNL     1      91.204  99.882 -43.104  1.00  0.00     0.230 C 
HETATM    7  F1  UNL     1      92.011 100.906 -42.625  1.00  0.00    -0.221 F 
HETATM    8 BR1  UNL     1      91.917  98.270 -42.264  1.00  0.00    -0.039 Br
HETATM    9  C9  UNL     1      91.195  99.782 -44.617  1.00  0.00     0.036 C 
HETATM   10  C10 UNL     1      91.847  98.460 -44.955  1.00  0.00     0.022 C 
HETATM   11  C11 UNL     1      92.243 100.800 -45.051  1.00  0.00     0.017 C 
HETATM   12  C12 UNL     1      92.934 100.511 -46.337  1.00  0.00     0.010 C 
HETATM   13  C13 UNL     1      92.181 100.734 -47.575  1.00  0.00     0.103 C 
HETATM   14  C14 UNL     1      90.888 100.072 -47.669  1.00  0.00     0.218 C 
HETATM   15  O2  UNL     1      90.535  99.844 -48.878  1.00  0.00    -0.274 OA
HETATM   16  N1  UNL     1      89.981  99.650 -46.655  1.00  0.00    -0.350 N 
ATOM     17  H1  UNL     1      89.293  98.968 -46.973  1.00  0.00     0.163 HD
HETATM   18  C15 UNL     1      89.850 100.010 -45.249  1.00  0.00     0.050 C 
HETATM   19  C16 UNL     1      89.664 101.535 -45.319  1.00  0.00     0.040 C 
HETATM   20  C17 UNL     1      88.739  99.288 -44.621  1.00  0.00     0.011 C 
HETATM   21  C18 UNL     1      88.860  97.805 -44.997  1.00  0.00     0.021 C 
HETATM   22  C19 UNL     1      87.466  97.397 -45.516  1.00  0.00     0.080 C 
HETATM   23  C20 UNL     1      86.751  98.221 -44.506  1.00  0.00     0.136 C 
HETATM   24  O3  UNL     1      85.983  97.710 -43.771  1.00  0.00    -0.297 OA
HETATM   25  C21 UNL     1      87.322  99.576 -44.805  1.00  0.00     0.034 C 
HETATM   26  C22 UNL     1      86.698 100.029 -46.025  1.00  0.00     0.025 C 
ENDROOT
BRANCH   1  27
HETATM   27  C3  UNL     1      85.559 101.073 -43.697  1.00  0.00    -0.022 C 
BRANCH  27  28
HETATM   28  C2  UNL     1      84.517 100.744 -42.769  1.00  0.00    -0.014 C 
HETATM   29  C1  UNL     1      84.127 101.536 -41.762  1.00  0.00     0.011 C 
ENDBRANCH  27  28
ENDBRANCH   1  27
TORSDOF 2
ENDMDL
