MODEL 1
REMARK VINA RESULT: -5.202714583      0.000      0.000
REMARK  4 active torsions:
REMARK  status: ('A' for Active; 'I' for Inactive)
REMARK    1  A    between atoms: C7_7  and  O1_8 
REMARK    2  A    between atoms: C9_12  and  O2_13 
REMARK    3  A    between atoms: O2_13  and  C10_14 
REMARK    4  A    between atoms: C10_14  and  N1_15 
ROOT
HETATM    1  C1  UNL     1      91.978  94.693 -42.211  1.00  0.00     0.020 C 
HETATM    2  C2  UNL     1      91.549  95.729 -42.867  1.00  0.00    -0.047 C 
HETATM    3  C3  UNL     1      91.391  97.065 -42.269  1.00  0.00    -0.056 C 
HETATM    4  C4  UNL     1      92.077  97.387 -41.197  1.00  0.00     0.020 C 
HETATM    5  C5  UNL     1      90.436  97.952 -42.983  1.00  0.00     0.029 C 
HETATM    6  C6  UNL     1      90.135  99.185 -42.224  1.00  0.00     0.043 C 
HETATM    7  C7  UNL     1      91.029 100.359 -42.513  1.00  0.00     0.141 C 
HETATM    8  C8  UNL     1      91.175 100.638 -43.971  1.00  0.00     0.081 C 
HETATM    9 BR1  UNL     1      89.514 101.234 -44.763  1.00  0.00    -0.079 Br
HETATM   10  C9  UNL     1      92.261 101.676 -44.157  1.00  0.00     0.215 C 
HETATM   11  C11 UNL     1      92.618 101.818 -45.607  1.00  0.00     0.157 C 
HETATM   12  O3  UNL     1      92.677 102.904 -46.114  1.00  0.00    -0.295 OA
HETATM   13  C12 UNL     1      92.892 100.588 -46.379  1.00  0.00     0.081 C 
HETATM   14  C13 UNL     1      91.664  99.691 -46.158  1.00  0.00     0.014 C 
HETATM   15  C14 UNL     1      91.628  99.393 -44.674  1.00  0.00     0.019 C 
HETATM   16  C15 UNL     1      90.803  98.171 -44.423  1.00  0.00    -0.030 C 
HETATM   17  C16 UNL     1      89.533  98.161 -45.271  1.00  0.00     0.016 C 
HETATM   18  C17 UNL     1      91.623  96.988 -44.894  1.00  0.00     0.030 C 
HETATM   19  C18 UNL     1      91.160  95.676 -44.320  1.00  0.00     0.091 C 
HETATM   20 BR2  UNL     1      92.133  94.266 -45.224  1.00  0.00    -0.086 Br
ENDROOT
BRANCH  10  21
HETATM   21  O2  UNL     1      93.424 101.227 -43.538  1.00  0.00    -0.350 OA
BRANCH  21  22
HETATM   22  C10 UNL     1      94.059 102.254 -42.877  1.00  0.00     0.397 C 
BRANCH  22  23
HETATM   23  N1  UNL     1      94.348 101.940 -41.496  1.00  0.00    -0.058 N 
ATOM     24  H13 UNL     1      94.251 100.941 -41.321  1.00  0.00     0.276 HD
ATOM     25  H12 UNL     1      95.343 102.048 -41.297  1.00  0.00     0.276 HD
ATOM     26  H11 UNL     1      93.784 102.482 -40.840  1.00  0.00     0.276 HD
ENDBRANCH  22  23
ENDBRANCH  21  22
ENDBRANCH  10  21
BRANCH   7  27
HETATM   27  O1  UNL     1      90.358 101.476 -41.957  1.00  0.00    -0.394 OA
ATOM     28  H1  UNL     1      91.030 102.139 -41.852  1.00  0.00     0.210 HD
ENDBRANCH   7  27
TORSDOF 4
ENDMDL
MODEL 2
REMARK VINA RESULT: -5.023499693      3.205      4.747
REMARK  4 active torsions:
REMARK  status: ('A' for Active; 'I' for Inactive)
REMARK    1  A    between atoms: C7_7  and  O1_8 
REMARK    2  A    between atoms: C9_12  and  O2_13 
REMARK    3  A    between atoms: O2_13  and  C10_14 
REMARK    4  A    between atoms: C10_14  and  N1_15 
ROOT
HETATM    1  C1  UNL     1      91.692  93.947 -43.943  1.00  0.00     0.020 C 
HETATM    2  C2  UNL     1      91.549  95.236 -43.874  1.00  0.00    -0.047 C 
HETATM    3  C3  UNL     1      91.007  96.057 -44.970  1.00  0.00    -0.056 C 
HETATM    4  C4  UNL     1      90.241  95.505 -45.882  1.00  0.00     0.020 C 
HETATM    5  C5  UNL     1      91.394  97.490 -44.917  1.00  0.00     0.029 C 
HETATM    6  C6  UNL     1      91.026  98.221 -46.149  1.00  0.00     0.043 C 
HETATM    7  C7  UNL     1      89.666  98.861 -46.142  1.00  0.00     0.141 C 
HETATM    8  C8  UNL     1      89.413  99.685 -44.925  1.00  0.00     0.081 C 
HETATM    9 BR1  UNL     1      90.557 101.243 -44.857  1.00  0.00    -0.079 Br
HETATM   10  C9  UNL     1      87.955 100.089 -44.909  1.00  0.00     0.215 C 
HETATM   11  C11 UNL     1      87.589 100.711 -43.593  1.00  0.00     0.157 C 
HETATM   12  O3  UNL     1      86.997 101.754 -43.559  1.00  0.00    -0.295 OA
HETATM   13  C12 UNL     1      87.979 100.001 -42.357  1.00  0.00     0.081 C 
HETATM   14  C13 UNL     1      89.489  99.752 -42.494  1.00  0.00     0.014 C 
HETATM   15  C14 UNL     1      89.656  98.853 -43.701  1.00  0.00     0.019 C 
HETATM   16  C15 UNL     1      90.980  98.163 -43.638  1.00  0.00    -0.030 C 
HETATM   17  C16 UNL     1      92.092  99.108 -43.188  1.00  0.00     0.016 C 
HETATM   18  C17 UNL     1      90.872  97.108 -42.556  1.00  0.00     0.030 C 
HETATM   19  C18 UNL     1      91.926  96.039 -42.658  1.00  0.00     0.091 C 
HETATM   20 BR2  UNL     1      91.804  94.944 -41.065  1.00  0.00    -0.086 Br
ENDROOT
BRANCH  10  21
HETATM   21  O2  UNL     1      87.170  98.943 -45.001  1.00  0.00    -0.350 OA
BRANCH  21  22
HETATM   22  C10 UNL     1      86.076  99.159 -45.809  1.00  0.00     0.397 C 
BRANCH  22  23
HETATM   23  N1  UNL     1      86.395  99.923 -46.994  1.00  0.00    -0.058 N 
ATOM     24  H13 UNL     1      85.558 100.104 -47.548  1.00  0.00     0.276 HD
ATOM     25  H12 UNL     1      86.645 100.883 -46.754  1.00  0.00     0.276 HD
ATOM     26  H11 UNL     1      87.122  99.488 -47.562  1.00  0.00     0.276 HD
ENDBRANCH  22  23
ENDBRANCH  21  22
ENDBRANCH  10  21
BRANCH   7  27
HETATM   27  O1  UNL     1      89.678  99.759 -47.237  1.00  0.00    -0.394 OA
ATOM     28  H1  UNL     1      88.802 100.127 -47.263  1.00  0.00     0.210 HD
ENDBRANCH   7  27
TORSDOF 4
ENDMDL
MODEL 3
REMARK VINA RESULT: -4.978618642      2.874      4.565
REMARK  4 active torsions:
REMARK  status: ('A' for Active; 'I' for Inactive)
REMARK    1  A    between atoms: C7_7  and  O1_8 
REMARK    2  A    between atoms: C9_12  and  O2_13 
REMARK    3  A    between atoms: O2_13  and  C10_14 
REMARK    4  A    between atoms: C10_14  and  N1_15 
ROOT
HETATM    1  C1  UNL     1      85.829  96.689 -45.769  1.00  0.00     0.020 C 
HETATM    2  C2  UNL     1      86.791  97.333 -45.180  1.00  0.00    -0.047 C 
HETATM    3  C3  UNL     1      88.199  97.262 -45.605  1.00  0.00    -0.056 C 
HETATM    4  C4  UNL     1      88.494  96.914 -46.836  1.00  0.00     0.020 C 
HETATM    5  C5  UNL     1      89.181  97.617 -44.548  1.00  0.00     0.029 C 
HETATM    6  C6  UNL     1      90.572  97.309 -44.943  1.00  0.00     0.043 C 
HETATM    7  C7  UNL     1      91.312  98.422 -45.633  1.00  0.00     0.141 C 
HETATM    8  C8  UNL     1      91.228  99.720 -44.905  1.00  0.00     0.081 C 
HETATM    9 BR1  UNL     1      92.151  99.659 -43.207  1.00  0.00    -0.079 Br
HETATM   10  C9  UNL     1      91.800 100.808 -45.788  1.00  0.00     0.215 C 
HETATM   11  C11 UNL     1      91.522 102.164 -45.211  1.00  0.00     0.157 C 
HETATM   12  O3  UNL     1      92.405 102.970 -45.102  1.00  0.00    -0.295 OA
HETATM   13  C12 UNL     1      90.140 102.469 -44.787  1.00  0.00     0.081 C 
HETATM   14  C13 UNL     1      89.750 101.329 -43.833  1.00  0.00     0.014 C 
HETATM   15  C14 UNL     1      89.788 100.062 -44.661  1.00  0.00     0.019 C 
HETATM   16  C15 UNL     1      88.974  98.999 -43.995  1.00  0.00    -0.030 C 
HETATM   17  C16 UNL     1      89.200  98.973 -42.485  1.00  0.00     0.016 C 
HETATM   18  C17 UNL     1      87.520  99.378 -44.187  1.00  0.00     0.030 C 
HETATM   19  C18 UNL     1      86.572  98.227 -43.989  1.00  0.00     0.091 C 
HETATM   20 BR2  UNL     1      84.772  98.941 -44.008  1.00  0.00    -0.086 Br
ENDROOT
BRANCH  10  21
HETATM   21  O2  UNL     1      91.137 100.789 -47.012  1.00  0.00    -0.350 OA
BRANCH  21  22
HETATM   22  C10 UNL     1      92.004 101.060 -48.047  1.00  0.00     0.397 C 
BRANCH  22  23
HETATM   23  N1  UNL     1      93.049 100.068 -48.177  1.00  0.00    -0.058 N 
ATOM     24  H13 UNL     1      93.942 100.433 -47.848  1.00  0.00     0.276 HD
ATOM     25  H12 UNL     1      92.920  99.312 -47.504  1.00  0.00     0.276 HD
ATOM     26  H11 UNL     1      93.131  99.702 -49.126  1.00  0.00     0.276 HD
ENDBRANCH  22  23
ENDBRANCH  21  22
ENDBRANCH  10  21
BRANCH   7  27
HETATM   27  O1  UNL     1      92.674  98.033 -45.600  1.00  0.00    -0.394 OA
ATOM     28  H1  UNL     1      92.872  97.756 -46.486  1.00  0.00     0.210 HD
ENDBRANCH   7  27
TORSDOF 4
ENDMDL
MODEL 4
REMARK VINA RESULT: -4.875194144      3.507      5.340
REMARK  4 active torsions:
REMARK  status: ('A' for Active; 'I' for Inactive)
REMARK    1  A    between atoms: C7_7  and  O1_8 
REMARK    2  A    between atoms: C9_12  and  O2_13 
REMARK    3  A    between atoms: O2_13  and  C10_14 
REMARK    4  A    between atoms: C10_14  and  N1_15 
ROOT
HETATM    1  C1  UNL     1      84.049  99.488 -44.784  1.00  0.00     0.020 C 
HETATM    2  C2  UNL     1      85.272  99.905 -44.647  1.00  0.00    -0.047 C 
HETATM    3  C3  UNL     1      86.320  99.141 -43.948  1.00  0.00    -0.056 C 
HETATM    4  C4  UNL     1      86.204  97.840 -43.819  1.00  0.00     0.020 C 
HETATM    5  C5  UNL     1      87.453  99.963 -43.451  1.00  0.00     0.029 C 
HETATM    6  C6  UNL     1      88.356  99.200 -42.562  1.00  0.00     0.043 C 
HETATM    7  C7  UNL     1      89.503  98.507 -43.243  1.00  0.00     0.141 C 
HETATM    8  C8  UNL     1      90.268  99.403 -44.157  1.00  0.00     0.081 C 
HETATM    9 BR1  UNL     1      91.198 100.797 -43.192  1.00  0.00    -0.079 Br
HETATM   10  C9  UNL     1      91.241  98.561 -44.955  1.00  0.00     0.215 C 
HETATM   11  C11 UNL     1      91.864  99.367 -46.057  1.00  0.00     0.157 C 
HETATM   12  O3  UNL     1      93.053  99.365 -46.213  1.00  0.00    -0.295 OA
HETATM   13  C12 UNL     1      90.970 100.155 -46.931  1.00  0.00     0.081 C 
HETATM   14  C13 UNL     1      90.124 101.013 -45.976  1.00  0.00     0.014 C 
HETATM   15  C14 UNL     1      89.326 100.037 -45.137  1.00  0.00     0.019 C 
HETATM   16  C15 UNL     1      88.144 100.732 -44.541  1.00  0.00    -0.030 C 
HETATM   17  C16 UNL     1      88.505 102.122 -44.022  1.00  0.00     0.016 C 
HETATM   18  C17 UNL     1      87.156 100.956 -45.668  1.00  0.00     0.030 C 
HETATM   19  C18 UNL     1      85.755 101.223 -45.189  1.00  0.00     0.091 C 
HETATM   20 BR2  UNL     1      84.700 101.744 -46.727  1.00  0.00    -0.086 Br
ENDROOT
BRANCH  10  21
HETATM   21  O2  UNL     1      90.538  97.548 -45.598  1.00  0.00    -0.350 OA
BRANCH  21  22
HETATM   22  C10 UNL     1      91.211  96.350 -45.514  1.00  0.00     0.397 C 
BRANCH  22  23
HETATM   23  N1  UNL     1      91.386  95.898 -44.151  1.00  0.00    -0.058 N 
ATOM     24  H13 UNL     1      91.038  96.592 -43.490  1.00  0.00     0.276 HD
ATOM     25  H12 UNL     1      90.751  95.130 -43.937  1.00  0.00     0.276 HD
ATOM     26  H11 UNL     1      92.351  95.644 -43.939  1.00  0.00     0.276 HD
ENDBRANCH  22  23
ENDBRANCH  21  22
ENDBRANCH  10  21
BRANCH   7  27
HETATM   27  O1  UNL     1      90.390  98.152 -42.197  1.00  0.00    -0.394 OA
ATOM     28  H1  UNL     1      89.893  98.282 -41.398  1.00  0.00     0.210 HD
ENDBRANCH   7  27
TORSDOF 4
ENDMDL
MODEL 5
REMARK VINA RESULT: -4.853439693      3.800      5.476
REMARK  4 active torsions:
REMARK  status: ('A' for Active; 'I' for Inactive)
REMARK    1  A    between atoms: C7_7  and  O1_8 
REMARK    2  A    between atoms: C9_12  and  O2_13 
REMARK    3  A    between atoms: O2_13  and  C10_14 
REMARK    4  A    between atoms: C10_14  and  N1_15 
ROOT
HETATM    1  C1  UNL     1      91.610  94.773 -44.171  1.00  0.00     0.020 C 
HETATM    2  C2  UNL     1      91.189  96.002 -44.208  1.00  0.00    -0.047 C 
HETATM    3  C3  UNL     1      90.314  96.532 -45.267  1.00  0.00    -0.056 C 
HETATM    4  C4  UNL     1      89.565  95.713 -45.968  1.00  0.00     0.020 C 
HETATM    5  C5  UNL     1      90.368  98.008 -45.430  1.00  0.00     0.029 C 
HETATM    6  C6  UNL     1      89.661  98.469 -46.644  1.00  0.00     0.043 C 
HETATM    7  C7  UNL     1      88.207  98.808 -46.459  1.00  0.00     0.141 C 
HETATM    8  C8  UNL     1      87.962  99.722 -45.306  1.00  0.00     0.081 C 
HETATM    9 BR1  UNL     1      88.718 101.478 -45.602  1.00  0.00    -0.079 Br
HETATM   10  C9  UNL     1      86.470  99.812 -45.071  1.00  0.00     0.215 C 
HETATM   11  C11 UNL     1      86.176 100.521 -43.781  1.00  0.00     0.157 C 
HETATM   12  O3  UNL     1      85.375 101.413 -43.747  1.00  0.00    -0.295 OA
HETATM   13  C12 UNL     1      86.901 100.085 -42.569  1.00  0.00     0.081 C 
HETATM   14  C13 UNL     1      88.389 100.138 -42.947  1.00  0.00     0.014 C 
HETATM   15  C14 UNL     1      88.571  99.135 -44.067  1.00  0.00     0.019 C 
HETATM   16  C15 UNL     1      90.012  98.750 -44.173  1.00  0.00    -0.030 C 
HETATM   17  C16 UNL     1      90.934  99.959 -44.026  1.00  0.00     0.016 C 
HETATM   18  C17 UNL     1      90.312  97.857 -42.987  1.00  0.00     0.030 C 
HETATM   19  C18 UNL     1      91.553  97.025 -43.166  1.00  0.00     0.091 C 
HETATM   20 BR2  UNL     1      91.928  96.159 -41.475  1.00  0.00    -0.086 Br
ENDROOT
BRANCH  10  21
HETATM   21  O2  UNL     1      85.962  98.527 -44.905  1.00  0.00    -0.350 OA
BRANCH  21  22
HETATM   22  C10 UNL     1      84.585  98.543 -44.864  1.00  0.00     0.397 C 
BRANCH  22  23
HETATM   23  N1  UNL     1      84.049  97.790 -43.752  1.00  0.00    -0.058 N 
ATOM     24  H13 UNL     1      83.344  98.330 -43.251  1.00  0.00     0.276 HD
ATOM     25  H12 UNL     1      83.465  97.020 -44.081  1.00  0.00     0.276 HD
ATOM     26  H11 UNL     1      84.772  97.453 -43.116  1.00  0.00     0.276 HD
ENDBRANCH  22  23
ENDBRANCH  21  22
ENDBRANCH  10  21
BRANCH   7  27
HETATM   27  O1  UNL     1      87.848  99.529 -47.624  1.00  0.00    -0.394 OA
ATOM     28  H1  UNL     1      88.280 100.370 -47.536  1.00  0.00     0.210 HD
ENDBRANCH   7  27
TORSDOF 4
ENDMDL
