MODEL 1
REMARK VINA RESULT: -6.544142542      0.000      0.000
REMARK  4 active torsions:
REMARK  status: ('A' for Active; 'I' for Inactive)
REMARK    1  A    between atoms: C2_2  and  C4_5 
REMARK    2  A    between atoms: C4_5  and  C5_7 
REMARK    3  A    between atoms: C5_7  and  N1_8 
REMARK    4  A    between atoms: N3_17  and  C10_18 
ROOT
HETATM    1  N1  UNL     1      91.745  95.316 -44.107  1.00  0.00    -0.255 NA
HETATM    2  C6  UNL     1      91.309  96.283 -43.081  1.00  0.00     0.119 C 
HETATM    3  C7  UNL     1      91.411  97.631 -43.754  1.00  0.00     0.126 C 
HETATM    4  C8  UNL     1      91.117  98.690 -42.800  1.00  0.00     0.233 C 
HETATM    5  O1  UNL     1      92.025  99.359 -42.258  1.00  0.00    -0.273 OA
HETATM    6  N2  UNL     1      89.762  98.966 -42.480  1.00  0.00    -0.279 N 
ATOM      7  H2  UNL     1      89.487  99.378 -41.589  1.00  0.00     0.173 HD
HETATM    8  C9  UNL     1      88.803  98.627 -43.493  1.00  0.00     0.326 C 
HETATM    9  O2  UNL     1      87.593  98.851 -43.259  1.00  0.00    -0.247 OA
HETATM   10  N3  UNL     1      89.198  98.055 -44.732  1.00  0.00    -0.310 N 
HETATM   11  C14 UNL     1      90.525  97.600 -44.974  1.00  0.00     0.182 C 
HETATM   12  S1  UNL     1      90.610  95.819 -45.395  1.00  0.00    -0.056 SA
ENDROOT
BRANCH   1  13
HETATM   13  C5  UNL     1      91.525  93.980 -43.667  1.00  0.00     0.120 C 
BRANCH  13  14
HETATM   14  C4  UNL     1      92.586  93.034 -44.124  1.00  0.00     0.090 C 
HETATM   15 BR2  UNL     1      91.779  91.744 -45.320  1.00  0.00    -0.088 Br
BRANCH  14  16
HETATM   16  C2  UNL     1      93.130  92.238 -42.953  1.00  0.00     0.025 C 
HETATM   17  C1  UNL     1      92.242  91.047 -42.689  1.00  0.00     0.028 C 
HETATM   18  C3  UNL     1      94.522  91.707 -43.251  1.00  0.00     0.028 C 
HETATM   19 BR1  UNL     1      93.135  93.394 -41.410  1.00  0.00    -0.085 Br
ENDBRANCH  14  16
ENDBRANCH  13  14
ENDBRANCH   1  13
BRANCH  10  20
HETATM   20  C10 UNL     1      88.194  97.948 -45.759  1.00  0.00     0.027 C 
HETATM   21  C11 UNL     1      87.488  99.294 -45.901  1.00  0.00     0.038 C 
HETATM   22  C12 UNL     1      88.796  97.627 -47.112  1.00  0.00     0.038 C 
HETATM   23  C13 UNL     1      87.136  96.911 -45.460  1.00  0.00     0.038 C 
ENDBRANCH  10  20
TORSDOF 4
ENDMDL
MODEL 2
REMARK VINA RESULT: -6.528207304      0.739      1.004
REMARK  4 active torsions:
REMARK  status: ('A' for Active; 'I' for Inactive)
REMARK    1  A    between atoms: C2_2  and  C4_5 
REMARK    2  A    between atoms: C4_5  and  C5_7 
REMARK    3  A    between atoms: C5_7  and  N1_8 
REMARK    4  A    between atoms: N3_17  and  C10_18 
ROOT
HETATM    1  N1  UNL     1      91.817  95.344 -43.956  1.00  0.00    -0.255 NA
HETATM    2  C6  UNL     1      91.328  96.321 -42.964  1.00  0.00     0.119 C 
HETATM    3  C7  UNL     1      91.426  97.657 -43.661  1.00  0.00     0.126 C 
HETATM    4  C8  UNL     1      91.080  98.729 -42.738  1.00  0.00     0.233 C 
HETATM    5  O1  UNL     1      91.956  99.426 -42.180  1.00  0.00    -0.273 OA
HETATM    6  N2  UNL     1      89.710  98.983 -42.469  1.00  0.00    -0.279 N 
ATOM      7  H2  UNL     1      89.398  99.407 -41.595  1.00  0.00     0.173 HD
HETATM    8  C9  UNL     1      88.792  98.606 -43.506  1.00  0.00     0.326 C 
HETATM    9  O2  UNL     1      87.571  98.810 -43.316  1.00  0.00    -0.247 OA
HETATM   10  N3  UNL     1      89.239  98.018 -44.719  1.00  0.00    -0.310 N 
HETATM   11  C14 UNL     1      90.583  97.586 -44.909  1.00  0.00     0.182 C 
HETATM   12  S1  UNL     1      90.716  95.798 -45.290  1.00  0.00    -0.056 SA
ENDROOT
BRANCH   1  13
HETATM   13  C5  UNL     1      91.608  94.012 -43.497  1.00  0.00     0.120 C 
BRANCH  13  14
HETATM   14  C4  UNL     1      92.676  93.069 -43.943  1.00  0.00     0.090 C 
HETATM   15 BR2  UNL     1      91.860  91.699 -45.040  1.00  0.00    -0.088 Br
BRANCH  14  16
HETATM   16  C2  UNL     1      93.282  92.348 -42.753  1.00  0.00     0.025 C 
HETATM   17  C1  UNL     1      94.670  91.869 -43.100  1.00  0.00     0.028 C 
HETATM   18  C3  UNL     1      93.410  93.276 -41.557  1.00  0.00     0.028 C 
HETATM   19 BR1  UNL     1      92.158  90.834 -42.351  1.00  0.00    -0.085 Br
ENDBRANCH  14  16
ENDBRANCH  13  14
ENDBRANCH   1  13
BRANCH  10  20
HETATM   20  C10 UNL     1      88.272  97.871 -45.776  1.00  0.00     0.027 C 
HETATM   21  C11 UNL     1      87.611  99.223 -46.033  1.00  0.00     0.038 C 
HETATM   22  C12 UNL     1      88.916  97.446 -47.081  1.00  0.00     0.038 C 
HETATM   23  C13 UNL     1      87.174  96.884 -45.454  1.00  0.00     0.038 C 
ENDBRANCH  10  20
TORSDOF 4
ENDMDL
MODEL 3
REMARK VINA RESULT: -6.373489020      0.811      1.404
REMARK  4 active torsions:
REMARK  status: ('A' for Active; 'I' for Inactive)
REMARK    1  A    between atoms: C2_2  and  C4_5 
REMARK    2  A    between atoms: C4_5  and  C5_7 
REMARK    3  A    between atoms: C5_7  and  N1_8 
REMARK    4  A    between atoms: N3_17  and  C10_18 
ROOT
HETATM    1  N1  UNL     1      91.816  95.475 -43.854  1.00  0.00    -0.255 NA
HETATM    2  C6  UNL     1      91.290  96.451 -42.879  1.00  0.00     0.119 C 
HETATM    3  C7  UNL     1      91.395  97.786 -43.576  1.00  0.00     0.126 C 
HETATM    4  C8  UNL     1      91.014  98.856 -42.667  1.00  0.00     0.233 C 
HETATM    5  O1  UNL     1      91.867  99.564 -42.086  1.00  0.00    -0.273 OA
HETATM    6  N2  UNL     1      89.634  99.099 -42.437  1.00  0.00    -0.279 N 
ATOM      7  H2  UNL     1      89.293  99.522 -41.574  1.00  0.00     0.173 HD
HETATM    8  C9  UNL     1      88.749  98.710 -43.498  1.00  0.00     0.326 C 
HETATM    9  O2  UNL     1      87.522  98.903 -43.344  1.00  0.00    -0.247 OA
HETATM   10  N3  UNL     1      89.236  98.123 -44.697  1.00  0.00    -0.310 N 
HETATM   11  C14 UNL     1      90.588  97.703 -44.847  1.00  0.00     0.182 C 
HETATM   12  S1  UNL     1      90.749  95.916 -45.219  1.00  0.00    -0.056 SA
ENDROOT
BRANCH   1  13
HETATM   13  C5  UNL     1      91.607  94.143 -43.396  1.00  0.00     0.120 C 
BRANCH  13  14
HETATM   14  C4  UNL     1      92.729  93.223 -43.751  1.00  0.00     0.090 C 
HETATM   15 BR2  UNL     1      92.060  91.900 -44.996  1.00  0.00    -0.088 Br
BRANCH  14  16
HETATM   16  C2  UNL     1      93.194  92.453 -42.530  1.00  0.00     0.025 C 
HETATM   17  C1  UNL     1      93.405  93.404 -41.377  1.00  0.00     0.028 C 
HETATM   18  C3  UNL     1      92.153  91.437 -42.093  1.00  0.00     0.028 C 
HETATM   19 BR1  UNL     1      94.865  91.601 -42.976  1.00  0.00    -0.085 Br
ENDBRANCH  14  16
ENDBRANCH  13  14
ENDBRANCH   1  13
BRANCH  10  20
HETATM   20  C10 UNL     1      88.301  97.964 -45.780  1.00  0.00     0.027 C 
HETATM   21  C11 UNL     1      87.286  96.887 -45.404  1.00  0.00     0.038 C 
HETATM   22  C12 UNL     1      87.514  99.233 -46.042  1.00  0.00     0.038 C 
HETATM   23  C13 UNL     1      88.950  97.542 -47.078  1.00  0.00     0.038 C 
ENDBRANCH  10  20
TORSDOF 4
ENDMDL
MODEL 4
REMARK VINA RESULT: -6.022107557      0.730      1.135
REMARK  4 active torsions:
REMARK  status: ('A' for Active; 'I' for Inactive)
REMARK    1  A    between atoms: C2_2  and  C4_5 
REMARK    2  A    between atoms: C4_5  and  C5_7 
REMARK    3  A    between atoms: C5_7  and  N1_8 
REMARK    4  A    between atoms: N3_17  and  C10_18 
ROOT
HETATM    1  N1  UNL     1      91.671  95.992 -43.954  1.00  0.00    -0.255 NA
HETATM    2  C6  UNL     1      91.291  96.957 -42.904  1.00  0.00     0.119 C 
HETATM    3  C7  UNL     1      91.353  98.305 -43.580  1.00  0.00     0.126 C 
HETATM    4  C8  UNL     1      91.112  99.363 -42.610  1.00  0.00     0.233 C 
HETATM    5  O1  UNL     1      92.048 100.033 -42.119  1.00  0.00    -0.273 OA
HETATM    6  N2  UNL     1      89.776  99.637 -42.215  1.00  0.00    -0.279 N 
ATOM      7  H2  UNL     1      89.551 100.048 -41.309  1.00  0.00     0.173 HD
HETATM    8  C9  UNL     1      88.762  99.297 -43.173  1.00  0.00     0.326 C 
HETATM    9  O2  UNL     1      87.567  99.519 -42.871  1.00  0.00    -0.247 OA
HETATM   10  N3  UNL     1      89.088  98.726 -44.432  1.00  0.00    -0.310 N 
HETATM   11  C14 UNL     1      90.401  98.274 -44.749  1.00  0.00     0.182 C 
HETATM   12  S1  UNL     1      90.465  96.493 -45.175  1.00  0.00    -0.056 SA
ENDROOT
BRANCH   1  13
HETATM   13  C5  UNL     1      91.478  94.654 -43.503  1.00  0.00     0.120 C 
BRANCH  13  14
HETATM   14  C4  UNL     1      92.408  93.682 -44.151  1.00  0.00     0.090 C 
HETATM   15 BR2  UNL     1      91.437  92.743 -45.538  1.00  0.00    -0.088 Br
BRANCH  14  16
HETATM   16  C2  UNL     1      92.850  92.624 -43.158  1.00  0.00     0.025 C 
HETATM   17  C1  UNL     1      92.048  91.363 -43.366  1.00  0.00     0.028 C 
HETATM   18  C3  UNL     1      94.313  92.267 -43.352  1.00  0.00     0.028 C 
HETATM   19 BR1  UNL     1      92.523  93.311 -41.386  1.00  0.00    -0.085 Br
ENDBRANCH  14  16
ENDBRANCH  13  14
ENDBRANCH   1  13
BRANCH  10  20
HETATM   20  C10 UNL     1      88.028  98.619 -45.401  1.00  0.00     0.027 C 
HETATM   21  C11 UNL     1      88.641  98.399 -46.782  1.00  0.00     0.038 C 
HETATM   22  C12 UNL     1      87.128  97.430 -45.129  1.00  0.00     0.038 C 
HETATM   23  C13 UNL     1      87.161  99.854 -45.482  1.00  0.00     0.038 C 
ENDBRANCH  10  20
TORSDOF 4
ENDMDL
MODEL 5
REMARK VINA RESULT: -5.584546867      2.871      4.306
REMARK  4 active torsions:
REMARK  status: ('A' for Active; 'I' for Inactive)
REMARK    1  A    between atoms: C2_2  and  C4_5 
REMARK    2  A    between atoms: C4_5  and  C5_7 
REMARK    3  A    between atoms: C5_7  and  N1_8 
REMARK    4  A    between atoms: N3_17  and  C10_18 
ROOT
HETATM    1  N1  UNL     1      91.001  96.969 -44.359  1.00  0.00    -0.255 NA
HETATM    2  C6  UNL     1      92.068  97.790 -44.965  1.00  0.00     0.119 C 
HETATM    3  C7  UNL     1      91.382  99.072 -45.372  1.00  0.00     0.126 C 
HETATM    4  C8  UNL     1      92.311  99.928 -46.096  1.00  0.00     0.233 C 
HETATM    5  O1  UNL     1      92.293 100.013 -47.344  1.00  0.00    -0.273 OA
HETATM    6  N2  UNL     1      93.259 100.684 -45.358  1.00  0.00    -0.279 N 
ATOM      7  H2  UNL     1      94.150 100.976 -45.759  1.00  0.00     0.173 HD
HETATM    8  C9  UNL     1      92.883 101.010 -44.012  1.00  0.00     0.326 C 
HETATM    9  O2  UNL     1      93.686 101.676 -43.320  1.00  0.00    -0.247 OA
HETATM   10  N3  UNL     1      91.638 100.598 -43.465  1.00  0.00    -0.310 N 
HETATM   11  C14 UNL     1      90.777  99.681 -44.132  1.00  0.00     0.182 C 
HETATM   12  S1  UNL     1      90.443  98.167 -43.155  1.00  0.00    -0.056 SA
ENDROOT
BRANCH   1  13
HETATM   13  C5  UNL     1      91.545  95.796 -43.761  1.00  0.00     0.120 C 
BRANCH  13  14
HETATM   14  C4  UNL     1      91.890  94.741 -44.759  1.00  0.00     0.090 C 
HETATM   15 BR2  UNL     1      90.418  94.577 -46.005  1.00  0.00    -0.088 Br
BRANCH  14  16
HETATM   16  C2  UNL     1      92.020  93.389 -44.082  1.00  0.00     0.025 C 
HETATM   17  C1  UNL     1      93.455  93.155 -43.681  1.00  0.00     0.028 C 
HETATM   18  C3  UNL     1      91.181  93.327 -42.817  1.00  0.00     0.028 C 
HETATM   19 BR1  UNL     1      91.477  92.044 -45.353  1.00  0.00    -0.085 Br
ENDBRANCH  14  16
ENDBRANCH  13  14
ENDBRANCH   1  13
BRANCH  10  20
HETATM   20  C10 UNL     1      91.264 101.151 -42.189  1.00  0.00     0.027 C 
HETATM   21  C11 UNL     1      91.437 102.667 -42.237  1.00  0.00     0.038 C 
HETATM   22  C12 UNL     1      89.807 100.888 -41.862  1.00  0.00     0.038 C 
HETATM   23  C13 UNL     1      92.101 100.634 -41.042  1.00  0.00     0.038 C 
ENDBRANCH  10  20
TORSDOF 4
ENDMDL
