MODEL 1
REMARK VINA RESULT: -5.418520180      0.000      0.000
REMARK  4 active torsions:
REMARK  status: ('A' for Active; 'I' for Inactive)
REMARK    1  A    between atoms: C2_2  and  C3_3 
REMARK    2  A    between atoms: C3_3  and  C4_4 
REMARK    3  A    between atoms: C19_26  and  O2_27 
REMARK    4  A    between atoms: C23_32  and  O3_33 
ROOT
HETATM    1  C4  UNL     1      91.313  99.813 -41.942  1.00  0.00     0.086 C 
HETATM    2  C5  UNL     1      92.095  98.576 -42.351  1.00  0.00     0.026 C 
HETATM    3  C6  UNL     1      91.984  98.153 -43.765  1.00  0.00     0.008 C 
HETATM    4  C7  UNL     1      90.970  97.037 -43.838  1.00  0.00     0.079 C 
HETATM    5  C8  UNL     1      91.025  96.142 -44.999  1.00  0.00     0.245 C 
HETATM    6  F1  UNL     1      92.304  96.257 -45.564  1.00  0.00    -0.206 F 
HETATM    7  F2  UNL     1      90.922  94.799 -44.638  1.00  0.00    -0.206 F 
HETATM    8  C9  UNL     1      90.017  96.514 -46.042  1.00  0.00     0.099 C 
HETATM    9  C10 UNL     1      88.618  96.717 -45.598  1.00  0.00     0.134 C 
HETATM   10  N1  UNL     1      87.955  97.866 -46.178  1.00  0.00    -0.360 N 
HETATM   11  C11 UNL     1      87.494  97.698 -47.458  1.00  0.00     0.064 C 
HETATM   12  C12 UNL     1      88.396  98.270 -48.561  1.00  0.00     0.046 C 
HETATM   13  C13 UNL     1      87.569  98.905 -49.662  1.00  0.00     0.025 C 
HETATM   14  C14 UNL     1      87.542 100.413 -49.536  1.00  0.00     0.123 C 
HETATM   15  N2  UNL     1      86.165 100.846 -49.664  1.00  0.00    -0.359 N 
ATOM     16  H2  UNL     1      85.827 101.195 -50.561  1.00  0.00     0.162 HD
HETATM   17  C15 UNL     1      85.281 100.788 -48.557  1.00  0.00     0.240 C 
HETATM   18  O1  UNL     1      84.083 100.486 -48.785  1.00  0.00    -0.271 OA
HETATM   19  C16 UNL     1      85.715 101.070 -47.163  1.00  0.00     0.174 C 
HETATM   20  C17 UNL     1      84.913 102.317 -46.731  1.00  0.00     0.042 C 
HETATM   21  N3  UNL     1      85.433  99.996 -46.238  1.00  0.00    -0.352 N 
HETATM   22  C18 UNL     1      84.049  99.482 -46.347  1.00  0.00     0.152 C 
HETATM   23  C19 UNL     1      86.255  99.398 -45.275  1.00  0.00     0.161 C 
HETATM   24  C20 UNL     1      87.634  98.935 -45.318  1.00  0.00     0.062 C 
HETATM   25  C21 UNL     1      88.713  99.959 -45.413  1.00  0.00     0.069 C 
HETATM   26  C22 UNL     1      88.917 100.899 -44.308  1.00  0.00     0.089 C 
HETATM   27  C23 UNL     1      88.990 100.404 -42.932  1.00  0.00     0.111 C 
HETATM   28  N4  UNL     1      89.939  99.673 -42.256  1.00  0.00    -0.370 N 
ATOM     29  H4  UNL     1      89.552  98.804 -41.885  1.00  0.00     0.161 HD
ENDROOT
BRANCH   1  30
HETATM   30  C3  UNL     1      92.049 101.030 -42.313  1.00  0.00     0.051 C 
BRANCH  30  31
HETATM   31  C2  UNL     1      92.533 101.820 -41.163  1.00  0.00    -0.035 C 
HETATM   32  C1  UNL     1      91.995 101.628 -39.967  1.00  0.00     0.007 C 
ENDBRANCH  30  31
ENDBRANCH   1  30
BRANCH  27  33
HETATM   33  O3  UNL     1      87.940 100.731 -42.228  1.00  0.00    -0.350 OA
ATOM     34  H3  UNL     1      88.166 101.007 -41.348  1.00  0.00     0.219 HD
ENDBRANCH  27  33
BRANCH  23  35
HETATM   35  O2  UNL     1      85.613  99.248 -44.145  1.00  0.00    -0.345 OA
ATOM     36  H2  UNL     1      86.077  99.673 -43.434  1.00  0.00     0.219 HD
ENDBRANCH  23  35
TORSDOF 4
ENDMDL
MODEL 2
REMARK VINA RESULT: -5.289877717      1.604      1.767
REMARK  4 active torsions:
REMARK  status: ('A' for Active; 'I' for Inactive)
REMARK    1  A    between atoms: C2_2  and  C3_3 
REMARK    2  A    between atoms: C3_3  and  C4_4 
REMARK    3  A    between atoms: C19_26  and  O2_27 
REMARK    4  A    between atoms: C23_32  and  O3_33 
ROOT
HETATM    1  C4  UNL     1      90.601  99.683 -42.112  1.00  0.00     0.086 C 
HETATM    2  C5  UNL     1      91.786  98.776 -42.394  1.00  0.00     0.026 C 
HETATM    3  C6  UNL     1      91.921  98.265 -43.777  1.00  0.00     0.008 C 
HETATM    4  C7  UNL     1      91.361  96.864 -43.811  1.00  0.00     0.079 C 
HETATM    5  C8  UNL     1      91.799  95.983 -44.900  1.00  0.00     0.245 C 
HETATM    6  F1  UNL     1      92.993  96.506 -45.417  1.00  0.00    -0.206 F 
HETATM    7  F2  UNL     1      92.142  94.709 -44.447  1.00  0.00    -0.206 F 
HETATM    8  C9  UNL     1      90.794  95.923 -46.010  1.00  0.00     0.099 C 
HETATM    9  C10 UNL     1      89.386  95.649 -45.642  1.00  0.00     0.134 C 
HETATM   10  N1  UNL     1      88.406  96.462 -46.333  1.00  0.00    -0.360 N 
HETATM   11  C11 UNL     1      88.117  96.075 -47.616  1.00  0.00     0.064 C 
HETATM   12  C12 UNL     1      88.836  96.866 -48.718  1.00  0.00     0.046 C 
HETATM   13  C13 UNL     1      87.916  97.112 -49.897  1.00  0.00     0.025 C 
HETATM   14  C14 UNL     1      87.362  98.521 -49.883  1.00  0.00     0.123 C 
HETATM   15  N2  UNL     1      85.931  98.438 -50.102  1.00  0.00    -0.359 N 
ATOM     16  H2  UNL     1      85.554  98.599 -51.036  1.00  0.00     0.162 HD
HETATM   17  C15 UNL     1      85.051  98.137 -49.033  1.00  0.00     0.240 C 
HETATM   18  O1  UNL     1      84.049  97.424 -49.289  1.00  0.00    -0.271 OA
HETATM   19  C16 UNL     1      85.268  98.627 -47.645  1.00  0.00     0.174 C 
HETATM   20  C17 UNL     1      84.059  99.537 -47.342  1.00  0.00     0.042 C 
HETATM   21  N3  UNL     1      85.315  97.573 -46.657  1.00  0.00    -0.352 N 
HETATM   22  C18 UNL     1      84.203  96.604 -46.788  1.00  0.00     0.152 C 
HETATM   23  C19 UNL     1      86.227  97.351 -45.619  1.00  0.00     0.161 C 
HETATM   24  C20 UNL     1      87.681  97.397 -45.569  1.00  0.00     0.062 C 
HETATM   25  C21 UNL     1      88.344  98.727 -45.692  1.00  0.00     0.069 C 
HETATM   26  C22 UNL     1      88.138  99.737 -44.651  1.00  0.00     0.089 C 
HETATM   27  C23 UNL     1      88.287  99.373 -43.240  1.00  0.00     0.111 C 
HETATM   28  N4  UNL     1      89.382  99.056 -42.473  1.00  0.00    -0.370 N 
ATOM     29  H4  UNL     1      89.296  98.128 -42.056  1.00  0.00     0.161 HD
ENDROOT
BRANCH   1  30
HETATM   30  C3  UNL     1      90.894 101.058 -42.538  1.00  0.00     0.051 C 
BRANCH  30  31
HETATM   31  C2  UNL     1      90.696 102.075 -41.487  1.00  0.00    -0.035 C 
HETATM   32  C1  UNL     1      91.251 101.899 -40.296  1.00  0.00     0.007 C 
ENDBRANCH  30  31
ENDBRANCH   1  30
BRANCH  27  33
HETATM   33  O3  UNL     1      87.145  99.351 -42.609  1.00  0.00    -0.350 OA
ATOM     34  H3  UNL     1      86.731  98.496 -42.638  1.00  0.00     0.219 HD
ENDBRANCH  27  33
BRANCH  23  35
HETATM   35  O2  UNL     1      85.603  97.048 -44.510  1.00  0.00    -0.345 OA
ATOM     36  H2  UNL     1      85.233  96.175 -44.559  1.00  0.00     0.219 HD
ENDBRANCH  23  35
TORSDOF 4
ENDMDL
MODEL 3
REMARK VINA RESULT: -5.197698903      3.442      6.005
REMARK  4 active torsions:
REMARK  status: ('A' for Active; 'I' for Inactive)
REMARK    1  A    between atoms: C2_2  and  C3_3 
REMARK    2  A    between atoms: C3_3  and  C4_4 
REMARK    3  A    between atoms: C19_26  and  O2_27 
REMARK    4  A    between atoms: C23_32  and  O3_33 
ROOT
HETATM    1  C4  UNL     1      91.532  93.846 -43.760  1.00  0.00     0.086 C 
HETATM    2  C5  UNL     1      90.798  93.533 -45.053  1.00  0.00     0.026 C 
HETATM    3  C6  UNL     1      90.771  94.599 -46.080  1.00  0.00     0.008 C 
HETATM    4  C7  UNL     1      89.445  95.312 -45.976  1.00  0.00     0.079 C 
HETATM    5  C8  UNL     1      88.980  96.059 -47.150  1.00  0.00     0.245 C 
HETATM    6  F1  UNL     1      89.673  95.570 -48.268  1.00  0.00    -0.206 F 
HETATM    7  F2  UNL     1      87.638  95.814 -47.438  1.00  0.00    -0.206 F 
HETATM    8  C9  UNL     1      89.261  97.525 -47.028  1.00  0.00     0.099 C 
HETATM    9  C10 UNL     1      88.846  98.198 -45.775  1.00  0.00     0.134 C 
HETATM   10  N1  UNL     1      89.815  99.128 -45.233  1.00  0.00    -0.360 N 
HETATM   11  C11 UNL     1      89.862 100.355 -45.843  1.00  0.00     0.064 C 
HETATM   12  C12 UNL     1      90.987 100.534 -46.871  1.00  0.00     0.046 C 
HETATM   13  C13 UNL     1      91.582 101.926 -46.787  1.00  0.00     0.025 C 
HETATM   14  C14 UNL     1      92.895 101.922 -46.032  1.00  0.00     0.123 C 
HETATM   15  N2  UNL     1      92.852 102.999 -45.061  1.00  0.00    -0.359 N 
ATOM     16  H2  UNL     1      93.300 103.890 -45.276  1.00  0.00     0.162 HD
HETATM   17  C15 UNL     1      92.194 102.827 -43.818  1.00  0.00     0.240 C 
HETATM   18  O1  UNL     1      91.579 103.815 -43.344  1.00  0.00    -0.271 OA
HETATM   19  C16 UNL     1      92.209 101.543 -43.067  1.00  0.00     0.174 C 
HETATM   20  C17 UNL     1      92.938 101.854 -41.742  1.00  0.00     0.042 C 
HETATM   21  N3  UNL     1      90.891 101.033 -42.762  1.00  0.00    -0.352 N 
HETATM   22  C18 UNL     1      89.990 102.058 -42.187  1.00  0.00     0.152 C 
HETATM   23  C19 UNL     1      90.365  99.745 -42.916  1.00  0.00     0.161 C 
HETATM   24  C20 UNL     1      90.429  98.788 -44.012  1.00  0.00     0.062 C 
HETATM   25  C21 UNL     1      91.743  98.146 -44.304  1.00  0.00     0.069 C 
HETATM   26  C22 UNL     1      92.351  97.259 -43.309  1.00  0.00     0.089 C 
HETATM   27  C23 UNL     1      91.549  96.205 -42.683  1.00  0.00     0.111 C 
HETATM   28  N4  UNL     1      91.027  95.027 -43.161  1.00  0.00    -0.370 N 
ATOM     29  H4  UNL     1      90.012  94.994 -43.057  1.00  0.00     0.161 HD
ENDROOT
BRANCH   1  30
HETATM   30  C3  UNL     1      92.978  93.649 -43.931  1.00  0.00     0.051 C 
BRANCH  30  31
HETATM   31  C2  UNL     1      93.579  92.703 -42.970  1.00  0.00    -0.035 C 
HETATM   32  C1  UNL     1      93.463  92.931 -41.670  1.00  0.00     0.007 C 
ENDBRANCH  30  31
ENDBRANCH   1  30
BRANCH  27  33
HETATM   33  O3  UNL     1      91.293  96.455 -41.428  1.00  0.00    -0.350 OA
ATOM     34  H3  UNL     1      90.361  96.462 -41.243  1.00  0.00     0.219 HD
ENDBRANCH  27  33
BRANCH  23  35
HETATM   35  O2  UNL     1      89.700  99.384 -41.850  1.00  0.00    -0.345 OA
ATOM     36  H2  UNL     1      89.114 100.076 -41.567  1.00  0.00     0.219 HD
ENDBRANCH  23  35
TORSDOF 4
ENDMDL
MODEL 4
REMARK VINA RESULT: -5.164026024      3.590      7.248
REMARK  4 active torsions:
REMARK  status: ('A' for Active; 'I' for Inactive)
REMARK    1  A    between atoms: C2_2  and  C3_3 
REMARK    2  A    between atoms: C3_3  and  C4_4 
REMARK    3  A    between atoms: C19_26  and  O2_27 
REMARK    4  A    between atoms: C23_32  and  O3_33 
ROOT
HETATM    1  C4  UNL     1      87.798  96.155 -47.884  1.00  0.00     0.086 C 
HETATM    2  C5  UNL     1      86.321  96.296 -47.558  1.00  0.00     0.026 C 
HETATM    3  C6  UNL     1      85.899  97.557 -46.908  1.00  0.00     0.008 C 
HETATM    4  C7  UNL     1      85.783  97.300 -45.425  1.00  0.00     0.079 C 
HETATM    5  C8  UNL     1      84.944  98.211 -44.639  1.00  0.00     0.245 C 
HETATM    6  F1  UNL     1      84.073  98.860 -45.527  1.00  0.00    -0.206 F 
HETATM    7  F2  UNL     1      84.103  97.532 -43.759  1.00  0.00    -0.206 F 
HETATM    8  C9  UNL     1      85.757  99.254 -43.934  1.00  0.00     0.099 C 
HETATM    9  C10 UNL     1      86.920  98.792 -43.142  1.00  0.00     0.134 C 
HETATM   10  N1  UNL     1      88.117  99.593 -43.293  1.00  0.00    -0.360 N 
HETATM   11  C11 UNL     1      88.135 100.766 -42.583  1.00  0.00     0.064 C 
HETATM   12  C12 UNL     1      87.776 102.025 -43.385  1.00  0.00     0.046 C 
HETATM   13  C13 UNL     1      88.644 103.197 -42.972  1.00  0.00     0.025 C 
HETATM   14  C14 UNL     1      89.760 103.438 -43.967  1.00  0.00     0.123 C 
HETATM   15  N2  UNL     1      90.994 103.587 -43.222  1.00  0.00    -0.359 N 
ATOM     16  H2  UNL     1      91.352 104.521 -43.021  1.00  0.00     0.162 HD
HETATM   17  C15 UNL     1      91.710 102.450 -42.771  1.00  0.00     0.240 C 
HETATM   18  O1  UNL     1      92.283 102.529 -41.655  1.00  0.00    -0.271 OA
HETATM   19  C16 UNL     1      91.808 101.193 -43.559  1.00  0.00     0.174 C 
HETATM   20  C17 UNL     1      93.309 101.030 -43.882  1.00  0.00     0.042 C 
HETATM   21  N3  UNL     1      91.359 100.021 -42.842  1.00  0.00    -0.352 N 
HETATM   22  C18 UNL     1      91.924  99.923 -41.476  1.00  0.00     0.152 C 
HETATM   23  C19 UNL     1      90.501  98.991 -43.247  1.00  0.00     0.161 C 
HETATM   24  C20 UNL     1      89.220  99.001 -43.937  1.00  0.00     0.062 C 
HETATM   25  C21 UNL     1      89.203  99.402 -45.373  1.00  0.00     0.069 C 
HETATM   26  C22 UNL     1      89.889  98.571 -46.365  1.00  0.00     0.089 C 
HETATM   27  C23 UNL     1      89.674  97.122 -46.378  1.00  0.00     0.111 C 
HETATM   28  N4  UNL     1      88.595  96.346 -46.728  1.00  0.00    -0.370 N 
ATOM     29  H4  UNL     1      88.288  95.754 -45.955  1.00  0.00     0.161 HD
ENDROOT
BRANCH   1  30
HETATM   30  C3  UNL     1      88.114  96.850 -49.140  1.00  0.00     0.051 C 
BRANCH  30  31
HETATM   31  C2  UNL     1      88.923  96.056 -50.085  1.00  0.00    -0.035 C 
HETATM   32  C1  UNL     1      88.776  94.739 -50.124  1.00  0.00     0.007 C 
ENDBRANCH  30  31
ENDBRANCH   1  30
BRANCH  27  33
HETATM   33  O3  UNL     1      90.724  96.460 -45.974  1.00  0.00    -0.350 OA
ATOM     34  H3  UNL     1      91.467  96.570 -46.556  1.00  0.00     0.219 HD
ENDBRANCH  27  33
BRANCH  23  35
HETATM   35  O2  UNL     1      90.989  97.824 -42.915  1.00  0.00    -0.345 OA
ATOM     36  H2  UNL     1      90.428  97.391 -42.282  1.00  0.00     0.219 HD
ENDBRANCH  23  35
TORSDOF 4
ENDMDL
MODEL 5
REMARK VINA RESULT: -5.083027347      2.538      5.200
REMARK  4 active torsions:
REMARK  status: ('A' for Active; 'I' for Inactive)
REMARK    1  A    between atoms: C2_2  and  C3_3 
REMARK    2  A    between atoms: C3_3  and  C4_4 
REMARK    3  A    between atoms: C19_26  and  O2_27 
REMARK    4  A    between atoms: C23_32  and  O3_33 
ROOT
HETATM    1  C4  UNL     1      91.327  94.967 -45.600  1.00  0.00     0.086 C 
HETATM    2  C5  UNL     1      92.233  95.512 -44.509  1.00  0.00     0.026 C 
HETATM    3  C6  UNL     1      91.631  96.477 -43.562  1.00  0.00     0.008 C 
HETATM    4  C7  UNL     1      92.013  97.868 -44.008  1.00  0.00     0.079 C 
HETATM    5  C8  UNL     1      91.959  98.942 -43.009  1.00  0.00     0.245 C 
HETATM    6  F1  UNL     1      91.990  98.345 -41.740  1.00  0.00    -0.206 F 
HETATM    7  F2  UNL     1      93.091  99.754 -43.042  1.00  0.00    -0.206 F 
HETATM    8  C9  UNL     1      90.698  99.745 -43.119  1.00  0.00     0.099 C 
HETATM    9  C10 UNL     1      90.326 100.251 -44.460  1.00  0.00     0.134 C 
HETATM   10  N1  UNL     1      88.922 100.122 -44.792  1.00  0.00    -0.360 N 
HETATM   11  C11 UNL     1      88.096 101.066 -44.237  1.00  0.00     0.064 C 
HETATM   12  C12 UNL     1      87.341 100.618 -42.977  1.00  0.00     0.046 C 
HETATM   13  C13 UNL     1      85.925 101.161 -42.972  1.00  0.00     0.025 C 
HETATM   14  C14 UNL     1      84.926 100.103 -43.391  1.00  0.00     0.123 C 
HETATM   15  N2  UNL     1      84.049 100.690 -44.385  1.00  0.00    -0.359 N 
ATOM     16  H2  UNL     1      83.134 101.044 -44.105  1.00  0.00     0.162 HD
HETATM   17  C15 UNL     1      84.448 100.777 -45.742  1.00  0.00     0.240 C 
HETATM   18  O1  UNL     1      84.094 101.795 -46.388  1.00  0.00    -0.271 OA
HETATM   19  C16 UNL     1      85.253  99.723 -46.416  1.00  0.00     0.174 C 
HETATM   20  C17 UNL     1      84.347  99.174 -47.539  1.00  0.00     0.042 C 
HETATM   21  N3  UNL     1      86.477 100.217 -47.007  1.00  0.00    -0.352 N 
HETATM   22  C18 UNL     1      86.278 101.438 -47.821  1.00  0.00     0.152 C 
HETATM   23  C19 UNL     1      87.781  99.712 -46.932  1.00  0.00     0.161 C 
HETATM   24  C20 UNL     1      88.575  99.220 -45.816  1.00  0.00     0.062 C 
HETATM   25  C21 UNL     1      88.178  97.925 -45.193  1.00  0.00     0.069 C 
HETATM   26  C22 UNL     1      88.260  96.690 -45.977  1.00  0.00     0.089 C 
HETATM   27  C23 UNL     1      89.475  96.385 -46.734  1.00  0.00     0.111 C 
HETATM   28  N4  UNL     1      90.743  96.019 -46.349  1.00  0.00    -0.370 N 
ATOM     29  H4  UNL     1      91.446  96.675 -46.692  1.00  0.00     0.161 HD
ENDROOT
BRANCH   1  30
HETATM   30  C3  UNL     1      90.504  93.867 -45.080  1.00  0.00     0.051 C 
BRANCH  30  31
HETATM   31  C2  UNL     1      91.173  92.552 -45.090  1.00  0.00    -0.035 C 
HETATM   32  C1  UNL     1      91.189  91.836 -46.206  1.00  0.00     0.007 C 
ENDBRANCH  30  31
ENDBRANCH   1  30
BRANCH  27  33
HETATM   33  O3  UNL     1      89.296  96.486 -48.023  1.00  0.00    -0.350 OA
ATOM     34  H3  UNL     1      89.247  97.390 -48.312  1.00  0.00     0.219 HD
ENDBRANCH  27  33
BRANCH  23  35
HETATM   35  O2  UNL     1      88.345  99.708 -48.111  1.00  0.00    -0.345 OA
ATOM     36  H2  UNL     1      87.895  99.112 -48.699  1.00  0.00     0.219 HD
ENDBRANCH  23  35
TORSDOF 4
ENDMDL
