MODEL 1
REMARK VINA RESULT: -5.699923681      0.000      0.000
REMARK  2 active torsions:
REMARK  status: ('A' for Active; 'I' for Inactive)
REMARK    1  A    between atoms: C7_9  and  O1_10 
REMARK    2  A    between atoms: C10_15  and  O2_16 
ROOT
HETATM    1  C1  UNL     1      92.433  93.710 -44.287  1.00  0.00     0.021 C 
HETATM    2  C2  UNL     1      91.879  92.423 -43.762  1.00  0.00     0.020 C 
HETATM    3  C3  UNL     1      92.989  91.491 -43.469  1.00  0.00     0.093 C 
HETATM    4  C4  UNL     1      93.400  91.378 -42.049  1.00  0.00     0.244 C 
HETATM    5  F1  UNL     1      94.804  91.276 -42.034  1.00  0.00    -0.206 F 
HETATM    6  F2  UNL     1      92.998  90.146 -41.503  1.00  0.00    -0.206 F 
HETATM    7  C5  UNL     1      93.049  92.502 -41.158  1.00  0.00     0.082 C 
HETATM    8  C6  UNL     1      91.874  93.321 -41.521  1.00  0.00     0.046 C 
HETATM    9  C7  UNL     1      91.016  92.653 -42.516  1.00  0.00     0.085 C 
HETATM   10  C8  UNL     1      89.901  93.475 -43.075  1.00  0.00     0.120 C 
HETATM   11 CL1  UNL     1      88.413  93.223 -42.091  1.00  0.00    -0.122 Cl
HETATM   12  C9  UNL     1      89.646  92.837 -44.407  1.00  0.00     0.055 C 
HETATM   13  C10 UNL     1      90.834  91.921 -44.697  1.00  0.00     0.131 C 
ENDROOT
BRANCH   9  14
HETATM   14  O1  UNL     1      90.470  91.464 -42.095  1.00  0.00    -0.387 OA
ATOM     15  H1  UNL     1      91.155  90.820 -41.960  1.00  0.00     0.210 HD
ENDBRANCH   9  14
BRANCH  13  16
HETATM   16  O2  UNL     1      90.534  90.600 -44.361  1.00  0.00    -0.395 OA
ATOM     17  H2  UNL     1      90.619  90.500 -43.420  1.00  0.00     0.210 HD
ENDBRANCH  13  16
TORSDOF 2
ENDMDL
MODEL 2
REMARK VINA RESULT: -5.563734461      7.104      7.512
REMARK  2 active torsions:
REMARK  status: ('A' for Active; 'I' for Inactive)
REMARK    1  A    between atoms: C7_9  and  O1_10 
REMARK    2  A    between atoms: C10_15  and  O2_16 
ROOT
HETATM    1  C1  UNL     1      86.670  88.099 -40.749  1.00  0.00     0.021 C 
HETATM    2  C2  UNL     1      87.410  86.807 -40.905  1.00  0.00     0.020 C 
HETATM    3  C3  UNL     1      88.492  86.976 -41.898  1.00  0.00     0.093 C 
HETATM    4  C4  UNL     1      89.858  87.179 -41.359  1.00  0.00     0.244 C 
HETATM    5  F1  UNL     1      90.487  88.132 -42.181  1.00  0.00    -0.206 F 
HETATM    6  F2  UNL     1      90.654  86.035 -41.554  1.00  0.00    -0.206 F 
HETATM    7  C5  UNL     1      89.966  87.679 -39.975  1.00  0.00     0.082 C 
HETATM    8  C6  UNL     1      88.846  87.387 -39.054  1.00  0.00     0.046 C 
HETATM    9  C7  UNL     1      87.970  86.319 -39.565  1.00  0.00     0.085 C 
HETATM   10  C8  UNL     1      86.716  86.075 -38.790  1.00  0.00     0.120 C 
HETATM   11 CL1  UNL     1      87.011  84.803 -37.548  1.00  0.00    -0.122 Cl
HETATM   12  C9  UNL     1      85.801  85.471 -39.811  1.00  0.00     0.055 C 
HETATM   13  C10 UNL     1      86.436  85.714 -41.179  1.00  0.00     0.131 C 
ENDROOT
BRANCH   9  14
HETATM   14  O1  UNL     1      88.587  85.101 -39.728  1.00  0.00    -0.387 OA
ATOM     15  H1  UNL     1      89.255  84.982 -39.063  1.00  0.00     0.210 HD
ENDBRANCH   9  14
BRANCH  13  16
HETATM   16  O2  UNL     1      87.139  84.587 -41.606  1.00  0.00    -0.395 OA
ATOM     17  H2  UNL     1      87.729  84.317 -40.911  1.00  0.00     0.210 HD
ENDBRANCH  13  16
TORSDOF 2
ENDMDL
MODEL 3
REMARK VINA RESULT: -5.534548034      7.830      8.559
REMARK  2 active torsions:
REMARK  status: ('A' for Active; 'I' for Inactive)
REMARK    1  A    between atoms: C7_9  and  O1_10 
REMARK    2  A    between atoms: C10_15  and  O2_16 
ROOT
HETATM    1  C1  UNL     1      85.088  85.072 -39.146  1.00  0.00     0.021 C 
HETATM    2  C2  UNL     1      85.907  86.323 -39.105  1.00  0.00     0.020 C 
HETATM    3  C3  UNL     1      87.217  86.036 -38.483  1.00  0.00     0.093 C 
HETATM    4  C4  UNL     1      88.361  85.848 -39.407  1.00  0.00     0.244 C 
HETATM    5  F1  UNL     1      89.148  84.807 -38.881  1.00  0.00    -0.206 F 
HETATM    6  F2  UNL     1      89.237  86.948 -39.358  1.00  0.00    -0.206 F 
HETATM    7  C5  UNL     1      88.044  85.476 -40.800  1.00  0.00     0.082 C 
HETATM    8  C6  UNL     1      86.726  85.880 -41.333  1.00  0.00     0.046 C 
HETATM    9  C7  UNL     1      86.087  86.919 -40.506  1.00  0.00     0.085 C 
HETATM   10  C8  UNL     1      84.679  87.266 -40.864  1.00  0.00     0.120 C 
HETATM   11 CL1  UNL     1      84.673  88.638 -42.031  1.00  0.00    -0.122 Cl
HETATM   12  C9  UNL     1      84.124  87.797 -39.577  1.00  0.00     0.055 C 
HETATM   13  C10 UNL     1      85.109  87.411 -38.475  1.00  0.00     0.131 C 
ENDROOT
BRANCH   9  14
HETATM   14  O1  UNL     1      86.786  88.101 -40.429  1.00  0.00    -0.387 OA
ATOM     15  H1  UNL     1      87.717  87.924 -40.350  1.00  0.00     0.210 HD
ENDBRANCH   9  14
BRANCH  13  16
HETATM   16  O2  UNL     1      85.961  88.475 -38.179  1.00  0.00    -0.395 OA
ATOM     17  H2  UNL     1      86.170  88.930 -38.986  1.00  0.00     0.210 HD
ENDBRANCH  13  16
TORSDOF 2
ENDMDL
MODEL 4
REMARK VINA RESULT: -5.305044553      2.962      3.804
REMARK  2 active torsions:
REMARK  status: ('A' for Active; 'I' for Inactive)
REMARK    1  A    between atoms: C7_9  and  O1_10 
REMARK    2  A    between atoms: C10_15  and  O2_16 
ROOT
HETATM    1  C1  UNL     1      92.588  92.793 -42.657  1.00  0.00     0.021 C 
HETATM    2  C2  UNL     1      91.109  92.602 -42.789  1.00  0.00     0.020 C 
HETATM    3  C3  UNL     1      90.414  93.409 -41.764  1.00  0.00     0.093 C 
HETATM    4  C4  UNL     1      89.838  94.698 -42.216  1.00  0.00     0.244 C 
HETATM    5  F1  UNL     1      90.057  95.630 -41.184  1.00  0.00    -0.206 F 
HETATM    6  F2  UNL     1      88.435  94.632 -42.275  1.00  0.00    -0.206 F 
HETATM    7  C5  UNL     1      90.401  95.289 -43.446  1.00  0.00     0.082 C 
HETATM    8  C6  UNL     1      91.010  94.369 -44.430  1.00  0.00     0.046 C 
HETATM    9  C7  UNL     1      90.622  92.968 -44.195  1.00  0.00     0.085 C 
HETATM   10  C8  UNL     1      91.325  91.946 -45.028  1.00  0.00     0.120 C 
HETATM   11 CL1  UNL     1      90.373  91.627 -46.524  1.00  0.00    -0.122 Cl
HETATM   12  C9  UNL     1      91.233  90.707 -44.191  1.00  0.00     0.055 C 
HETATM   13  C10 UNL     1      90.802  91.144 -42.793  1.00  0.00     0.131 C 
ENDROOT
BRANCH   9  14
HETATM   14  O1  UNL     1      89.274  92.720 -44.306  1.00  0.00    -0.387 OA
ATOM     15  H1  UNL     1      89.013  92.740 -45.219  1.00  0.00     0.210 HD
ENDBRANCH   9  14
BRANCH  13  16
HETATM   16  O2  UNL     1      89.427  90.979 -42.624  1.00  0.00    -0.395 OA
ATOM     17  H2  UNL     1      89.157  90.195 -43.088  1.00  0.00     0.210 HD
ENDBRANCH  13  16
TORSDOF 2
ENDMDL
MODEL 5
REMARK VINA RESULT: -5.283829042      8.035      8.461
REMARK  2 active torsions:
REMARK  status: ('A' for Active; 'I' for Inactive)
REMARK    1  A    between atoms: C7_9  and  O1_10 
REMARK    2  A    between atoms: C10_15  and  O2_16 
ROOT
HETATM    1  C1  UNL     1      85.807  88.040 -40.837  1.00  0.00     0.021 C 
HETATM    2  C2  UNL     1      86.160  86.598 -40.649  1.00  0.00     0.020 C 
HETATM    3  C3  UNL     1      87.279  86.242 -41.549  1.00  0.00     0.093 C 
HETATM    4  C4  UNL     1      88.628  86.192 -40.937  1.00  0.00     0.244 C 
HETATM    5  F1  UNL     1      89.526  86.731 -41.877  1.00  0.00    -0.206 F 
HETATM    6  F2  UNL     1      89.078  84.865 -40.812  1.00  0.00    -0.206 F 
HETATM    7  C5  UNL     1      88.825  86.946 -39.684  1.00  0.00     0.082 C 
HETATM    8  C6  UNL     1      87.639  87.179 -38.832  1.00  0.00     0.046 C 
HETATM    9  C7  UNL     1      86.516  86.295 -39.189  1.00  0.00     0.085 C 
HETATM   10  C8  UNL     1      85.219  86.576 -38.504  1.00  0.00     0.120 C 
HETATM   11 CL1  UNL     1      85.104  85.589 -37.001  1.00  0.00    -0.122 Cl
HETATM   12  C9  UNL     1      84.205  86.022 -39.458  1.00  0.00     0.055 C 
HETATM   13  C10 UNL     1      84.928  85.771 -40.780  1.00  0.00     0.131 C 
ENDROOT
BRANCH   9  14
HETATM   14  O1  UNL     1      86.772  84.953 -39.035  1.00  0.00    -0.387 OA
ATOM     15  H1  UNL     1      87.383  84.818 -38.321  1.00  0.00     0.210 HD
ENDBRANCH   9  14
BRANCH  13  16
HETATM   16  O2  UNL     1      85.302  84.431 -40.893  1.00  0.00    -0.395 OA
ATOM     17  H2  UNL     1      85.996  84.256 -40.268  1.00  0.00     0.210 HD
ENDBRANCH  13  16
TORSDOF 2
ENDMDL
