MODEL 1
REMARK VINA RESULT: -5.109746778      0.000      0.000
REMARK  2 active torsions:
REMARK  status: ('A' for Active; 'I' for Inactive)
REMARK       I    between atoms: C1_2  and  N2_4 
REMARK    1  A    between atoms: N2_4  and  C2_6 
REMARK    2  A    between atoms: C2_6  and  C4_10 
ROOT
HETATM    1  C2  UNL     1      89.950  92.568 -43.298  1.00  0.00     0.101 C 
HETATM    2  C3  UNL     1      89.404  93.605 -42.625  1.00  0.00     0.130 C 
HETATM    3 CL1  UNL     1      87.959  93.286 -41.642  1.00  0.00    -0.069 Cl
HETATM    4 CL2  UNL     1      90.001  95.216 -42.642  1.00  0.00    -0.069 Cl
ENDROOT
BRANCH   1   5
HETATM    5  N2  UNL     1      89.293  91.328 -43.135  1.00  0.00    -0.309 N 
HETATM    6  C1  UNL     1      89.713  90.079 -42.694  1.00  0.00     0.333 C 
HETATM    7  N1  UNL     1      88.692  89.028 -42.675  1.00  0.00    -0.040 NA
HETATM    8  O1  UNL     1      90.846  89.737 -42.313  1.00  0.00    -0.251 OA
ATOM      9  H2  UNL     1      88.307  91.356 -43.393  1.00  0.00     0.170 HD
ENDBRANCH   1   5
BRANCH   1  10
HETATM   10  C4  UNL     1      91.127  92.698 -44.131  1.00  0.00     0.233 C 
HETATM   11 CL3  UNL     1      91.104  91.408 -45.370  1.00  0.00    -0.077 Cl
HETATM   12 CL4  UNL     1      91.236  94.243 -45.031  1.00  0.00    -0.077 Cl
HETATM   13 CL5  UNL     1      92.601  92.501 -43.131  1.00  0.00    -0.077 Cl
ENDBRANCH   1  10
TORSDOF 2
ENDMDL
MODEL 2
REMARK VINA RESULT: -5.043173524      0.111      1.465
REMARK  2 active torsions:
REMARK  status: ('A' for Active; 'I' for Inactive)
REMARK       I    between atoms: C1_2  and  N2_4 
REMARK    1  A    between atoms: N2_4  and  C2_6 
REMARK    2  A    between atoms: C2_6  and  C4_10 
ROOT
HETATM    1  C2  UNL     1      89.930  92.591 -43.329  1.00  0.00     0.101 C 
HETATM    2  C3  UNL     1      89.446  93.656 -42.651  1.00  0.00     0.130 C 
HETATM    3 CL1  UNL     1      88.024  93.404 -41.618  1.00  0.00    -0.069 Cl
HETATM    4 CL2  UNL     1      90.104  95.242 -42.707  1.00  0.00    -0.069 Cl
ENDROOT
BRANCH   1   5
HETATM    5  N2  UNL     1      89.231  91.380 -43.129  1.00  0.00    -0.309 N 
HETATM    6  C1  UNL     1      89.618  90.117 -42.695  1.00  0.00     0.333 C 
HETATM    7  N1  UNL     1      88.558  89.109 -42.626  1.00  0.00    -0.040 NA
HETATM    8  O1  UNL     1      90.751  89.734 -42.355  1.00  0.00    -0.251 OA
ATOM      9  H2  UNL     1      88.237  91.445 -43.349  1.00  0.00     0.170 HD
ENDBRANCH   1   5
BRANCH   1  10
HETATM   10  C4  UNL     1      91.082  92.666 -44.203  1.00  0.00     0.233 C 
HETATM   11 CL3  UNL     1      92.567  92.548 -43.212  1.00  0.00    -0.077 Cl
HETATM   12 CL4  UNL     1      91.191  91.349 -45.411  1.00  0.00    -0.077 Cl
HETATM   13 CL5  UNL     1      91.091  94.243 -45.056  1.00  0.00    -0.077 Cl
ENDBRANCH   1  10
TORSDOF 2
ENDMDL
MODEL 3
REMARK VINA RESULT: -4.983097378      0.110      1.455
REMARK  2 active torsions:
REMARK  status: ('A' for Active; 'I' for Inactive)
REMARK       I    between atoms: C1_2  and  N2_4 
REMARK    1  A    between atoms: N2_4  and  C2_6 
REMARK    2  A    between atoms: C2_6  and  C4_10 
ROOT
HETATM    1  C2  UNL     1      90.019  92.549 -43.338  1.00  0.00     0.101 C 
HETATM    2  C3  UNL     1      89.504  93.615 -42.685  1.00  0.00     0.130 C 
HETATM    3 CL1  UNL     1      88.052  93.358 -41.696  1.00  0.00    -0.069 Cl
HETATM    4 CL2  UNL     1      90.148  95.208 -42.734  1.00  0.00    -0.069 Cl
ENDROOT
BRANCH   1   5
HETATM    5  N2  UNL     1      89.327  91.333 -43.150  1.00  0.00    -0.309 N 
HETATM    6  C1  UNL     1      89.715  90.076 -42.702  1.00  0.00     0.333 C 
HETATM    7  N1  UNL     1      88.662  89.058 -42.654  1.00  0.00    -0.040 NA
HETATM    8  O1  UNL     1      90.843  89.703 -42.336  1.00  0.00    -0.251 OA
ATOM      9  H2  UNL     1      88.337  91.389 -43.392  1.00  0.00     0.170 HD
ENDBRANCH   1   5
BRANCH   1  10
HETATM   10  C4  UNL     1      91.198  92.629 -44.175  1.00  0.00     0.233 C 
HETATM   11 CL3  UNL     1      91.232  94.230 -44.974  1.00  0.00    -0.077 Cl
HETATM   12 CL4  UNL     1      92.750  92.487 -43.293  1.00  0.00    -0.077 Cl
HETATM   13 CL5  UNL     1      91.128  91.362 -45.440  1.00  0.00    -0.077 Cl
ENDBRANCH   1  10
TORSDOF 2
ENDMDL
MODEL 4
REMARK VINA RESULT: -4.969667285      3.046      4.252
REMARK  2 active torsions:
REMARK  status: ('A' for Active; 'I' for Inactive)
REMARK       I    between atoms: C1_2  and  N2_4 
REMARK    1  A    between atoms: N2_4  and  C2_6 
REMARK    2  A    between atoms: C2_6  and  C4_10 
ROOT
HETATM    1  C2  UNL     1      91.750  92.828 -43.115  1.00  0.00     0.101 C 
HETATM    2  C3  UNL     1      91.251  92.741 -44.369  1.00  0.00     0.130 C 
HETATM    3 CL1  UNL     1      90.369  94.142 -45.009  1.00  0.00    -0.069 Cl
HETATM    4 CL2  UNL     1      91.408  91.375 -45.400  1.00  0.00    -0.069 Cl
ENDROOT
BRANCH   1   5
HETATM    5  N2  UNL     1      91.504  94.049 -42.451  1.00  0.00    -0.309 N 
HETATM    6  C1  UNL     1      90.472  94.499 -41.636  1.00  0.00     0.333 C 
HETATM    7  N1  UNL     1      90.599  95.870 -41.136  1.00  0.00    -0.040 NA
HETATM    8  O1  UNL     1      89.453  93.885 -41.275  1.00  0.00    -0.251 OA
ATOM      9  H2  UNL     1      92.234  94.746 -42.600  1.00  0.00     0.170 HD
ENDBRANCH   1   5
BRANCH   1  10
HETATM   10  C4  UNL     1      92.488  91.755 -42.482  1.00  0.00     0.233 C 
HETATM   11 CL3  UNL     1      92.973  92.277 -40.841  1.00  0.00    -0.077 Cl
HETATM   12 CL4  UNL     1      91.559  90.240 -42.261  1.00  0.00    -0.077 Cl
HETATM   13 CL5  UNL     1      93.968  91.399 -43.428  1.00  0.00    -0.077 Cl
ENDBRANCH   1  10
TORSDOF 2
ENDMDL
MODEL 5
REMARK VINA RESULT: -4.859695339      2.955      4.257
REMARK  2 active torsions:
REMARK  status: ('A' for Active; 'I' for Inactive)
REMARK       I    between atoms: C1_2  and  N2_4 
REMARK    1  A    between atoms: N2_4  and  C2_6 
REMARK    2  A    between atoms: C2_6  and  C4_10 
ROOT
HETATM    1  C2  UNL     1      91.549  92.576 -42.633  1.00  0.00     0.101 C 
HETATM    2  C3  UNL     1      92.567  92.018 -41.940  1.00  0.00     0.130 C 
HETATM    3 CL1  UNL     1      93.440  93.041 -40.781  1.00  0.00    -0.069 Cl
HETATM    4 CL2  UNL     1      93.083  90.386 -42.090  1.00  0.00    -0.069 Cl
ENDROOT
BRANCH   1   5
HETATM    5  N2  UNL     1      91.297  93.936 -42.345  1.00  0.00    -0.309 N 
HETATM    6  C1  UNL     1      90.287  94.590 -41.650  1.00  0.00     0.333 C 
HETATM    7  N1  UNL     1      90.397  96.049 -41.580  1.00  0.00    -0.040 NA
HETATM    8  O1  UNL     1      89.300  94.095 -41.078  1.00  0.00    -0.251 OA
ATOM      9  H2  UNL     1      92.002  94.568 -42.725  1.00  0.00     0.170 HD
ENDBRANCH   1   5
BRANCH   1  10
HETATM   10  C4  UNL     1      90.762  91.848 -43.606  1.00  0.00     0.233 C 
HETATM   11 CL3  UNL     1      89.553  92.957 -44.318  1.00  0.00    -0.077 Cl
HETATM   12 CL4  UNL     1      91.698  91.191 -44.983  1.00  0.00    -0.077 Cl
HETATM   13 CL5  UNL     1      89.894  90.504 -42.796  1.00  0.00    -0.077 Cl
ENDBRANCH   1  10
TORSDOF 2
ENDMDL
