MODEL 1
REMARK VINA RESULT: -10.026327397      0.000      0.000
REMARK  5 active torsions:
REMARK  status: ('A' for Active; 'I' for Inactive)
REMARK    1  A    between atoms: C2_2  and  C3_3 
REMARK    2  A    between atoms: C3_3  and  C4_4 
REMARK    3  A    between atoms: C4_4  and  C5_5 
REMARK    4  A    between atoms: C17_20  and  O3_21 
REMARK    5  A    between atoms: C22_29  and  C23_30 
ROOT
HETATM    1  C5  UNL     1      -9.889 -31.766 -29.243  1.00  0.00    -0.006 C 
HETATM    2  C6  UNL     1     -10.593 -33.021 -28.961  1.00  0.00     0.020 C 
HETATM    3  C7  UNL     1     -10.340 -33.583 -27.556  1.00  0.00     0.079 C 
HETATM    4  C8  UNL     1      -9.142 -33.065 -26.860  1.00  0.00     0.129 C 
HETATM    5  O1  UNL     1      -8.469 -33.676 -26.087  1.00  0.00    -0.298 OA
HETATM    6  C9  UNL     1      -8.715 -31.623 -27.142  1.00  0.00     0.111 C 
HETATM    7  C10 UNL     1      -9.860 -31.118 -27.891  1.00  0.00     0.139 C 
HETATM    8  O2  UNL     1     -10.113 -29.825 -28.069  1.00  0.00    -0.361 OA
HETATM    9  C11 UNL     1     -11.245 -29.804 -28.954  1.00  0.00     0.142 C 
HETATM   10 BR1  UNL     1     -12.637 -30.779 -27.981  1.00  0.00    -0.053 Br
HETATM   11  C12 UNL     1     -10.581 -30.633 -30.004  1.00  0.00     0.044 C 
HETATM   12  C13 UNL     1      -9.408 -29.821 -30.513  1.00  0.00     0.010 C 
HETATM   13  C14 UNL     1      -9.723 -28.529 -31.187  1.00  0.00     0.008 C 
HETATM   14  C15 UNL     1     -11.112 -28.591 -31.648  1.00  0.00     0.017 C 
HETATM   15  C16 UNL     1     -11.251 -27.751 -32.926  1.00  0.00     0.013 C 
HETATM   16  C17 UNL     1     -11.898 -27.855 -30.542  1.00  0.00     0.088 C 
HETATM   17  C18 UNL     1     -11.554 -26.429 -30.739  1.00  0.00     0.120 C 
HETATM   18  C19 UNL     1     -11.160 -25.632 -29.564  1.00  0.00     0.163 C 
HETATM   19  O4  UNL     1     -10.873 -24.464 -29.755  1.00  0.00    -0.295 OA
HETATM   20  C20 UNL     1     -11.097 -26.162 -28.208  1.00  0.00     0.240 C 
HETATM   21  F1  UNL     1     -12.023 -25.584 -27.324  1.00  0.00    -0.241 F 
HETATM   22  C21 UNL     1     -10.987 -27.593 -28.197  1.00  0.00     0.071 C 
HETATM   23  C22 UNL     1     -11.778 -28.452 -29.197  1.00  0.00     0.133 C 
ENDROOT
BRANCH   1  24
HETATM   24  C4  UNL     1      -8.572 -32.122 -29.822  1.00  0.00     0.012 C 
BRANCH  24  25
HETATM   25  C3  UNL     1      -8.520 -33.310 -30.736  1.00  0.00     0.000 C 
BRANCH  25  26
HETATM   26  C2  UNL     1      -7.110 -33.461 -31.369  1.00  0.00    -0.005 C 
HETATM   27  C1  UNL     1      -6.659 -32.074 -31.737  1.00  0.00     0.005 C 
ENDBRANCH  25  26
ENDBRANCH  24  25
ENDBRANCH   1  24
BRANCH  23  28
HETATM   28  C23 UNL     1     -13.231 -28.296 -28.674  1.00  0.00     0.402 C 
HETATM   29  F2  UNL     1     -14.106 -29.221 -29.250  1.00  0.00    -0.170 F 
HETATM   30  F3  UNL     1     -13.298 -28.250 -27.312  1.00  0.00    -0.170 F 
HETATM   31  F4  UNL     1     -13.824 -27.121 -29.099  1.00  0.00    -0.170 F 
ENDBRANCH  23  28
BRANCH  16  32
HETATM   32  O3  UNL     1     -13.188 -28.040 -31.131  1.00  0.00    -0.388 OA
ATOM     33  H3  UNL     1     -13.506 -27.164 -30.946  1.00  0.00     0.210 HD
ENDBRANCH  16  32
TORSDOF 5
ENDMDL
MODEL 2
REMARK VINA RESULT: -9.354584886      2.404      6.467
REMARK  5 active torsions:
REMARK  status: ('A' for Active; 'I' for Inactive)
REMARK    1  A    between atoms: C2_2  and  C3_3 
REMARK    2  A    between atoms: C3_3  and  C4_4 
REMARK    3  A    between atoms: C4_4  and  C5_5 
REMARK    4  A    between atoms: C17_20  and  O3_21 
REMARK    5  A    between atoms: C22_29  and  C23_30 
ROOT
HETATM    1  C5  UNL     1     -11.988 -27.460 -29.739  1.00  0.00    -0.006 C 
HETATM    2  C6  UNL     1     -13.365 -27.134 -29.353  1.00  0.00     0.020 C 
HETATM    3  C7  UNL     1     -14.371 -27.180 -30.511  1.00  0.00     0.079 C 
HETATM    4  C8  UNL     1     -13.795 -27.112 -31.870  1.00  0.00     0.129 C 
HETATM    5  O1  UNL     1     -14.314 -26.612 -32.822  1.00  0.00    -0.298 OA
HETATM    6  C9  UNL     1     -12.414 -27.732 -32.097  1.00  0.00     0.111 C 
HETATM    7  C10 UNL     1     -12.204 -28.449 -30.845  1.00  0.00     0.139 C 
HETATM    8  O2  UNL     1     -11.303 -29.415 -30.690  1.00  0.00    -0.361 OA
HETATM    9  C11 UNL     1     -11.366 -29.736 -29.290  1.00  0.00     0.142 C 
HETATM   10 BR1  UNL     1     -13.220 -30.300 -29.006  1.00  0.00    -0.053 Br
HETATM   11  C12 UNL     1     -11.110 -28.334 -28.842  1.00  0.00     0.044 C 
HETATM   12  C13 UNL     1      -9.714 -27.983 -29.315  1.00  0.00     0.010 C 
HETATM   13  C14 UNL     1      -8.588 -28.778 -28.747  1.00  0.00     0.008 C 
HETATM   14  C15 UNL     1      -9.049 -29.371 -27.489  1.00  0.00     0.017 C 
HETATM   15  C16 UNL     1      -7.854 -29.501 -26.533  1.00  0.00     0.013 C 
HETATM   16  C17 UNL     1      -9.458 -30.806 -27.889  1.00  0.00     0.088 C 
HETATM   17  C18 UNL     1      -8.172 -31.499 -28.124  1.00  0.00     0.120 C 
HETATM   18  C19 UNL     1      -8.018 -32.300 -29.351  1.00  0.00     0.163 C 
HETATM   19  O4  UNL     1      -6.947 -32.853 -29.524  1.00  0.00    -0.295 OA
HETATM   20  C20 UNL     1      -9.066 -32.461 -30.350  1.00  0.00     0.240 C 
HETATM   21  F1  UNL     1      -9.540 -33.777 -30.475  1.00  0.00    -0.241 F 
HETATM   22  C21 UNL     1     -10.047 -31.417 -30.271  1.00  0.00     0.071 C 
HETATM   23  C22 UNL     1     -10.521 -30.882 -28.911  1.00  0.00     0.133 C 
ENDROOT
BRANCH   1  24
HETATM   24  C4  UNL     1     -11.327 -26.189 -30.123  1.00  0.00     0.012 C 
BRANCH  24  25
HETATM   25  C3  UNL     1     -11.543 -25.004 -29.231  1.00  0.00     0.000 C 
BRANCH  25  26
HETATM   26  C2  UNL     1     -10.192 -24.328 -28.871  1.00  0.00    -0.005 C 
HETATM   27  C1  UNL     1      -9.801 -24.855 -27.517  1.00  0.00     0.005 C 
ENDBRANCH  25  26
ENDBRANCH  24  25
ENDBRANCH   1  24
BRANCH  23  28
HETATM   28  C23 UNL     1     -11.361 -32.072 -28.374  1.00  0.00     0.402 C 
HETATM   29  F2  UNL     1     -12.176 -31.707 -27.299  1.00  0.00    -0.170 F 
HETATM   30  F3  UNL     1     -12.023 -32.738 -29.364  1.00  0.00    -0.170 F 
HETATM   31  F4  UNL     1     -10.582 -33.034 -27.757  1.00  0.00    -0.170 F 
ENDBRANCH  23  28
BRANCH  16  32
HETATM   32  O3  UNL     1      -9.894 -31.202 -26.586  1.00  0.00    -0.388 OA
ATOM     33  H3  UNL     1     -10.751 -31.508 -26.859  1.00  0.00     0.210 HD
ENDBRANCH  16  32
TORSDOF 5
ENDMDL
MODEL 3
REMARK VINA RESULT: -9.317743045      1.181      1.382
REMARK  5 active torsions:
REMARK  status: ('A' for Active; 'I' for Inactive)
REMARK    1  A    between atoms: C2_2  and  C3_3 
REMARK    2  A    between atoms: C3_3  and  C4_4 
REMARK    3  A    between atoms: C4_4  and  C5_5 
REMARK    4  A    between atoms: C17_20  and  O3_21 
REMARK    5  A    between atoms: C22_29  and  C23_30 
ROOT
HETATM    1  C5  UNL     1      -8.769 -31.556 -29.940  1.00  0.00    -0.006 C 
HETATM    2  C6  UNL     1      -9.031 -32.989 -30.112  1.00  0.00     0.020 C 
HETATM    3  C7  UNL     1      -8.714 -33.840 -28.874  1.00  0.00     0.079 C 
HETATM    4  C8  UNL     1      -7.817 -33.219 -27.876  1.00  0.00     0.129 C 
HETATM    5  O1  UNL     1      -7.040 -33.800 -27.182  1.00  0.00    -0.298 OA
HETATM    6  C9  UNL     1      -7.878 -31.699 -27.703  1.00  0.00     0.111 C 
HETATM    7  C10 UNL     1      -9.064 -31.361 -28.483  1.00  0.00     0.139 C 
HETATM    8  O2  UNL     1      -9.721 -30.212 -28.364  1.00  0.00    -0.361 OA
HETATM    9  C11 UNL     1     -10.723 -30.269 -29.394  1.00  0.00     0.142 C 
HETATM   10 BR1  UNL     1     -11.778 -31.859 -28.953  1.00  0.00    -0.053 Br
HETATM   11  C12 UNL     1      -9.740 -30.511 -30.493  1.00  0.00     0.044 C 
HETATM   12  C13 UNL     1      -8.871 -29.272 -30.569  1.00  0.00     0.010 C 
HETATM   13  C14 UNL     1      -9.548 -27.994 -30.935  1.00  0.00     0.008 C 
HETATM   14  C15 UNL     1     -10.795 -28.330 -31.626  1.00  0.00     0.017 C 
HETATM   15  C16 UNL     1     -11.109 -27.231 -32.651  1.00  0.00     0.013 C 
HETATM   16  C17 UNL     1     -11.867 -28.226 -30.518  1.00  0.00     0.088 C 
HETATM   17  C18 UNL     1     -12.007 -26.772 -30.282  1.00  0.00     0.120 C 
HETATM   18  C19 UNL     1     -11.995 -26.280 -28.894  1.00  0.00     0.163 C 
HETATM   19  O4  UNL     1     -12.103 -25.078 -28.729  1.00  0.00    -0.295 OA
HETATM   20  C20 UNL     1     -11.863 -27.144 -27.728  1.00  0.00     0.240 C 
HETATM   21  F1  UNL     1     -12.995 -27.160 -26.897  1.00  0.00    -0.241 F 
HETATM   22  C21 UNL     1     -11.281 -28.412 -28.065  1.00  0.00     0.071 C 
HETATM   23  C22 UNL     1     -11.657 -29.131 -29.370  1.00  0.00     0.133 C 
ENDROOT
BRANCH   1  24
HETATM   24  C4  UNL     1      -7.367 -31.313 -30.358  1.00  0.00     0.012 C 
BRANCH  24  25
HETATM   25  C3  UNL     1      -6.969 -31.771 -31.728  1.00  0.00     0.000 C 
BRANCH  25  26
HETATM   26  C2  UNL     1      -5.847 -32.842 -31.650  1.00  0.00    -0.005 C 
HETATM   27  C1  UNL     1      -6.343 -34.035 -32.420  1.00  0.00     0.005 C 
ENDBRANCH  25  26
ENDBRANCH  24  25
ENDBRANCH   1  24
BRANCH  23  28
HETATM   28  C23 UNL     1     -13.115 -29.580 -29.080  1.00  0.00     0.402 C 
HETATM   29  F2  UNL     1     -13.608 -30.451 -30.056  1.00  0.00    -0.170 F 
HETATM   30  F3  UNL     1     -13.281 -30.033 -27.804  1.00  0.00    -0.170 F 
HETATM   31  F4  UNL     1     -14.024 -28.546 -29.211  1.00  0.00    -0.170 F 
ENDBRANCH  23  28
BRANCH  16  32
HETATM   32  O3  UNL     1     -12.970 -28.605 -31.345  1.00  0.00    -0.388 OA
ATOM     33  H3  UNL     1     -12.650 -28.184 -32.134  1.00  0.00     0.210 HD
ENDBRANCH  16  32
TORSDOF 5
ENDMDL
MODEL 4
REMARK VINA RESULT: -9.310840935      2.367      3.914
REMARK  5 active torsions:
REMARK  status: ('A' for Active; 'I' for Inactive)
REMARK    1  A    between atoms: C2_2  and  C3_3 
REMARK    2  A    between atoms: C3_3  and  C4_4 
REMARK    3  A    between atoms: C4_4  and  C5_5 
REMARK    4  A    between atoms: C17_20  and  O3_21 
REMARK    5  A    between atoms: C22_29  and  C23_30 
ROOT
HETATM    1  C5  UNL     1     -10.161 -31.084 -28.571  1.00  0.00    -0.006 C 
HETATM    2  C6  UNL     1      -8.820 -31.545 -28.942  1.00  0.00     0.020 C 
HETATM    3  C7  UNL     1      -8.806 -32.827 -29.787  1.00  0.00     0.079 C 
HETATM    4  C8  UNL     1     -10.042 -33.639 -29.747  1.00  0.00     0.129 C 
HETATM    5  O1  UNL     1     -10.097 -34.827 -29.840  1.00  0.00    -0.298 OA
HETATM    6  C9  UNL     1     -11.376 -32.908 -29.576  1.00  0.00     0.111 C 
HETATM    7  C10 UNL     1     -10.975 -31.517 -29.754  1.00  0.00     0.139 C 
HETATM    8  O2  UNL     1     -11.826 -30.533 -30.028  1.00  0.00    -0.361 OA
HETATM    9  C11 UNL     1     -11.018 -29.346 -29.991  1.00  0.00     0.142 C 
HETATM   10 BR1  UNL     1      -9.654 -29.647 -31.364  1.00  0.00    -0.053 Br
HETATM   11  C12 UNL     1     -10.514 -29.595 -28.607  1.00  0.00     0.044 C 
HETATM   12  C13 UNL     1     -11.721 -29.528 -27.694  1.00  0.00     0.010 C 
HETATM   13  C14 UNL     1     -12.434 -28.220 -27.613  1.00  0.00     0.008 C 
HETATM   14  C15 UNL     1     -11.502 -27.175 -28.042  1.00  0.00     0.017 C 
HETATM   15  C16 UNL     1     -11.828 -25.876 -27.290  1.00  0.00     0.013 C 
HETATM   16  C17 UNL     1     -11.873 -26.938 -29.522  1.00  0.00     0.088 C 
HETATM   17  C18 UNL     1     -13.165 -26.218 -29.463  1.00  0.00     0.120 C 
HETATM   18  C19 UNL     1     -14.267 -26.678 -30.325  1.00  0.00     0.163 C 
HETATM   19  O4  UNL     1     -15.322 -26.074 -30.249  1.00  0.00    -0.295 OA
HETATM   20  C20 UNL     1     -14.161 -27.801 -31.247  1.00  0.00     0.240 C 
HETATM   21  F1  UNL     1     -14.281 -27.444 -32.600  1.00  0.00    -0.241 F 
HETATM   22  C21 UNL     1     -13.084 -28.683 -30.896  1.00  0.00     0.071 C 
HETATM   23  C22 UNL     1     -11.744 -28.127 -30.389  1.00  0.00     0.133 C 
ENDROOT
BRANCH   1  24
HETATM   24  C4  UNL     1     -10.503 -31.721 -27.277  1.00  0.00     0.012 C 
BRANCH  24  25
HETATM   25  C3  UNL     1      -9.371 -32.256 -26.453  1.00  0.00     0.000 C 
BRANCH  25  26
HETATM   26  C2  UNL     1      -9.562 -33.770 -26.166  1.00  0.00    -0.005 C 
HETATM   27  C1  UNL     1      -8.249 -34.433 -26.487  1.00  0.00     0.005 C 
ENDBRANCH  25  26
ENDBRANCH  24  25
ENDBRANCH   1  24
BRANCH  23  28
HETATM   28  C23 UNL     1     -11.154 -27.491 -31.676  1.00  0.00     0.402 C 
HETATM   29  F2  UNL     1     -11.702 -26.234 -31.949  1.00  0.00    -0.170 F 
HETATM   30  F3  UNL     1      -9.790 -27.512 -31.695  1.00  0.00    -0.170 F 
HETATM   31  F4  UNL     1     -11.536 -28.164 -32.822  1.00  0.00    -0.170 F 
ENDBRANCH  23  28
BRANCH  16  32
HETATM   32  O3  UNL     1     -10.873 -25.946 -29.768  1.00  0.00    -0.388 OA
ATOM     33  H3  UNL     1     -10.511 -26.362 -30.541  1.00  0.00     0.210 HD
ENDBRANCH  16  32
TORSDOF 5
ENDMDL
MODEL 5
REMARK VINA RESULT: -9.308117399      2.723      6.395
REMARK  5 active torsions:
REMARK  status: ('A' for Active; 'I' for Inactive)
REMARK    1  A    between atoms: C2_2  and  C3_3 
REMARK    2  A    between atoms: C3_3  and  C4_4 
REMARK    3  A    between atoms: C4_4  and  C5_5 
REMARK    4  A    between atoms: C17_20  and  O3_21 
REMARK    5  A    between atoms: C22_29  and  C23_30 
ROOT
HETATM    1  C5  UNL     1     -13.025 -27.930 -30.427  1.00  0.00    -0.006 C 
HETATM    2  C6  UNL     1     -13.796 -27.095 -29.500  1.00  0.00     0.020 C 
HETATM    3  C7  UNL     1     -15.235 -27.574 -29.268  1.00  0.00     0.079 C 
HETATM    4  C8  UNL     1     -15.779 -28.499 -30.286  1.00  0.00     0.129 C 
HETATM    5  O1  UNL     1     -16.922 -28.569 -30.623  1.00  0.00    -0.298 OA
HETATM    6  C9  UNL     1     -14.807 -29.459 -30.976  1.00  0.00     0.111 C 
HETATM    7  C10 UNL     1     -13.603 -29.290 -30.170  1.00  0.00     0.139 C 
HETATM    8  O2  UNL     1     -12.592 -30.152 -30.165  1.00  0.00    -0.361 OA
HETATM    9  C11 UNL     1     -11.596 -29.525 -29.339  1.00  0.00     0.142 C 
HETATM   10 BR1  UNL     1     -12.480 -29.296 -27.606  1.00  0.00    -0.053 Br
HETATM   11  C12 UNL     1     -11.560 -28.267 -30.144  1.00  0.00     0.044 C 
HETATM   12  C13 UNL     1     -11.046 -28.652 -31.516  1.00  0.00     0.010 C 
HETATM   13  C14 UNL     1      -9.658 -29.194 -31.590  1.00  0.00     0.008 C 
HETATM   14  C15 UNL     1      -8.942 -28.754 -30.390  1.00  0.00     0.017 C 
HETATM   15  C16 UNL     1      -7.456 -28.577 -30.734  1.00  0.00     0.013 C 
HETATM   16  C17 UNL     1      -9.039 -29.968 -29.440  1.00  0.00     0.088 C 
HETATM   17  C18 UNL     1      -8.113 -30.963 -30.025  1.00  0.00     0.120 C 
HETATM   18  C19 UNL     1      -8.582 -32.350 -30.187  1.00  0.00     0.163 C 
HETATM   19  O4  UNL     1      -7.804 -33.147 -30.679  1.00  0.00    -0.295 OA
HETATM   20  C20 UNL     1      -9.908 -32.809 -29.793  1.00  0.00     0.240 C 
HETATM   21  F1  UNL     1      -9.901 -33.750 -28.750  1.00  0.00    -0.241 F 
HETATM   22  C21 UNL     1     -10.841 -31.724 -29.689  1.00  0.00     0.071 C 
HETATM   23  C22 UNL     1     -10.416 -30.373 -29.094  1.00  0.00     0.133 C 
ENDROOT
BRANCH   1  24
HETATM   24  C4  UNL     1     -13.233 -27.381 -31.789  1.00  0.00     0.012 C 
BRANCH  24  25
HETATM   25  C3  UNL     1     -13.779 -25.989 -31.894  1.00  0.00     0.000 C 
BRANCH  25  26
HETATM   26  C2  UNL     1     -15.005 -25.945 -32.846  1.00  0.00    -0.005 C 
HETATM   27  C1  UNL     1     -16.114 -25.277 -32.080  1.00  0.00     0.005 C 
ENDBRANCH  25  26
ENDBRANCH  24  25
ENDBRANCH   1  24
BRANCH  23  28
HETATM   28  C23 UNL     1     -10.252 -30.722 -27.591  1.00  0.00     0.402 C 
HETATM   29  F2  UNL     1     -10.120 -29.583 -26.791  1.00  0.00    -0.170 F 
HETATM   30  F3  UNL     1     -11.199 -31.598 -27.148  1.00  0.00    -0.170 F 
HETATM   31  F4  UNL     1      -9.043 -31.336 -27.318  1.00  0.00    -0.170 F 
ENDBRANCH  23  28
BRANCH  16  32
HETATM   32  O3  UNL     1      -8.336 -29.360 -28.353  1.00  0.00    -0.388 OA
ATOM     33  H3  UNL     1      -8.607 -28.470 -28.548  1.00  0.00     0.210 HD
ENDBRANCH  16  32
TORSDOF 5
ENDMDL
