MODEL 1
REMARK VINA RESULT: -8.810643958      0.000      0.000
REMARK  6 active torsions:
REMARK  status: ('A' for Active; 'I' for Inactive)
REMARK    1  A    between atoms: O1_2  and  N1_3 
REMARK       I    between atoms: N1_3  and  C2_5 
REMARK       I    between atoms: C2_5  and  N2_7 
REMARK    2  A    between atoms: C5_10  and  N3_11 
REMARK    3  A    between atoms: N3_11  and  C6_12 
REMARK    4  A    between atoms: N3_11  and  C12_22 
REMARK    5  A    between atoms: C6_12  and  O3_13 
REMARK    6  A    between atoms: C6_12  and  C7_15 
ROOT
HETATM    1  C12 UNL     1     -12.345 -27.556 -29.562  1.00  0.00     0.060 A 
HETATM    2  C13 UNL     1     -13.414 -27.631 -28.675  1.00  0.00     0.033 A 
HETATM    3  C14 UNL     1     -14.740 -27.529 -29.037  1.00  0.00     0.027 A 
HETATM    4  C15 UNL     1     -15.050 -27.337 -30.362  1.00  0.00     0.068 A 
HETATM    5  C16 UNL     1     -16.424 -27.230 -30.789  1.00  0.00     0.101 C 
HETATM    6  N4  UNL     1     -17.535 -27.161 -31.134  1.00  0.00    -0.191 NA
HETATM    7  C17 UNL     1     -14.024 -27.255 -31.266  1.00  0.00     0.078 A 
HETATM    8 CL3  UNL     1     -14.419 -27.004 -32.973  1.00  0.00    -0.081 Cl
HETATM    9  C18 UNL     1     -12.689 -27.357 -30.906  1.00  0.00     0.084 A 
HETATM   10 CL4  UNL     1     -11.465 -27.162 -32.143  1.00  0.00    -0.080 Cl
ENDROOT
BRANCH   1  11
HETATM   11  N3  UNL     1     -10.993 -27.713 -29.146  1.00  0.00    -0.324 N 
BRANCH  11  12
HETATM   12  C5  UNL     1     -10.455 -29.093 -29.068  1.00  0.00     0.095 C 
HETATM   13  C4  UNL     1     -10.242 -29.494 -27.619  1.00  0.00     0.045 C 
HETATM   14  C3  UNL     1     -11.109 -30.735 -27.382  1.00  0.00     0.129 C 
HETATM   15  N2  UNL     1     -10.468 -31.736 -28.267  1.00  0.00    -0.332 N 
HETATM   16  C2  UNL     1      -9.828 -32.850 -27.703  1.00  0.00     0.342 C 
HETATM   17  C20 UNL     1     -10.528 -31.470 -29.666  1.00  0.00     0.129 C 
HETATM   18  N1  UNL     1      -9.226 -33.839 -28.493  1.00  0.00    -0.217 N 
HETATM   19  O2  UNL     1      -9.796 -32.965 -26.426  1.00  0.00    -0.245 OA
ATOM     20  H1  UNL     1      -9.276 -33.721 -29.505  1.00  0.00     0.199 HD
HETATM   21  C19 UNL     1     -11.147 -30.091 -29.905  1.00  0.00     0.045 C 
BRANCH  18  22
HETATM   22  O1  UNL     1      -8.591 -34.924 -28.037  1.00  0.00    -0.281 OA
HETATM   23  C1  UNL     1      -7.222 -34.831 -28.111  1.00  0.00     0.237 C 
ENDBRANCH  18  22
ENDBRANCH  11  12
BRANCH  11  24
HETATM   24  C6  UNL     1     -10.173 -26.659 -28.776  1.00  0.00     0.130 C 
BRANCH  24  25
HETATM   25  O3  UNL     1      -8.988 -26.694 -29.345  1.00  0.00    -0.348 OA
ATOM     26  H3  UNL     1      -8.748 -25.879 -29.770  1.00  0.00     0.219 HD
ENDBRANCH  24  25
BRANCH  24  27
HETATM   27  C7  UNL     1     -10.325 -25.532 -27.892  1.00  0.00     0.057 C 
HETATM   28  C8  UNL     1      -8.907 -25.185 -27.312  1.00  0.00     0.027 C 
HETATM   29  C9  UNL     1     -11.374 -25.372 -26.876  1.00  0.00     0.024 C 
HETATM   30  C10 UNL     1     -12.158 -24.506 -27.833  1.00  0.00     0.044 C 
HETATM   31  C11 UNL     1     -10.862 -24.269 -28.580  1.00  0.00     0.128 C 
HETATM   32 CL1  UNL     1     -11.040 -24.335 -30.322  1.00  0.00    -0.100 Cl
HETATM   33 CL2  UNL     1     -10.002 -22.794 -28.089  1.00  0.00    -0.100 Cl
ENDBRANCH  24  27
ENDBRANCH  11  24
ENDBRANCH   1  11
TORSDOF 6
ENDMDL
MODEL 2
REMARK VINA RESULT: -8.802977925      3.183      7.351
REMARK  6 active torsions:
REMARK  status: ('A' for Active; 'I' for Inactive)
REMARK    1  A    between atoms: O1_2  and  N1_3 
REMARK       I    between atoms: N1_3  and  C2_5 
REMARK       I    between atoms: C2_5  and  N2_7 
REMARK    2  A    between atoms: C5_10  and  N3_11 
REMARK    3  A    between atoms: N3_11  and  C6_12 
REMARK    4  A    between atoms: N3_11  and  C12_22 
REMARK    5  A    between atoms: C6_12  and  O3_13 
REMARK    6  A    between atoms: C6_12  and  C7_15 
ROOT
HETATM    1  C12 UNL     1     -10.891 -29.016 -28.464  1.00  0.00     0.060 A 
HETATM    2  C13 UNL     1     -11.797 -29.801 -27.758  1.00  0.00     0.033 A 
HETATM    3  C14 UNL     1     -11.518 -31.053 -27.251  1.00  0.00     0.027 A 
HETATM    4  C15 UNL     1     -10.265 -31.581 -27.447  1.00  0.00     0.068 A 
HETATM    5  C16 UNL     1      -9.926 -32.885 -26.930  1.00  0.00     0.101 C 
HETATM    6  N4  UNL     1      -9.649 -33.931 -26.497  1.00  0.00    -0.191 NA
HETATM    7  C17 UNL     1      -9.345 -30.839 -28.140  1.00  0.00     0.078 A 
HETATM    8 CL3  UNL     1      -7.732 -31.518 -28.398  1.00  0.00    -0.081 Cl
HETATM    9  C18 UNL     1      -9.621 -29.580 -28.652  1.00  0.00     0.084 A 
HETATM   10 CL4  UNL     1      -8.386 -28.760 -29.584  1.00  0.00    -0.080 Cl
ENDROOT
BRANCH   1  11
HETATM   11  N3  UNL     1     -11.210 -27.710 -28.928  1.00  0.00    -0.324 N 
BRANCH  11  12
HETATM   12  C5  UNL     1     -10.809 -26.561 -28.078  1.00  0.00     0.095 C 
HETATM   13  C4  UNL     1      -9.983 -25.574 -28.884  1.00  0.00     0.045 C 
HETATM   14  C3  UNL     1     -10.737 -24.242 -28.841  1.00  0.00     0.129 C 
HETATM   15  N2  UNL     1     -10.661 -23.888 -27.404  1.00  0.00    -0.332 N 
HETATM   16  C2  UNL     1      -9.924 -22.762 -27.006  1.00  0.00     0.342 C 
HETATM   17  C20 UNL     1     -11.340 -24.759 -26.503  1.00  0.00     0.129 C 
HETATM   18  N1  UNL     1      -9.837 -22.368 -25.663  1.00  0.00    -0.217 N 
HETATM   19  O2  UNL     1      -9.314 -22.074 -27.900  1.00  0.00    -0.245 OA
ATOM     20  H1  UNL     1     -10.341 -22.932 -24.979  1.00  0.00     0.199 HD
HETATM   21  C19 UNL     1     -11.887 -25.968 -27.266  1.00  0.00     0.045 C 
BRANCH  18  22
HETATM   22  O1  UNL     1      -9.152 -21.316 -25.201  1.00  0.00    -0.281 OA
HETATM   23  C1  UNL     1      -8.467 -21.575 -24.039  1.00  0.00     0.237 C 
ENDBRANCH  18  22
ENDBRANCH  11  12
BRANCH  11  24
HETATM   24  C6  UNL     1     -11.903 -27.456 -30.101  1.00  0.00     0.130 C 
BRANCH  24  25
HETATM   25  O3  UNL     1     -11.220 -27.745 -31.186  1.00  0.00    -0.348 OA
ATOM     26  H3  UNL     1     -10.743 -27.004 -31.541  1.00  0.00     0.219 HD
ENDBRANCH  24  25
BRANCH  24  27
HETATM   27  C7  UNL     1     -13.211 -26.932 -30.400  1.00  0.00     0.057 C 
HETATM   28  C8  UNL     1     -13.107 -26.121 -31.740  1.00  0.00     0.027 C 
HETATM   29  C9  UNL     1     -14.112 -26.274 -29.443  1.00  0.00     0.024 C 
HETATM   30  C10 UNL     1     -14.863 -27.572 -29.268  1.00  0.00     0.044 C 
HETATM   31  C11 UNL     1     -14.285 -28.012 -30.597  1.00  0.00     0.128 C 
HETATM   32 CL1  UNL     1     -13.738 -29.676 -30.602  1.00  0.00    -0.100 Cl
HETATM   33 CL2  UNL     1     -15.342 -27.690 -31.989  1.00  0.00    -0.100 Cl
ENDBRANCH  24  27
ENDBRANCH  11  24
ENDBRANCH   1  11
TORSDOF 6
ENDMDL
MODEL 3
REMARK VINA RESULT: -8.798755407      3.266      6.365
REMARK  6 active torsions:
REMARK  status: ('A' for Active; 'I' for Inactive)
REMARK    1  A    between atoms: O1_2  and  N1_3 
REMARK       I    between atoms: N1_3  and  C2_5 
REMARK       I    between atoms: C2_5  and  N2_7 
REMARK    2  A    between atoms: C5_10  and  N3_11 
REMARK    3  A    between atoms: N3_11  and  C6_12 
REMARK    4  A    between atoms: N3_11  and  C12_22 
REMARK    5  A    between atoms: C6_12  and  O3_13 
REMARK    6  A    between atoms: C6_12  and  C7_15 
ROOT
HETATM    1  C12 UNL     1     -12.839 -27.376 -30.421  1.00  0.00     0.060 A 
HETATM    2  C13 UNL     1     -13.013 -26.314 -31.303  1.00  0.00     0.033 A 
HETATM    3  C14 UNL     1     -14.200 -26.006 -31.933  1.00  0.00     0.027 A 
HETATM    4  C15 UNL     1     -15.301 -26.792 -31.689  1.00  0.00     0.068 A 
HETATM    5  C16 UNL     1     -16.566 -26.504 -32.322  1.00  0.00     0.101 C 
HETATM    6  N4  UNL     1     -17.590 -26.261 -32.821  1.00  0.00    -0.191 NA
HETATM    7  C17 UNL     1     -15.169 -27.849 -30.828  1.00  0.00     0.078 A 
HETATM    8 CL3  UNL     1     -16.583 -28.865 -30.515  1.00  0.00    -0.081 Cl
HETATM    9  C18 UNL     1     -13.977 -28.162 -30.192  1.00  0.00     0.084 A 
HETATM   10 CL4  UNL     1     -13.915 -29.583 -29.171  1.00  0.00    -0.080 Cl
ENDROOT
BRANCH   1  11
HETATM   11  N3  UNL     1     -11.606 -27.626 -29.758  1.00  0.00    -0.324 N 
BRANCH  11  12
HETATM   12  C5  UNL     1     -11.155 -26.637 -28.749  1.00  0.00     0.095 C 
HETATM   13  C4  UNL     1     -10.219 -25.625 -29.386  1.00  0.00     0.045 C 
HETATM   14  C3  UNL     1     -10.868 -24.251 -29.190  1.00  0.00     0.129 C 
HETATM   15  N2  UNL     1     -10.829 -24.096 -27.717  1.00  0.00    -0.332 N 
HETATM   16  C2  UNL     1     -10.025 -23.098 -27.147  1.00  0.00     0.342 C 
HETATM   17  C20 UNL     1     -11.614 -25.018 -26.965  1.00  0.00     0.129 C 
HETATM   18  N1  UNL     1      -9.968 -22.892 -25.760  1.00  0.00    -0.217 N 
HETATM   19  O2  UNL     1      -9.324 -22.351 -27.919  1.00  0.00    -0.245 OA
ATOM     20  H1  UNL     1     -10.544 -23.497 -25.176  1.00  0.00     0.199 HD
HETATM   21  C19 UNL     1     -12.219 -26.067 -27.902  1.00  0.00     0.045 C 
BRANCH  18  22
HETATM   22  O1  UNL     1      -9.224 -21.971 -25.138  1.00  0.00    -0.281 OA
HETATM   23  C1  UNL     1      -9.873 -21.353 -24.097  1.00  0.00     0.237 C 
ENDBRANCH  18  22
ENDBRANCH  11  12
BRANCH  11  24
HETATM   24  C6  UNL     1     -10.792 -28.714 -30.030  1.00  0.00     0.130 C 
BRANCH  24  25
HETATM   25  O3  UNL     1     -10.617 -28.929 -31.315  1.00  0.00    -0.348 OA
ATOM     26  H3  UNL     1     -11.343 -29.384 -31.725  1.00  0.00     0.219 HD
ENDBRANCH  24  25
BRANCH  24  27
HETATM   27  C7  UNL     1     -10.097 -29.677 -29.214  1.00  0.00     0.057 C 
HETATM   28  C8  UNL     1     -10.385 -31.103 -29.806  1.00  0.00     0.027 C 
HETATM   29  C9  UNL     1     -10.076 -29.700 -27.744  1.00  0.00     0.024 C 
HETATM   30  C10 UNL     1      -8.735 -29.006 -27.760  1.00  0.00     0.044 C 
HETATM   31  C11 UNL     1      -8.574 -29.488 -29.187  1.00  0.00     0.128 C 
HETATM   32 CL1  UNL     1      -7.911 -28.273 -30.261  1.00  0.00    -0.100 Cl
HETATM   33 CL2  UNL     1      -7.684 -31.018 -29.339  1.00  0.00    -0.100 Cl
ENDBRANCH  24  27
ENDBRANCH  11  24
ENDBRANCH   1  11
TORSDOF 6
ENDMDL
MODEL 4
REMARK VINA RESULT: -8.666539879      2.393      5.112
REMARK  6 active torsions:
REMARK  status: ('A' for Active; 'I' for Inactive)
REMARK    1  A    between atoms: O1_2  and  N1_3 
REMARK       I    between atoms: N1_3  and  C2_5 
REMARK       I    between atoms: C2_5  and  N2_7 
REMARK    2  A    between atoms: C5_10  and  N3_11 
REMARK    3  A    between atoms: N3_11  and  C6_12 
REMARK    4  A    between atoms: N3_11  and  C12_22 
REMARK    5  A    between atoms: C6_12  and  O3_13 
REMARK    6  A    between atoms: C6_12  and  C7_15 
ROOT
HETATM    1  C12 UNL     1     -11.864 -26.119 -28.201  1.00  0.00     0.060 A 
HETATM    2  C13 UNL     1     -11.059 -25.551 -29.184  1.00  0.00     0.033 A 
HETATM    3  C14 UNL     1     -10.420 -24.336 -29.065  1.00  0.00     0.027 A 
HETATM    4  C15 UNL     1     -10.577 -23.617 -27.905  1.00  0.00     0.068 A 
HETATM    5  C16 UNL     1      -9.923 -22.341 -27.735  1.00  0.00     0.101 C 
HETATM    6  N4  UNL     1      -9.381 -21.320 -27.592  1.00  0.00    -0.191 NA
HETATM    7  C17 UNL     1     -11.365 -24.141 -26.914  1.00  0.00     0.078 A 
HETATM    8 CL3  UNL     1     -11.573 -23.216 -25.421  1.00  0.00    -0.081 Cl
HETATM    9  C18 UNL     1     -12.009 -25.364 -27.029  1.00  0.00     0.084 A 
HETATM   10 CL4  UNL     1     -13.048 -25.894 -25.723  1.00  0.00    -0.080 Cl
ENDROOT
BRANCH   1  11
HETATM   11  N3  UNL     1     -12.466 -27.399 -28.350  1.00  0.00    -0.324 N 
BRANCH  11  12
HETATM   12  C5  UNL     1     -11.763 -28.563 -27.754  1.00  0.00     0.095 C 
HETATM   13  C4  UNL     1     -12.526 -29.843 -28.044  1.00  0.00     0.045 C 
HETATM   14  C3  UNL     1     -11.568 -30.750 -28.823  1.00  0.00     0.129 C 
HETATM   15  N2  UNL     1     -10.514 -31.025 -27.818  1.00  0.00    -0.332 N 
HETATM   16  C2  UNL     1     -10.347 -32.329 -27.328  1.00  0.00     0.342 C 
HETATM   17  C20 UNL     1      -9.743 -29.904 -27.392  1.00  0.00     0.129 C 
HETATM   18  N1  UNL     1      -9.351 -32.649 -26.394  1.00  0.00    -0.217 N 
HETATM   19  O2  UNL     1     -11.129 -33.253 -27.750  1.00  0.00    -0.245 OA
ATOM     20  H1  UNL     1      -8.741 -31.892 -26.086  1.00  0.00     0.199 HD
HETATM   21  C19 UNL     1     -10.311 -28.621 -28.005  1.00  0.00     0.045 C 
BRANCH  18  22
HETATM   22  O1  UNL     1      -9.130 -33.860 -25.873  1.00  0.00    -0.281 OA
HETATM   23  C1  UNL     1      -8.050 -34.506 -26.422  1.00  0.00     0.237 C 
ENDBRANCH  18  22
ENDBRANCH  11  12
BRANCH  11  24
HETATM   24  C6  UNL     1     -13.641 -27.622 -29.049  1.00  0.00     0.130 C 
BRANCH  24  25
HETATM   25  O3  UNL     1     -14.720 -27.514 -28.306  1.00  0.00    -0.348 OA
ATOM     26  H3  UNL     1     -15.036 -28.346 -27.973  1.00  0.00     0.219 HD
ENDBRANCH  24  25
BRANCH  24  27
HETATM   27  C7  UNL     1     -13.948 -27.959 -30.415  1.00  0.00     0.057 C 
HETATM   28  C8  UNL     1     -14.921 -29.192 -30.398  1.00  0.00     0.027 C 
HETATM   29  C9  UNL     1     -12.977 -28.058 -31.514  1.00  0.00     0.024 C 
HETATM   30  C10 UNL     1     -13.349 -26.663 -31.958  1.00  0.00     0.044 C 
HETATM   31  C11 UNL     1     -14.645 -26.834 -31.194  1.00  0.00     0.128 C 
HETATM   32 CL1  UNL     1     -15.108 -25.412 -30.280  1.00  0.00    -0.100 Cl
HETATM   33 CL2  UNL     1     -16.000 -27.415 -32.186  1.00  0.00    -0.100 Cl
ENDBRANCH  24  27
ENDBRANCH  11  24
ENDBRANCH   1  11
TORSDOF 6
ENDMDL
MODEL 5
REMARK VINA RESULT: -8.606066274      2.495      5.144
REMARK  6 active torsions:
REMARK  status: ('A' for Active; 'I' for Inactive)
REMARK    1  A    between atoms: O1_2  and  N1_3 
REMARK       I    between atoms: N1_3  and  C2_5 
REMARK       I    between atoms: C2_5  and  N2_7 
REMARK    2  A    between atoms: C5_10  and  N3_11 
REMARK    3  A    between atoms: N3_11  and  C6_12 
REMARK    4  A    between atoms: N3_11  and  C12_22 
REMARK    5  A    between atoms: C6_12  and  O3_13 
REMARK    6  A    between atoms: C6_12  and  C7_15 
ROOT
HETATM    1  C12 UNL     1     -12.119 -26.163 -29.011  1.00  0.00     0.060 A 
HETATM    2  C13 UNL     1     -11.375 -25.402 -29.906  1.00  0.00     0.033 A 
HETATM    3  C14 UNL     1     -10.715 -24.236 -29.582  1.00  0.00     0.027 A 
HETATM    4  C15 UNL     1     -10.787 -23.774 -28.290  1.00  0.00     0.068 A 
HETATM    5  C16 UNL     1     -10.108 -22.560 -27.902  1.00  0.00     0.101 C 
HETATM    6  N4  UNL     1      -9.545 -21.589 -27.588  1.00  0.00    -0.191 NA
HETATM    7  C17 UNL     1     -11.513 -24.494 -27.379  1.00  0.00     0.078 A 
HETATM    8 CL3  UNL     1     -11.611 -23.900 -25.715  1.00  0.00    -0.081 Cl
HETATM    9  C18 UNL     1     -12.178 -25.668 -27.700  1.00  0.00     0.084 A 
HETATM   10 CL4  UNL     1     -13.135 -26.461 -26.467  1.00  0.00    -0.080 Cl
ENDROOT
BRANCH   1  11
HETATM   11  N3  UNL     1     -12.745 -27.386 -29.382  1.00  0.00    -0.324 N 
BRANCH  11  12
HETATM   12  C5  UNL     1     -11.943 -28.630 -29.269  1.00  0.00     0.095 C 
HETATM   13  C4  UNL     1     -12.799 -29.760 -28.725  1.00  0.00     0.045 C 
HETATM   14  C3  UNL     1     -12.785 -30.863 -29.788  1.00  0.00     0.129 C 
HETATM   15  N2  UNL     1     -11.363 -31.280 -29.783  1.00  0.00    -0.332 N 
HETATM   16  C2  UNL     1     -11.020 -32.568 -29.346  1.00  0.00     0.342 C 
HETATM   17  C20 UNL     1     -10.419 -30.302 -30.212  1.00  0.00     0.129 C 
HETATM   18  N1  UNL     1      -9.693 -33.022 -29.343  1.00  0.00    -0.217 N 
HETATM   19  O2  UNL     1     -11.950 -33.351 -28.938  1.00  0.00    -0.245 OA
ATOM     20  H1  UNL     1      -8.980 -32.377 -29.681  1.00  0.00     0.199 HD
HETATM   21  C19 UNL     1     -11.128 -28.967 -30.451  1.00  0.00     0.045 C 
BRANCH  18  22
HETATM   22  O1  UNL     1      -9.282 -34.228 -28.936  1.00  0.00    -0.281 OA
HETATM   23  C1  UNL     1      -7.936 -34.439 -29.115  1.00  0.00     0.237 C 
ENDBRANCH  18  22
ENDBRANCH  11  12
BRANCH  11  24
HETATM   24  C6  UNL     1     -14.037 -27.472 -29.875  1.00  0.00     0.130 C 
BRANCH  24  25
HETATM   25  O3  UNL     1     -14.956 -27.487 -28.935  1.00  0.00    -0.348 OA
ATOM     26  H3  UNL     1     -15.323 -28.350 -28.779  1.00  0.00     0.219 HD
ENDBRANCH  24  25
BRANCH  24  27
HETATM   27  C7  UNL     1     -14.602 -27.562 -31.197  1.00  0.00     0.057 C 
HETATM   28  C8  UNL     1     -15.540 -28.821 -31.233  1.00  0.00     0.027 C 
HETATM   29  C9  UNL     1     -13.864 -27.407 -32.459  1.00  0.00     0.024 C 
HETATM   30  C10 UNL     1     -14.330 -25.973 -32.546  1.00  0.00     0.044 C 
HETATM   31  C11 UNL     1     -15.449 -26.345 -31.596  1.00  0.00     0.128 C 
HETATM   32 CL1  UNL     1     -15.737 -25.143 -30.354  1.00  0.00    -0.100 Cl
HETATM   33 CL2  UNL     1     -16.966 -26.793 -32.405  1.00  0.00    -0.100 Cl
ENDBRANCH  24  27
ENDBRANCH  11  24
ENDBRANCH   1  11
TORSDOF 6
ENDMDL
