MODEL 1
REMARK VINA RESULT: -8.098548355      0.000      0.000
REMARK  5 active torsions:
REMARK  status: ('A' for Active; 'I' for Inactive)
REMARK    1  A    between atoms: C2_2  and  C3_4 
REMARK    2  A    between atoms: C3_4  and  O2_6 
REMARK    3  A    between atoms: C3_4  and  C5_8 
REMARK    4  A    between atoms: C6_11  and  O3_12 
REMARK    5  A    between atoms: O3_12  and  C7_13 
ROOT
HETATM    1  C5  UNL     1     -14.249 -27.605 -30.228  1.00  0.00     0.092 A 
HETATM    2  N1  UNL     1     -13.309 -28.486 -29.909  1.00  0.00    -0.332 N 
ATOM      3  H1  UNL     1     -13.277 -29.364 -30.427  1.00  0.00     0.168 HD
HETATM    4  C6  UNL     1     -12.375 -28.284 -28.919  1.00  0.00     0.188 A 
HETATM    5  C13 UNL     1     -12.459 -27.098 -28.254  1.00  0.00     0.170 A 
HETATM    6  F1  UNL     1     -11.645 -26.719 -27.235  1.00  0.00    -0.201 F 
HETATM    7  C14 UNL     1     -13.439 -26.140 -28.560  1.00  0.00     0.091 A 
HETATM    8  C15 UNL     1     -14.328 -26.399 -29.546  1.00  0.00     0.145 A 
HETATM    9  F2  UNL     1     -15.308 -25.559 -29.926  1.00  0.00    -0.204 F 
ENDROOT
BRANCH   4  10
HETATM   10  O3  UNL     1     -11.469 -29.216 -28.661  1.00  0.00    -0.288 OA
BRANCH  10  11
HETATM   11  C7  UNL     1     -10.399 -29.785 -29.230  1.00  0.00     0.112 A 
HETATM   12  C8  UNL     1      -9.202 -29.146 -29.520  1.00  0.00     0.047 A 
HETATM   13 BR1  UNL     1      -9.016 -27.295 -29.115  1.00  0.00    -0.048 Br
HETATM   14  C9  UNL     1      -8.170 -29.844 -30.103  1.00  0.00     0.041 A 
HETATM   15  C10 UNL     1      -8.244 -31.171 -30.428  1.00  0.00     0.013 A 
HETATM   16 BR2  UNL     1      -6.796 -32.115 -31.237  1.00  0.00    -0.051 Br
HETATM   17  C11 UNL     1      -9.408 -31.825 -30.154  1.00  0.00     0.041 A 
HETATM   18  C12 UNL     1     -10.455 -31.137 -29.567  1.00  0.00     0.047 A 
HETATM   19 BR3  UNL     1     -12.000 -32.209 -29.144  1.00  0.00    -0.048 Br
ENDBRANCH  10  11
ENDBRANCH   4  10
BRANCH   1  20
HETATM   20  C3  UNL     1     -15.199 -27.875 -31.316  1.00  0.00     0.159 C 
HETATM   21  C4  UNL     1     -15.055 -27.048 -32.529  1.00  0.00     0.061 C 
BRANCH  20  22
HETATM   22  C2  UNL     1     -16.617 -27.916 -30.889  1.00  0.00     0.163 C 
HETATM   23  C1  UNL     1     -17.186 -29.013 -30.016  1.00  0.00     0.094 C 
HETATM   24  O1  UNL     1     -17.419 -27.063 -31.218  1.00  0.00    -0.295 OA
ENDBRANCH  20  22
BRANCH  20  25
HETATM   25  O2  UNL     1     -14.915 -29.226 -31.700  1.00  0.00    -0.376 OA
ATOM     26  H2  UNL     1     -14.701 -29.657 -30.881  1.00  0.00     0.211 HD
ENDBRANCH  20  25
ENDBRANCH   1  20
TORSDOF 5
ENDMDL
MODEL 2
REMARK VINA RESULT: -8.088406192      1.438      1.564
REMARK  5 active torsions:
REMARK  status: ('A' for Active; 'I' for Inactive)
REMARK    1  A    between atoms: C2_2  and  C3_4 
REMARK    2  A    between atoms: C3_4  and  O2_6 
REMARK    3  A    between atoms: C3_4  and  C5_8 
REMARK    4  A    between atoms: C6_11  and  O3_12 
REMARK    5  A    between atoms: O3_12  and  C7_13 
ROOT
HETATM    1  C5  UNL     1     -13.606 -27.803 -30.412  1.00  0.00     0.092 A 
HETATM    2  N1  UNL     1     -12.724 -28.730 -30.768  1.00  0.00    -0.332 N 
ATOM      3  H1  UNL     1     -12.840 -29.180 -31.677  1.00  0.00     0.168 HD
HETATM    4  C6  UNL     1     -11.664 -29.119 -29.983  1.00  0.00     0.188 A 
HETATM    5  C13 UNL     1     -11.554 -28.492 -28.778  1.00  0.00     0.170 A 
HETATM    6  F1  UNL     1     -10.592 -28.748 -27.854  1.00  0.00    -0.201 F 
HETATM    7  C14 UNL     1     -12.466 -27.507 -28.364  1.00  0.00     0.091 A 
HETATM    8  C15 UNL     1     -13.487 -27.169 -29.184  1.00  0.00     0.145 A 
HETATM    9  F2  UNL     1     -14.419 -26.243 -28.895  1.00  0.00    -0.204 F 
ENDROOT
BRANCH   4  10
HETATM   10  O3  UNL     1     -10.829 -30.054 -30.411  1.00  0.00    -0.288 OA
BRANCH  10  11
HETATM   11  C7  UNL     1      -9.755 -30.734 -29.990  1.00  0.00     0.112 A 
HETATM   12  C8  UNL     1      -8.444 -30.278 -30.029  1.00  0.00     0.047 A 
HETATM   13 BR1  UNL     1      -8.081 -28.555 -30.751  1.00  0.00    -0.048 Br
HETATM   14  C9  UNL     1      -7.424 -31.072 -29.559  1.00  0.00     0.041 A 
HETATM   15  C10 UNL     1      -7.618 -32.323 -29.039  1.00  0.00     0.013 A 
HETATM   16 BR2  UNL     1      -6.183 -33.403 -28.394  1.00  0.00    -0.051 Br
HETATM   17  C11 UNL     1      -8.896 -32.795 -28.988  1.00  0.00     0.041 A 
HETATM   18  C12 UNL     1      -9.933 -32.009 -29.455  1.00  0.00     0.047 A 
HETATM   19 BR3  UNL     1     -11.692 -32.761 -29.228  1.00  0.00    -0.048 Br
ENDBRANCH  10  11
ENDBRANCH   4  10
BRANCH   1  20
HETATM   20  C3  UNL     1     -14.700 -27.417 -31.314  1.00  0.00     0.159 C 
HETATM   21  C4  UNL     1     -14.750 -25.996 -31.708  1.00  0.00     0.061 C 
BRANCH  20  22
HETATM   22  C2  UNL     1     -16.040 -27.875 -30.876  1.00  0.00     0.163 C 
HETATM   23  C1  UNL     1     -16.335 -29.303 -30.477  1.00  0.00     0.094 C 
HETATM   24  O1  UNL     1     -16.994 -27.123 -30.811  1.00  0.00    -0.295 OA
ENDBRANCH  20  22
BRANCH  20  25
HETATM   25  O2  UNL     1     -14.452 -28.169 -32.508  1.00  0.00    -0.376 OA
ATOM     26  H2  UNL     1     -14.128 -29.003 -32.190  1.00  0.00     0.211 HD
ENDBRANCH  20  25
ENDBRANCH   1  20
TORSDOF 5
ENDMDL
MODEL 3
REMARK VINA RESULT: -8.074614251      1.741      2.027
REMARK  5 active torsions:
REMARK  status: ('A' for Active; 'I' for Inactive)
REMARK    1  A    between atoms: C2_2  and  C3_4 
REMARK    2  A    between atoms: C3_4  and  O2_6 
REMARK    3  A    between atoms: C3_4  and  C5_8 
REMARK    4  A    between atoms: C6_11  and  O3_12 
REMARK    5  A    between atoms: O3_12  and  C7_13 
ROOT
HETATM    1  C5  UNL     1     -13.571 -27.765 -29.994  1.00  0.00     0.092 A 
HETATM    2  N1  UNL     1     -12.710 -28.696 -30.387  1.00  0.00    -0.332 N 
ATOM      3  H1  UNL     1     -13.002 -29.340 -31.123  1.00  0.00     0.168 HD
HETATM    4  C6  UNL     1     -11.448 -28.844 -29.860  1.00  0.00     0.188 A 
HETATM    5  C13 UNL     1     -11.106 -27.962 -28.879  1.00  0.00     0.170 A 
HETATM    6  F1  UNL     1      -9.918 -27.955 -28.221  1.00  0.00    -0.201 F 
HETATM    7  C14 UNL     1     -11.987 -26.963 -28.434  1.00  0.00     0.091 A 
HETATM    8  C15 UNL     1     -13.214 -26.871 -28.994  1.00  0.00     0.145 A 
HETATM    9  F2  UNL     1     -14.140 -25.958 -28.650  1.00  0.00    -0.204 F 
ENDROOT
BRANCH   4  10
HETATM   10  O3  UNL     1     -10.650 -29.801 -30.308  1.00  0.00    -0.288 OA
BRANCH  10  11
HETATM   11  C7  UNL     1      -9.645 -30.576 -29.879  1.00  0.00     0.112 A 
HETATM   12  C8  UNL     1      -8.294 -30.269 -29.966  1.00  0.00     0.047 A 
HETATM   13 BR1  UNL     1      -7.765 -28.628 -30.772  1.00  0.00    -0.048 Br
HETATM   14  C9  UNL     1      -7.355 -31.149 -29.483  1.00  0.00     0.041 A 
HETATM   15  C10 UNL     1      -7.669 -32.347 -28.902  1.00  0.00     0.013 A 
HETATM   16 BR2  UNL     1      -6.343 -33.550 -28.240  1.00  0.00    -0.051 Br
HETATM   17  C11 UNL     1      -8.989 -32.675 -28.803  1.00  0.00     0.041 A 
HETATM   18  C12 UNL     1      -9.946 -31.800 -29.283  1.00  0.00     0.047 A 
HETATM   19 BR3  UNL     1     -11.771 -32.346 -28.986  1.00  0.00    -0.048 Br
ENDBRANCH  10  11
ENDBRANCH   4  10
BRANCH   1  20
HETATM   20  C3  UNL     1     -14.894 -27.648 -30.620  1.00  0.00     0.159 C 
HETATM   21  C4  UNL     1     -15.321 -28.782 -31.462  1.00  0.00     0.061 C 
BRANCH  20  22
HETATM   22  C2  UNL     1     -15.119 -26.368 -31.333  1.00  0.00     0.163 C 
HETATM   23  C1  UNL     1     -16.321 -25.485 -31.085  1.00  0.00     0.094 C 
HETATM   24  O1  UNL     1     -14.344 -25.946 -32.170  1.00  0.00    -0.295 OA
ENDBRANCH  20  22
BRANCH  20  25
HETATM   25  O2  UNL     1     -15.802 -27.590 -29.513  1.00  0.00    -0.376 OA
ATOM     26  H2  UNL     1     -15.487 -28.266 -28.924  1.00  0.00     0.211 HD
ENDBRANCH  20  25
ENDBRANCH   1  20
TORSDOF 5
ENDMDL
MODEL 4
REMARK VINA RESULT: -8.044549228      1.720      2.701
REMARK  5 active torsions:
REMARK  status: ('A' for Active; 'I' for Inactive)
REMARK    1  A    between atoms: C2_2  and  C3_4 
REMARK    2  A    between atoms: C3_4  and  O2_6 
REMARK    3  A    between atoms: C3_4  and  C5_8 
REMARK    4  A    between atoms: C6_11  and  O3_12 
REMARK    5  A    between atoms: O3_12  and  C7_13 
ROOT
HETATM    1  C5  UNL     1     -13.575 -27.666 -30.063  1.00  0.00     0.092 A 
HETATM    2  N1  UNL     1     -12.706 -28.595 -30.441  1.00  0.00    -0.332 N 
ATOM      3  H1  UNL     1     -13.006 -29.278 -31.138  1.00  0.00     0.168 HD
HETATM    4  C6  UNL     1     -11.426 -28.691 -29.948  1.00  0.00     0.188 A 
HETATM    5  C13 UNL     1     -11.074 -27.758 -29.019  1.00  0.00     0.170 A 
HETATM    6  F1  UNL     1      -9.867 -27.696 -28.400  1.00  0.00    -0.201 F 
HETATM    7  C14 UNL     1     -11.964 -26.760 -28.591  1.00  0.00     0.091 A 
HETATM    8  C15 UNL     1     -13.209 -26.719 -29.116  1.00  0.00     0.145 A 
HETATM    9  F2  UNL     1     -14.145 -25.812 -28.784  1.00  0.00    -0.204 F 
ENDROOT
BRANCH   4  10
HETATM   10  O3  UNL     1     -10.620 -29.651 -30.377  1.00  0.00    -0.288 OA
BRANCH  10  11
HETATM   11  C7  UNL     1      -9.725 -30.524 -29.896  1.00  0.00     0.112 A 
HETATM   12  C8  UNL     1     -10.025 -31.723 -29.264  1.00  0.00     0.047 A 
HETATM   13 BR1  UNL     1     -11.849 -32.208 -29.012  1.00  0.00    -0.048 Br
HETATM   14  C9  UNL     1      -9.013 -32.539 -28.818  1.00  0.00     0.041 A 
HETATM   15  C10 UNL     1      -7.685 -32.243 -28.959  1.00  0.00     0.013 A 
HETATM   16 BR2  UNL     1      -6.300 -33.396 -28.329  1.00  0.00    -0.051 Br
HETATM   17  C11 UNL     1      -7.361 -31.072 -29.577  1.00  0.00     0.041 A 
HETATM   18  C12 UNL     1      -8.367 -30.240 -30.033  1.00  0.00     0.047 A 
HETATM   19 BR3  UNL     1      -7.764 -28.671 -30.975  1.00  0.00    -0.048 Br
ENDBRANCH  10  11
ENDBRANCH   4  10
BRANCH   1  20
HETATM   20  C3  UNL     1     -14.920 -27.606 -30.652  1.00  0.00     0.159 C 
HETATM   21  C4  UNL     1     -15.355 -28.796 -31.408  1.00  0.00     0.061 C 
BRANCH  20  22
HETATM   22  C2  UNL     1     -15.188 -26.376 -31.434  1.00  0.00     0.163 C 
HETATM   23  C1  UNL     1     -16.369 -25.469 -31.168  1.00  0.00     0.094 C 
HETATM   24  O1  UNL     1     -14.468 -26.016 -32.346  1.00  0.00    -0.295 OA
ENDBRANCH  20  22
BRANCH  20  25
HETATM   25  O2  UNL     1     -15.793 -27.493 -29.521  1.00  0.00    -0.376 OA
ATOM     26  H2  UNL     1     -15.364 -28.010 -28.849  1.00  0.00     0.211 HD
ENDBRANCH  20  25
ENDBRANCH   1  20
TORSDOF 5
ENDMDL
MODEL 5
REMARK VINA RESULT: -7.977947214      0.155      1.922
REMARK  5 active torsions:
REMARK  status: ('A' for Active; 'I' for Inactive)
REMARK    1  A    between atoms: C2_2  and  C3_4 
REMARK    2  A    between atoms: C3_4  and  O2_6 
REMARK    3  A    between atoms: C3_4  and  C5_8 
REMARK    4  A    between atoms: C6_11  and  O3_12 
REMARK    5  A    between atoms: O3_12  and  C7_13 
ROOT
HETATM    1  C5  UNL     1     -14.214 -27.484 -30.216  1.00  0.00     0.092 A 
HETATM    2  N1  UNL     1     -13.262 -28.346 -29.877  1.00  0.00    -0.332 N 
ATOM      3  H1  UNL     1     -13.196 -29.219 -30.400  1.00  0.00     0.168 HD
HETATM    4  C6  UNL     1     -12.359 -28.128 -28.862  1.00  0.00     0.188 A 
HETATM    5  C13 UNL     1     -12.490 -26.948 -28.192  1.00  0.00     0.170 A 
HETATM    6  F1  UNL     1     -11.712 -26.557 -27.149  1.00  0.00    -0.201 F 
HETATM    7  C14 UNL     1     -13.483 -26.011 -28.519  1.00  0.00     0.091 A 
HETATM    8  C15 UNL     1     -14.340 -26.285 -29.529  1.00  0.00     0.145 A 
HETATM    9  F2  UNL     1     -15.329 -25.467 -29.930  1.00  0.00    -0.204 F 
ENDROOT
BRANCH   4  10
HETATM   10  O3  UNL     1     -11.439 -29.040 -28.586  1.00  0.00    -0.288 OA
BRANCH  10  11
HETATM   11  C7  UNL     1     -10.471 -29.732 -29.200  1.00  0.00     0.112 A 
HETATM   12  C8  UNL     1     -10.550 -31.063 -29.586  1.00  0.00     0.047 A 
HETATM   13 BR1  UNL     1     -12.139 -32.044 -29.218  1.00  0.00    -0.048 Br
HETATM   14  C9  UNL     1      -9.485 -31.662 -30.216  1.00  0.00     0.041 A 
HETATM   15  C10 UNL     1      -8.312 -31.016 -30.500  1.00  0.00     0.013 A 
HETATM   16 BR2  UNL     1      -6.849 -31.873 -31.376  1.00  0.00    -0.051 Br
HETATM   17  C11 UNL     1      -8.208 -29.707 -30.132  1.00  0.00     0.041 A 
HETATM   18  C12 UNL     1      -9.270 -29.089 -29.498  1.00  0.00     0.047 A 
HETATM   19 BR3  UNL     1      -9.021 -27.215 -29.128  1.00  0.00    -0.048 Br
ENDBRANCH  10  11
ENDBRANCH   4  10
BRANCH   1  20
HETATM   20  C3  UNL     1     -15.128 -27.770 -31.330  1.00  0.00     0.159 C 
HETATM   21  C4  UNL     1     -14.965 -26.939 -32.538  1.00  0.00     0.061 C 
BRANCH  20  22
HETATM   22  C2  UNL     1     -16.557 -27.837 -30.943  1.00  0.00     0.163 C 
HETATM   23  C1  UNL     1     -17.124 -28.928 -30.062  1.00  0.00     0.094 C 
HETATM   24  O1  UNL     1     -17.370 -27.012 -31.314  1.00  0.00    -0.295 OA
ENDBRANCH  20  22
BRANCH  20  25
HETATM   25  O2  UNL     1     -14.810 -29.115 -31.708  1.00  0.00    -0.376 OA
ATOM     26  H2  UNL     1     -13.996 -29.295 -31.251  1.00  0.00     0.211 HD
ENDBRANCH  20  25
ENDBRANCH   1  20
TORSDOF 5
ENDMDL
