MODEL 1
REMARK VINA RESULT: -10.084521773      0.000      0.000
REMARK  4 active torsions:
REMARK  status: ('A' for Active; 'I' for Inactive)
REMARK    1  A    between atoms: C3_3  and  O1_4 
REMARK    2  A    between atoms: O1_4  and  C4_5 
REMARK    3  A    between atoms: C12_18  and  C13_19 
REMARK    4  A    between atoms: C13_19  and  C14_20 
ROOT
HETATM    1  C1  UNL     1      -8.787 -27.372 -28.986  1.00  0.00     0.071 C 
HETATM    2  C2  UNL     1      -9.423 -28.604 -29.516  1.00  0.00     0.043 C 
HETATM    3  C3  UNL     1     -10.760 -28.825 -29.260  1.00  0.00     0.119 C 
HETATM    4  C10 UNL     1     -11.268 -30.108 -28.957  1.00  0.00     0.097 C 
HETATM    5 BR1  UNL     1     -12.714 -30.155 -27.735  1.00  0.00    -0.044 Br
HETATM    6  C11 UNL     1     -10.847 -31.333 -29.419  1.00  0.00     0.200 C 
HETATM    7  O2  UNL     1     -11.655 -32.278 -29.383  1.00  0.00    -0.286 OA
HETATM    8  C12 UNL     1      -9.596 -31.696 -29.946  1.00  0.00     0.021 C 
HETATM    9  C19 UNL     1      -8.652 -30.789 -30.357  1.00  0.00     0.018 C 
HETATM   10  C20 UNL     1      -7.504 -31.307 -31.078  1.00  0.00     0.069 C 
HETATM   11  N3  UNL     1      -8.585 -29.423 -30.214  1.00  0.00    -0.356 N 
HETATM   12  C21 UNL     1      -7.508 -28.738 -30.858  1.00  0.00     0.156 C 
ENDROOT
BRANCH   3  13
HETATM   13  O1  UNL     1     -11.624 -27.798 -29.293  1.00  0.00    -0.304 OA
BRANCH  13  14
HETATM   14  C4  UNL     1     -12.696 -27.492 -30.046  1.00  0.00     0.122 A 
HETATM   15  C5  UNL     1     -13.850 -26.965 -29.491  1.00  0.00     0.083 A 
HETATM   16  N1  UNL     1     -14.030 -26.711 -28.108  1.00  0.00    -0.099 NA
HETATM   17  C6  UNL     1     -14.959 -26.645 -30.281  1.00  0.00     0.053 A 
HETATM   18  C7  UNL     1     -14.946 -26.840 -31.630  1.00  0.00     0.037 A 
HETATM   19 CL1  UNL     1     -16.329 -26.445 -32.640  1.00  0.00    -0.084 Cl
HETATM   20  C8  UNL     1     -13.815 -27.358 -32.195  1.00  0.00     0.050 A 
HETATM   21  C9  UNL     1     -12.722 -27.671 -31.402  1.00  0.00     0.071 A 
HETATM   22 CL2  UNL     1     -11.313 -28.243 -32.309  1.00  0.00    -0.081 Cl
ENDBRANCH  13  14
ENDBRANCH   3  13
BRANCH   8  23
HETATM   23  C13 UNL     1      -9.266 -33.110 -30.072  1.00  0.00     0.101 C 
BRANCH  23  24
HETATM   24  C14 UNL     1      -8.774 -33.752 -28.807  1.00  0.00     0.016 A 
HETATM   25  C15 UNL     1      -7.574 -34.419 -28.755  1.00  0.00     0.070 A 
HETATM   26  C16 UNL     1      -7.083 -35.008 -27.604  1.00  0.00     0.158 A 
HETATM   27  F1  UNL     1      -5.879 -35.663 -27.596  1.00  0.00    -0.203 F 
HETATM   28  C17 UNL     1      -7.866 -34.897 -26.487  1.00  0.00     0.170 A 
HETATM   29  F2  UNL     1      -7.445 -35.449 -25.327  1.00  0.00    -0.201 F 
HETATM   30  C18 UNL     1      -9.068 -34.233 -26.529  1.00  0.00     0.133 A 
HETATM   31  N2  UNL     1      -9.477 -33.691 -27.671  1.00  0.00    -0.366 N 
ATOM     32  H2  UNL     1     -10.373 -33.202 -27.681  1.00  0.00     0.165 HD
ENDBRANCH  23  24
ENDBRANCH   8  23
TORSDOF 4
ENDMDL
MODEL 2
REMARK VINA RESULT: -9.789174159      1.330      1.584
REMARK  4 active torsions:
REMARK  status: ('A' for Active; 'I' for Inactive)
REMARK    1  A    between atoms: C3_3  and  O1_4 
REMARK    2  A    between atoms: O1_4  and  C4_5 
REMARK    3  A    between atoms: C12_18  and  C13_19 
REMARK    4  A    between atoms: C13_19  and  C14_20 
ROOT
HETATM    1  C1  UNL     1      -8.650 -27.576 -29.184  1.00  0.00     0.071 C 
HETATM    2  C2  UNL     1      -9.345 -28.807 -29.638  1.00  0.00     0.043 C 
HETATM    3  C3  UNL     1     -10.677 -28.972 -29.326  1.00  0.00     0.119 C 
HETATM    4  C10 UNL     1     -11.215 -30.223 -28.950  1.00  0.00     0.097 C 
HETATM    5 BR1  UNL     1     -12.616 -30.171 -27.677  1.00  0.00    -0.044 Br
HETATM    6  C11 UNL     1     -10.850 -31.480 -29.374  1.00  0.00     0.200 C 
HETATM    7  O2  UNL     1     -11.686 -32.396 -29.269  1.00  0.00    -0.286 OA
HETATM    8  C12 UNL     1      -9.632 -31.907 -29.928  1.00  0.00     0.021 C 
HETATM    9  C19 UNL     1      -8.675 -31.050 -30.411  1.00  0.00     0.018 C 
HETATM   10  C20 UNL     1      -7.572 -31.636 -31.149  1.00  0.00     0.069 C 
HETATM   11  N3  UNL     1      -8.559 -29.682 -30.330  1.00  0.00    -0.356 N 
HETATM   12  C21 UNL     1      -7.485 -29.061 -31.040  1.00  0.00     0.156 C 
ENDROOT
BRANCH   3  13
HETATM   13  O1  UNL     1     -11.509 -27.919 -29.373  1.00  0.00    -0.304 OA
BRANCH  13  14
HETATM   14  C4  UNL     1     -12.591 -27.604 -30.109  1.00  0.00     0.122 A 
HETATM   15  C5  UNL     1     -12.610 -27.771 -31.484  1.00  0.00     0.083 A 
HETATM   16  N1  UNL     1     -11.521 -28.263 -32.246  1.00  0.00    -0.099 NA
HETATM   17  C6  UNL     1     -13.740 -27.445 -32.241  1.00  0.00     0.053 A 
HETATM   18  C7  UNL     1     -14.866 -26.950 -31.655  1.00  0.00     0.037 A 
HETATM   19 CL1  UNL     1     -16.296 -26.534 -32.588  1.00  0.00    -0.084 Cl
HETATM   20  C8  UNL     1     -14.865 -26.780 -30.299  1.00  0.00     0.050 A 
HETATM   21  C9  UNL     1     -13.739 -27.107 -29.558  1.00  0.00     0.071 A 
HETATM   22 CL2  UNL     1     -13.946 -26.913 -27.810  1.00  0.00    -0.081 Cl
ENDBRANCH  13  14
ENDBRANCH   3  13
BRANCH   8  23
HETATM   23  C13 UNL     1      -9.352 -33.335 -30.004  1.00  0.00     0.101 C 
BRANCH  23  24
HETATM   24  C14 UNL     1      -8.813 -33.935 -28.739  1.00  0.00     0.016 A 
HETATM   25  C15 UNL     1      -7.603 -34.585 -28.705  1.00  0.00     0.070 A 
HETATM   26  C16 UNL     1      -7.069 -35.135 -27.555  1.00  0.00     0.158 A 
HETATM   27  F1  UNL     1      -5.857 -35.774 -27.566  1.00  0.00    -0.203 F 
HETATM   28  C17 UNL     1      -7.818 -35.002 -26.417  1.00  0.00     0.170 A 
HETATM   29  F2  UNL     1      -7.354 -35.517 -25.256  1.00  0.00    -0.201 F 
HETATM   30  C18 UNL     1      -9.031 -34.355 -26.441  1.00  0.00     0.133 A 
HETATM   31  N2  UNL     1      -9.482 -33.851 -27.583  1.00  0.00    -0.366 N 
ATOM     32  H2  UNL     1     -10.384 -33.375 -27.579  1.00  0.00     0.165 HD
ENDBRANCH  23  24
ENDBRANCH   8  23
TORSDOF 4
ENDMDL
MODEL 3
REMARK VINA RESULT: -9.672453472      1.495      1.969
REMARK  4 active torsions:
REMARK  status: ('A' for Active; 'I' for Inactive)
REMARK    1  A    between atoms: C3_3  and  O1_4 
REMARK    2  A    between atoms: O1_4  and  C4_5 
REMARK    3  A    between atoms: C12_18  and  C13_19 
REMARK    4  A    between atoms: C13_19  and  C14_20 
ROOT
HETATM    1  C1  UNL     1      -8.647 -27.697 -29.206  1.00  0.00     0.071 C 
HETATM    2  C2  UNL     1      -9.379 -28.908 -29.656  1.00  0.00     0.043 C 
HETATM    3  C3  UNL     1     -10.716 -29.031 -29.343  1.00  0.00     0.119 C 
HETATM    4  C10 UNL     1     -11.291 -30.264 -28.962  1.00  0.00     0.097 C 
HETATM    5 BR1  UNL     1     -12.691 -30.165 -27.689  1.00  0.00    -0.044 Br
HETATM    6  C11 UNL     1     -10.965 -31.533 -29.382  1.00  0.00     0.200 C 
HETATM    7  O2  UNL     1     -11.828 -32.423 -29.273  1.00  0.00    -0.286 OA
HETATM    8  C12 UNL     1      -9.761 -31.999 -29.934  1.00  0.00     0.021 C 
HETATM    9  C19 UNL     1      -8.778 -31.173 -30.420  1.00  0.00     0.018 C 
HETATM   10  C20 UNL     1      -7.693 -31.795 -31.156  1.00  0.00     0.069 C 
HETATM   11  N3  UNL     1      -8.620 -29.809 -30.344  1.00  0.00    -0.356 N 
HETATM   12  C21 UNL     1      -7.528 -29.224 -31.056  1.00  0.00     0.156 C 
ENDROOT
BRANCH   3  13
HETATM   13  O1  UNL     1     -11.516 -27.954 -29.394  1.00  0.00    -0.304 OA
BRANCH  13  14
HETATM   14  C4  UNL     1     -12.585 -27.608 -30.133  1.00  0.00     0.122 A 
HETATM   15  C5  UNL     1     -12.604 -27.771 -31.508  1.00  0.00     0.083 A 
HETATM   16  N1  UNL     1     -11.527 -28.292 -32.268  1.00  0.00    -0.099 NA
HETATM   17  C6  UNL     1     -13.722 -27.413 -32.269  1.00  0.00     0.053 A 
HETATM   18  C7  UNL     1     -14.836 -26.889 -31.686  1.00  0.00     0.037 A 
HETATM   19 CL1  UNL     1     -16.250 -26.432 -32.624  1.00  0.00    -0.084 Cl
HETATM   20  C8  UNL     1     -14.836 -26.722 -30.330  1.00  0.00     0.050 A 
HETATM   21  C9  UNL     1     -13.722 -27.081 -29.585  1.00  0.00     0.071 A 
HETATM   22 CL2  UNL     1     -13.929 -26.884 -27.838  1.00  0.00    -0.081 Cl
ENDBRANCH  13  14
ENDBRANCH   3  13
BRANCH   8  23
HETATM   23  C13 UNL     1      -9.524 -33.435 -30.005  1.00  0.00     0.101 C 
BRANCH  23  24
HETATM   24  C14 UNL     1      -8.809 -34.011 -28.817  1.00  0.00     0.016 A 
HETATM   25  C15 UNL     1      -9.291 -33.858 -27.539  1.00  0.00     0.070 A 
HETATM   26  C16 UNL     1      -8.667 -34.388 -26.425  1.00  0.00     0.158 A 
HETATM   27  F1  UNL     1      -9.184 -34.213 -25.168  1.00  0.00    -0.203 F 
HETATM   28  C17 UNL     1      -7.516 -35.092 -26.654  1.00  0.00     0.170 A 
HETATM   29  F2  UNL     1      -6.856 -35.638 -25.608  1.00  0.00    -0.201 F 
HETATM   30  C18 UNL     1      -7.025 -35.249 -27.928  1.00  0.00     0.133 A 
HETATM   31  N2  UNL     1      -7.677 -34.711 -28.953  1.00  0.00    -0.366 N 
ATOM     32  H2  UNL     1      -7.296 -34.840 -29.890  1.00  0.00     0.165 HD
ENDBRANCH  23  24
ENDBRANCH   8  23
TORSDOF 4
ENDMDL
MODEL 4
REMARK VINA RESULT: -9.422009463      4.684      8.319
REMARK  4 active torsions:
REMARK  status: ('A' for Active; 'I' for Inactive)
REMARK    1  A    between atoms: C3_3  and  O1_4 
REMARK    2  A    between atoms: O1_4  and  C4_5 
REMARK    3  A    between atoms: C12_18  and  C13_19 
REMARK    4  A    between atoms: C13_19  and  C14_20 
ROOT
HETATM    1  C1  UNL     1      -8.114 -30.660 -31.104  1.00  0.00     0.071 C 
HETATM    2  C2  UNL     1      -9.121 -30.574 -30.016  1.00  0.00     0.043 C 
HETATM    3  C3  UNL     1      -9.758 -31.726 -29.608  1.00  0.00     0.119 C 
HETATM    4  C10 UNL     1     -11.130 -31.751 -29.273  1.00  0.00     0.097 C 
HETATM    5 BR1  UNL     1     -12.055 -33.349 -29.697  1.00  0.00    -0.044 Br
HETATM    6  C11 UNL     1     -11.893 -30.766 -28.690  1.00  0.00     0.200 C 
HETATM    7  O2  UNL     1     -12.934 -31.108 -28.100  1.00  0.00    -0.286 OA
HETATM    8  C12 UNL     1     -11.671 -29.380 -28.657  1.00  0.00     0.021 C 
HETATM    9  C19 UNL     1     -10.470 -28.795 -28.971  1.00  0.00     0.018 C 
HETATM   10  C20 UNL     1     -10.325 -27.380 -28.682  1.00  0.00     0.069 C 
HETATM   11  N3  UNL     1      -9.325 -29.317 -29.528  1.00  0.00    -0.356 N 
HETATM   12  C21 UNL     1      -8.185 -28.461 -29.632  1.00  0.00     0.156 C 
ENDROOT
BRANCH   3  13
HETATM   13  O1  UNL     1      -9.069 -32.875 -29.520  1.00  0.00    -0.304 OA
BRANCH  13  14
HETATM   14  C4  UNL     1      -8.341 -33.467 -28.556  1.00  0.00     0.122 A 
HETATM   15  C5  UNL     1      -8.936 -34.055 -27.451  1.00  0.00     0.083 A 
HETATM   16  N1  UNL     1     -10.332 -34.084 -27.215  1.00  0.00    -0.099 NA
HETATM   17  C6  UNL     1      -8.173 -34.673 -26.456  1.00  0.00     0.053 A 
HETATM   18  C7  UNL     1      -6.813 -34.720 -26.533  1.00  0.00     0.037 A 
HETATM   19 CL1  UNL     1      -5.836 -35.491 -25.292  1.00  0.00    -0.084 Cl
HETATM   20  C8  UNL     1      -6.209 -34.146 -27.616  1.00  0.00     0.050 A 
HETATM   21  C9  UNL     1      -6.976 -33.537 -28.598  1.00  0.00     0.071 A 
HETATM   22 CL2  UNL     1      -6.038 -32.930 -29.972  1.00  0.00    -0.081 Cl
ENDBRANCH  13  14
ENDBRANCH   3  13
BRANCH   8  23
HETATM   23  C13 UNL     1     -12.763 -28.498 -28.268  1.00  0.00     0.101 C 
BRANCH  23  24
HETATM   24  C14 UNL     1     -13.713 -28.151 -29.378  1.00  0.00     0.016 A 
HETATM   25  C15 UNL     1     -14.328 -26.924 -29.447  1.00  0.00     0.070 A 
HETATM   26  C16 UNL     1     -15.194 -26.566 -30.463  1.00  0.00     0.158 A 
HETATM   27  F1  UNL     1     -15.784 -25.330 -30.494  1.00  0.00    -0.203 F 
HETATM   28  C17 UNL     1     -15.421 -27.512 -31.426  1.00  0.00     0.170 A 
HETATM   29  F2  UNL     1     -16.258 -27.227 -32.449  1.00  0.00    -0.201 F 
HETATM   30  C18 UNL     1     -14.812 -28.742 -31.365  1.00  0.00     0.133 A 
HETATM   31  N2  UNL     1     -13.990 -29.018 -30.359  1.00  0.00    -0.366 N 
ATOM     32  H2  UNL     1     -13.549 -29.937 -30.333  1.00  0.00     0.165 HD
ENDBRANCH  23  24
ENDBRANCH   8  23
TORSDOF 4
ENDMDL
MODEL 5
REMARK VINA RESULT: -9.083571232      4.622      8.414
REMARK  4 active torsions:
REMARK  status: ('A' for Active; 'I' for Inactive)
REMARK    1  A    between atoms: C3_3  and  O1_4 
REMARK    2  A    between atoms: O1_4  and  C4_5 
REMARK    3  A    between atoms: C12_18  and  C13_19 
REMARK    4  A    between atoms: C13_19  and  C14_20 
ROOT
HETATM    1  C1  UNL     1      -8.113 -30.517 -31.279  1.00  0.00     0.071 C 
HETATM    2  C2  UNL     1      -9.106 -30.436 -30.177  1.00  0.00     0.043 C 
HETATM    3  C3  UNL     1      -9.736 -31.590 -29.764  1.00  0.00     0.119 C 
HETATM    4  C10 UNL     1     -11.104 -31.618 -29.412  1.00  0.00     0.097 C 
HETATM    5 BR1  UNL     1     -12.032 -33.216 -29.828  1.00  0.00    -0.044 Br
HETATM    6  C11 UNL     1     -11.861 -30.635 -28.816  1.00  0.00     0.200 C 
HETATM    7  O2  UNL     1     -12.893 -30.980 -28.214  1.00  0.00    -0.286 OA
HETATM    8  C12 UNL     1     -11.640 -29.249 -28.782  1.00  0.00     0.021 C 
HETATM    9  C19 UNL     1     -10.444 -28.661 -29.110  1.00  0.00     0.018 C 
HETATM   10  C20 UNL     1     -10.297 -27.247 -28.819  1.00  0.00     0.069 C 
HETATM   11  N3  UNL     1      -9.306 -29.180 -29.683  1.00  0.00    -0.356 N 
HETATM   12  C21 UNL     1      -8.168 -28.322 -29.800  1.00  0.00     0.156 C 
ENDROOT
BRANCH   3  13
HETATM   13  O1  UNL     1      -9.044 -32.738 -29.688  1.00  0.00    -0.304 OA
BRANCH  13  14
HETATM   14  C4  UNL     1      -8.303 -33.331 -28.735  1.00  0.00     0.122 A 
HETATM   15  C5  UNL     1      -6.921 -33.390 -28.818  1.00  0.00     0.083 A 
HETATM   16  N1  UNL     1      -6.160 -32.862 -29.890  1.00  0.00    -0.099 NA
HETATM   17  C6  UNL     1      -6.158 -34.004 -27.820  1.00  0.00     0.053 A 
HETATM   18  C7  UNL     1      -6.743 -34.569 -26.727  1.00  0.00     0.037 A 
HETATM   19 CL1  UNL     1      -5.801 -35.347 -25.463  1.00  0.00    -0.084 Cl
HETATM   20  C8  UNL     1      -8.105 -34.519 -26.629  1.00  0.00     0.050 A 
HETATM   21  C9  UNL     1      -8.853 -33.907 -27.623  1.00  0.00     0.071 A 
HETATM   22 CL2  UNL     1     -10.591 -33.851 -27.288  1.00  0.00    -0.081 Cl
ENDBRANCH  13  14
ENDBRANCH   3  13
BRANCH   8  23
HETATM   23  C13 UNL     1     -12.729 -28.369 -28.378  1.00  0.00     0.101 C 
BRANCH  23  24
HETATM   24  C14 UNL     1     -13.704 -28.037 -29.470  1.00  0.00     0.016 A 
HETATM   25  C15 UNL     1     -14.366 -26.833 -29.506  1.00  0.00     0.070 A 
HETATM   26  C16 UNL     1     -15.257 -26.488 -30.504  1.00  0.00     0.158 A 
HETATM   27  F1  UNL     1     -15.895 -25.275 -30.503  1.00  0.00    -0.203 F 
HETATM   28  C17 UNL     1     -15.459 -27.422 -31.484  1.00  0.00     0.170 A 
HETATM   29  F2  UNL     1     -16.318 -27.148 -32.492  1.00  0.00    -0.201 F 
HETATM   30  C18 UNL     1     -14.802 -28.629 -31.456  1.00  0.00     0.133 A 
HETATM   31  N2  UNL     1     -13.959 -28.893 -30.465  1.00  0.00    -0.366 N 
ATOM     32  H2  UNL     1     -13.482 -29.795 -30.463  1.00  0.00     0.165 HD
ENDBRANCH  23  24
ENDBRANCH   8  23
TORSDOF 4
ENDMDL
