MODEL 1
REMARK VINA RESULT: -10.392867167      0.000      0.000
REMARK  7 active torsions:
REMARK  status: ('A' for Active; 'I' for Inactive)
REMARK    1  A    between atoms: O1_2  and  C2_3 
REMARK    2  A    between atoms: C2_3  and  C3_5 
REMARK    3  A    between atoms: C6_8  and  N1_9 
REMARK    4  A    between atoms: C9_12  and  N2_13 
REMARK       I    between atoms: N2_13  and  C10_14 
REMARK    5  A    between atoms: N2_13  and  C15_22 
REMARK       I    between atoms: C10_14  and  N3_16 
REMARK    6  A    between atoms: N3_16  and  C11_18 
REMARK    7  A    between atoms: C18_25  and  C20_27 
ROOT
HETATM    1  N2  UNL     1     -11.808 -26.090 -28.696  1.00  0.00    -0.317 N 
HETATM    2  C10 UNL     1     -11.847 -24.873 -27.974  1.00  0.00     0.319 C 
HETATM    3  O3  UNL     1     -12.751 -24.040 -28.215  1.00  0.00    -0.247 OA
HETATM    4  N3  UNL     1     -10.938 -24.501 -26.984  1.00  0.00    -0.335 N 
ATOM      5  H3  UNL     1     -10.181 -25.143 -26.754  1.00  0.00     0.165 HD
ENDROOT
BRANCH   1   6
HETATM    6  C9  UNL     1     -10.799 -27.023 -28.388  1.00  0.00     0.119 C 
HETATM    7  C8  UNL     1      -9.485 -26.881 -29.157  1.00  0.00     0.057 C 
HETATM    8  C7  UNL     1      -8.886 -28.260 -28.951  1.00  0.00     0.275 C 
HETATM    9  N1  UNL     1      -9.657 -28.861 -27.878  1.00  0.00     0.095 N 
HETATM   10  C23 UNL     1     -11.036 -28.478 -28.334  1.00  0.00     0.298 C 
BRANCH   9  11
HETATM   11  C6  UNL     1      -9.534 -30.276 -27.797  1.00  0.00     0.223 C 
HETATM   12  C5  UNL     1      -8.131 -30.606 -27.338  1.00  0.00     0.036 C 
HETATM   13  C4  UNL     1      -7.950 -32.110 -27.587  1.00  0.00     0.017 C 
HETATM   14  C3  UNL     1      -8.943 -32.904 -26.782  1.00  0.00     0.085 C 
HETATM   15  C25 UNL     1     -10.363 -32.469 -27.151  1.00  0.00     0.017 C 
HETATM   16  C24 UNL     1     -10.487 -30.963 -26.883  1.00  0.00     0.036 C 
BRANCH  14  17
HETATM   17  C2  UNL     1      -8.776 -34.331 -27.123  1.00  0.00     0.262 C 
HETATM   18  O2  UNL     1      -8.531 -34.654 -28.301  1.00  0.00    -0.265 OA
BRANCH  17  19
HETATM   19  O1  UNL     1      -8.899 -35.266 -26.112  1.00  0.00    -0.326 OA
HETATM   20  C1  UNL     1      -8.737 -34.804 -24.777  1.00  0.00     0.213 C 
ENDBRANCH  17  19
ENDBRANCH  14  17
ENDBRANCH   9  11
ENDBRANCH   1   6
BRANCH   1  21
HETATM   21  C15 UNL     1     -12.847 -26.186 -29.681  1.00  0.00     0.161 C 
HETATM   22  C16 UNL     1     -12.660 -26.455 -31.072  1.00  0.00     0.032 C 
HETATM   23  C17 UNL     1     -13.774 -27.175 -31.800  1.00  0.00     0.020 C 
HETATM   24  C18 UNL     1     -15.157 -26.916 -31.365  1.00  0.00     0.059 C 
HETATM   25  C19 UNL     1     -16.077 -28.114 -31.701  1.00  0.00     0.025 C 
HETATM   26  C21 UNL     1     -15.246 -26.701 -29.900  1.00  0.00     0.099 C 
HETATM   27  C22 UNL     1     -13.950 -27.174 -29.191  1.00  0.00     0.265 C 
HETATM   28  F4  UNL     1     -14.206 -27.023 -27.856  1.00  0.00    -0.204 F 
HETATM   29  F5  UNL     1     -13.693 -28.461 -29.474  1.00  0.00    -0.204 F 
BRANCH  24  30
HETATM   30  C20 UNL     1     -15.795 -25.712 -32.071  1.00  0.00     0.395 C 
HETATM   31  F1  UNL     1     -16.843 -26.141 -32.882  1.00  0.00    -0.170 F 
HETATM   32  F2  UNL     1     -14.904 -25.035 -32.868  1.00  0.00    -0.170 F 
HETATM   33  F3  UNL     1     -16.318 -24.840 -31.155  1.00  0.00    -0.170 F 
ENDBRANCH  24  30
ENDBRANCH   1  21
BRANCH   4  34
HETATM   34  C11 UNL     1     -11.019 -23.234 -26.263  1.00  0.00     0.023 C 
HETATM   35  C12 UNL     1     -11.978 -23.432 -25.104  1.00  0.00     0.037 C 
HETATM   36  C13 UNL     1      -9.635 -22.868 -25.796  1.00  0.00     0.037 C 
HETATM   37  C14 UNL     1     -11.538 -22.121 -27.113  1.00  0.00     0.037 C 
ENDBRANCH   4  34
TORSDOF 7
ENDMDL
MODEL 2
REMARK VINA RESULT: -10.381882735      0.758      1.300
REMARK  7 active torsions:
REMARK  status: ('A' for Active; 'I' for Inactive)
REMARK    1  A    between atoms: O1_2  and  C2_3 
REMARK    2  A    between atoms: C2_3  and  C3_5 
REMARK    3  A    between atoms: C6_8  and  N1_9 
REMARK    4  A    between atoms: C9_12  and  N2_13 
REMARK       I    between atoms: N2_13  and  C10_14 
REMARK    5  A    between atoms: N2_13  and  C15_22 
REMARK       I    between atoms: C10_14  and  N3_16 
REMARK    6  A    between atoms: N3_16  and  C11_18 
REMARK    7  A    between atoms: C18_25  and  C20_27 
ROOT
HETATM    1  N2  UNL     1     -11.535 -26.509 -28.752  1.00  0.00    -0.317 N 
HETATM    2  C10 UNL     1     -11.679 -25.265 -28.090  1.00  0.00     0.319 C 
HETATM    3  O3  UNL     1     -12.672 -24.544 -28.339  1.00  0.00    -0.247 OA
HETATM    4  N3  UNL     1     -10.784 -24.749 -27.153  1.00  0.00    -0.335 N 
ATOM      5  H3  UNL     1      -9.957 -25.297 -26.918  1.00  0.00     0.165 HD
ENDROOT
BRANCH   1   6
HETATM    6  C9  UNL     1     -10.425 -27.315 -28.433  1.00  0.00     0.119 C 
HETATM    7  C8  UNL     1      -9.270 -27.307 -29.437  1.00  0.00     0.057 C 
HETATM    8  C7  UNL     1      -8.549 -28.584 -29.047  1.00  0.00     0.275 C 
HETATM    9  N1  UNL     1      -9.086 -28.953 -27.751  1.00  0.00     0.095 N 
HETATM   10  C23 UNL     1     -10.546 -28.727 -28.026  1.00  0.00     0.298 C 
BRANCH   9  11
HETATM   11  C6  UNL     1      -8.851 -30.309 -27.389  1.00  0.00     0.223 C 
HETATM   12  C5  UNL     1     -10.188 -30.993 -27.211  1.00  0.00     0.036 C 
HETATM   13  C4  UNL     1      -9.888 -32.325 -26.509  1.00  0.00     0.017 C 
HETATM   14  C3  UNL     1      -8.993 -33.183 -27.360  1.00  0.00     0.085 C 
HETATM   15  C25 UNL     1      -7.693 -32.431 -27.653  1.00  0.00     0.017 C 
HETATM   16  C24 UNL     1      -8.051 -31.113 -28.353  1.00  0.00     0.036 C 
BRANCH  14  17
HETATM   17  C2  UNL     1      -8.674 -34.410 -26.601  1.00  0.00     0.262 C 
HETATM   18  O2  UNL     1      -8.051 -35.332 -27.161  1.00  0.00    -0.265 OA
BRANCH  17  19
HETATM   19  O1  UNL     1      -9.083 -34.491 -25.283  1.00  0.00    -0.326 OA
HETATM   20  C1  UNL     1      -8.222 -35.166 -24.374  1.00  0.00     0.213 C 
ENDBRANCH  17  19
ENDBRANCH  14  17
ENDBRANCH   9  11
ENDBRANCH   1   6
BRANCH   1  21
HETATM   21  C15 UNL     1     -12.587 -26.763 -29.692  1.00  0.00     0.161 C 
HETATM   22  C16 UNL     1     -12.418 -27.234 -31.031  1.00  0.00     0.032 C 
HETATM   23  C17 UNL     1     -13.533 -28.068 -31.624  1.00  0.00     0.020 C 
HETATM   24  C18 UNL     1     -14.913 -27.765 -31.208  1.00  0.00     0.059 C 
HETATM   25  C19 UNL     1     -15.820 -29.010 -31.345  1.00  0.00     0.025 C 
HETATM   26  C21 UNL     1     -14.981 -27.334 -29.789  1.00  0.00     0.099 C 
HETATM   27  C22 UNL     1     -13.668 -27.680 -29.041  1.00  0.00     0.265 C 
HETATM   28  F4  UNL     1     -13.905 -27.336 -27.739  1.00  0.00    -0.204 F 
HETATM   29  F5  UNL     1     -13.396 -28.992 -29.134  1.00  0.00    -0.204 F 
BRANCH  24  30
HETATM   30  C20 UNL     1     -15.580 -26.687 -32.073  1.00  0.00     0.395 C 
HETATM   31  F1  UNL     1     -15.518 -25.456 -31.425  1.00  0.00    -0.170 F 
HETATM   32  F2  UNL     1     -16.904 -26.958 -32.324  1.00  0.00    -0.170 F 
HETATM   33  F3  UNL     1     -14.923 -26.555 -33.267  1.00  0.00    -0.170 F 
ENDBRANCH  24  30
ENDBRANCH   1  21
BRANCH   4  34
HETATM   34  C11 UNL     1     -10.975 -23.460 -26.493  1.00  0.00     0.023 C 
HETATM   35  C12 UNL     1     -11.976 -23.669 -25.373  1.00  0.00     0.037 C 
HETATM   36  C13 UNL     1      -9.639 -22.993 -25.978  1.00  0.00     0.037 C 
HETATM   37  C14 UNL     1     -11.515 -22.418 -27.416  1.00  0.00     0.037 C 
ENDBRANCH   4  34
TORSDOF 7
ENDMDL
MODEL 3
REMARK VINA RESULT: -10.150467737      1.683      2.240
REMARK  7 active torsions:
REMARK  status: ('A' for Active; 'I' for Inactive)
REMARK    1  A    between atoms: O1_2  and  C2_3 
REMARK    2  A    between atoms: C2_3  and  C3_5 
REMARK    3  A    between atoms: C6_8  and  N1_9 
REMARK    4  A    between atoms: C9_12  and  N2_13 
REMARK       I    between atoms: N2_13  and  C10_14 
REMARK    5  A    between atoms: N2_13  and  C15_22 
REMARK       I    between atoms: C10_14  and  N3_16 
REMARK    6  A    between atoms: N3_16  and  C11_18 
REMARK    7  A    between atoms: C18_25  and  C20_27 
ROOT
HETATM    1  N2  UNL     1     -11.888 -26.662 -29.711  1.00  0.00    -0.317 N 
HETATM    2  C10 UNL     1     -11.825 -25.578 -28.803  1.00  0.00     0.319 C 
HETATM    3  O3  UNL     1     -12.874 -24.968 -28.495  1.00  0.00    -0.247 OA
HETATM    4  N3  UNL     1     -10.659 -25.108 -28.199  1.00  0.00    -0.335 N 
ATOM      5  H3  UNL     1      -9.778 -25.569 -28.420  1.00  0.00     0.165 HD
ENDROOT
BRANCH   1   6
HETATM    6  C9  UNL     1     -10.699 -27.351 -30.020  1.00  0.00     0.119 C 
HETATM    7  C8  UNL     1     -10.505 -27.745 -31.485  1.00  0.00     0.057 C 
HETATM    8  C7  UNL     1      -9.456 -28.833 -31.348  1.00  0.00     0.275 C 
HETATM    9  N1  UNL     1      -8.932 -28.699 -30.001  1.00  0.00     0.095 N 
HETATM   10  C23 UNL     1     -10.227 -28.523 -29.260  1.00  0.00     0.298 C 
BRANCH   9  11
HETATM   11  C6  UNL     1      -8.240 -29.849 -29.530  1.00  0.00     0.223 C 
HETATM   12  C5  UNL     1      -9.022 -30.436 -28.377  1.00  0.00     0.036 C 
HETATM   13  C4  UNL     1      -8.084 -31.448 -27.704  1.00  0.00     0.017 C 
HETATM   14  C3  UNL     1      -7.706 -32.542 -28.665  1.00  0.00     0.085 C 
HETATM   15  C25 UNL     1      -7.035 -31.930 -29.896  1.00  0.00     0.017 C 
HETATM   16  C24 UNL     1      -8.014 -30.930 -30.527  1.00  0.00     0.036 C 
BRANCH  14  17
HETATM   17  C2  UNL     1      -6.742 -33.435 -27.990  1.00  0.00     0.262 C 
HETATM   18  O2  UNL     1      -5.538 -33.386 -28.305  1.00  0.00    -0.265 OA
BRANCH  17  19
HETATM   19  O1  UNL     1      -7.217 -34.302 -27.023  1.00  0.00    -0.326 OA
HETATM   20  C1  UNL     1      -6.634 -35.599 -26.970  1.00  0.00     0.213 C 
ENDBRANCH  17  19
ENDBRANCH  14  17
ENDBRANCH   9  11
ENDBRANCH   1   6
BRANCH   1  21
HETATM   21  C15 UNL     1     -13.214 -26.897 -30.204  1.00  0.00     0.161 C 
HETATM   22  C16 UNL     1     -13.583 -27.056 -31.576  1.00  0.00     0.032 C 
HETATM   23  C17 UNL     1     -14.778 -27.931 -31.881  1.00  0.00     0.020 C 
HETATM   24  C18 UNL     1     -15.879 -27.955 -30.904  1.00  0.00     0.059 C 
HETATM   25  C19 UNL     1     -16.667 -29.283 -30.988  1.00  0.00     0.025 C 
HETATM   26  C21 UNL     1     -15.384 -27.835 -29.510  1.00  0.00     0.099 C 
HETATM   27  C22 UNL     1     -13.857 -28.096 -29.440  1.00  0.00     0.265 C 
HETATM   28  F4  UNL     1     -13.557 -28.064 -28.106  1.00  0.00    -0.204 F 
HETATM   29  F5  UNL     1     -13.554 -29.297 -29.956  1.00  0.00    -0.204 F 
BRANCH  24  30
HETATM   30  C20 UNL     1     -16.922 -26.855 -31.143  1.00  0.00     0.395 C 
HETATM   31  F1  UNL     1     -16.470 -25.652 -30.608  1.00  0.00    -0.170 F 
HETATM   32  F2  UNL     1     -18.133 -27.140 -30.559  1.00  0.00    -0.170 F 
HETATM   33  F3  UNL     1     -17.115 -26.659 -32.484  1.00  0.00    -0.170 F 
ENDBRANCH  24  30
ENDBRANCH   1  21
BRANCH   4  34
HETATM   34  C11 UNL     1     -10.642 -23.985 -27.264  1.00  0.00     0.023 C 
HETATM   35  C12 UNL     1      -9.278 -23.968 -26.602  1.00  0.00     0.037 C 
HETATM   36  C13 UNL     1     -10.911 -22.723 -28.040  1.00  0.00     0.037 C 
HETATM   37  C14 UNL     1     -11.679 -24.112 -26.197  1.00  0.00     0.037 C 
ENDBRANCH   4  34
TORSDOF 7
ENDMDL
MODEL 4
REMARK VINA RESULT: -9.492912577      2.605      5.328
REMARK  7 active torsions:
REMARK  status: ('A' for Active; 'I' for Inactive)
REMARK    1  A    between atoms: O1_2  and  C2_3 
REMARK    2  A    between atoms: C2_3  and  C3_5 
REMARK    3  A    between atoms: C6_8  and  N1_9 
REMARK    4  A    between atoms: C9_12  and  N2_13 
REMARK       I    between atoms: N2_13  and  C10_14 
REMARK    5  A    between atoms: N2_13  and  C15_22 
REMARK       I    between atoms: C10_14  and  N3_16 
REMARK    6  A    between atoms: N3_16  and  C11_18 
REMARK    7  A    between atoms: C18_25  and  C20_27 
ROOT
HETATM    1  N2  UNL     1     -11.775 -26.498 -29.275  1.00  0.00    -0.317 N 
HETATM    2  C10 UNL     1     -13.085 -26.683 -29.780  1.00  0.00     0.319 C 
HETATM    3  O3  UNL     1     -13.986 -25.871 -29.470  1.00  0.00    -0.247 OA
HETATM    4  N3  UNL     1     -13.479 -27.724 -30.619  1.00  0.00    -0.335 N 
ATOM      5  H3  UNL     1     -12.782 -28.414 -30.898  1.00  0.00     0.165 HD
ENDROOT
BRANCH   1   6
HETATM    6  C9  UNL     1     -10.771 -27.408 -29.660  1.00  0.00     0.119 C 
HETATM    7  C8  UNL     1     -10.732 -27.787 -31.142  1.00  0.00     0.057 C 
HETATM    8  C7  UNL     1      -9.927 -29.072 -31.083  1.00  0.00     0.275 C 
HETATM    9  N1  UNL     1      -9.324 -29.093 -29.763  1.00  0.00     0.095 N 
HETATM   10  C23 UNL     1     -10.518 -28.676 -28.951  1.00  0.00     0.298 C 
BRANCH   9  11
HETATM   11  C6  UNL     1      -8.866 -30.376 -29.353  1.00  0.00     0.223 C 
HETATM   12  C5  UNL     1      -8.769 -31.260 -30.576  1.00  0.00     0.036 C 
HETATM   13  C4  UNL     1      -8.601 -32.692 -30.048  1.00  0.00     0.017 C 
HETATM   14  C3  UNL     1      -7.339 -32.813 -29.238  1.00  0.00     0.085 C 
HETATM   15  C25 UNL     1      -7.380 -31.818 -28.077  1.00  0.00     0.017 C 
HETATM   16  C24 UNL     1      -7.549 -30.408 -28.661  1.00  0.00     0.036 C 
BRANCH  14  17
HETATM   17  C2  UNL     1      -7.273 -34.184 -28.691  1.00  0.00     0.262 C 
HETATM   18  O2  UNL     1      -8.080 -35.043 -29.095  1.00  0.00    -0.265 OA
BRANCH  17  19
HETATM   19  O1  UNL     1      -6.309 -34.465 -27.741  1.00  0.00    -0.326 OA
HETATM   20  C1  UNL     1      -6.720 -35.204 -26.597  1.00  0.00     0.213 C 
ENDBRANCH  17  19
ENDBRANCH  14  17
ENDBRANCH   9  11
ENDBRANCH   1   6
BRANCH   1  21
HETATM   21  C15 UNL     1     -11.670 -25.365 -28.404  1.00  0.00     0.161 C 
HETATM   22  C16 UNL     1     -11.287 -25.399 -27.026  1.00  0.00     0.032 C 
HETATM   23  C17 UNL     1     -10.584 -24.181 -26.467  1.00  0.00     0.020 C 
HETATM   24  C18 UNL     1     -10.959 -22.863 -27.007  1.00  0.00     0.059 C 
HETATM   25  C19 UNL     1      -9.799 -21.852 -26.857  1.00  0.00     0.025 C 
HETATM   26  C21 UNL     1     -11.288 -22.931 -28.453  1.00  0.00     0.099 C 
HETATM   27  C22 UNL     1     -10.791 -24.263 -29.072  1.00  0.00     0.265 C 
HETATM   28  F4  UNL     1     -11.056 -24.148 -30.409  1.00  0.00    -0.204 F 
HETATM   29  F5  UNL     1      -9.473 -24.421 -28.871  1.00  0.00    -0.204 F 
BRANCH  24  30
HETATM   30  C20 UNL     1     -12.144 -22.225 -26.271  1.00  0.00     0.395 C 
HETATM   31  F1  UNL     1     -12.786 -21.316 -27.108  1.00  0.00    -0.170 F 
HETATM   32  F2  UNL     1     -11.758 -21.546 -25.140  1.00  0.00    -0.170 F 
HETATM   33  F3  UNL     1     -13.062 -23.178 -25.921  1.00  0.00    -0.170 F 
ENDBRANCH  24  30
ENDBRANCH   1  21
BRANCH   4  34
HETATM   34  C11 UNL     1     -14.843 -27.874 -31.119  1.00  0.00     0.023 C 
HETATM   35  C12 UNL     1     -14.927 -27.128 -32.437  1.00  0.00     0.037 C 
HETATM   36  C13 UNL     1     -15.127 -29.344 -31.280  1.00  0.00     0.037 C 
HETATM   37  C14 UNL     1     -15.860 -27.298 -30.189  1.00  0.00     0.037 C 
ENDBRANCH   4  34
TORSDOF 7
ENDMDL
MODEL 5
REMARK VINA RESULT: -9.468404468      1.502      2.396
REMARK  7 active torsions:
REMARK  status: ('A' for Active; 'I' for Inactive)
REMARK    1  A    between atoms: O1_2  and  C2_3 
REMARK    2  A    between atoms: C2_3  and  C3_5 
REMARK    3  A    between atoms: C6_8  and  N1_9 
REMARK    4  A    between atoms: C9_12  and  N2_13 
REMARK       I    between atoms: N2_13  and  C10_14 
REMARK    5  A    between atoms: N2_13  and  C15_22 
REMARK       I    between atoms: C10_14  and  N3_16 
REMARK    6  A    between atoms: N3_16  and  C11_18 
REMARK    7  A    between atoms: C18_25  and  C20_27 
ROOT
HETATM    1  N2  UNL     1     -12.059 -25.746 -28.498  1.00  0.00    -0.317 N 
HETATM    2  C10 UNL     1     -12.297 -24.573 -27.742  1.00  0.00     0.319 C 
HETATM    3  O3  UNL     1     -13.317 -23.884 -27.976  1.00  0.00    -0.247 OA
HETATM    4  N3  UNL     1     -11.471 -24.094 -26.726  1.00  0.00    -0.335 N 
ATOM      5  H3  UNL     1     -10.626 -24.618 -26.500  1.00  0.00     0.165 HD
ENDROOT
BRANCH   1   6
HETATM    6  C9  UNL     1     -10.920 -26.519 -28.198  1.00  0.00     0.119 C 
HETATM    7  C8  UNL     1      -9.570 -25.808 -28.304  1.00  0.00     0.057 C 
HETATM    8  C7  UNL     1      -8.633 -26.997 -28.409  1.00  0.00     0.275 C 
HETATM    9  N1  UNL     1      -9.420 -28.149 -28.009  1.00  0.00     0.095 N 
HETATM   10  C23 UNL     1     -10.678 -27.854 -28.776  1.00  0.00     0.298 C 
BRANCH   9  11
HETATM   11  C6  UNL     1      -8.871 -29.397 -28.413  1.00  0.00     0.223 C 
HETATM   12  C5  UNL     1      -7.968 -29.158 -29.602  1.00  0.00     0.036 C 
HETATM   13  C4  UNL     1      -7.675 -30.544 -30.194  1.00  0.00     0.017 C 
HETATM   14  C3  UNL     1      -6.966 -31.411 -29.189  1.00  0.00     0.085 C 
HETATM   15  C25 UNL     1      -7.826 -31.540 -27.929  1.00  0.00     0.017 C 
HETATM   16  C24 UNL     1      -8.086 -30.129 -27.382  1.00  0.00     0.036 C 
BRANCH  14  17
HETATM   17  C2  UNL     1      -6.786 -32.751 -29.784  1.00  0.00     0.262 C 
HETATM   18  O2  UNL     1      -7.374 -33.728 -29.281  1.00  0.00    -0.265 OA
BRANCH  17  19
HETATM   19  O1  UNL     1      -5.963 -32.874 -30.887  1.00  0.00    -0.326 OA
HETATM   20  C1  UNL     1      -6.514 -33.492 -32.044  1.00  0.00     0.213 C 
ENDBRANCH  17  19
ENDBRANCH  14  17
ENDBRANCH   9  11
ENDBRANCH   1   6
BRANCH   1  21
HETATM   21  C15 UNL     1     -13.056 -25.972 -29.504  1.00  0.00     0.161 C 
HETATM   22  C16 UNL     1     -12.812 -26.145 -30.902  1.00  0.00     0.032 C 
HETATM   23  C17 UNL     1     -13.781 -27.010 -31.678  1.00  0.00     0.020 C 
HETATM   24  C18 UNL     1     -15.193 -27.006 -31.257  1.00  0.00     0.059 C 
HETATM   25  C19 UNL     1     -15.894 -28.325 -31.657  1.00  0.00     0.025 C 
HETATM   26  C21 UNL     1     -15.331 -26.872 -29.786  1.00  0.00     0.099 C 
HETATM   27  C22 UNL     1     -13.982 -27.151 -29.074  1.00  0.00     0.265 C 
HETATM   28  F4  UNL     1     -14.273 -27.104 -27.739  1.00  0.00    -0.204 F 
HETATM   29  F5  UNL     1     -13.509 -28.363 -29.405  1.00  0.00    -0.204 F 
BRANCH  24  30
HETATM   30  C20 UNL     1     -16.017 -25.897 -31.923  1.00  0.00     0.395 C 
HETATM   31  F1  UNL     1     -16.437 -24.979 -30.964  1.00  0.00    -0.170 F 
HETATM   32  F2  UNL     1     -17.139 -26.380 -32.554  1.00  0.00    -0.170 F 
HETATM   33  F3  UNL     1     -15.258 -25.216 -32.836  1.00  0.00    -0.170 F 
ENDBRANCH  24  30
ENDBRANCH   1  21
BRANCH   4  34
HETATM   34  C11 UNL     1     -11.759 -22.878 -25.970  1.00  0.00     0.023 C 
HETATM   35  C12 UNL     1     -11.806 -21.730 -26.960  1.00  0.00     0.037 C 
HETATM   36  C13 UNL     1     -13.073 -23.066 -25.259  1.00  0.00     0.037 C 
HETATM   37  C14 UNL     1     -10.711 -22.575 -24.951  1.00  0.00     0.037 C 
ENDBRANCH   4  34
TORSDOF 7
ENDMDL
