MODEL 1
REMARK VINA RESULT: -8.458660397      0.000      0.000
REMARK  6 active torsions:
REMARK  status: ('A' for Active; 'I' for Inactive)
REMARK    1  A    between atoms: C4_4  and  C5_5 
REMARK    2  A    between atoms: C5_5  and  C6_6 
REMARK    3  A    between atoms: C6_6  and  C7_8 
REMARK    4  A    between atoms: C13_18  and  C14_19 
REMARK    5  A    between atoms: C18_24  and  O2_25 
REMARK    6  A    between atoms: C18_24  and  C19_27 
ROOT
HETATM    1  C5  UNL     1     -10.503 -29.063 -27.722  1.00  0.00     0.089 C 
ENDROOT
BRANCH   1   2
HETATM    2  C4  UNL     1     -10.665 -28.569 -29.122  1.00  0.00     0.002 C 
HETATM    3  C2  UNL     1     -11.722 -29.054 -30.003  1.00  0.00    -0.027 C 
HETATM    4  C1  UNL     1     -12.105 -30.466 -30.080  1.00  0.00     0.016 C 
HETATM    5  C3  UNL     1     -11.298 -28.694 -31.460  1.00  0.00     0.016 C 
HETATM    6  C20 UNL     1     -12.998 -28.270 -29.692  1.00  0.00     0.109 C 
HETATM    7  C18 UNL     1     -12.855 -26.807 -29.909  1.00  0.00     0.169 C 
HETATM    8 BR2  UNL     1     -14.539 -28.968 -30.631  1.00  0.00    -0.087 Br
HETATM    9  C17 UNL     1     -11.495 -26.237 -29.761  1.00  0.00     0.049 C 
HETATM   10  C16 UNL     1     -10.468 -27.073 -29.151  1.00  0.00     0.009 C 
BRANCH   7  11
HETATM   11  O2  UNL     1     -13.332 -26.401 -31.180  1.00  0.00    -0.380 OA
ATOM     12  H2  UNL     1     -14.279 -26.369 -31.120  1.00  0.00     0.211 HD
ENDBRANCH   7  11
BRANCH   7  13
HETATM   13  C19 UNL     1     -13.853 -26.139 -28.942  1.00  0.00     0.419 C 
HETATM   14  F1  UNL     1     -13.189 -25.073 -28.361  1.00  0.00    -0.168 F 
HETATM   15  F2  UNL     1     -14.184 -27.017 -27.915  1.00  0.00    -0.168 F 
HETATM   16  F3  UNL     1     -14.949 -25.672 -29.617  1.00  0.00    -0.168 F 
ENDBRANCH   7  13
ENDBRANCH   1   2
BRANCH   1  17
HETATM   17  C6  UNL     1      -9.396 -29.935 -27.362  1.00  0.00     0.162 C 
HETATM   18  O1  UNL     1      -8.437 -29.513 -26.725  1.00  0.00    -0.292 OA
BRANCH  17  19
HETATM   19  C7  UNL     1      -9.395 -31.327 -27.758  1.00  0.00     0.038 A 
HETATM   20  C8  UNL     1     -10.197 -32.146 -26.905  1.00  0.00     0.103 A 
HETATM   21  N1  UNL     1     -10.476 -33.391 -27.281  1.00  0.00    -0.372 N 
HETATM   22  C9  UNL     1     -10.027 -33.899 -28.435  1.00  0.00     0.117 A 
ATOM     23  H1  UNL     1     -11.050 -33.974 -26.673  1.00  0.00     0.164 HD
HETATM   24  C10 UNL     1      -9.256 -33.169 -29.283  1.00  0.00     0.059 A 
HETATM   25  N2  UNL     1      -8.827 -33.690 -30.417  1.00  0.00    -0.364 N 
HETATM   26  C15 UNL     1      -8.924 -31.832 -28.925  1.00  0.00     0.014 A 
HETATM   27  C11 UNL     1      -8.072 -33.025 -31.282  1.00  0.00     0.089 A 
ATOM     28  H2  UNL     1      -9.089 -34.650 -30.639  1.00  0.00     0.165 HD
HETATM   29  C12 UNL     1      -7.734 -31.752 -30.957  1.00  0.00     0.026 A 
HETATM   30  C13 UNL     1      -8.133 -31.091 -29.767  1.00  0.00    -0.033 A 
BRANCH  30  31
HETATM   31  C14 UNL     1      -7.519 -29.842 -29.400  1.00  0.00     0.124 C 
HETATM   32 BR1  UNL     1      -7.521 -28.556 -30.913  1.00  0.00    -0.091 Br
ENDBRANCH  30  31
ENDBRANCH  17  19
ENDBRANCH   1  17
TORSDOF 6
ENDMDL
MODEL 2
REMARK VINA RESULT: -8.262583537      4.344      6.993
REMARK  6 active torsions:
REMARK  status: ('A' for Active; 'I' for Inactive)
REMARK    1  A    between atoms: C4_4  and  C5_5 
REMARK    2  A    between atoms: C5_5  and  C6_6 
REMARK    3  A    between atoms: C6_6  and  C7_8 
REMARK    4  A    between atoms: C13_18  and  C14_19 
REMARK    5  A    between atoms: C18_24  and  O2_25 
REMARK    6  A    between atoms: C18_24  and  C19_27 
ROOT
HETATM    1  C5  UNL     1     -10.191 -30.031 -30.516  1.00  0.00     0.089 C 
ENDROOT
BRANCH   1   2
HETATM    2  C4  UNL     1      -9.210 -30.229 -29.408  1.00  0.00     0.002 C 
HETATM    3  C2  UNL     1      -9.539 -30.983 -28.201  1.00  0.00    -0.027 C 
HETATM    4  C1  UNL     1     -10.827 -30.860 -27.516  1.00  0.00     0.016 C 
HETATM    5  C3  UNL     1      -8.490 -30.581 -27.119  1.00  0.00     0.016 C 
HETATM    6  C20 UNL     1      -9.340 -32.470 -28.499  1.00  0.00     0.109 C 
HETATM    7  C18 UNL     1      -7.947 -32.810 -28.888  1.00  0.00     0.169 C 
HETATM    8 BR2  UNL     1      -9.958 -33.599 -27.056  1.00  0.00    -0.087 Br
HETATM    9  C17 UNL     1      -7.151 -31.738 -29.532  1.00  0.00     0.049 C 
HETATM   10  C16 UNL     1      -7.854 -30.546 -29.989  1.00  0.00     0.009 C 
BRANCH   7  11
HETATM   11  O2  UNL     1      -7.183 -33.284 -27.793  1.00  0.00    -0.380 OA
ATOM     12  H2  UNL     1      -7.447 -34.185 -27.645  1.00  0.00     0.211 HD
ENDBRANCH   7  11
BRANCH   7  13
HETATM   13  C19 UNL     1      -8.053 -34.053 -29.793  1.00  0.00     0.419 C 
HETATM   14  F1  UNL     1      -7.150 -33.870 -30.825  1.00  0.00    -0.168 F 
HETATM   15  F2  UNL     1      -9.318 -34.116 -30.370  1.00  0.00    -0.168 F 
HETATM   16  F3  UNL     1      -7.725 -35.189 -29.104  1.00  0.00    -0.168 F 
ENDBRANCH   7  13
ENDBRANCH   1   2
BRANCH   1  17
HETATM   17  C6  UNL     1     -10.537 -28.696 -30.976  1.00  0.00     0.162 C 
HETATM   18  O1  UNL     1      -9.726 -27.998 -31.573  1.00  0.00    -0.292 OA
BRANCH  17  19
HETATM   19  C7  UNL     1     -11.855 -28.150 -30.727  1.00  0.00     0.038 A 
HETATM   20  C8  UNL     1     -12.786 -28.454 -31.768  1.00  0.00     0.103 A 
HETATM   21  N1  UNL     1     -14.079 -28.221 -31.566  1.00  0.00    -0.372 N 
HETATM   22  C9  UNL     1     -14.535 -27.709 -30.416  1.00  0.00     0.117 A 
ATOM     23  H1  UNL     1     -14.743 -28.439 -32.308  1.00  0.00     0.164 HD
HETATM   24  C10 UNL     1     -13.697 -27.396 -29.394  1.00  0.00     0.059 A 
HETATM   25  N2  UNL     1     -14.169 -26.896 -28.268  1.00  0.00    -0.364 N 
HETATM   26  C15 UNL     1     -12.301 -27.621 -29.561  1.00  0.00     0.014 A 
HETATM   27  C11 UNL     1     -13.399 -26.572 -27.237  1.00  0.00     0.089 A 
ATOM     28  H2  UNL     1     -15.176 -26.753 -28.185  1.00  0.00     0.165 HD
HETATM   29  C12 UNL     1     -12.063 -26.768 -27.378  1.00  0.00     0.026 A 
HETATM   30  C13 UNL     1     -11.444 -27.294 -28.540  1.00  0.00    -0.033 A 
BRANCH  30  31
HETATM   31  C14 UNL     1     -10.013 -27.227 -28.683  1.00  0.00     0.124 C 
HETATM   32 BR1  UNL     1      -9.264 -25.628 -27.776  1.00  0.00    -0.091 Br
ENDBRANCH  30  31
ENDBRANCH  17  19
ENDBRANCH   1  17
TORSDOF 6
ENDMDL
MODEL 3
REMARK VINA RESULT: -8.173612376      4.463      6.858
REMARK  6 active torsions:
REMARK  status: ('A' for Active; 'I' for Inactive)
REMARK    1  A    between atoms: C4_4  and  C5_5 
REMARK    2  A    between atoms: C5_5  and  C6_6 
REMARK    3  A    between atoms: C6_6  and  C7_8 
REMARK    4  A    between atoms: C13_18  and  C14_19 
REMARK    5  A    between atoms: C18_24  and  O2_25 
REMARK    6  A    between atoms: C18_24  and  C19_27 
ROOT
HETATM    1  C5  UNL     1      -8.863 -29.843 -30.238  1.00  0.00     0.089 C 
ENDROOT
BRANCH   1   2
HETATM    2  C4  UNL     1      -9.259 -30.561 -28.991  1.00  0.00     0.002 C 
HETATM    3  C2  UNL     1     -10.319 -31.565 -28.973  1.00  0.00    -0.027 C 
HETATM    4  C1  UNL     1     -11.578 -31.404 -29.704  1.00  0.00     0.016 C 
HETATM    5  C3  UNL     1     -10.759 -31.729 -27.486  1.00  0.00     0.016 C 
HETATM    6  C20 UNL     1      -9.718 -32.898 -29.421  1.00  0.00     0.109 C 
HETATM    7  C18 UNL     1      -8.620 -33.373 -28.540  1.00  0.00     0.169 C 
HETATM    8 BR2  UNL     1     -11.063 -34.268 -29.661  1.00  0.00    -0.087 Br
HETATM    9  C17 UNL     1      -7.847 -32.337 -27.815  1.00  0.00     0.049 C 
HETATM   10  C16 UNL     1      -8.022 -30.947 -28.219  1.00  0.00     0.009 C 
BRANCH   7  11
HETATM   11  O2  UNL     1      -9.071 -34.301 -27.568  1.00  0.00    -0.380 OA
ATOM     12  H2  UNL     1      -8.956 -35.167 -27.943  1.00  0.00     0.211 HD
ENDBRANCH   7  11
BRANCH   7  13
HETATM   13  C19 UNL     1      -7.705 -34.234 -29.434  1.00  0.00     0.419 C 
HETATM   14  F1  UNL     1      -6.410 -33.803 -29.207  1.00  0.00    -0.168 F 
HETATM   15  F2  UNL     1      -7.983 -33.990 -30.776  1.00  0.00    -0.168 F 
HETATM   16  F3  UNL     1      -7.804 -35.559 -29.102  1.00  0.00    -0.168 F 
ENDBRANCH   7  13
ENDBRANCH   1   2
BRANCH   1  17
HETATM   17  C6  UNL     1      -9.155 -28.429 -30.411  1.00  0.00     0.162 C 
HETATM   18  O1  UNL     1      -8.279 -27.580 -30.292  1.00  0.00    -0.292 OA
BRANCH  17  19
HETATM   19  C7  UNL     1     -10.497 -27.987 -30.721  1.00  0.00     0.038 A 
HETATM   20  C8  UNL     1     -10.831 -28.149 -32.101  1.00  0.00     0.103 A 
HETATM   21  N1  UNL     1     -12.097 -28.007 -32.480  1.00  0.00    -0.372 N 
HETATM   22  C9  UNL     1     -13.069 -27.714 -31.608  1.00  0.00     0.117 A 
ATOM     23  H1  UNL     1     -12.335 -28.124 -33.465  1.00  0.00     0.164 HD
HETATM   24  C10 UNL     1     -12.811 -27.543 -30.285  1.00  0.00     0.059 A 
HETATM   25  N2  UNL     1     -13.786 -27.258 -29.443  1.00  0.00    -0.364 N 
HETATM   26  C15 UNL     1     -11.471 -27.680 -29.827  1.00  0.00     0.014 A 
HETATM   27  C11 UNL     1     -13.593 -27.080 -28.142  1.00  0.00     0.089 A 
ATOM     28  H2  UNL     1     -14.734 -27.172 -29.809  1.00  0.00     0.165 HD
HETATM   29  C12 UNL     1     -12.321 -27.196 -27.684  1.00  0.00     0.026 A 
HETATM   30  C13 UNL     1     -11.197 -27.494 -28.495  1.00  0.00    -0.033 A 
BRANCH  30  31
HETATM   31  C14 UNL     1      -9.868 -27.346 -27.961  1.00  0.00     0.124 C 
HETATM   32 BR1  UNL     1      -9.424 -25.439 -27.628  1.00  0.00    -0.091 Br
ENDBRANCH  30  31
ENDBRANCH  17  19
ENDBRANCH   1  17
TORSDOF 6
ENDMDL
MODEL 4
REMARK VINA RESULT: -8.119107199      3.361      4.186
REMARK  6 active torsions:
REMARK  status: ('A' for Active; 'I' for Inactive)
REMARK    1  A    between atoms: C4_4  and  C5_5 
REMARK    2  A    between atoms: C5_5  and  C6_6 
REMARK    3  A    between atoms: C6_6  and  C7_8 
REMARK    4  A    between atoms: C13_18  and  C14_19 
REMARK    5  A    between atoms: C18_24  and  O2_25 
REMARK    6  A    between atoms: C18_24  and  C19_27 
ROOT
HETATM    1  C5  UNL     1      -9.676 -32.067 -27.942  1.00  0.00     0.089 C 
ENDROOT
BRANCH   1   2
HETATM    2  C4  UNL     1     -10.522 -31.441 -29.001  1.00  0.00     0.002 C 
HETATM    3  C2  UNL     1     -11.627 -30.541 -28.685  1.00  0.00    -0.027 C 
HETATM    4  C1  UNL     1     -12.562 -30.788 -27.585  1.00  0.00     0.016 C 
HETATM    5  C3  UNL     1     -12.535 -30.480 -29.951  1.00  0.00     0.016 C 
HETATM    6  C20 UNL     1     -11.053 -29.140 -28.467  1.00  0.00     0.109 C 
HETATM    7  C18 UNL     1     -10.348 -28.602 -29.659  1.00  0.00     0.169 C 
HETATM    8 BR2  UNL     1     -12.381 -27.893 -27.818  1.00  0.00    -0.087 Br
HETATM    9  C17 UNL     1      -9.748 -29.591 -30.586  1.00  0.00     0.049 C 
HETATM   10  C16 UNL     1      -9.643 -30.973 -30.134  1.00  0.00     0.009 C 
BRANCH   7  11
HETATM   11  O2  UNL     1     -11.179 -27.761 -30.441  1.00  0.00    -0.380 OA
ATOM     12  H2  UNL     1     -11.884 -27.471 -29.875  1.00  0.00     0.211 HD
ENDBRANCH   7  11
BRANCH   7  13
HETATM   13  C19 UNL     1      -9.288 -27.624 -29.116  1.00  0.00     0.419 C 
HETATM   14  F1  UNL     1      -8.172 -27.761 -29.923  1.00  0.00    -0.168 F 
HETATM   15  F2  UNL     1      -8.906 -27.999 -27.832  1.00  0.00    -0.168 F 
HETATM   16  F3  UNL     1      -9.735 -26.332 -29.182  1.00  0.00    -0.168 F 
ENDBRANCH   7  13
ENDBRANCH   1   2
BRANCH   1  17
HETATM   17  C6  UNL     1      -9.787 -33.484 -27.638  1.00  0.00     0.162 C 
HETATM   18  O1  UNL     1     -10.621 -34.190 -28.194  1.00  0.00    -0.292 OA
BRANCH  17  19
HETATM   19  C7  UNL     1      -8.918 -34.098 -26.657  1.00  0.00     0.038 A 
HETATM   20  C8  UNL     1      -9.366 -33.896 -25.315  1.00  0.00     0.103 A 
HETATM   21  N1  UNL     1      -8.803 -34.594 -24.334  1.00  0.00    -0.372 N 
HETATM   22  C9  UNL     1      -7.827 -35.480 -24.565  1.00  0.00     0.117 A 
ATOM     23  H1  UNL     1      -9.125 -34.450 -23.377  1.00  0.00     0.164 HD
HETATM   24  C10 UNL     1      -7.357 -35.711 -25.819  1.00  0.00     0.059 A 
HETATM   25  N2  UNL     1      -6.397 -36.593 -26.023  1.00  0.00    -0.364 N 
HETATM   26  C15 UNL     1      -7.923 -34.986 -26.905  1.00  0.00     0.014 A 
HETATM   27  C11 UNL     1      -5.899 -36.858 -27.224  1.00  0.00     0.089 A 
ATOM     28  H2  UNL     1      -6.020 -37.095 -25.219  1.00  0.00     0.165 HD
HETATM   29  C12 UNL     1      -6.416 -36.171 -28.274  1.00  0.00     0.026 A 
HETATM   30  C13 UNL     1      -7.445 -35.200 -28.173  1.00  0.00    -0.033 A 
BRANCH  30  31
HETATM   31  C14 UNL     1      -7.744 -34.354 -29.298  1.00  0.00     0.124 C 
HETATM   32 BR1  UNL     1      -6.387 -32.920 -29.514  1.00  0.00    -0.091 Br
ENDBRANCH  30  31
ENDBRANCH  17  19
ENDBRANCH   1  17
TORSDOF 6
ENDMDL
MODEL 5
REMARK VINA RESULT: -8.032894673      4.303      7.006
REMARK  6 active torsions:
REMARK  status: ('A' for Active; 'I' for Inactive)
REMARK    1  A    between atoms: C4_4  and  C5_5 
REMARK    2  A    between atoms: C5_5  and  C6_6 
REMARK    3  A    between atoms: C6_6  and  C7_8 
REMARK    4  A    between atoms: C13_18  and  C14_19 
REMARK    5  A    between atoms: C18_24  and  O2_25 
REMARK    6  A    between atoms: C18_24  and  C19_27 
ROOT
HETATM    1  C5  UNL     1     -11.110 -30.729 -29.342  1.00  0.00     0.089 C 
ENDROOT
BRANCH   1   2
HETATM    2  C4  UNL     1      -9.958 -31.050 -28.449  1.00  0.00     0.002 C 
HETATM    3  C2  UNL     1      -9.516 -32.421 -28.208  1.00  0.00    -0.027 C 
HETATM    4  C1  UNL     1     -10.450 -33.530 -27.997  1.00  0.00     0.016 C 
HETATM    5  C3  UNL     1      -8.652 -32.396 -26.911  1.00  0.00     0.016 C 
HETATM    6  C20 UNL     1      -8.599 -32.834 -29.360  1.00  0.00     0.109 C 
HETATM    7  C18 UNL     1      -7.391 -31.977 -29.485  1.00  0.00     0.169 C 
HETATM    8 BR2  UNL     1      -8.122 -34.707 -29.287  1.00  0.00    -0.087 Br
HETATM    9  C17 UNL     1      -7.506 -30.582 -28.998  1.00  0.00     0.049 C 
HETATM   10  C16 UNL     1      -8.838 -30.071 -28.700  1.00  0.00     0.009 C 
BRANCH   7  11
HETATM   11  O2  UNL     1      -6.261 -32.542 -28.843  1.00  0.00    -0.380 OA
ATOM     12  H2  UNL     1      -6.507 -33.422 -28.581  1.00  0.00     0.211 HD
ENDBRANCH   7  11
BRANCH   7  13
HETATM   13  C19 UNL     1      -6.995 -32.022 -30.974  1.00  0.00     0.419 C 
HETATM   14  F1  UNL     1      -6.904 -30.709 -31.400  1.00  0.00    -0.168 F 
HETATM   15  F2  UNL     1      -8.007 -32.620 -31.719  1.00  0.00    -0.168 F 
HETATM   16  F3  UNL     1      -5.781 -32.633 -31.139  1.00  0.00    -0.168 F 
ENDBRANCH   7  13
ENDBRANCH   1   2
BRANCH   1  17
HETATM   17  C6  UNL     1     -12.376 -30.270 -28.794  1.00  0.00     0.162 C 
HETATM   18  O1  UNL     1     -12.747 -30.615 -27.678  1.00  0.00    -0.292 OA
BRANCH  17  19
HETATM   19  C7  UNL     1     -13.239 -29.398 -29.561  1.00  0.00     0.038 A 
HETATM   20  C8  UNL     1     -14.084 -30.112 -30.466  1.00  0.00     0.103 A 
HETATM   21  N1  UNL     1     -15.085 -29.467 -31.060  1.00  0.00    -0.372 N 
HETATM   22  C9  UNL     1     -15.322 -28.170 -30.837  1.00  0.00     0.117 A 
ATOM     23  H1  UNL     1     -15.688 -29.978 -31.704  1.00  0.00     0.164 HD
HETATM   24  C10 UNL     1     -14.549 -27.439 -29.991  1.00  0.00     0.059 A 
HETATM   25  N2  UNL     1     -14.805 -26.161 -29.783  1.00  0.00    -0.364 N 
HETATM   26  C15 UNL     1     -13.462 -28.080 -29.333  1.00  0.00     0.014 A 
HETATM   27  C11 UNL     1     -14.084 -25.400 -28.969  1.00  0.00     0.089 A 
ATOM     28  H2  UNL     1     -15.595 -25.739 -30.270  1.00  0.00     0.165 HD
HETATM   29  C12 UNL     1     -13.036 -25.987 -28.339  1.00  0.00     0.026 A 
HETATM   30  C13 UNL     1     -12.665 -27.348 -28.489  1.00  0.00    -0.033 A 
BRANCH  30  31
HETATM   31  C14 UNL     1     -11.399 -27.806 -27.980  1.00  0.00     0.124 C 
HETATM   32 BR1  UNL     1      -9.969 -26.457 -28.257  1.00  0.00    -0.091 Br
ENDBRANCH  30  31
ENDBRANCH  17  19
ENDBRANCH   1  17
TORSDOF 6
ENDMDL
