MODEL 1
REMARK VINA RESULT: -7.303629522      0.000      0.000
REMARK  7 active torsions:
REMARK  status: ('A' for Active; 'I' for Inactive)
REMARK    1  A    between atoms: N1_2  and  C2_4 
REMARK    2  A    between atoms: C4_10  and  N4_11 
REMARK    3  A    between atoms: N4_11  and  C5_13 
REMARK    4  A    between atoms: C5_13  and  C6_14 
REMARK    5  A    between atoms: C6_14  and  O1_15 
REMARK    6  A    between atoms: C7_19  and  N6_20 
REMARK    7  A    between atoms: C9_26  and  N8_27 
ROOT
HETATM    1  C2  UNL     1      10.592  -9.125  -6.528  1.00  0.00     0.147 A 
HETATM    2  N2  UNL     1       9.571  -8.284  -6.265  1.00  0.00    -0.283 N 
ATOM      3  H2  UNL     1       8.797  -8.215  -6.926  1.00  0.00     0.188 HD
HETATM    4  N3  UNL     1       9.554  -7.544  -5.164  1.00  0.00    -0.293 N 
ATOM      5  H3  UNL     1       8.755  -6.927  -5.018  1.00  0.00     0.187 HD
HETATM    6  C3  UNL     1      10.499  -7.552  -4.249  1.00  0.00     0.122 A 
HETATM    7  C4  UNL     1      10.445  -6.764  -3.103  1.00  0.00     0.147 A 
HETATM    8  N5  UNL     1      11.524  -6.912  -2.255  1.00  0.00    -0.175 N 
ATOM      9  H5  UNL     1      11.532  -6.355  -1.400  1.00  0.00     0.186 HD
HETATM   10  C7  UNL     1      12.536  -7.712  -2.462  1.00  0.00     0.678 A 
HETATM   11  N7  UNL     1      12.604  -8.469  -3.551  1.00  0.00    -0.187 N 
ATOM     12  H7  UNL     1      13.399  -9.090  -3.708  1.00  0.00     0.184 HD
HETATM   13  C8  UNL     1      11.598  -8.396  -4.439  1.00  0.00     0.113 A 
HETATM   14  C9  UNL     1      11.605  -9.169  -5.599  1.00  0.00     0.133 A 
ENDROOT
BRANCH  14  15
HETATM   15  N8  UNL     1      12.751 -10.027  -5.760  1.00  0.00    -0.229 N 
HETATM   16  C10 UNL     1      13.011 -11.173  -5.151  1.00  0.00     0.226 A 
HETATM   17  N9  UNL     1      14.193 -11.602  -5.616  1.00  0.00    -0.279 N 
HETATM   18  N10 UNL     1      14.616 -10.678  -6.514  1.00  0.00    -0.227 N 
ATOM     19  H9  UNL     1      14.679 -12.458  -5.347  1.00  0.00     0.189 HD
HETATM   20  N11 UNL     1      13.727  -9.712  -6.598  1.00  0.00    -0.220 N 
ATOM     21  H10 UNL     1      15.487 -10.725  -7.043  1.00  0.00     0.210 HD
ATOM     22  H11 UNL     1      13.778  -8.884  -7.191  1.00  0.00     0.210 HD
ENDBRANCH  14  15
BRANCH   1  23
HETATM   23  N1  UNL     1      10.682  -9.872  -7.544  1.00  0.00    -0.378 N 
HETATM   24  C1  UNL     1      10.930  -9.512  -8.902  1.00  0.00     0.148 C 
ATOM     25  H1  UNL     1      10.561 -10.870  -7.368  1.00  0.00     0.160 HD
ENDBRANCH   1  23
BRANCH   7  26
HETATM   26  N4  UNL     1       9.524  -6.011  -2.830  1.00  0.00    -0.372 N 
ATOM     27  H4  UNL     1       8.701  -6.594  -2.676  1.00  0.00     0.161 HD
BRANCH  26  28
HETATM   28  C5  UNL     1       9.137  -4.730  -2.646  1.00  0.00     0.147 C 
BRANCH  28  29
HETATM   29  C6  UNL     1       8.613  -4.181  -3.992  1.00  0.00     0.183 C 
BRANCH  29  30
HETATM   30  O1  UNL     1       7.627  -5.095  -4.410  1.00  0.00    -0.399 OA
ATOM     31  H1  UNL     1       7.506  -4.927  -5.337  1.00  0.00     0.209 HD
ENDBRANCH  29  30
ENDBRANCH  28  29
ENDBRANCH  26  28
ENDBRANCH   7  26
BRANCH  10  32
HETATM   32  N6  UNL     1      13.537  -7.832  -1.614  1.00  0.00    -0.234 N 
ATOM     33  H62 UNL     1      14.063  -6.979  -1.422  1.00  0.00     0.174 HD
ATOM     34  H61 UNL     1      13.789  -8.718  -1.178  1.00  0.00     0.174 HD
ENDBRANCH  10  32
TORSDOF 7
ENDMDL
MODEL 2
REMARK VINA RESULT: -7.165095568      2.389      5.482
REMARK  7 active torsions:
REMARK  status: ('A' for Active; 'I' for Inactive)
REMARK    1  A    between atoms: N1_2  and  C2_4 
REMARK    2  A    between atoms: C4_10  and  N4_11 
REMARK    3  A    between atoms: N4_11  and  C5_13 
REMARK    4  A    between atoms: C5_13  and  C6_14 
REMARK    5  A    between atoms: C6_14  and  O1_15 
REMARK    6  A    between atoms: C7_19  and  N6_20 
REMARK    7  A    between atoms: C9_26  and  N8_27 
ROOT
HETATM    1  C2  UNL     1      10.024  -7.701  -5.018  1.00  0.00     0.147 A 
HETATM    2  N2  UNL     1       9.231  -8.182  -5.996  1.00  0.00    -0.283 N 
ATOM      3  H2  UNL     1       8.253  -7.895  -6.032  1.00  0.00     0.188 HD
HETATM    4  N3  UNL     1       9.696  -9.022  -6.911  1.00  0.00    -0.293 N 
ATOM      5  H3  UNL     1       9.050  -9.351  -7.628  1.00  0.00     0.187 HD
HETATM    6  C3  UNL     1      10.936  -9.458  -6.957  1.00  0.00     0.122 A 
HETATM    7  C4  UNL     1      11.391 -10.337  -7.936  1.00  0.00     0.147 A 
HETATM    8  N5  UNL     1      12.724 -10.678  -7.824  1.00  0.00    -0.175 N 
ATOM      9  H5  UNL     1      13.105 -11.321  -8.519  1.00  0.00     0.186 HD
HETATM   10  C7  UNL     1      13.534 -10.241  -6.898  1.00  0.00     0.678 A 
HETATM   11  N7  UNL     1      13.117  -9.404  -5.956  1.00  0.00    -0.187 N 
ATOM     12  H7  UNL     1      13.755  -9.068  -5.233  1.00  0.00     0.184 HD
HETATM   13  C8  UNL     1      11.832  -9.011  -5.979  1.00  0.00     0.113 A 
HETATM   14  C9  UNL     1      11.331  -8.129  -5.023  1.00  0.00     0.133 A 
ENDROOT
BRANCH  14  15
HETATM   15  N8  UNL     1      12.283  -7.689  -4.034  1.00  0.00    -0.229 N 
HETATM   16  C10 UNL     1      12.573  -8.246  -2.869  1.00  0.00     0.226 A 
HETATM   17  N9  UNL     1      13.510  -7.480  -2.294  1.00  0.00    -0.279 N 
HETATM   18  N10 UNL     1      13.761  -6.461  -3.154  1.00  0.00    -0.227 N 
ATOM     19  H9  UNL     1      13.949  -7.632  -1.385  1.00  0.00     0.189 HD
HETATM   20  N11 UNL     1      13.003  -6.594  -4.221  1.00  0.00    -0.220 N 
ATOM     21  H10 UNL     1      14.433  -5.709  -2.998  1.00  0.00     0.210 HD
ATOM     22  H11 UNL     1      12.976  -5.977  -5.031  1.00  0.00     0.210 HD
ENDBRANCH  14  15
BRANCH   1  23
HETATM   23  N1  UNL     1       9.667  -6.891  -4.116  1.00  0.00    -0.378 N 
HETATM   24  C1  UNL     1       8.946  -5.667  -4.245  1.00  0.00     0.148 C 
ATOM     25  H1  UNL     1       9.929  -7.149  -3.164  1.00  0.00     0.160 HD
ENDBRANCH   1  23
BRANCH   7  26
HETATM   26  N4  UNL     1      10.700 -10.770  -8.844  1.00  0.00    -0.372 N 
ATOM     27  H4  UNL     1       9.865 -11.170  -8.415  1.00  0.00     0.161 HD
BRANCH  26  28
HETATM   28  C5  UNL     1      10.577 -10.943 -10.177  1.00  0.00     0.147 C 
BRANCH  28  29
HETATM   29  C6  UNL     1       9.809  -9.735 -10.758  1.00  0.00     0.183 C 
BRANCH  29  30
HETATM   30  O1  UNL     1       9.400 -10.136 -12.043  1.00  0.00    -0.399 OA
ATOM     31  H1  UNL     1       9.107  -9.342 -12.474  1.00  0.00     0.209 HD
ENDBRANCH  29  30
ENDBRANCH  28  29
ENDBRANCH  26  28
ENDBRANCH   7  26
BRANCH  10  32
HETATM   32  N6  UNL     1      14.806 -10.583  -6.842  1.00  0.00    -0.234 N 
ATOM     33  H62 UNL     1      15.128 -11.219  -7.570  1.00  0.00     0.174 HD
ATOM     34  H61 UNL     1      15.437 -10.247  -6.115  1.00  0.00     0.174 HD
ENDBRANCH  10  32
TORSDOF 7
ENDMDL
MODEL 3
REMARK VINA RESULT: -7.146546262      1.342      1.605
REMARK  7 active torsions:
REMARK  status: ('A' for Active; 'I' for Inactive)
REMARK    1  A    between atoms: N1_2  and  C2_4 
REMARK    2  A    between atoms: C4_10  and  N4_11 
REMARK    3  A    between atoms: N4_11  and  C5_13 
REMARK    4  A    between atoms: C5_13  and  C6_14 
REMARK    5  A    between atoms: C6_14  and  O1_15 
REMARK    6  A    between atoms: C7_19  and  N6_20 
REMARK    7  A    between atoms: C9_26  and  N8_27 
ROOT
HETATM    1  C2  UNL     1      11.354 -10.299  -6.835  1.00  0.00     0.147 A 
HETATM    2  N2  UNL     1      10.549  -9.260  -7.136  1.00  0.00    -0.283 N 
ATOM      3  H2  UNL     1       9.992  -9.291  -7.989  1.00  0.00     0.188 HD
HETATM    4  N3  UNL     1      10.467  -8.199  -6.344  1.00  0.00    -0.293 N 
ATOM      5  H3  UNL     1       9.840  -7.444  -6.622  1.00  0.00     0.187 HD
HETATM    6  C3  UNL     1      11.142  -8.054  -5.224  1.00  0.00     0.122 A 
HETATM    7  C4  UNL     1      11.028  -6.927  -4.416  1.00  0.00     0.147 A 
HETATM    8  N5  UNL     1      11.810  -6.958  -3.277  1.00  0.00    -0.175 N 
ATOM      9  H5  UNL     1      11.762  -6.153  -2.652  1.00  0.00     0.186 HD
HETATM   10  C7  UNL     1      12.605  -7.937  -2.940  1.00  0.00     0.678 A 
HETATM   11  N7  UNL     1      12.727  -9.019  -3.701  1.00  0.00    -0.187 N 
ATOM     12  H7  UNL     1      13.352  -9.780  -3.433  1.00  0.00     0.184 HD
HETATM   13  C8  UNL     1      12.005  -9.084  -4.832  1.00  0.00     0.113 A 
HETATM   14  C9  UNL     1      12.082 -10.194  -5.672  1.00  0.00     0.133 A 
ENDROOT
BRANCH  14  15
HETATM   15  N8  UNL     1      12.978 -11.235  -5.236  1.00  0.00    -0.229 N 
HETATM   16  C10 UNL     1      12.709 -12.285  -4.476  1.00  0.00     0.226 A 
HETATM   17  N9  UNL     1      13.854 -12.966  -4.334  1.00  0.00    -0.279 N 
HETATM   18  N10 UNL     1      14.799 -12.289  -5.032  1.00  0.00    -0.227 N 
ATOM     19  H9  UNL     1      13.989 -13.828  -3.804  1.00  0.00     0.189 HD
HETATM   20  N11 UNL     1      14.255 -11.225  -5.583  1.00  0.00    -0.220 N 
ATOM     21  H10 UNL     1      15.778 -12.561  -5.118  1.00  0.00     0.210 HD
ATOM     22  H11 UNL     1      14.724 -10.530  -6.164  1.00  0.00     0.210 HD
ENDBRANCH  14  15
BRANCH   1  23
HETATM   23  N1  UNL     1      11.483 -11.350  -7.525  1.00  0.00    -0.378 N 
HETATM   24  C1  UNL     1      10.491 -12.070  -8.254  1.00  0.00     0.148 C 
ATOM     25  H1  UNL     1      12.427 -11.737  -7.566  1.00  0.00     0.160 HD
ENDBRANCH   1  23
BRANCH   7  26
HETATM   26  N4  UNL     1      10.292  -5.984  -4.652  1.00  0.00    -0.372 N 
ATOM     27  H4  UNL     1      10.848  -5.295  -5.161  1.00  0.00     0.161 HD
BRANCH  26  28
HETATM   28  C5  UNL     1       9.051  -5.467  -4.524  1.00  0.00     0.147 C 
BRANCH  28  29
HETATM   29  C6  UNL     1       8.874  -4.975  -3.071  1.00  0.00     0.183 C 
BRANCH  29  30
HETATM   30  O1  UNL     1       8.633  -6.135  -2.311  1.00  0.00    -0.399 OA
ATOM     31  H1  UNL     1       7.687  -6.214  -2.266  1.00  0.00     0.209 HD
ENDBRANCH  29  30
ENDBRANCH  28  29
ENDBRANCH  26  28
ENDBRANCH   7  26
BRANCH  10  32
HETATM   32  N6  UNL     1      13.320  -7.928  -1.834  1.00  0.00    -0.234 N 
ATOM     33  H62 UNL     1      14.043  -8.644  -1.765  1.00  0.00     0.174 HD
ATOM     34  H61 UNL     1      13.164  -7.260  -1.080  1.00  0.00     0.174 HD
ENDBRANCH  10  32
TORSDOF 7
ENDMDL
MODEL 4
REMARK VINA RESULT: -7.107469069      1.226      1.303
REMARK  7 active torsions:
REMARK  status: ('A' for Active; 'I' for Inactive)
REMARK    1  A    between atoms: N1_2  and  C2_4 
REMARK    2  A    between atoms: C4_10  and  N4_11 
REMARK    3  A    between atoms: N4_11  and  C5_13 
REMARK    4  A    between atoms: C5_13  and  C6_14 
REMARK    5  A    between atoms: C6_14  and  O1_15 
REMARK    6  A    between atoms: C7_19  and  N6_20 
REMARK    7  A    between atoms: C9_26  and  N8_27 
ROOT
HETATM    1  C2  UNL     1      10.541  -8.767  -6.385  1.00  0.00     0.147 A 
HETATM    2  N2  UNL     1       9.570  -7.895  -6.049  1.00  0.00    -0.283 N 
ATOM      3  H2  UNL     1       8.805  -7.722  -6.701  1.00  0.00     0.188 HD
HETATM    4  N3  UNL     1       9.589  -7.256  -4.886  1.00  0.00    -0.293 N 
ATOM      5  H3  UNL     1       8.827  -6.609  -4.686  1.00  0.00     0.187 HD
HETATM    6  C3  UNL     1      10.526  -7.401  -3.975  1.00  0.00     0.122 A 
HETATM    7  C4  UNL     1      10.511  -6.716  -2.763  1.00  0.00     0.147 A 
HETATM    8  N5  UNL     1      11.575  -7.002  -1.930  1.00  0.00    -0.175 N 
ATOM      9  H5  UNL     1      11.610  -6.525  -1.030  1.00  0.00     0.186 HD
HETATM   10  C7  UNL     1      12.540  -7.838  -2.208  1.00  0.00     0.678 A 
HETATM   11  N7  UNL     1      12.570  -8.498  -3.359  1.00  0.00    -0.187 N 
ATOM     12  H7  UNL     1      13.328  -9.148  -3.571  1.00  0.00     0.184 HD
HETATM   13  C8  UNL     1      11.575  -8.288  -4.238  1.00  0.00     0.113 A 
HETATM   14  C9  UNL     1      11.544  -8.953  -5.463  1.00  0.00     0.133 A 
ENDROOT
BRANCH  14  15
HETATM   15  N8  UNL     1      12.640  -9.859  -5.699  1.00  0.00    -0.229 N 
HETATM   16  C10 UNL     1      12.842 -11.057  -5.173  1.00  0.00     0.226 A 
HETATM   17  N9  UNL     1      13.993 -11.517  -5.684  1.00  0.00    -0.279 N 
HETATM   18  N10 UNL     1      14.457 -10.557  -6.523  1.00  0.00    -0.227 N 
ATOM     19  H9  UNL     1      14.435 -12.414  -5.480  1.00  0.00     0.189 HD
HETATM   20  N11 UNL     1      13.622  -9.541  -6.527  1.00  0.00    -0.220 N 
ATOM     21  H10 UNL     1      15.318 -10.615  -7.066  1.00  0.00     0.210 HD
ATOM     22  H11 UNL     1      13.712  -8.678  -7.063  1.00  0.00     0.210 HD
ENDBRANCH  14  15
BRANCH   1  23
HETATM   23  N1  UNL     1      10.594  -9.425  -7.463  1.00  0.00    -0.378 N 
HETATM   24  C1  UNL     1       9.573 -10.199  -8.091  1.00  0.00     0.148 C 
ATOM     25  H1  UNL     1      11.490  -9.400  -7.951  1.00  0.00     0.160 HD
ENDBRANCH   1  23
BRANCH   7  26
HETATM   26  N4  UNL     1       9.634  -5.938  -2.424  1.00  0.00    -0.372 N 
ATOM     27  H4  UNL     1       8.884  -6.497  -2.018  1.00  0.00     0.161 HD
BRANCH  26  28
HETATM   28  C5  UNL     1       9.240  -4.648  -2.362  1.00  0.00     0.147 C 
BRANCH  28  29
HETATM   29  C6  UNL     1      10.466  -3.779  -2.004  1.00  0.00     0.183 C 
BRANCH  29  30
HETATM   30  O1  UNL     1      10.778  -4.106  -0.670  1.00  0.00    -0.399 OA
ATOM     31  H1  UNL     1      11.710  -3.945  -0.583  1.00  0.00     0.209 HD
ENDBRANCH  29  30
ENDBRANCH  28  29
ENDBRANCH  26  28
ENDBRANCH   7  26
BRANCH  10  32
HETATM   32  N6  UNL     1      13.527  -8.091  -1.373  1.00  0.00    -0.234 N 
ATOM     33  H62 UNL     1      13.492  -7.601  -0.480  1.00  0.00     0.174 HD
ATOM     34  H61 UNL     1      14.291  -8.728  -1.597  1.00  0.00     0.174 HD
ENDBRANCH  10  32
TORSDOF 7
ENDMDL
MODEL 5
REMARK VINA RESULT: -7.047665544      4.609      7.238
REMARK  7 active torsions:
REMARK  status: ('A' for Active; 'I' for Inactive)
REMARK    1  A    between atoms: N1_2  and  C2_4 
REMARK    2  A    between atoms: C4_10  and  N4_11 
REMARK    3  A    between atoms: N4_11  and  C5_13 
REMARK    4  A    between atoms: C5_13  and  C6_14 
REMARK    5  A    between atoms: C6_14  and  O1_15 
REMARK    6  A    between atoms: C7_19  and  N6_20 
REMARK    7  A    between atoms: C9_26  and  N8_27 
ROOT
HETATM    1  C2  UNL     1      11.628  -9.336  -7.974  1.00  0.00     0.147 A 
HETATM    2  N2  UNL     1      11.747  -9.024  -9.280  1.00  0.00    -0.283 N 
ATOM      3  H2  UNL     1      10.969  -8.571  -9.759  1.00  0.00     0.188 HD
HETATM    4  N3  UNL     1      12.858  -9.292  -9.955  1.00  0.00    -0.293 N 
ATOM      5  H3  UNL     1      12.892  -9.031 -10.940  1.00  0.00     0.187 HD
HETATM    6  C3  UNL     1      13.918  -9.874  -9.437  1.00  0.00     0.122 A 
HETATM    7  C4  UNL     1      15.069 -10.136 -10.175  1.00  0.00     0.147 A 
HETATM    8  N5  UNL     1      16.081 -10.747  -9.459  1.00  0.00    -0.175 N 
ATOM      9  H5  UNL     1      16.945 -10.961  -9.957  1.00  0.00     0.186 HD
HETATM   10  C7  UNL     1      16.016 -11.069  -8.196  1.00  0.00     0.678 A 
HETATM   11  N7  UNL     1      14.925 -10.827  -7.478  1.00  0.00    -0.187 N 
ATOM     12  H7  UNL     1      14.880 -11.084  -6.491  1.00  0.00     0.184 HD
HETATM   13  C8  UNL     1      13.883 -10.234  -8.086  1.00  0.00     0.113 A 
HETATM   14  C9  UNL     1      12.712  -9.946  -7.388  1.00  0.00     0.133 A 
ENDROOT
BRANCH  14  15
HETATM   15  N8  UNL     1      12.713 -10.330  -5.999  1.00  0.00    -0.229 N 
HETATM   16  C10 UNL     1      12.391 -11.500  -5.470  1.00  0.00     0.226 A 
HETATM   17  N9  UNL     1      12.537 -11.382  -4.143  1.00  0.00    -0.279 N 
HETATM   18  N10 UNL     1      12.955 -10.112  -3.910  1.00  0.00    -0.227 N 
ATOM     19  H9  UNL     1      12.367 -12.105  -3.444  1.00  0.00     0.189 HD
HETATM   20  N11 UNL     1      13.060  -9.471  -5.054  1.00  0.00    -0.220 N 
ATOM     21  H10 UNL     1      13.156  -9.717  -2.992  1.00  0.00     0.210 HD
ATOM     22  H11 UNL     1      13.351  -8.503  -5.187  1.00  0.00     0.210 HD
ENDBRANCH  14  15
BRANCH   1  23
HETATM   23  N1  UNL     1      10.613  -9.106  -7.256  1.00  0.00    -0.378 N 
HETATM   24  C1  UNL     1       9.289  -9.621  -7.385  1.00  0.00     0.148 C 
ATOM     25  H1  UNL     1      10.762  -8.464  -6.477  1.00  0.00     0.160 HD
ENDBRANCH   1  23
BRANCH   7  26
HETATM   26  N4  UNL     1      15.212  -9.845 -11.351  1.00  0.00    -0.372 N 
ATOM     27  H4  UNL     1      14.282  -9.836 -11.769  1.00  0.00     0.161 HD
BRANCH  26  28
HETATM   28  C5  UNL     1      16.085  -9.530 -12.332  1.00  0.00     0.147 C 
BRANCH  28  29
HETATM   29  C6  UNL     1      16.463 -10.825 -13.085  1.00  0.00     0.183 C 
BRANCH  29  30
HETATM   30  O1  UNL     1      17.108 -10.398 -14.261  1.00  0.00    -0.399 OA
ATOM     31  H1  UNL     1      17.925 -10.009 -13.972  1.00  0.00     0.209 HD
ENDBRANCH  29  30
ENDBRANCH  28  29
ENDBRANCH  26  28
ENDBRANCH   7  26
BRANCH  10  32
HETATM   32  N6  UNL     1      17.015 -11.636  -7.551  1.00  0.00    -0.234 N 
ATOM     33  H62 UNL     1      16.755 -12.258  -6.786  1.00  0.00     0.174 HD
ATOM     34  H61 UNL     1      17.993 -11.464  -7.785  1.00  0.00     0.174 HD
ENDBRANCH  10  32
TORSDOF 7
ENDMDL
