MODEL 1
REMARK VINA RESULT: -8.742904889      0.000      0.000
REMARK  7 active torsions:
REMARK  status: ('A' for Active; 'I' for Inactive)
REMARK    1  A    between atoms: C3_4  and  C4_5 
REMARK    2  A    between atoms: N2_6  and  N3_8 
REMARK    3  A    between atoms: N3_8  and  C5_10 
REMARK    4  A    between atoms: N5_15  and  N6_16 
REMARK    5  A    between atoms: C9_24  and  N8_25 
REMARK    6  A    between atoms: N8_25  and  N9_26 
REMARK    7  A    between atoms: N8_25  and  O3_29 
ROOT
HETATM    1  C4  UNL     1      10.942  -8.476  -6.106  1.00  0.00     0.119 C 
HETATM    2  N2  UNL     1      11.804  -8.239  -7.017  1.00  0.00    -0.297 N 
ATOM      3  H2  UNL     1      12.493  -7.497  -6.881  1.00  0.00     0.186 HD
ENDROOT
BRANCH   2   4
HETATM    4  N3  UNL     1      11.813  -8.970  -8.173  1.00  0.00    -0.132 N 
ATOM      5  H3  UNL     1      10.892  -9.252  -8.510  1.00  0.00     0.205 HD
BRANCH   4   6
HETATM    6  C5  UNL     1      12.787  -9.351  -8.892  1.00  0.00     0.705 A 
HETATM    7  N4  UNL     1      12.995  -8.888 -10.129  1.00  0.00    -0.138 N 
HETATM    8  C6  UNL     1      14.069  -9.340 -10.824  1.00  0.00     0.363 A 
ATOM      9  H4  UNL     1      12.357  -8.207 -10.543  1.00  0.00     0.189 HD
HETATM   10  O1  UNL     1      14.265  -8.909 -11.980  1.00  0.00    -0.244 OA
HETATM   11  N5  UNL     1      14.932 -10.242 -10.301  1.00  0.00    -0.159 N 
HETATM   12  C7  UNL     1      14.715 -10.704  -9.055  1.00  0.00     0.363 A 
HETATM   13  O2  UNL     1      15.488 -11.542  -8.526  1.00  0.00    -0.244 OA
HETATM   14  N7  UNL     1      13.646 -10.250  -8.372  1.00  0.00    -0.138 N 
ATOM     15  H7  UNL     1      13.481 -10.598  -7.428  1.00  0.00     0.189 HD
BRANCH  11  16
HETATM   16  N6  UNL     1      16.042 -10.713 -10.995  1.00  0.00    -0.330 N 
ATOM     17  H62 UNL     1      16.470 -11.586 -10.687  1.00  0.00     0.177 HD
ATOM     18  H61 UNL     1      16.444 -10.221 -11.792  1.00  0.00     0.177 HD
ENDBRANCH  11  16
ENDBRANCH   4   6
ENDBRANCH   2   4
BRANCH   1  19
HETATM   19  C3  UNL     1      10.832  -7.770  -4.843  1.00  0.00    -0.015 A 
HETATM   20  C2  UNL     1       9.676  -7.094  -4.510  1.00  0.00     0.039 A 
HETATM   21  C1  UNL     1       9.602  -6.446  -3.274  1.00  0.00     0.049 A 
HETATM   22  N1  UNL     1       8.416  -5.744  -2.932  1.00  0.00    -0.102 NA
HETATM   23  C10 UNL     1      10.681  -6.486  -2.393  1.00  0.00     0.060 A 
HETATM   24  C9  UNL     1      11.830  -7.152  -2.715  1.00  0.00     0.083 A 
HETATM   25  C8  UNL     1      11.892  -7.790  -3.942  1.00  0.00     0.046 A 
BRANCH  24  26
HETATM   26  N8  UNL     1      12.941  -7.208  -1.834  1.00  0.00    -0.170 N 
BRANCH  26  27
HETATM   27  N9  UNL     1      13.267  -6.060  -1.127  1.00  0.00    -0.319 N 
ATOM     28  H92 UNL     1      12.797  -5.179  -1.336  1.00  0.00     0.179 HD
ATOM     29  H91 UNL     1      13.983  -6.131  -0.405  1.00  0.00     0.179 HD
ENDBRANCH  26  27
BRANCH  26  30
HETATM   30  O3  UNL     1      13.611  -8.241  -1.688  1.00  0.00    -0.268 OA
ATOM     31  H3  UNL     1      14.180  -8.571  -2.373  1.00  0.00     0.247 HD
ENDBRANCH  26  30
ENDBRANCH  24  26
ENDBRANCH   1  19
TORSDOF 7
ENDMDL
MODEL 2
REMARK VINA RESULT: -8.688649258      0.155      1.688
REMARK  7 active torsions:
REMARK  status: ('A' for Active; 'I' for Inactive)
REMARK    1  A    between atoms: C3_4  and  C4_5 
REMARK    2  A    between atoms: N2_6  and  N3_8 
REMARK    3  A    between atoms: N3_8  and  C5_10 
REMARK    4  A    between atoms: N5_15  and  N6_16 
REMARK    5  A    between atoms: C9_24  and  N8_25 
REMARK    6  A    between atoms: N8_25  and  N9_26 
REMARK    7  A    between atoms: N8_25  and  O3_29 
ROOT
HETATM    1  C4  UNL     1      10.911  -8.425  -6.085  1.00  0.00     0.119 C 
HETATM    2  N2  UNL     1      11.788  -8.200  -6.985  1.00  0.00    -0.297 N 
ATOM      3  H2  UNL     1      12.490  -7.474  -6.837  1.00  0.00     0.186 HD
ENDROOT
BRANCH   2   4
HETATM    4  N3  UNL     1      11.794  -8.924  -8.146  1.00  0.00    -0.132 N 
ATOM      5  H3  UNL     1      10.871  -9.166  -8.507  1.00  0.00     0.205 HD
BRANCH   4   6
HETATM    6  C5  UNL     1      12.769  -9.341  -8.843  1.00  0.00     0.705 A 
HETATM    7  N4  UNL     1      13.641 -10.249  -8.393  1.00  0.00    -0.138 N 
HETATM    8  C6  UNL     1      14.648 -10.649  -9.210  1.00  0.00     0.363 A 
ATOM      9  H4  UNL     1      13.551 -10.634  -7.452  1.00  0.00     0.189 HD
HETATM   10  O1  UNL     1      15.464 -11.498  -8.791  1.00  0.00    -0.244 OA
HETATM   11  N5  UNL     1      14.793 -10.156 -10.461  1.00  0.00    -0.159 N 
HETATM   12  C7  UNL     1      13.912  -9.241 -10.907  1.00  0.00     0.363 A 
HETATM   13  O2  UNL     1      14.004  -8.753 -12.062  1.00  0.00    -0.244 OA
HETATM   14  N7  UNL     1      12.915  -8.850 -10.089  1.00  0.00    -0.138 N 
ATOM     15  H7  UNL     1      12.246  -8.157 -10.425  1.00  0.00     0.189 HD
BRANCH  11  16
HETATM   16  N6  UNL     1      15.816 -10.557 -11.315  1.00  0.00    -0.330 N 
ATOM     17  H62 UNL     1      16.497 -11.233 -10.969  1.00  0.00     0.177 HD
ATOM     18  H61 UNL     1      15.911 -10.202 -12.266  1.00  0.00     0.177 HD
ENDBRANCH  11  16
ENDBRANCH   4   6
ENDBRANCH   2   4
BRANCH   1  19
HETATM   19  C3  UNL     1      10.801  -7.724  -4.819  1.00  0.00    -0.015 A 
HETATM   20  C2  UNL     1       9.649  -7.042  -4.487  1.00  0.00     0.039 A 
HETATM   21  C1  UNL     1       9.575  -6.399  -3.248  1.00  0.00     0.049 A 
HETATM   22  N1  UNL     1       8.392  -5.690  -2.907  1.00  0.00    -0.102 NA
HETATM   23  C10 UNL     1      10.650  -6.450  -2.363  1.00  0.00     0.060 A 
HETATM   24  C9  UNL     1      11.796  -7.123  -2.685  1.00  0.00     0.083 A 
HETATM   25  C8  UNL     1      11.858  -7.755  -3.914  1.00  0.00     0.046 A 
BRANCH  24  26
HETATM   26  N8  UNL     1      12.903  -7.191  -1.801  1.00  0.00    -0.170 N 
BRANCH  26  27
HETATM   27  N9  UNL     1      13.233  -6.050  -1.084  1.00  0.00    -0.319 N 
ATOM     28  H92 UNL     1      13.007  -5.128  -1.457  1.00  0.00     0.179 HD
ATOM     29  H91 UNL     1      13.701  -6.169  -0.186  1.00  0.00     0.179 HD
ENDBRANCH  26  27
BRANCH  26  30
HETATM   30  O3  UNL     1      13.567  -8.229  -1.659  1.00  0.00    -0.268 OA
ATOM     31  H3  UNL     1      14.120  -8.372  -0.901  1.00  0.00     0.247 HD
ENDBRANCH  26  30
ENDBRANCH  24  26
ENDBRANCH   1  19
TORSDOF 7
ENDMDL
MODEL 3
REMARK VINA RESULT: -8.561952079      1.718      1.943
REMARK  7 active torsions:
REMARK  status: ('A' for Active; 'I' for Inactive)
REMARK    1  A    between atoms: C3_4  and  C4_5 
REMARK    2  A    between atoms: N2_6  and  N3_8 
REMARK    3  A    between atoms: N3_8  and  C5_10 
REMARK    4  A    between atoms: N5_15  and  N6_16 
REMARK    5  A    between atoms: C9_24  and  N8_25 
REMARK    6  A    between atoms: N8_25  and  N9_26 
REMARK    7  A    between atoms: N8_25  and  O3_29 
ROOT
HETATM    1  C4  UNL     1      12.261  -9.331  -5.085  1.00  0.00     0.119 C 
HETATM    2  N2  UNL     1      13.185  -9.264  -5.963  1.00  0.00    -0.297 N 
ATOM      3  H2  UNL     1      13.489  -8.354  -6.309  1.00  0.00     0.186 HD
ENDROOT
BRANCH   2   4
HETATM    4  N3  UNL     1      13.772 -10.404  -6.442  1.00  0.00    -0.132 N 
ATOM      5  H3  UNL     1      13.601 -11.242  -5.887  1.00  0.00     0.205 HD
BRANCH   4   6
HETATM    6  C5  UNL     1      14.497 -10.579  -7.469  1.00  0.00     0.705 A 
HETATM    7  N4  UNL     1      14.080 -10.281  -8.704  1.00  0.00    -0.138 N 
HETATM    8  C6  UNL     1      14.924 -10.489  -9.747  1.00  0.00     0.363 A 
ATOM      9  H4  UNL     1      13.144  -9.904  -8.861  1.00  0.00     0.189 HD
HETATM   10  O1  UNL     1      14.537 -10.211 -10.901  1.00  0.00    -0.244 OA
HETATM   11  N5  UNL     1      16.169 -10.987  -9.570  1.00  0.00    -0.159 N 
HETATM   12  C7  UNL     1      16.581 -11.287  -8.324  1.00  0.00     0.363 A 
HETATM   13  O2  UNL     1      17.729 -11.751  -8.108  1.00  0.00    -0.244 OA
HETATM   14  N7  UNL     1      15.737 -11.077  -7.294  1.00  0.00    -0.138 N 
ATOM     15  H7  UNL     1      16.047 -11.302  -6.349  1.00  0.00     0.189 HD
BRANCH  11  16
HETATM   16  N6  UNL     1      17.051 -11.202 -10.625  1.00  0.00    -0.330 N 
ATOM     17  H62 UNL     1      18.051 -11.221 -10.423  1.00  0.00     0.177 HD
ATOM     18  H61 UNL     1      16.739 -11.338 -11.586  1.00  0.00     0.177 HD
ENDBRANCH  11  16
ENDBRANCH   4   6
ENDBRANCH   2   4
BRANCH   1  19
HETATM   19  C3  UNL     1      11.564  -8.198  -4.505  1.00  0.00    -0.015 A 
HETATM   20  C2  UNL     1      10.501  -7.611  -5.162  1.00  0.00     0.039 A 
HETATM   21  C1  UNL     1       9.842  -6.537  -4.558  1.00  0.00     0.049 A 
HETATM   22  N1  UNL     1       8.753  -5.926  -5.236  1.00  0.00    -0.102 NA
HETATM   23  C10 UNL     1      10.253  -6.069  -3.312  1.00  0.00     0.060 A 
HETATM   24  C9  UNL     1      11.305  -6.644  -2.655  1.00  0.00     0.083 A 
HETATM   25  C8  UNL     1      11.950  -7.707  -3.262  1.00  0.00     0.046 A 
BRANCH  24  26
HETATM   26  N8  UNL     1      11.741  -6.187  -1.385  1.00  0.00    -0.170 N 
BRANCH  26  27
HETATM   27  N9  UNL     1      13.096  -6.259  -1.099  1.00  0.00    -0.319 N 
ATOM     28  H92 UNL     1      13.588  -5.441  -0.737  1.00  0.00     0.179 HD
ATOM     29  H91 UNL     1      13.573  -7.145  -1.264  1.00  0.00     0.179 HD
ENDBRANCH  26  27
BRANCH  26  30
HETATM   30  O3  UNL     1      10.950  -5.733  -0.545  1.00  0.00    -0.268 OA
ATOM     31  H3  UNL     1      10.710  -4.815  -0.526  1.00  0.00     0.247 HD
ENDBRANCH  26  30
ENDBRANCH  24  26
ENDBRANCH   1  19
TORSDOF 7
ENDMDL
MODEL 4
REMARK VINA RESULT: -8.547029267      1.702      1.911
REMARK  7 active torsions:
REMARK  status: ('A' for Active; 'I' for Inactive)
REMARK    1  A    between atoms: C3_4  and  C4_5 
REMARK    2  A    between atoms: N2_6  and  N3_8 
REMARK    3  A    between atoms: N3_8  and  C5_10 
REMARK    4  A    between atoms: N5_15  and  N6_16 
REMARK    5  A    between atoms: C9_24  and  N8_25 
REMARK    6  A    between atoms: N8_25  and  N9_26 
REMARK    7  A    between atoms: N8_25  and  O3_29 
ROOT
HETATM    1  C4  UNL     1      12.088  -8.712  -4.460  1.00  0.00     0.119 C 
HETATM    2  N2  UNL     1      12.793  -8.710  -5.525  1.00  0.00    -0.297 N 
ATOM      3  H2  UNL     1      13.095  -7.823  -5.929  1.00  0.00     0.186 HD
ENDROOT
BRANCH   2   4
HETATM    4  N3  UNL     1      13.145  -9.886  -6.128  1.00  0.00    -0.132 N 
ATOM      5  H3  UNL     1      12.781 -10.726  -5.678  1.00  0.00     0.205 HD
BRANCH   4   6
HETATM    6  C5  UNL     1      13.854 -10.095  -7.160  1.00  0.00     0.705 A 
HETATM    7  N4  UNL     1      13.470  -9.723  -8.386  1.00  0.00    -0.138 N 
HETATM    8  C6  UNL     1      14.296  -9.974  -9.433  1.00  0.00     0.363 A 
ATOM      9  H4  UNL     1      12.573  -9.259  -8.531  1.00  0.00     0.189 HD
HETATM   10  O1  UNL     1      13.939  -9.627 -10.579  1.00  0.00    -0.244 OA
HETATM   11  N5  UNL     1      15.491 -10.588  -9.271  1.00  0.00    -0.159 N 
HETATM   12  C7  UNL     1      15.870 -10.960  -8.034  1.00  0.00     0.363 A 
HETATM   13  O2  UNL     1      16.970 -11.533  -7.832  1.00  0.00    -0.244 OA
HETATM   14  N7  UNL     1      15.044 -10.707  -6.999  1.00  0.00    -0.138 N 
ATOM     15  H7  UNL     1      15.330 -10.988  -6.062  1.00  0.00     0.189 HD
BRANCH  11  16
HETATM   16  N6  UNL     1      16.353 -10.849 -10.331  1.00  0.00    -0.330 N 
ATOM     17  H62 UNL     1      15.976 -11.310 -11.159  1.00  0.00     0.177 HD
ATOM     18  H61 UNL     1      17.342 -10.601 -10.312  1.00  0.00     0.177 HD
ENDBRANCH  11  16
ENDBRANCH   4   6
ENDBRANCH   2   4
BRANCH   1  19
HETATM   19  C3  UNL     1      11.652  -7.535  -3.734  1.00  0.00    -0.015 A 
HETATM   20  C2  UNL     1      10.308  -7.260  -3.575  1.00  0.00     0.039 A 
HETATM   21  C1  UNL     1       9.929  -6.128  -2.849  1.00  0.00     0.049 A 
HETATM   22  N1  UNL     1       8.547  -5.840  -2.690  1.00  0.00    -0.102 NA
HETATM   23  C10 UNL     1      10.895  -5.292  -2.294  1.00  0.00     0.060 A 
HETATM   24  C9  UNL     1      12.228  -5.556  -2.447  1.00  0.00     0.083 A 
HETATM   25  C8  UNL     1      12.592  -6.679  -3.168  1.00  0.00     0.046 A 
BRANCH  24  26
HETATM   26  N8  UNL     1      13.231  -4.720  -1.891  1.00  0.00    -0.170 N 
BRANCH  26  27
HETATM   27  N9  UNL     1      14.552  -4.980  -2.225  1.00  0.00    -0.319 N 
ATOM     28  H92 UNL     1      15.264  -5.029  -1.496  1.00  0.00     0.179 HD
ATOM     29  H91 UNL     1      14.777  -5.116  -3.210  1.00  0.00     0.179 HD
ENDBRANCH  26  27
BRANCH  26  30
HETATM   30  O3  UNL     1      12.953  -3.782  -1.129  1.00  0.00    -0.268 OA
ATOM     31  H3  UNL     1      13.087  -2.875  -1.380  1.00  0.00     0.247 HD
ENDBRANCH  26  30
ENDBRANCH  24  26
ENDBRANCH   1  19
TORSDOF 7
ENDMDL
MODEL 5
REMARK VINA RESULT: -8.514253301      1.720      2.520
REMARK  7 active torsions:
REMARK  status: ('A' for Active; 'I' for Inactive)
REMARK    1  A    between atoms: C3_4  and  C4_5 
REMARK    2  A    between atoms: N2_6  and  N3_8 
REMARK    3  A    between atoms: N3_8  and  C5_10 
REMARK    4  A    between atoms: N5_15  and  N6_16 
REMARK    5  A    between atoms: C9_24  and  N8_25 
REMARK    6  A    between atoms: N8_25  and  N9_26 
REMARK    7  A    between atoms: N8_25  and  O3_29 
ROOT
HETATM    1  C4  UNL     1      12.084  -8.755  -4.426  1.00  0.00     0.119 C 
HETATM    2  N2  UNL     1      12.773  -8.770  -5.500  1.00  0.00    -0.297 N 
ATOM      3  H2  UNL     1      13.064  -7.889  -5.926  1.00  0.00     0.186 HD
ENDROOT
BRANCH   2   4
HETATM    4  N3  UNL     1      13.123  -9.956  -6.085  1.00  0.00    -0.132 N 
ATOM      5  H3  UNL     1      12.675 -10.781  -5.687  1.00  0.00     0.205 HD
BRANCH   4   6
HETATM    6  C5  UNL     1      13.920 -10.189  -7.046  1.00  0.00     0.705 A 
HETATM    7  N4  UNL     1      15.064 -10.863  -6.886  1.00  0.00    -0.138 N 
HETATM    8  C6  UNL     1      15.852 -11.079  -7.970  1.00  0.00     0.363 A 
ATOM      9  H4  UNL     1      15.340 -11.208  -5.966  1.00  0.00     0.189 HD
HETATM   10  O1  UNL     1      16.921 -11.708  -7.824  1.00  0.00    -0.244 OA
HETATM   11  N5  UNL     1      15.512 -10.632  -9.201  1.00  0.00    -0.159 N 
HETATM   12  C7  UNL     1      14.359  -9.954  -9.354  1.00  0.00     0.363 A 
HETATM   13  O2  UNL     1      14.000  -9.519 -10.477  1.00  0.00    -0.244 OA
HETATM   14  N7  UNL     1      13.583  -9.744  -8.272  1.00  0.00    -0.138 N 
ATOM     15  H7  UNL     1      12.709  -9.231  -8.385  1.00  0.00     0.189 HD
BRANCH  11  16
HETATM   16  N6  UNL     1      16.303 -10.848 -10.326  1.00  0.00    -0.330 N 
ATOM     17  H62 UNL     1      17.215 -11.286 -10.198  1.00  0.00     0.177 HD
ATOM     18  H61 UNL     1      16.010 -10.584 -11.266  1.00  0.00     0.177 HD
ENDBRANCH  11  16
ENDBRANCH   4   6
ENDBRANCH   2   4
BRANCH   1  19
HETATM   19  C3  UNL     1      11.650  -7.566  -3.717  1.00  0.00    -0.015 A 
HETATM   20  C2  UNL     1      10.308  -7.283  -3.567  1.00  0.00     0.039 A 
HETATM   21  C1  UNL     1       9.932  -6.139  -2.857  1.00  0.00     0.049 A 
HETATM   22  N1  UNL     1       8.551  -5.842  -2.707  1.00  0.00    -0.102 NA
HETATM   23  C10 UNL     1      10.900  -5.301  -2.309  1.00  0.00     0.060 A 
HETATM   24  C9  UNL     1      12.232  -5.573  -2.454  1.00  0.00     0.083 A 
HETATM   25  C8  UNL     1      12.593  -6.708  -3.158  1.00  0.00     0.046 A 
BRANCH  24  26
HETATM   26  N8  UNL     1      13.237  -4.736  -1.904  1.00  0.00    -0.170 N 
BRANCH  26  27
HETATM   27  N9  UNL     1      14.557  -5.004  -2.232  1.00  0.00    -0.319 N 
ATOM     28  H92 UNL     1      15.304  -4.791  -1.570  1.00  0.00     0.179 HD
ATOM     29  H91 UNL     1      14.747  -5.415  -3.146  1.00  0.00     0.179 HD
ENDBRANCH  26  27
BRANCH  26  30
HETATM   30  O3  UNL     1      12.961  -3.789  -1.152  1.00  0.00    -0.268 OA
ATOM     31  H3  UNL     1      13.621  -3.366  -0.615  1.00  0.00     0.247 HD
ENDBRANCH  26  30
ENDBRANCH  24  26
ENDBRANCH   1  19
TORSDOF 7
ENDMDL
