MODEL 1
REMARK VINA RESULT: -7.695480170      0.000      0.000
REMARK  5 active torsions:
REMARK  status: ('A' for Active; 'I' for Inactive)
REMARK    1  A    between atoms: O1_2  and  C2_3 
REMARK    2  A    between atoms: C2_3  and  N1_4 
REMARK    3  A    between atoms: C2_3  and  C3_8 
REMARK    4  A    between atoms: C3_8  and  O2_9 
REMARK    5  A    between atoms: C9_20  and  N3_21 
ROOT
HETATM    1  C3  UNL     1      12.826  -6.227  -2.513  1.00  0.00     0.147 C 
HETATM    2  C5  UNL     1      11.850  -6.124  -1.307  1.00  0.00     0.129 C 
HETATM    3  C6  UNL     1      10.801  -5.112  -1.584  1.00  0.00     0.115 C 
HETATM    4  N2  UNL     1      10.453  -4.314  -0.639  1.00  0.00    -0.383 N 
ATOM      5  H21 UNL     1       9.732  -3.618  -0.830  1.00  0.00     0.157 HD
ATOM      6  H22 UNL     1      10.889  -4.376   0.281  1.00  0.00     0.157 HD
HETATM    7  O3  UNL     1      10.203  -5.026  -2.847  1.00  0.00    -0.329 OA
HETATM    8  C7  UNL     1      10.930  -5.369  -3.977  1.00  0.00     0.186 C 
HETATM    9  C8  UNL     1       9.927  -6.066  -4.921  1.00  0.00     0.208 C 
HETATM   10  O4  UNL     1      10.577  -7.162  -5.437  1.00  0.00    -0.341 OA
HETATM   11  C9  UNL     1      11.846  -6.909  -5.895  1.00  0.00     0.372 C 
HETATM   12  O5  UNL     1      12.729  -6.468  -4.912  1.00  0.00    -0.333 OA
HETATM   13  C11 UNL     1      12.005  -6.365  -3.718  1.00  0.00     0.197 C 
ENDROOT
BRANCH   1  14
HETATM   14  C2  UNL     1      13.717  -5.030  -2.394  1.00  0.00     0.356 C 
BRANCH  14  15
HETATM   15  O1  UNL     1      13.059  -3.810  -2.514  1.00  0.00    -0.362 OA
HETATM   16  C1  UNL     1      13.507  -2.880  -1.578  1.00  0.00     0.204 C 
ENDBRANCH  14  15
BRANCH  14  17
HETATM   17  N1  UNL     1      14.208  -5.032  -1.008  1.00  0.00    -0.050 N 
ATOM     18  H13 UNL     1      13.473  -4.988  -0.302  1.00  0.00     0.277 HD
ATOM     19  H12 UNL     1      14.599  -5.923  -0.703  1.00  0.00     0.277 HD
ATOM     20  H11 UNL     1      14.865  -4.253  -0.980  1.00  0.00     0.277 HD
ENDBRANCH  14  17
ENDBRANCH   1  14
BRANCH   1  21
HETATM   21  O2  UNL     1      13.539  -7.374  -2.257  1.00  0.00    -0.377 OA
HETATM   22  C4  UNL     1      12.891  -8.561  -2.238  1.00  0.00     0.202 C 
ENDBRANCH   1  21
BRANCH  11  23
HETATM   23  N3  UNL     1      12.372  -8.160  -6.435  1.00  0.00    -0.319 N 
HETATM   24  C10 UNL     1      12.856  -8.254  -7.616  1.00  0.00     0.200 C 
HETATM   25  N4  UNL     1      13.338  -9.520  -8.034  1.00  0.00    -0.067 NA
HETATM   26  N5  UNL     1      12.941  -7.174  -8.537  1.00  0.00    -0.067 NA
ATOM     27  H3  UNL     1      12.354  -8.993  -5.846  1.00  0.00     0.166 HD
ENDBRANCH  11  23
TORSDOF 5
ENDMDL
MODEL 2
REMARK VINA RESULT: -7.618090896      1.038      1.094
REMARK  5 active torsions:
REMARK  status: ('A' for Active; 'I' for Inactive)
REMARK    1  A    between atoms: O1_2  and  C2_3 
REMARK    2  A    between atoms: C2_3  and  N1_4 
REMARK    3  A    between atoms: C2_3  and  C3_8 
REMARK    4  A    between atoms: C3_8  and  O2_9 
REMARK    5  A    between atoms: C9_20  and  N3_21 
ROOT
HETATM    1  C3  UNL     1      12.438  -5.489  -2.313  1.00  0.00     0.147 C 
HETATM    2  C5  UNL     1      11.379  -5.121  -1.235  1.00  0.00     0.129 C 
HETATM    3  C6  UNL     1      10.456  -4.084  -1.759  1.00  0.00     0.115 C 
HETATM    4  N2  UNL     1      10.108  -3.123  -0.981  1.00  0.00    -0.383 N 
ATOM      5  H21 UNL     1       9.473  -2.410  -1.342  1.00  0.00     0.157 HD
ATOM      6  H22 UNL     1      10.458  -3.076  -0.025  1.00  0.00     0.157 HD
HETATM    7  O3  UNL     1       9.975  -4.150  -3.072  1.00  0.00    -0.329 OA
HETATM    8  C7  UNL     1      10.758  -4.721  -4.064  1.00  0.00     0.186 C 
HETATM    9  C8  UNL     1       9.776  -5.475  -4.985  1.00  0.00     0.208 C 
HETATM   10  O4  UNL     1      10.362  -6.687  -5.269  1.00  0.00    -0.341 OA
HETATM   11  C9  UNL     1      11.682  -6.610  -5.635  1.00  0.00     0.372 C 
HETATM   12  O5  UNL     1      12.518  -6.093  -4.648  1.00  0.00    -0.333 OA
HETATM   13  C11 UNL     1      11.710  -5.747  -3.558  1.00  0.00     0.197 C 
ENDROOT
BRANCH   1  14
HETATM   14  C2  UNL     1      13.424  -4.363  -2.288  1.00  0.00     0.356 C 
BRANCH  14  15
HETATM   15  O1  UNL     1      13.693  -3.861  -1.018  1.00  0.00    -0.362 OA
HETATM   16  C1  UNL     1      15.027  -4.037  -0.658  1.00  0.00     0.204 C 
ENDBRANCH  14  15
BRANCH  14  17
HETATM   17  N1  UNL     1      14.705  -4.944  -2.718  1.00  0.00    -0.050 N 
ATOM     18  H13 UNL     1      15.497  -4.304  -2.657  1.00  0.00     0.277 HD
ATOM     19  H12 UNL     1      15.082  -5.645  -2.081  1.00  0.00     0.277 HD
ATOM     20  H11 UNL     1      14.515  -5.288  -3.658  1.00  0.00     0.277 HD
ENDBRANCH  14  17
ENDBRANCH   1  14
BRANCH   1  21
HETATM   21  O2  UNL     1      13.017  -6.635  -1.822  1.00  0.00    -0.377 OA
HETATM   22  C4  UNL     1      12.405  -7.303  -0.817  1.00  0.00     0.202 C 
ENDBRANCH   1  21
BRANCH  11  23
HETATM   23  N3  UNL     1      12.132  -7.969  -5.930  1.00  0.00    -0.319 N 
HETATM   24  C10 UNL     1      12.674  -8.290  -7.043  1.00  0.00     0.200 C 
HETATM   25  N4  UNL     1      13.072  -9.640  -7.219  1.00  0.00    -0.067 NA
HETATM   26  N5  UNL     1      12.906  -7.385  -8.115  1.00  0.00    -0.067 NA
ATOM     27  H3  UNL     1      12.008  -8.690  -5.219  1.00  0.00     0.166 HD
ENDBRANCH  11  23
TORSDOF 5
ENDMDL
MODEL 3
REMARK VINA RESULT: -7.596055914      1.892      3.162
REMARK  5 active torsions:
REMARK  status: ('A' for Active; 'I' for Inactive)
REMARK    1  A    between atoms: O1_2  and  C2_3 
REMARK    2  A    between atoms: C2_3  and  N1_4 
REMARK    3  A    between atoms: C2_3  and  C3_8 
REMARK    4  A    between atoms: C3_8  and  O2_9 
REMARK    5  A    between atoms: C9_20  and  N3_21 
ROOT
HETATM    1  C3  UNL     1      11.258  -5.243  -3.871  1.00  0.00     0.147 C 
HETATM    2  C5  UNL     1      11.930  -5.107  -2.476  1.00  0.00     0.129 C 
HETATM    3  C6  UNL     1      11.603  -6.285  -1.635  1.00  0.00     0.115 C 
HETATM    4  N2  UNL     1      11.315  -6.095  -0.396  1.00  0.00    -0.383 N 
ATOM      5  H21 UNL     1      11.091  -6.905   0.182  1.00  0.00     0.157 HD
ATOM      6  H22 UNL     1      11.314  -5.154  -0.002  1.00  0.00     0.157 HD
HETATM    7  O3  UNL     1      11.605  -7.576  -2.176  1.00  0.00    -0.329 OA
HETATM    8  C7  UNL     1      11.278  -7.763  -3.511  1.00  0.00     0.186 C 
HETATM    9  C8  UNL     1      12.203  -8.892  -4.011  1.00  0.00     0.208 C 
HETATM   10  O4  UNL     1      12.657  -8.503  -5.249  1.00  0.00    -0.341 OA
HETATM   11  C9  UNL     1      11.683  -8.029  -6.091  1.00  0.00     0.372 C 
HETATM   12  O5  UNL     1      11.040  -6.882  -5.629  1.00  0.00    -0.333 OA
HETATM   13  C11 UNL     1      11.575  -6.584  -4.370  1.00  0.00     0.197 C 
ENDROOT
BRANCH   1  14
HETATM   14  C2  UNL     1       9.821  -4.891  -3.647  1.00  0.00     0.356 C 
BRANCH  14  15
HETATM   15  O1  UNL     1       9.619  -3.833  -2.765  1.00  0.00    -0.362 OA
HETATM   16  C1  UNL     1       8.747  -2.880  -3.283  1.00  0.00     0.204 C 
ENDBRANCH  14  15
BRANCH  14  17
HETATM   17  N1  UNL     1       9.330  -4.377  -4.934  1.00  0.00    -0.050 N 
ATOM     18  H13 UNL     1       9.420  -3.367  -5.045  1.00  0.00     0.277 HD
ATOM     19  H12 UNL     1       9.909  -4.628  -5.735  1.00  0.00     0.277 HD
ATOM     20  H11 UNL     1       8.371  -4.721  -4.984  1.00  0.00     0.277 HD
ENDBRANCH  14  17
ENDBRANCH   1  14
BRANCH   1  21
HETATM   21  O2  UNL     1      11.872  -4.270  -4.623  1.00  0.00    -0.377 OA
HETATM   22  C4  UNL     1      12.797  -3.473  -4.040  1.00  0.00     0.202 C 
ENDBRANCH   1  21
BRANCH  11  23
HETATM   23  N3  UNL     1      12.326  -7.697  -7.359  1.00  0.00    -0.319 N 
HETATM   24  C10 UNL     1      12.386  -8.517  -8.339  1.00  0.00     0.200 C 
HETATM   25  N4  UNL     1      13.037  -8.085  -9.523  1.00  0.00    -0.067 NA
HETATM   26  N5  UNL     1      11.845  -9.831  -8.320  1.00  0.00    -0.067 NA
ATOM     27  H3  UNL     1      12.745  -6.773  -7.468  1.00  0.00     0.166 HD
ENDBRANCH  11  23
TORSDOF 5
ENDMDL
MODEL 4
REMARK VINA RESULT: -7.564630964      1.591      1.831
REMARK  5 active torsions:
REMARK  status: ('A' for Active; 'I' for Inactive)
REMARK    1  A    between atoms: O1_2  and  C2_3 
REMARK    2  A    between atoms: C2_3  and  N1_4 
REMARK    3  A    between atoms: C2_3  and  C3_8 
REMARK    4  A    between atoms: C3_8  and  O2_9 
REMARK    5  A    between atoms: C9_20  and  N3_21 
ROOT
HETATM    1  C3  UNL     1      12.342  -6.740  -3.261  1.00  0.00     0.147 C 
HETATM    2  C5  UNL     1      11.140  -6.778  -2.276  1.00  0.00     0.129 C 
HETATM    3  C6  UNL     1       9.900  -6.347  -2.969  1.00  0.00     0.115 C 
HETATM    4  N2  UNL     1       9.087  -5.570  -2.346  1.00  0.00    -0.383 N 
ATOM      5  H21 UNL     1       8.235  -5.274  -2.822  1.00  0.00     0.157 HD
ATOM      6  H22 UNL     1       9.292  -5.258  -1.397  1.00  0.00     0.157 HD
HETATM    7  O3  UNL     1       9.620  -6.775  -4.271  1.00  0.00    -0.329 OA
HETATM    8  C7  UNL     1      10.662  -7.034  -5.150  1.00  0.00     0.186 C 
HETATM    9  C8  UNL     1      10.211  -8.254  -5.980  1.00  0.00     0.208 C 
HETATM   10  O4  UNL     1      11.302  -9.087  -6.071  1.00  0.00    -0.341 OA
HETATM   11  C9  UNL     1      12.474  -8.456  -6.408  1.00  0.00     0.372 C 
HETATM   12  O5  UNL     1      12.895  -7.504  -5.482  1.00  0.00    -0.333 OA
HETATM   13  C11 UNL     1      11.924  -7.444  -4.475  1.00  0.00     0.197 C 
ENDROOT
BRANCH   1  14
HETATM   14  C2  UNL     1      12.709  -5.294  -3.370  1.00  0.00     0.356 C 
BRANCH  14  15
HETATM   15  O1  UNL     1      12.027  -4.459  -2.491  1.00  0.00    -0.362 OA
HETATM   16  C1  UNL     1      11.953  -3.150  -2.963  1.00  0.00     0.204 C 
ENDBRANCH  14  15
BRANCH  14  17
HETATM   17  N1  UNL     1      14.110  -5.202  -2.931  1.00  0.00    -0.050 N 
ATOM     18  H13 UNL     1      14.325  -4.366  -2.387  1.00  0.00     0.277 HD
ATOM     19  H12 UNL     1      14.368  -5.873  -2.208  1.00  0.00     0.277 HD
ATOM     20  H11 UNL     1      14.644  -5.289  -3.795  1.00  0.00     0.277 HD
ENDBRANCH  14  17
ENDBRANCH   1  14
BRANCH   1  21
HETATM   21  O2  UNL     1      13.329  -7.429  -2.595  1.00  0.00    -0.377 OA
HETATM   22  C4  UNL     1      13.089  -8.700  -2.198  1.00  0.00     0.202 C 
ENDBRANCH   1  21
BRANCH  11  23
HETATM   23  N3  UNL     1      13.511  -9.481  -6.493  1.00  0.00    -0.319 N 
HETATM   24  C10 UNL     1      13.866 -10.014  -7.601  1.00  0.00     0.200 C 
HETATM   25  N4  UNL     1      14.885 -11.001  -7.563  1.00  0.00    -0.067 NA
HETATM   26  N5  UNL     1      13.309  -9.684  -8.866  1.00  0.00    -0.067 NA
ATOM     27  H3  UNL     1      13.971  -9.784  -5.634  1.00  0.00     0.166 HD
ENDBRANCH  11  23
TORSDOF 5
ENDMDL
MODEL 5
REMARK VINA RESULT: -7.541541948      2.172      3.914
REMARK  5 active torsions:
REMARK  status: ('A' for Active; 'I' for Inactive)
REMARK    1  A    between atoms: O1_2  and  C2_3 
REMARK    2  A    between atoms: C2_3  and  N1_4 
REMARK    3  A    between atoms: C2_3  and  C3_8 
REMARK    4  A    between atoms: C3_8  and  O2_9 
REMARK    5  A    between atoms: C9_20  and  N3_21 
ROOT
HETATM    1  C3  UNL     1      10.893  -5.873  -3.850  1.00  0.00     0.147 C 
HETATM    2  C5  UNL     1      11.387  -4.623  -3.069  1.00  0.00     0.129 C 
HETATM    3  C6  UNL     1      11.345  -4.883  -1.609  1.00  0.00     0.115 C 
HETATM    4  N2  UNL     1      10.920  -3.953  -0.831  1.00  0.00    -0.383 N 
ATOM      5  H21 UNL     1      10.891  -4.132   0.172  1.00  0.00     0.157 HD
ATOM      6  H22 UNL     1      10.619  -3.055  -1.212  1.00  0.00     0.157 HD
HETATM    7  O3  UNL     1      11.757  -6.115  -1.088  1.00  0.00    -0.329 OA
HETATM    8  C7  UNL     1      11.602  -7.268  -1.843  1.00  0.00     0.186 C 
HETATM    9  C8  UNL     1      12.847  -8.131  -1.545  1.00  0.00     0.208 C 
HETATM   10  O4  UNL     1      13.266  -8.638  -2.752  1.00  0.00    -0.341 OA
HETATM   11  C9  UNL     1      12.265  -9.171  -3.525  1.00  0.00     0.372 C 
HETATM   12  O5  UNL     1      11.289  -8.253  -3.905  1.00  0.00    -0.333 OA
HETATM   13  C11 UNL     1      11.617  -7.027  -3.312  1.00  0.00     0.197 C 
ENDROOT
BRANCH   1  14
HETATM   14  C2  UNL     1       9.402  -5.847  -3.722  1.00  0.00     0.356 C 
BRANCH  14  15
HETATM   15  O1  UNL     1       8.841  -4.575  -3.790  1.00  0.00    -0.362 OA
HETATM   16  C1  UNL     1       7.903  -4.472  -4.814  1.00  0.00     0.204 C 
ENDBRANCH  14  15
BRANCH  14  17
HETATM   17  N1  UNL     1       8.886  -6.526  -4.919  1.00  0.00    -0.050 N 
ATOM     18  H13 UNL     1       7.930  -6.269  -5.168  1.00  0.00     0.277 HD
ATOM     19  H12 UNL     1       9.313  -6.219  -5.793  1.00  0.00     0.277 HD
ATOM     20  H11 UNL     1       9.014  -7.516  -4.714  1.00  0.00     0.277 HD
ENDBRANCH  14  17
ENDBRANCH   1  14
BRANCH   1  21
HETATM   21  O2  UNL     1      11.260  -5.611  -5.149  1.00  0.00    -0.377 OA
HETATM   22  C4  UNL     1      12.491  -5.982  -5.572  1.00  0.00     0.202 C 
ENDBRANCH   1  21
BRANCH  11  23
HETATM   23  N3  UNL     1      12.884  -9.690  -4.743  1.00  0.00    -0.319 N 
HETATM   24  C10 UNL     1      13.054 -10.940  -4.952  1.00  0.00     0.200 C 
HETATM   25  N4  UNL     1      13.667 -11.328  -6.171  1.00  0.00    -0.067 NA
HETATM   26  N5  UNL     1      12.671 -11.966  -4.046  1.00  0.00    -0.067 NA
ATOM     27  H3  UNL     1      13.193  -9.027  -5.455  1.00  0.00     0.166 HD
ENDBRANCH  11  23
TORSDOF 5
ENDMDL
