MODEL 1
REMARK VINA RESULT: -7.974922619      0.000      0.000
REMARK  4 active torsions:
REMARK  status: ('A' for Active; 'I' for Inactive)
REMARK       I    between atoms: C1_2  and  N1_3 
REMARK    1  A    between atoms: C1_2  and  C2_9 
REMARK    2  A    between atoms: N1_3  and  S1_5 
REMARK    3  A    between atoms: C3_15  and  N4_16 
REMARK    4  A    between atoms: N4_16  and  C4_18 
ROOT
HETATM    1  C2  UNL     1      11.736  -5.764  -1.284  1.00  0.00     0.404 C 
HETATM    2  N2  UNL     1      13.075  -5.284  -1.279  1.00  0.00    -0.238 N 
ATOM      3  H2  UNL     1      13.376  -4.606  -0.579  1.00  0.00     0.193 HD
HETATM    4  O5  UNL     1      13.908  -5.715  -2.167  1.00  0.00    -0.161 OA
HETATM    5  N3  UNL     1      13.549  -6.589  -3.062  1.00  0.00    -0.229 N 
ATOM      6  H3  UNL     1      14.029  -6.628  -3.960  1.00  0.00     0.194 HD
HETATM    7  C3  UNL     1      12.485  -7.488  -2.784  1.00  0.00     0.415 C 
HETATM    8  N6  UNL     1      11.691  -7.147  -1.630  1.00  0.00    -0.003 N 
ATOM      9  H61 UNL     1      10.726  -7.454  -1.756  1.00  0.00     0.285 HD
ATOM     10  H62 UNL     1      11.952  -7.725  -0.831  1.00  0.00     0.285 HD
ENDROOT
BRANCH   1  11
HETATM   11  C1  UNL     1      10.906  -4.906  -2.206  1.00  0.00     0.285 C 
HETATM   12  O1  UNL     1      11.343  -3.792  -2.578  1.00  0.00    -0.268 OA
HETATM   13  N1  UNL     1       9.632  -5.346  -2.651  1.00  0.00    -0.232 N 
ATOM     14  H1  UNL     1       9.266  -6.251  -2.359  1.00  0.00     0.184 HD
BRANCH  13  15
HETATM   15  S1  UNL     1       8.708  -4.322  -3.699  1.00  0.00     0.211 S 
HETATM   16  O2  UNL     1       7.496  -5.094  -4.105  1.00  0.00    -0.578 OA
HETATM   17  O3  UNL     1       9.591  -3.995  -4.891  1.00  0.00    -0.578 OA
HETATM   18  O4  UNL     1       8.243  -2.972  -2.858  1.00  0.00    -0.578 OA
ENDBRANCH  13  15
ENDBRANCH   1  11
BRANCH   7  19
HETATM   19  N4  UNL     1      12.872  -8.872  -2.746  1.00  0.00    -0.325 N 
ATOM     20  H4  UNL     1      13.333  -9.226  -1.908  1.00  0.00     0.165 HD
BRANCH  19  21
HETATM   21  C4  UNL     1      12.665  -9.684  -3.720  1.00  0.00     0.147 A 
HETATM   22  N5  UNL     1      12.845 -11.003  -3.722  1.00  0.00    -0.346 N 
HETATM   23  C5  UNL     1      12.582 -11.673  -4.815  1.00  0.00     0.097 A 
ATOM     24  H5  UNL     1      13.181 -11.483  -2.887  1.00  0.00     0.167 HD
HETATM   25  C6  UNL     1      12.137 -10.980  -5.898  1.00  0.00     0.070 A 
HETATM   26  S2  UNL     1      12.109  -9.378  -5.303  1.00  0.00    -0.065 SA
ENDBRANCH  19  21
ENDBRANCH   7  19
TORSDOF 4
ENDMDL
MODEL 2
REMARK VINA RESULT: -7.443172702      1.402      1.520
REMARK  4 active torsions:
REMARK  status: ('A' for Active; 'I' for Inactive)
REMARK       I    between atoms: C1_2  and  N1_3 
REMARK    1  A    between atoms: C1_2  and  C2_9 
REMARK    2  A    between atoms: N1_3  and  S1_5 
REMARK    3  A    between atoms: C3_15  and  N4_16 
REMARK    4  A    between atoms: N4_16  and  C4_18 
ROOT
HETATM    1  C2  UNL     1      11.763  -6.129  -1.479  1.00  0.00     0.404 C 
HETATM    2  N2  UNL     1      13.134  -5.767  -1.354  1.00  0.00    -0.238 N 
ATOM      3  H2  UNL     1      13.502  -5.448  -0.458  1.00  0.00     0.193 HD
HETATM    4  O5  UNL     1      13.908  -5.847  -2.385  1.00  0.00    -0.161 OA
HETATM    5  N3  UNL     1      13.461  -6.263  -3.534  1.00  0.00    -0.229 N 
ATOM      6  H3  UNL     1      13.913  -5.962  -4.397  1.00  0.00     0.194 HD
HETATM    7  C3  UNL     1      12.343  -7.137  -3.583  1.00  0.00     0.415 C 
HETATM    8  N6  UNL     1      11.608  -7.249  -2.349  1.00  0.00    -0.003 N 
ATOM      9  H61 UNL     1      10.621  -7.425  -2.534  1.00  0.00     0.285 HD
ATOM     10  H62 UNL     1      11.849  -8.114  -1.865  1.00  0.00     0.285 HD
ENDROOT
BRANCH   1  11
HETATM   11  C1  UNL     1      10.972  -4.927  -1.932  1.00  0.00     0.285 C 
HETATM   12  O1  UNL     1      11.429  -3.776  -1.741  1.00  0.00    -0.268 OA
HETATM   13  N1  UNL     1       9.713  -5.087  -2.566  1.00  0.00    -0.232 N 
ATOM     14  H1  UNL     1       9.331  -6.018  -2.730  1.00  0.00     0.184 HD
BRANCH  13  15
HETATM   15  S1  UNL     1       8.834  -3.678  -3.057  1.00  0.00     0.211 S 
HETATM   16  O2  UNL     1       7.608  -4.153  -3.765  1.00  0.00    -0.578 OA
HETATM   17  O3  UNL     1       9.745  -2.887  -3.981  1.00  0.00    -0.578 OA
HETATM   18  O4  UNL     1       8.392  -2.822  -1.708  1.00  0.00    -0.578 OA
ENDBRANCH  13  15
ENDBRANCH   1  11
BRANCH   7  19
HETATM   19  N4  UNL     1      12.630  -8.438  -4.126  1.00  0.00    -0.325 N 
ATOM     20  H4  UNL     1      13.066  -9.132  -3.520  1.00  0.00     0.165 HD
BRANCH  19  21
HETATM   21  C4  UNL     1      12.362  -8.764  -5.339  1.00  0.00     0.147 A 
HETATM   22  N5  UNL     1      13.182  -9.333  -6.221  1.00  0.00    -0.346 N 
HETATM   23  C5  UNL     1      12.732  -9.593  -7.422  1.00  0.00     0.097 A 
ATOM     24  H5  UNL     1      14.143  -9.561  -5.964  1.00  0.00     0.167 HD
HETATM   25  C6  UNL     1      11.443  -9.266  -7.708  1.00  0.00     0.070 A 
HETATM   26  S2  UNL     1      10.916  -8.592  -6.228  1.00  0.00    -0.065 SA
ENDBRANCH  19  21
ENDBRANCH   7  19
TORSDOF 4
ENDMDL
MODEL 3
REMARK VINA RESULT: -7.295624584      2.853      3.483
REMARK  4 active torsions:
REMARK  status: ('A' for Active; 'I' for Inactive)
REMARK       I    between atoms: C1_2  and  N1_3 
REMARK    1  A    between atoms: C1_2  and  C2_9 
REMARK    2  A    between atoms: N1_3  and  S1_5 
REMARK    3  A    between atoms: C3_15  and  N4_16 
REMARK    4  A    between atoms: N4_16  and  C4_18 
ROOT
HETATM    1  C2  UNL     1      11.922  -7.634  -4.194  1.00  0.00     0.404 C 
HETATM    2  N2  UNL     1      12.846  -6.881  -4.970  1.00  0.00    -0.238 N 
ATOM      3  H2  UNL     1      13.456  -6.196  -4.523  1.00  0.00     0.193 HD
HETATM    4  O5  UNL     1      12.908  -7.072  -6.246  1.00  0.00    -0.161 OA
HETATM    5  N3  UNL     1      12.148  -7.948  -6.835  1.00  0.00    -0.229 N 
ATOM      6  H3  UNL     1      11.899  -7.832  -7.817  1.00  0.00     0.194 HD
HETATM    7  C3  UNL     1      11.665  -9.068  -6.107  1.00  0.00     0.415 C 
HETATM    8  N6  UNL     1      11.821  -8.973  -4.677  1.00  0.00    -0.003 N 
ATOM      9  H61 UNL     1      11.069  -9.470  -4.201  1.00  0.00     0.285 HD
ATOM     10  H62 UNL     1      12.618  -9.527  -4.365  1.00  0.00     0.285 HD
ENDROOT
BRANCH   1  11
HETATM   11  C1  UNL     1      10.593  -6.921  -4.175  1.00  0.00     0.285 C 
HETATM   12  O1  UNL     1       9.568  -7.528  -3.785  1.00  0.00    -0.268 OA
HETATM   13  N1  UNL     1      10.490  -5.571  -4.601  1.00  0.00    -0.232 N 
ATOM     14  H1  UNL     1      11.317  -5.065  -4.917  1.00  0.00     0.184 HD
BRANCH  13  15
HETATM   15  S1  UNL     1       8.942  -4.797  -4.576  1.00  0.00     0.211 S 
HETATM   16  O2  UNL     1       8.158  -5.350  -5.720  1.00  0.00    -0.578 OA
HETATM   17  O3  UNL     1       9.189  -3.306  -4.735  1.00  0.00    -0.578 OA
HETATM   18  O4  UNL     1       8.177  -5.169  -3.154  1.00  0.00    -0.578 OA
ENDBRANCH  13  15
ENDBRANCH   1  11
BRANCH   7  19
HETATM   19  N4  UNL     1      12.139 -10.338  -6.588  1.00  0.00    -0.325 N 
ATOM     20  H4  UNL     1      11.613 -11.177  -6.345  1.00  0.00     0.165 HD
BRANCH  19  21
HETATM   21  C4  UNL     1      13.194 -10.464  -7.309  1.00  0.00     0.147 A 
HETATM   22  N5  UNL     1      14.449 -10.602  -6.885  1.00  0.00    -0.346 N 
HETATM   23  C5  UNL     1      15.404 -10.715  -7.772  1.00  0.00     0.097 A 
ATOM     24  H5  UNL     1      14.661 -10.620  -5.887  1.00  0.00     0.167 HD
HETATM   25  C6  UNL     1      15.063 -10.684  -9.089  1.00  0.00     0.070 A 
HETATM   26  S2  UNL     1      13.366 -10.494  -9.006  1.00  0.00    -0.065 SA
ENDBRANCH  19  21
ENDBRANCH   7  19
TORSDOF 4
ENDMDL
MODEL 4
REMARK VINA RESULT: -7.279750410      2.831      3.589
REMARK  4 active torsions:
REMARK  status: ('A' for Active; 'I' for Inactive)
REMARK       I    between atoms: C1_2  and  N1_3 
REMARK    1  A    between atoms: C1_2  and  C2_9 
REMARK    2  A    between atoms: N1_3  and  S1_5 
REMARK    3  A    between atoms: C3_15  and  N4_16 
REMARK    4  A    between atoms: N4_16  and  C4_18 
ROOT
HETATM    1  C2  UNL     1      11.905  -7.625  -4.159  1.00  0.00     0.404 C 
HETATM    2  N2  UNL     1      12.824  -6.869  -4.940  1.00  0.00    -0.238 N 
ATOM      3  H2  UNL     1      13.432  -6.181  -4.495  1.00  0.00     0.193 HD
HETATM    4  O5  UNL     1      12.882  -7.062  -6.216  1.00  0.00    -0.161 OA
HETATM    5  N3  UNL     1      12.124  -7.943  -6.800  1.00  0.00    -0.229 N 
ATOM      6  H3  UNL     1      11.872  -7.829  -7.781  1.00  0.00     0.194 HD
HETATM    7  C3  UNL     1      11.649  -9.063  -6.068  1.00  0.00     0.415 C 
HETATM    8  N6  UNL     1      11.809  -8.965  -4.640  1.00  0.00    -0.003 N 
ATOM      9  H61 UNL     1      11.060  -9.464  -4.160  1.00  0.00     0.285 HD
ATOM     10  H62 UNL     1      12.610  -9.515  -4.329  1.00  0.00     0.285 HD
ENDROOT
BRANCH   1  11
HETATM   11  C1  UNL     1      10.573  -6.917  -4.138  1.00  0.00     0.285 C 
HETATM   12  O1  UNL     1       9.539  -7.551  -3.819  1.00  0.00    -0.268 OA
HETATM   13  N1  UNL     1      10.478  -5.544  -4.481  1.00  0.00    -0.232 N 
ATOM     14  H1  UNL     1      11.311  -5.016  -4.738  1.00  0.00     0.184 HD
BRANCH  13  15
HETATM   15  S1  UNL     1       8.926  -4.777  -4.455  1.00  0.00     0.211 S 
HETATM   16  O2  UNL     1       9.164  -3.306  -4.561  1.00  0.00    -0.578 OA
HETATM   17  O3  UNL     1       8.271  -5.145  -3.134  1.00  0.00    -0.578 OA
HETATM   18  O4  UNL     1       8.052  -5.287  -5.767  1.00  0.00    -0.578 OA
ENDBRANCH  13  15
ENDBRANCH   1  11
BRANCH   7  19
HETATM   19  N4  UNL     1      12.127 -10.332  -6.548  1.00  0.00    -0.325 N 
ATOM     20  H4  UNL     1      11.610 -11.174  -6.296  1.00  0.00     0.165 HD
BRANCH  19  21
HETATM   21  C4  UNL     1      13.176 -10.453  -7.281  1.00  0.00     0.147 A 
HETATM   22  N5  UNL     1      14.435 -10.587  -6.870  1.00  0.00    -0.346 N 
HETATM   23  C5  UNL     1      15.382 -10.695  -7.767  1.00  0.00     0.097 A 
ATOM     24  H5  UNL     1      14.658 -10.603  -5.874  1.00  0.00     0.167 HD
HETATM   25  C6  UNL     1      15.026 -10.666  -9.080  1.00  0.00     0.070 A 
HETATM   26  S2  UNL     1      13.329 -10.483  -8.979  1.00  0.00    -0.065 SA
ENDBRANCH  19  21
ENDBRANCH   7  19
TORSDOF 4
ENDMDL
MODEL 5
REMARK VINA RESULT: -7.252939681      2.221      2.719
REMARK  4 active torsions:
REMARK  status: ('A' for Active; 'I' for Inactive)
REMARK       I    between atoms: C1_2  and  N1_3 
REMARK    1  A    between atoms: C1_2  and  C2_9 
REMARK    2  A    between atoms: N1_3  and  S1_5 
REMARK    3  A    between atoms: C3_15  and  N4_16 
REMARK    4  A    between atoms: N4_16  and  C4_18 
ROOT
HETATM    1  C2  UNL     1      12.915  -6.700  -3.242  1.00  0.00     0.404 C 
HETATM    2  N2  UNL     1      13.277  -6.057  -4.458  1.00  0.00    -0.238 N 
ATOM      3  H2  UNL     1      13.874  -5.229  -4.444  1.00  0.00     0.193 HD
HETATM    4  O5  UNL     1      12.847  -6.529  -5.580  1.00  0.00    -0.161 OA
HETATM    5  N3  UNL     1      12.095  -7.590  -5.622  1.00  0.00    -0.229 N 
ATOM      6  H3  UNL     1      11.449  -7.729  -6.398  1.00  0.00     0.194 HD
HETATM    7  C3  UNL     1      12.177  -8.555  -4.583  1.00  0.00     0.415 C 
HETATM    8  N6  UNL     1      12.882  -8.117  -3.405  1.00  0.00    -0.003 N 
ATOM      9  H61 UNL     1      12.501  -8.565  -2.572  1.00  0.00     0.285 HD
ATOM     10  H62 UNL     1      13.827  -8.501  -3.389  1.00  0.00     0.285 HD
ENDROOT
BRANCH   1  11
HETATM   11  C1  UNL     1      11.600  -6.141  -2.758  1.00  0.00     0.285 C 
HETATM   12  O1  UNL     1      11.142  -6.503  -1.649  1.00  0.00    -0.268 OA
HETATM   13  N1  UNL     1      10.874  -5.212  -3.548  1.00  0.00    -0.232 N 
ATOM     14  H1  UNL     1      11.237  -4.906  -4.451  1.00  0.00     0.184 HD
BRANCH  13  15
HETATM   15  S1  UNL     1       9.363  -4.606  -2.958  1.00  0.00     0.211 S 
HETATM   16  O2  UNL     1       8.756  -3.800  -4.059  1.00  0.00    -0.578 OA
HETATM   17  O3  UNL     1       9.673  -3.750  -1.742  1.00  0.00    -0.578 OA
HETATM   18  O4  UNL     1       8.372  -5.886  -2.604  1.00  0.00    -0.578 OA
ENDBRANCH  13  15
ENDBRANCH   1  11
BRANCH   7  19
HETATM   19  N4  UNL     1      12.645  -9.847  -5.007  1.00  0.00    -0.325 N 
ATOM     20  H4  UNL     1      12.719 -10.589  -4.313  1.00  0.00     0.165 HD
BRANCH  19  21
HETATM   21  C4  UNL     1      12.974 -10.107  -6.222  1.00  0.00     0.147 A 
HETATM   22  N5  UNL     1      14.204 -10.161  -6.729  1.00  0.00    -0.346 N 
HETATM   23  C5  UNL     1      14.349 -10.441  -8.000  1.00  0.00     0.097 A 
ATOM     24  H5  UNL     1      15.018  -9.986  -6.139  1.00  0.00     0.167 HD
HETATM   25  C6  UNL     1      13.228 -10.663  -8.738  1.00  0.00     0.070 A 
HETATM   26  S2  UNL     1      11.994 -10.462  -7.572  1.00  0.00    -0.065 SA
ENDBRANCH  19  21
ENDBRANCH   7  19
TORSDOF 4
ENDMDL
