MODEL 1
REMARK VINA RESULT: -7.763569728      0.000      0.000
REMARK  7 active torsions:
REMARK  status: ('A' for Active; 'I' for Inactive)
REMARK    1  A    between atoms: O1_2  and  C2_3 
REMARK    2  A    between atoms: C2_3  and  C3_5 
REMARK       I    between atoms: C3_5  and  N1_7 
REMARK    3  A    between atoms: N1_7  and  C4_9 
REMARK    4  A    between atoms: C5_14  and  S1_15 
REMARK    5  A    between atoms: S1_15  and  C6_16 
REMARK    6  A    between atoms: C9_23  and  N6_24 
REMARK    7  A    between atoms: N7_27  and  N8_28 
ROOT
HETATM    1  C4  UNL     1      12.423  -8.838  -7.177  1.00  0.00     0.723 A 
HETATM    2  N2  UNL     1      12.589  -7.509  -7.040  1.00  0.00    -0.128 N 
ATOM      3  H2  UNL     1      12.690  -6.844  -7.806  1.00  0.00     0.205 HD
HETATM    4  N3  UNL     1      12.599  -7.200  -5.734  1.00  0.00    -0.263 N 
ATOM      5  H3  UNL     1      12.710  -6.264  -5.344  1.00  0.00     0.189 HD
HETATM    6  C5  UNL     1      12.440  -8.333  -5.026  1.00  0.00     0.203 A 
HETATM    7  N7  UNL     1      12.334  -9.329  -5.951  1.00  0.00    -0.067 N 
ENDROOT
BRANCH   6   8
HETATM    8  S1  UNL     1      12.411  -8.441  -3.269  1.00  0.00    -0.044 SA
BRANCH   8   9
HETATM    9  C6  UNL     1      11.519  -7.135  -2.463  1.00  0.00     0.077 A 
HETATM   10  C7  UNL     1      10.344  -6.498  -2.776  1.00  0.00     0.043 A 
HETATM   11  C8  UNL     1       9.480  -6.771  -3.951  1.00  0.00     0.071 C 
HETATM   12  N4  UNL     1      10.108  -5.573  -1.826  1.00  0.00    -0.302 N 
HETATM   13  N5  UNL     1      11.067  -5.582  -0.923  1.00  0.00    -0.285 N 
ATOM     14  H4  UNL     1       9.300  -4.952  -1.808  1.00  0.00     0.186 HD
HETATM   15  C9  UNL     1      11.941  -6.519  -1.278  1.00  0.00     0.133 A 
ATOM     16  H5  UNL     1      11.128  -4.980  -0.101  1.00  0.00     0.188 HD
BRANCH  15  17
HETATM   17  N6  UNL     1      13.019  -6.836  -0.649  1.00  0.00    -0.383 N 
ATOM     18  H62 UNL     1      13.117  -7.569   0.054  1.00  0.00     0.157 HD
ATOM     19  H61 UNL     1      13.917  -6.374  -0.792  1.00  0.00     0.157 HD
ENDBRANCH  15  17
ENDBRANCH   8   9
ENDBRANCH   6   8
BRANCH   7  20
HETATM   20  N8  UNL     1      12.157 -10.656  -5.589  1.00  0.00    -0.322 N 
ATOM     21  H82 UNL     1      11.583 -11.296  -6.138  1.00  0.00     0.178 HD
ATOM     22  H81 UNL     1      12.553 -11.132  -4.779  1.00  0.00     0.178 HD
ENDBRANCH   7  20
BRANCH   1  23
HETATM   23  N1  UNL     1      12.364  -9.484  -8.284  1.00  0.00    -0.148 N 
HETATM   24  C3  UNL     1      12.741  -8.947  -9.537  1.00  0.00     0.335 C 
HETATM   25  O3  UNL     1      12.056  -8.010 -10.013  1.00  0.00    -0.261 OA
ATOM     26  H1  UNL     1      12.023 -10.445  -8.259  1.00  0.00     0.188 HD
BRANCH  24  27
HETATM   27  C2  UNL     1      13.879  -9.428 -10.297  1.00  0.00     0.351 C 
HETATM   28  O2  UNL     1      14.744 -10.178  -9.768  1.00  0.00    -0.254 OA
BRANCH  27  29
HETATM   29  O1  UNL     1      14.031  -9.067 -11.622  1.00  0.00    -0.319 OA
HETATM   30  C1  UNL     1      15.303  -9.112 -12.215  1.00  0.00     0.213 C 
ENDBRANCH  27  29
ENDBRANCH  24  27
ENDBRANCH   1  23
TORSDOF 7
ENDMDL
MODEL 2
REMARK VINA RESULT: -7.632443199      2.138      2.972
REMARK  7 active torsions:
REMARK  status: ('A' for Active; 'I' for Inactive)
REMARK    1  A    between atoms: O1_2  and  C2_3 
REMARK    2  A    between atoms: C2_3  and  C3_5 
REMARK       I    between atoms: C3_5  and  N1_7 
REMARK    3  A    between atoms: N1_7  and  C4_9 
REMARK    4  A    between atoms: C5_14  and  S1_15 
REMARK    5  A    between atoms: S1_15  and  C6_16 
REMARK    6  A    between atoms: C9_23  and  N6_24 
REMARK    7  A    between atoms: N7_27  and  N8_28 
ROOT
HETATM    1  C4  UNL     1      11.108  -8.061  -5.977  1.00  0.00     0.723 A 
HETATM    2  N2  UNL     1       9.786  -8.066  -5.727  1.00  0.00    -0.128 N 
ATOM      3  H2  UNL     1       9.114  -8.729  -6.113  1.00  0.00     0.205 HD
HETATM    4  N3  UNL     1       9.492  -7.059  -4.890  1.00  0.00    -0.263 N 
ATOM      5  H3  UNL     1       8.564  -6.831  -4.535  1.00  0.00     0.189 HD
HETATM    6  C5  UNL     1      10.629  -6.401  -4.598  1.00  0.00     0.203 A 
HETATM    7  N7  UNL     1      11.611  -7.048  -5.288  1.00  0.00    -0.067 N 
ENDROOT
BRANCH   6   8
HETATM    8  S1  UNL     1      10.750  -4.989  -3.555  1.00  0.00    -0.044 SA
BRANCH   8   9
HETATM    9  C6  UNL     1      12.151  -4.993  -2.464  1.00  0.00     0.077 A 
HETATM   10  C7  UNL     1      12.677  -5.966  -1.651  1.00  0.00     0.043 A 
HETATM   11  C8  UNL     1      12.160  -7.347  -1.482  1.00  0.00     0.071 C 
HETATM   12  N4  UNL     1      13.753  -5.449  -1.029  1.00  0.00    -0.302 N 
HETATM   13  N5  UNL     1      13.944  -4.198  -1.396  1.00  0.00    -0.285 N 
ATOM     14  H4  UNL     1      14.339  -5.954  -0.365  1.00  0.00     0.186 HD
HETATM   15  C9  UNL     1      12.989  -3.888  -2.267  1.00  0.00     0.133 A 
ATOM     16  H5  UNL     1      14.688  -3.580  -1.071  1.00  0.00     0.188 HD
BRANCH  15  17
HETATM   17  N6  UNL     1      12.832  -2.754  -2.859  1.00  0.00    -0.383 N 
ATOM     18  H62 UNL     1      11.944  -2.324  -3.117  1.00  0.00     0.157 HD
ATOM     19  H61 UNL     1      13.604  -2.148  -3.138  1.00  0.00     0.157 HD
ENDBRANCH  15  17
ENDBRANCH   8   9
ENDBRANCH   6   8
BRANCH   7  20
HETATM   20  N8  UNL     1      12.937  -6.648  -5.232  1.00  0.00    -0.322 N 
ATOM     21  H82 UNL     1      13.411  -6.226  -6.031  1.00  0.00     0.178 HD
ATOM     22  H81 UNL     1      13.570  -6.719  -4.436  1.00  0.00     0.178 HD
ENDBRANCH   7  20
BRANCH   1  23
HETATM   23  N1  UNL     1      11.740  -8.882  -6.734  1.00  0.00    -0.148 N 
HETATM   24  C3  UNL     1      11.496  -9.034  -8.118  1.00  0.00     0.335 C 
HETATM   25  O3  UNL     1      10.390  -9.505  -8.479  1.00  0.00    -0.261 OA
ATOM     26  H1  UNL     1      12.464  -9.462  -6.310  1.00  0.00     0.188 HD
BRANCH  24  27
HETATM   27  C2  UNL     1      12.460  -8.671  -9.139  1.00  0.00     0.351 C 
HETATM   28  O2  UNL     1      13.067  -7.567  -9.098  1.00  0.00    -0.254 OA
BRANCH  27  29
HETATM   29  O1  UNL     1      12.728  -9.540 -10.180  1.00  0.00    -0.319 OA
HETATM   30  C1  UNL     1      13.980  -9.501 -10.816  1.00  0.00     0.213 C 
ENDBRANCH  27  29
ENDBRANCH  24  27
ENDBRANCH   1  23
TORSDOF 7
ENDMDL
MODEL 3
REMARK VINA RESULT: -7.628922977      1.708      1.978
REMARK  7 active torsions:
REMARK  status: ('A' for Active; 'I' for Inactive)
REMARK    1  A    between atoms: O1_2  and  C2_3 
REMARK    2  A    between atoms: C2_3  and  C3_5 
REMARK       I    between atoms: C3_5  and  N1_7 
REMARK    3  A    between atoms: N1_7  and  C4_9 
REMARK    4  A    between atoms: C5_14  and  S1_15 
REMARK    5  A    between atoms: S1_15  and  C6_16 
REMARK    6  A    between atoms: C9_23  and  N6_24 
REMARK    7  A    between atoms: N7_27  and  N8_28 
ROOT
HETATM    1  C4  UNL     1      11.659  -8.514  -6.881  1.00  0.00     0.723 A 
HETATM    2  N2  UNL     1      12.885  -8.182  -6.436  1.00  0.00    -0.128 N 
ATOM      3  H2  UNL     1      13.760  -8.360  -6.927  1.00  0.00     0.205 HD
HETATM    4  N3  UNL     1      12.770  -7.578  -5.243  1.00  0.00    -0.263 N 
ATOM      5  H3  UNL     1      13.543  -7.222  -4.679  1.00  0.00     0.189 HD
HETATM    6  C5  UNL     1      11.467  -7.521  -4.916  1.00  0.00     0.203 A 
HETATM    7  N7  UNL     1      10.805  -8.109  -5.953  1.00  0.00    -0.067 N 
ENDROOT
BRANCH   6   8
HETATM    8  S1  UNL     1      10.818  -6.837  -3.430  1.00  0.00    -0.044 SA
BRANCH   8   9
HETATM    9  C6  UNL     1      11.978  -5.879  -2.488  1.00  0.00     0.077 A 
HETATM   10  C7  UNL     1      12.073  -4.531  -2.248  1.00  0.00     0.043 A 
HETATM   11  C8  UNL     1      11.158  -3.479  -2.757  1.00  0.00     0.071 C 
HETATM   12  N4  UNL     1      13.147  -4.324  -1.463  1.00  0.00    -0.302 N 
HETATM   13  N5  UNL     1      13.747  -5.464  -1.189  1.00  0.00    -0.285 N 
ATOM     14  H4  UNL     1      13.454  -3.411  -1.127  1.00  0.00     0.186 HD
HETATM   15  C9  UNL     1      13.064  -6.430  -1.795  1.00  0.00     0.133 A 
ATOM     16  H5  UNL     1      14.583  -5.584  -0.616  1.00  0.00     0.188 HD
BRANCH  15  17
HETATM   17  N6  UNL     1      13.333  -7.689  -1.768  1.00  0.00    -0.383 N 
ATOM     18  H62 UNL     1      13.620  -8.265  -2.560  1.00  0.00     0.157 HD
ATOM     19  H61 UNL     1      13.286  -8.262  -0.925  1.00  0.00     0.157 HD
ENDBRANCH  15  17
ENDBRANCH   8   9
ENDBRANCH   6   8
BRANCH   7  20
HETATM   20  N8  UNL     1       9.425  -8.235  -5.971  1.00  0.00    -0.322 N 
ATOM     21  H82 UNL     1       8.897  -8.293  -6.841  1.00  0.00     0.178 HD
ATOM     22  H81 UNL     1       8.799  -8.283  -5.166  1.00  0.00     0.178 HD
ENDBRANCH   7  20
BRANCH   1  23
HETATM   23  N1  UNL     1      11.389  -9.104  -7.987  1.00  0.00    -0.148 N 
HETATM   24  C3  UNL     1      12.155  -8.968  -9.168  1.00  0.00     0.335 C 
HETATM   25  O3  UNL     1      12.177  -7.849  -9.736  1.00  0.00    -0.261 OA
ATOM     26  H1  UNL     1      10.569  -9.711  -8.018  1.00  0.00     0.188 HD
BRANCH  24  27
HETATM   27  C2  UNL     1      12.915 -10.056  -9.752  1.00  0.00     0.351 C 
HETATM   28  O2  UNL     1      13.157 -11.106  -9.097  1.00  0.00    -0.254 OA
BRANCH  27  29
HETATM   29  O1  UNL     1      13.388  -9.956 -11.047  1.00  0.00    -0.319 OA
HETATM   30  C1  UNL     1      14.732  -9.620 -11.274  1.00  0.00     0.213 C 
ENDBRANCH  27  29
ENDBRANCH  24  27
ENDBRANCH   1  23
TORSDOF 7
ENDMDL
MODEL 4
REMARK VINA RESULT: -7.611616678      1.461      2.461
REMARK  7 active torsions:
REMARK  status: ('A' for Active; 'I' for Inactive)
REMARK    1  A    between atoms: O1_2  and  C2_3 
REMARK    2  A    between atoms: C2_3  and  C3_5 
REMARK       I    between atoms: C3_5  and  N1_7 
REMARK    3  A    between atoms: N1_7  and  C4_9 
REMARK    4  A    between atoms: C5_14  and  S1_15 
REMARK    5  A    between atoms: S1_15  and  C6_16 
REMARK    6  A    between atoms: C9_23  and  N6_24 
REMARK    7  A    between atoms: N7_27  and  N8_28 
ROOT
HETATM    1  C4  UNL     1      11.817  -8.365  -7.123  1.00  0.00     0.723 A 
HETATM    2  N2  UNL     1      10.622  -8.980  -7.041  1.00  0.00    -0.128 N 
ATOM      3  H2  UNL     1      10.239  -9.621  -7.736  1.00  0.00     0.205 HD
HETATM    4  N3  UNL     1      10.017  -8.616  -5.900  1.00  0.00    -0.263 N 
ATOM      5  H3  UNL     1       9.101  -8.934  -5.584  1.00  0.00     0.189 HD
HETATM    6  C5  UNL     1      10.824  -7.763  -5.242  1.00  0.00     0.203 A 
HETATM    7  N7  UNL     1      11.930  -7.629  -6.028  1.00  0.00    -0.067 N 
ENDROOT
BRANCH   6   8
HETATM    8  S1  UNL     1      10.455  -6.994  -3.703  1.00  0.00    -0.044 SA
BRANCH   8   9
HETATM    9  C6  UNL     1      11.661  -7.270  -2.430  1.00  0.00     0.077 A 
HETATM   10  C7  UNL     1      12.594  -8.261  -2.251  1.00  0.00     0.043 A 
HETATM   11  C8  UNL     1      12.831  -9.421  -3.146  1.00  0.00     0.071 C 
HETATM   12  N4  UNL     1      13.265  -7.997  -1.113  1.00  0.00    -0.302 N 
HETATM   13  N5  UNL     1      12.812  -6.894  -0.553  1.00  0.00    -0.285 N 
ATOM     14  H4  UNL     1      14.018  -8.572  -0.737  1.00  0.00     0.186 HD
HETATM   15  C9  UNL     1      11.837  -6.425  -1.326  1.00  0.00     0.133 A 
ATOM     16  H5  UNL     1      13.147  -6.476   0.315  1.00  0.00     0.188 HD
BRANCH  15  17
HETATM   17  N6  UNL     1      11.143  -5.360  -1.120  1.00  0.00    -0.383 N 
ATOM     18  H62 UNL     1      10.357  -5.032  -1.681  1.00  0.00     0.157 HD
ATOM     19  H61 UNL     1      11.311  -4.713  -0.350  1.00  0.00     0.157 HD
ENDBRANCH  15  17
ENDBRANCH   8   9
ENDBRANCH   6   8
BRANCH   7  20
HETATM   20  N8  UNL     1      12.994  -6.816  -5.670  1.00  0.00    -0.322 N 
ATOM     21  H82 UNL     1      13.714  -6.540  -6.337  1.00  0.00     0.178 HD
ATOM     22  H81 UNL     1      13.182  -6.415  -4.751  1.00  0.00     0.178 HD
ENDBRANCH   7  20
BRANCH   1  23
HETATM   23  N1  UNL     1      12.664  -8.480  -8.078  1.00  0.00    -0.148 N 
HETATM   24  C3  UNL     1      12.691  -9.561  -8.990  1.00  0.00     0.335 C 
HETATM   25  O3  UNL     1      12.984 -10.700  -8.553  1.00  0.00    -0.261 OA
ATOM     26  H1  UNL     1      13.364  -7.746  -8.188  1.00  0.00     0.188 HD
BRANCH  24  27
HETATM   27  C2  UNL     1      12.397  -9.416 -10.403  1.00  0.00     0.351 C 
HETATM   28  O2  UNL     1      11.280  -9.763 -10.874  1.00  0.00    -0.254 OA
BRANCH  27  29
HETATM   29  O1  UNL     1      13.346  -8.889 -11.259  1.00  0.00    -0.319 OA
HETATM   30  C1  UNL     1      14.621  -9.473 -11.329  1.00  0.00     0.213 C 
ENDBRANCH  27  29
ENDBRANCH  24  27
ENDBRANCH   1  23
TORSDOF 7
ENDMDL
MODEL 5
REMARK VINA RESULT: -7.544579783      2.357      2.847
REMARK  7 active torsions:
REMARK  status: ('A' for Active; 'I' for Inactive)
REMARK    1  A    between atoms: O1_2  and  C2_3 
REMARK    2  A    between atoms: C2_3  and  C3_5 
REMARK       I    between atoms: C3_5  and  N1_7 
REMARK    3  A    between atoms: N1_7  and  C4_9 
REMARK    4  A    between atoms: C5_14  and  S1_15 
REMARK    5  A    between atoms: S1_15  and  C6_16 
REMARK    6  A    between atoms: C9_23  and  N6_24 
REMARK    7  A    between atoms: N7_27  and  N8_28 
ROOT
HETATM    1  C4  UNL     1      11.121  -8.173  -5.722  1.00  0.00     0.723 A 
HETATM    2  N2  UNL     1       9.786  -8.012  -5.751  1.00  0.00    -0.128 N 
ATOM      3  H2  UNL     1       9.160  -8.387  -6.463  1.00  0.00     0.205 HD
HETATM    4  N3  UNL     1       9.408  -7.277  -4.693  1.00  0.00    -0.263 N 
ATOM      5  H3  UNL     1       8.451  -7.003  -4.468  1.00  0.00     0.189 HD
HETATM    6  C5  UNL     1      10.504  -6.963  -3.978  1.00  0.00     0.203 A 
HETATM    7  N7  UNL     1      11.548  -7.534  -4.644  1.00  0.00    -0.067 N 
ENDROOT
BRANCH   6   8
HETATM    8  S1  UNL     1      10.520  -5.990  -2.512  1.00  0.00    -0.044 SA
BRANCH   8   9
HETATM    9  C6  UNL     1      11.671  -4.638  -2.534  1.00  0.00     0.077 A 
HETATM   10  C7  UNL     1      11.625  -3.405  -3.135  1.00  0.00     0.043 A 
HETATM   11  C8  UNL     1      10.519  -2.873  -3.970  1.00  0.00     0.071 C 
HETATM   12  N4  UNL     1      12.765  -2.755  -2.835  1.00  0.00    -0.302 N 
HETATM   13  N5  UNL     1      13.539  -3.503  -2.076  1.00  0.00    -0.285 N 
ATOM     14  H4  UNL     1      12.997  -1.813  -3.150  1.00  0.00     0.186 HD
HETATM   15  C9  UNL     1      12.906  -4.655  -1.873  1.00  0.00     0.133 A 
ATOM     16  H5  UNL     1      14.456  -3.247  -1.710  1.00  0.00     0.188 HD
BRANCH  15  17
HETATM   17  N6  UNL     1      13.335  -5.651  -1.179  1.00  0.00    -0.383 N 
ATOM     18  H62 UNL     1      12.830  -6.516  -0.984  1.00  0.00     0.157 HD
ATOM     19  H61 UNL     1      14.255  -5.683  -0.739  1.00  0.00     0.157 HD
ENDBRANCH  15  17
ENDBRANCH   8   9
ENDBRANCH   6   8
BRANCH   7  20
HETATM   20  N8  UNL     1      12.856  -7.422  -4.198  1.00  0.00    -0.322 N 
ATOM     21  H82 UNL     1      13.618  -7.960  -4.610  1.00  0.00     0.178 HD
ATOM     22  H81 UNL     1      13.204  -6.824  -3.448  1.00  0.00     0.178 HD
ENDBRANCH   7  20
BRANCH   1  23
HETATM   23  N1  UNL     1      11.825  -8.821  -6.577  1.00  0.00    -0.148 N 
HETATM   24  C3  UNL     1      11.574  -8.830  -7.968  1.00  0.00     0.335 C 
HETATM   25  O3  UNL     1      10.520  -9.374  -8.379  1.00  0.00    -0.261 OA
ATOM     26  H1  UNL     1      12.616  -9.364  -6.231  1.00  0.00     0.188 HD
BRANCH  24  27
HETATM   27  C2  UNL     1      12.474  -8.242  -8.942  1.00  0.00     0.351 C 
HETATM   28  O2  UNL     1      13.138  -7.205  -8.671  1.00  0.00    -0.254 OA
BRANCH  27  29
HETATM   29  O1  UNL     1      12.616  -8.816 -10.191  1.00  0.00    -0.319 OA
HETATM   30  C1  UNL     1      13.831  -9.425 -10.544  1.00  0.00     0.213 C 
ENDBRANCH  27  29
ENDBRANCH  24  27
ENDBRANCH   1  23
TORSDOF 7
ENDMDL
