MODEL 1
REMARK VINA RESULT: -10.242847838      0.000      0.000
REMARK  8 active torsions:
REMARK  status: ('A' for Active; 'I' for Inactive)
REMARK    1  A    between atoms: O1_2  and  C2_3 
REMARK    2  A    between atoms: C7_9  and  O3_10 
REMARK    3  A    between atoms: O3_10  and  C8_11 
REMARK       I    between atoms: C8_11  and  N1_13 
REMARK    4  A    between atoms: N1_13  and  C9_15 
REMARK    5  A    between atoms: C9_15  and  C10_16 
REMARK    6  A    between atoms: C9_15  and  C11_23 
REMARK    7  A    between atoms: C10_16  and  O5_17 
REMARK    8  A    between atoms: N2_19  and  O6_21 
ROOT
HETATM    1  C8  UNL     1       8.521   4.409  -4.666  1.00  0.00     0.366 C 
HETATM    2  O4  UNL     1       7.529   3.651  -4.935  1.00  0.00    -0.238 OA
HETATM    3  N1  UNL     1       9.572   3.978  -3.828  1.00  0.00    -0.317 N 
ATOM      4  H1  UNL     1      10.339   4.628  -3.653  1.00  0.00     0.166 HD
ENDROOT
BRANCH   3   5
HETATM    5  C9  UNL     1       9.632   2.683  -3.206  1.00  0.00     0.232 C 
BRANCH   5   6
HETATM    6  C10 UNL     1      10.600   1.784  -3.895  1.00  0.00     0.166 C 
HETATM    7  N2  UNL     1      11.155   2.063  -5.025  1.00  0.00    -0.249 N 
ATOM      8  H2  UNL     1      10.924   2.947  -5.478  1.00  0.00     0.196 HD
BRANCH   6   9
HETATM    9  O5  UNL     1      10.939   0.568  -3.310  1.00  0.00    -0.346 OA
ATOM     10  H5  UNL     1      11.836   0.418  -3.033  1.00  0.00     0.219 HD
ENDBRANCH   6   9
BRANCH   7  11
HETATM   11  O6  UNL     1      12.039   1.224  -5.639  1.00  0.00    -0.288 OA
ATOM     12  H6  UNL     1      12.868   1.523  -5.995  1.00  0.00     0.244 HD
ENDBRANCH   7  11
ENDBRANCH   5   6
BRANCH   5  13
HETATM   13  C11 UNL     1       8.357   1.978  -3.067  1.00  0.00     0.131 A 
HETATM   14  N3  UNL     1       7.998   0.941  -3.845  1.00  0.00    -0.284 N 
HETATM   15  N4  UNL     1       6.822   0.509  -3.497  1.00  0.00    -0.275 N 
ATOM     16  H3  UNL     1       8.566   0.551  -4.598  1.00  0.00     0.188 HD
HETATM   17  C12 UNL     1       6.400   1.273  -2.476  1.00  0.00     0.194 A 
ATOM     18  H4  UNL     1       6.314  -0.266  -3.921  1.00  0.00     0.189 HD
HETATM   19  S1  UNL     1       4.961   1.129  -1.678  1.00  0.00    -0.039 SA
HETATM   20  N5  UNL     1       7.343   2.174  -2.214  1.00  0.00    -0.314 N 
HETATM   21  C13 UNL     1       7.316   3.197  -1.194  1.00  0.00     0.160 C 
ENDBRANCH   5  13
ENDBRANCH   3   5
BRANCH   1  22
HETATM   22  O3  UNL     1       8.504   5.671  -5.235  1.00  0.00    -0.273 OA
BRANCH  22  23
HETATM   23  C7  UNL     1       7.451   6.557  -5.165  1.00  0.00     0.167 C 
HETATM   24  C6  UNL     1       6.808   7.094  -6.169  1.00  0.00     0.091 A 
HETATM   25  C5  UNL     1       5.694   8.031  -5.978  1.00  0.00     0.196 A 
HETATM   26  C14 UNL     1       7.163   6.798  -7.548  1.00  0.00     0.240 A 
HETATM   27  C3  UNL     1       4.984   8.631  -7.118  1.00  0.00     0.027 A 
HETATM   28  O2  UNL     1       5.375   8.299  -4.795  1.00  0.00    -0.287 OA
HETATM   29  C2  UNL     1       5.313   8.356  -8.368  1.00  0.00     0.132 A 
HETATM   30  C4  UNL     1       3.861   9.576  -6.874  1.00  0.00     0.056 C 
HETATM   31  C15 UNL     1       6.408   7.433  -8.639  1.00  0.00     0.256 A 
HETATM   32  O8  UNL     1       6.741   7.155  -9.823  1.00  0.00    -0.281 OA
HETATM   33  O7  UNL     1       8.097   6.011  -7.806  1.00  0.00    -0.283 OA
BRANCH  29  34
HETATM   34  O1  UNL     1       4.592   8.963  -9.382  1.00  0.00    -0.351 OA
HETATM   35  C1  UNL     1       3.852   8.243 -10.344  1.00  0.00     0.210 C 
ENDBRANCH  29  34
ENDBRANCH  22  23
ENDBRANCH   1  22
TORSDOF 8
ENDMDL
MODEL 2
REMARK VINA RESULT: -10.097107659      3.397      4.696
REMARK  8 active torsions:
REMARK  status: ('A' for Active; 'I' for Inactive)
REMARK    1  A    between atoms: O1_2  and  C2_3 
REMARK    2  A    between atoms: C7_9  and  O3_10 
REMARK    3  A    between atoms: O3_10  and  C8_11 
REMARK       I    between atoms: C8_11  and  N1_13 
REMARK    4  A    between atoms: N1_13  and  C9_15 
REMARK    5  A    between atoms: C9_15  and  C10_16 
REMARK    6  A    between atoms: C9_15  and  C11_23 
REMARK    7  A    between atoms: C10_16  and  O5_17 
REMARK    8  A    between atoms: N2_19  and  O6_21 
ROOT
HETATM    1  C8  UNL     1       7.007   5.479  -4.580  1.00  0.00     0.366 C 
HETATM    2  O4  UNL     1       7.218   4.708  -5.575  1.00  0.00    -0.238 OA
HETATM    3  N1  UNL     1       6.941   4.978  -3.262  1.00  0.00    -0.317 N 
ATOM      4  H1  UNL     1       6.773   5.643  -2.506  1.00  0.00     0.166 HD
ENDROOT
BRANCH   3   5
HETATM    5  C9  UNL     1       7.094   3.591  -2.914  1.00  0.00     0.232 C 
BRANCH   5   6
HETATM    6  C10 UNL     1       6.918   3.366  -1.451  1.00  0.00     0.166 C 
HETATM    7  N2  UNL     1       7.593   3.989  -0.547  1.00  0.00    -0.249 N 
ATOM      8  H2  UNL     1       8.288   4.675  -0.841  1.00  0.00     0.196 HD
BRANCH   6   9
HETATM    9  O5  UNL     1       5.981   2.436  -1.011  1.00  0.00    -0.346 OA
ATOM     10  H5  UNL     1       5.559   2.562  -0.169  1.00  0.00     0.219 HD
ENDBRANCH   6   9
BRANCH   7  11
HETATM   11  O6  UNL     1       7.417   3.767   0.789  1.00  0.00    -0.288 OA
ATOM     12  H6  UNL     1       6.595   3.937   1.233  1.00  0.00     0.244 HD
ENDBRANCH   7  11
ENDBRANCH   5   6
BRANCH   5  13
HETATM   13  C11 UNL     1       8.344   2.958  -3.338  1.00  0.00     0.131 A 
HETATM   14  N3  UNL     1       9.511   3.621  -3.435  1.00  0.00    -0.284 N 
HETATM   15  N4  UNL     1      10.450   2.813  -3.828  1.00  0.00    -0.275 N 
ATOM     16  H3  UNL     1       9.639   4.612  -3.230  1.00  0.00     0.188 HD
HETATM   17  C12 UNL     1       9.894   1.601  -3.993  1.00  0.00     0.194 A 
ATOM     18  H4  UNL     1      11.428   3.054  -3.982  1.00  0.00     0.189 HD
HETATM   19  S1  UNL     1      10.672   0.229  -4.485  1.00  0.00    -0.039 SA
HETATM   20  N5  UNL     1       8.601   1.692  -3.692  1.00  0.00    -0.314 N 
HETATM   21  C13 UNL     1       7.619   0.635  -3.725  1.00  0.00     0.160 C 
ENDBRANCH   5  13
ENDBRANCH   3   5
BRANCH   1  22
HETATM   22  O3  UNL     1       6.845   6.824  -4.864  1.00  0.00    -0.273 OA
BRANCH  22  23
HETATM   23  C7  UNL     1       6.113   7.711  -4.105  1.00  0.00     0.167 C 
HETATM   24  C6  UNL     1       6.192   9.016  -4.127  1.00  0.00     0.091 A 
HETATM   25  C5  UNL     1       5.360   9.868  -3.270  1.00  0.00     0.196 A 
HETATM   26  C14 UNL     1       7.124   9.709  -5.004  1.00  0.00     0.240 A 
HETATM   27  C3  UNL     1       5.466  11.336  -3.302  1.00  0.00     0.027 A 
HETATM   28  O2  UNL     1       4.552   9.289  -2.507  1.00  0.00    -0.287 OA
HETATM   29  C2  UNL     1       6.314  11.957  -4.103  1.00  0.00     0.132 A 
HETATM   30  C4  UNL     1       4.599  12.158  -2.414  1.00  0.00     0.056 C 
HETATM   31  C15 UNL     1       7.175  11.178  -4.984  1.00  0.00     0.256 A 
HETATM   32  O8  UNL     1       7.993  11.747  -5.757  1.00  0.00    -0.281 OA
HETATM   33  O7  UNL     1       7.872   9.064  -5.768  1.00  0.00    -0.283 OA
BRANCH  29  34
HETATM   34  O1  UNL     1       6.349  13.340  -4.071  1.00  0.00    -0.351 OA
HETATM   35  C1  UNL     1       7.389  14.074  -3.460  1.00  0.00     0.210 C 
ENDBRANCH  29  34
ENDBRANCH  22  23
ENDBRANCH   1  22
TORSDOF 8
ENDMDL
MODEL 3
REMARK VINA RESULT: -9.996349214      2.302      3.952
REMARK  8 active torsions:
REMARK  status: ('A' for Active; 'I' for Inactive)
REMARK    1  A    between atoms: O1_2  and  C2_3 
REMARK    2  A    between atoms: C7_9  and  O3_10 
REMARK    3  A    between atoms: O3_10  and  C8_11 
REMARK       I    between atoms: C8_11  and  N1_13 
REMARK    4  A    between atoms: N1_13  and  C9_15 
REMARK    5  A    between atoms: C9_15  and  C10_16 
REMARK    6  A    between atoms: C9_15  and  C11_23 
REMARK    7  A    between atoms: C10_16  and  O5_17 
REMARK    8  A    between atoms: N2_19  and  O6_21 
ROOT
HETATM    1  C8  UNL     1       7.287   5.637  -5.045  1.00  0.00     0.366 C 
HETATM    2  O4  UNL     1       7.241   4.653  -5.857  1.00  0.00    -0.238 OA
HETATM    3  N1  UNL     1       7.346   5.437  -3.649  1.00  0.00    -0.317 N 
ATOM      4  H1  UNL     1       7.384   6.263  -3.050  1.00  0.00     0.166 HD
ENDROOT
BRANCH   3   5
HETATM    5  C9  UNL     1       7.356   4.147  -3.015  1.00  0.00     0.232 C 
BRANCH   5   6
HETATM    6  C10 UNL     1       7.229   4.257  -1.535  1.00  0.00     0.166 C 
HETATM    7  N2  UNL     1       7.773   3.432  -0.708  1.00  0.00    -0.249 N 
ATOM      8  H2  UNL     1       8.323   2.658  -1.079  1.00  0.00     0.196 HD
BRANCH   6   9
HETATM    9  O5  UNL     1       6.485   5.300  -0.989  1.00  0.00    -0.346 OA
ATOM     10  H5  UNL     1       6.888   6.154  -0.882  1.00  0.00     0.219 HD
ENDBRANCH   6   9
BRANCH   7  11
HETATM   11  O6  UNL     1       7.643   3.552   0.646  1.00  0.00    -0.288 OA
ATOM     12  H6  UNL     1       8.284   3.999   1.186  1.00  0.00     0.244 HD
ENDBRANCH   7  11
ENDBRANCH   5   6
BRANCH   5  13
HETATM   13  C11 UNL     1       8.504   3.291  -3.323  1.00  0.00     0.131 A 
HETATM   14  N3  UNL     1       9.771   3.741  -3.363  1.00  0.00    -0.284 N 
HETATM   15  N4  UNL     1      10.580   2.767  -3.654  1.00  0.00    -0.275 N 
ATOM     16  H3  UNL     1      10.054   4.706  -3.189  1.00  0.00     0.188 HD
HETATM   17  C12 UNL     1       9.837   1.660  -3.811  1.00  0.00     0.194 A 
ATOM     18  H4  UNL     1      11.594   2.832  -3.748  1.00  0.00     0.189 HD
HETATM   19  S1  UNL     1      10.396   0.153  -4.191  1.00  0.00    -0.039 SA
HETATM   20  N5  UNL     1       8.562   1.983  -3.607  1.00  0.00    -0.314 N 
HETATM   21  C13 UNL     1       7.416   1.106  -3.669  1.00  0.00     0.160 C 
ENDBRANCH   5  13
ENDBRANCH   3   5
BRANCH   1  22
HETATM   22  O3  UNL     1       7.271   6.902  -5.607  1.00  0.00    -0.273 OA
BRANCH  22  23
HETATM   23  C7  UNL     1       6.873   7.192  -6.895  1.00  0.00     0.167 C 
HETATM   24  C6  UNL     1       5.816   7.870  -7.257  1.00  0.00     0.091 A 
HETATM   25  C5  UNL     1       5.487   8.120  -8.665  1.00  0.00     0.196 A 
HETATM   26  C14 UNL     1       4.888   8.416  -6.279  1.00  0.00     0.240 A 
HETATM   27  C3  UNL     1       4.289   8.879  -9.057  1.00  0.00     0.027 A 
HETATM   28  O2  UNL     1       6.275   7.656  -9.523  1.00  0.00    -0.287 OA
HETATM   29  C2  UNL     1       3.452   9.372  -8.161  1.00  0.00     0.132 A 
HETATM   30  C4  UNL     1       3.998   9.107 -10.499  1.00  0.00     0.056 C 
HETATM   31  C15 UNL     1       3.710   9.166  -6.742  1.00  0.00     0.256 A 
HETATM   32  O8  UNL     1       2.927   9.626  -5.868  1.00  0.00    -0.281 OA
HETATM   33  O7  UNL     1       5.088   8.251  -5.057  1.00  0.00    -0.283 OA
BRANCH  29  34
HETATM   34  O1  UNL     1       2.349  10.075  -8.615  1.00  0.00    -0.351 OA
HETATM   35  C1  UNL     1       1.740  11.117  -7.882  1.00  0.00     0.210 C 
ENDBRANCH  29  34
ENDBRANCH  22  23
ENDBRANCH   1  22
TORSDOF 8
ENDMDL
MODEL 4
REMARK VINA RESULT: -9.938184911      2.717      4.616
REMARK  8 active torsions:
REMARK  status: ('A' for Active; 'I' for Inactive)
REMARK    1  A    between atoms: O1_2  and  C2_3 
REMARK    2  A    between atoms: C7_9  and  O3_10 
REMARK    3  A    between atoms: O3_10  and  C8_11 
REMARK       I    between atoms: C8_11  and  N1_13 
REMARK    4  A    between atoms: N1_13  and  C9_15 
REMARK    5  A    between atoms: C9_15  and  C10_16 
REMARK    6  A    between atoms: C9_15  and  C11_23 
REMARK    7  A    between atoms: C10_16  and  O5_17 
REMARK    8  A    between atoms: N2_19  and  O6_21 
ROOT
HETATM    1  C8  UNL     1       7.224   5.708  -4.860  1.00  0.00     0.366 C 
HETATM    2  O4  UNL     1       7.182   4.881  -5.832  1.00  0.00    -0.238 OA
HETATM    3  N1  UNL     1       7.237   5.268  -3.518  1.00  0.00    -0.317 N 
ATOM      4  H1  UNL     1       7.275   5.976  -2.785  1.00  0.00     0.166 HD
ENDROOT
BRANCH   3   5
HETATM    5  C9  UNL     1       7.202   3.887  -3.119  1.00  0.00     0.232 C 
BRANCH   5   6
HETATM    6  C10 UNL     1       6.821   3.737  -1.686  1.00  0.00     0.166 C 
HETATM    7  N2  UNL     1       7.160   4.572  -0.765  1.00  0.00    -0.249 N 
ATOM      8  H2  UNL     1       7.719   5.385  -1.024  1.00  0.00     0.196 HD
BRANCH   6   9
HETATM    9  O5  UNL     1       6.058   2.641  -1.294  1.00  0.00    -0.346 OA
ATOM     10  H5  UNL     1       5.498   2.210  -1.929  1.00  0.00     0.219 HD
ENDBRANCH   6   9
BRANCH   7  11
HETATM   11  O6  UNL     1       6.799   4.415   0.542  1.00  0.00    -0.288 OA
ATOM     12  H6  UNL     1       7.102   4.994   1.231  1.00  0.00     0.244 HD
ENDBRANCH   7  11
ENDBRANCH   5   6
BRANCH   5  13
HETATM   13  C11 UNL     1       8.424   3.118  -3.361  1.00  0.00     0.131 A 
HETATM   14  N3  UNL     1       9.659   3.640  -3.246  1.00  0.00    -0.284 N 
HETATM   15  N4  UNL     1      10.551   2.733  -3.514  1.00  0.00    -0.275 N 
ATOM     16  H3  UNL     1       9.864   4.605  -2.987  1.00  0.00     0.188 HD
HETATM   17  C12 UNL     1       9.895   1.599  -3.810  1.00  0.00     0.194 A 
ATOM     18  H4  UNL     1      11.563   2.860  -3.501  1.00  0.00     0.189 HD
HETATM   19  S1  UNL     1      10.581   0.153  -4.222  1.00  0.00    -0.039 SA
HETATM   20  N5  UNL     1       8.590   1.837  -3.716  1.00  0.00    -0.314 N 
HETATM   21  C13 UNL     1       7.511   0.904  -3.944  1.00  0.00     0.160 C 
ENDBRANCH   5  13
ENDBRANCH   3   5
BRANCH   1  22
HETATM   22  O3  UNL     1       7.251   7.051  -5.193  1.00  0.00    -0.273 OA
BRANCH  22  23
HETATM   23  C7  UNL     1       6.254   7.719  -5.871  1.00  0.00     0.167 C 
HETATM   24  C6  UNL     1       5.421   8.598  -5.376  1.00  0.00     0.091 A 
HETATM   25  C5  UNL     1       4.392   9.251  -6.194  1.00  0.00     0.196 A 
HETATM   26  C14 UNL     1       5.459   8.980  -3.973  1.00  0.00     0.240 A 
HETATM   27  C3  UNL     1       3.458  10.233  -5.621  1.00  0.00     0.027 A 
HETATM   28  O2  UNL     1       4.344   8.934  -7.405  1.00  0.00    -0.287 OA
HETATM   29  C2  UNL     1       3.500  10.575  -4.345  1.00  0.00     0.132 A 
HETATM   30  C4  UNL     1       2.431  10.870  -6.490  1.00  0.00     0.056 C 
HETATM   31  C15 UNL     1       4.495   9.969  -3.469  1.00  0.00     0.256 A 
HETATM   32  O8  UNL     1       4.556  10.278  -2.248  1.00  0.00    -0.281 OA
HETATM   33  O7  UNL     1       6.302   8.474  -3.203  1.00  0.00    -0.283 OA
BRANCH  29  34
HETATM   34  O1  UNL     1       2.585  11.508  -3.888  1.00  0.00    -0.351 OA
HETATM   35  C1  UNL     1       1.460  11.169  -3.105  1.00  0.00     0.210 C 
ENDBRANCH  29  34
ENDBRANCH  22  23
ENDBRANCH   1  22
TORSDOF 8
ENDMDL
MODEL 5
REMARK VINA RESULT: -9.833432476      0.930      2.210
REMARK  8 active torsions:
REMARK  status: ('A' for Active; 'I' for Inactive)
REMARK    1  A    between atoms: O1_2  and  C2_3 
REMARK    2  A    between atoms: C7_9  and  O3_10 
REMARK    3  A    between atoms: O3_10  and  C8_11 
REMARK       I    between atoms: C8_11  and  N1_13 
REMARK    4  A    between atoms: N1_13  and  C9_15 
REMARK    5  A    between atoms: C9_15  and  C10_16 
REMARK    6  A    between atoms: C9_15  and  C11_23 
REMARK    7  A    between atoms: C10_16  and  O5_17 
REMARK    8  A    between atoms: N2_19  and  O6_21 
ROOT
HETATM    1  C8  UNL     1       8.692   4.063  -4.398  1.00  0.00     0.366 C 
HETATM    2  O4  UNL     1       7.653   3.382  -4.693  1.00  0.00    -0.238 OA
HETATM    3  N1  UNL     1       9.736   3.515  -3.622  1.00  0.00    -0.317 N 
ATOM      4  H1  UNL     1      10.543   4.108  -3.422  1.00  0.00     0.166 HD
ENDROOT
BRANCH   3   5
HETATM    5  C9  UNL     1       9.738   2.177  -3.096  1.00  0.00     0.232 C 
BRANCH   5   6
HETATM    6  C10 UNL     1      10.615   1.273  -3.891  1.00  0.00     0.166 C 
HETATM    7  N2  UNL     1      10.886   1.454  -5.138  1.00  0.00    -0.249 N 
ATOM      8  H2  UNL     1      10.481   2.260  -5.614  1.00  0.00     0.196 HD
BRANCH   6   9
HETATM    9  O5  UNL     1      11.186   0.161  -3.278  1.00  0.00    -0.346 OA
ATOM     10  H5  UNL     1      12.008  -0.183  -3.607  1.00  0.00     0.219 HD
ENDBRANCH   6   9
BRANCH   7  11
HETATM   11  O6  UNL     1      11.692   0.612  -5.849  1.00  0.00    -0.288 OA
ATOM     12  H6  UNL     1      11.380  -0.202  -6.224  1.00  0.00     0.244 HD
ENDBRANCH   7  11
ENDBRANCH   5   6
BRANCH   5  13
HETATM   13  C11 UNL     1       8.426   1.545  -2.947  1.00  0.00     0.131 A 
HETATM   14  N3  UNL     1       8.015   0.513  -3.707  1.00  0.00    -0.284 N 
HETATM   15  N4  UNL     1       6.817   0.152  -3.354  1.00  0.00    -0.275 N 
ATOM     16  H3  UNL     1       8.562   0.078  -4.449  1.00  0.00     0.188 HD
HETATM   17  C12 UNL     1       6.433   0.957  -2.350  1.00  0.00     0.194 A 
ATOM     18  H4  UNL     1       6.269  -0.604  -3.765  1.00  0.00     0.189 HD
HETATM   19  S1  UNL     1       4.986   0.906  -1.555  1.00  0.00    -0.039 SA
HETATM   20  N5  UNL     1       7.423   1.812  -2.102  1.00  0.00    -0.314 N 
HETATM   21  C13 UNL     1       7.448   2.854  -1.103  1.00  0.00     0.160 C 
ENDBRANCH   5  13
ENDBRANCH   3   5
BRANCH   1  22
HETATM   22  O3  UNL     1       8.733   5.363  -4.874  1.00  0.00    -0.273 OA
BRANCH  22  23
HETATM   23  C7  UNL     1       8.180   5.788  -6.062  1.00  0.00     0.167 C 
HETATM   24  C6  UNL     1       7.286   6.728  -6.221  1.00  0.00     0.091 A 
HETATM   25  C5  UNL     1       6.763   7.102  -7.540  1.00  0.00     0.196 A 
HETATM   26  C14 UNL     1       6.743   7.463  -5.088  1.00  0.00     0.240 A 
HETATM   27  C3  UNL     1       5.751   8.158  -7.700  1.00  0.00     0.027 A 
HETATM   28  O2  UNL     1       7.218   6.479  -8.528  1.00  0.00    -0.287 OA
HETATM   29  C2  UNL     1       5.265   8.821  -6.666  1.00  0.00     0.132 A 
HETATM   30  C4  UNL     1       5.252   8.502  -9.060  1.00  0.00     0.056 C 
HETATM   31  C15 UNL     1       5.734   8.507  -5.323  1.00  0.00     0.256 A 
HETATM   32  O8  UNL     1       5.285   9.125  -4.320  1.00  0.00    -0.281 OA
HETATM   33  O7  UNL     1       7.129   7.212  -3.928  1.00  0.00    -0.283 OA
BRANCH  29  34
HETATM   34  O1  UNL     1       4.316   9.801  -6.906  1.00  0.00    -0.351 OA
HETATM   35  C1  UNL     1       2.999   9.742  -6.402  1.00  0.00     0.210 C 
ENDBRANCH  29  34
ENDBRANCH  22  23
ENDBRANCH   1  22
TORSDOF 8
ENDMDL
