MODEL 1
REMARK VINA RESULT: -9.732924845      0.000      0.000
REMARK  7 active torsions:
REMARK  status: ('A' for Active; 'I' for Inactive)
REMARK    1  A    between atoms: O1_2  and  C2_3 
REMARK    2  A    between atoms: C2_3  and  C3_5 
REMARK    3  A    between atoms: C4_6  and  N1_7 
REMARK    4  A    between atoms: N2_9  and  C5_11 
REMARK    5  A    between atoms: C7_16  and  C8_17 
REMARK    6  A    between atoms: C11_22  and  N4_23 
REMARK    7  A    between atoms: C14_32  and  N7_33 
ROOT
HETATM    1  N1  UNL     1       5.454  10.456  -2.880  1.00  0.00    -0.283 N 
ATOM      2  H1  UNL     1       5.541  10.844  -1.941  1.00  0.00     0.188 HD
HETATM    3  N2  UNL     1       6.496   9.978  -3.254  1.00  0.00    -0.293 N 
ATOM      4  H2  UNL     1       7.235  10.062  -2.557  1.00  0.00     0.187 HD
ENDROOT
BRANCH   3   5
HETATM    5  C5  UNL     1       6.928   9.335  -4.419  1.00  0.00     0.129 A 
HETATM    6  C6  UNL     1       7.207   9.982  -5.601  1.00  0.00     0.275 A 
HETATM    7  O3  UNL     1       7.078  11.254  -5.683  1.00  0.00    -0.266 OA
HETATM    8  N3  UNL     1       7.611   9.347  -6.692  1.00  0.00    -0.315 N 
HETATM    9  C7  UNL     1       7.782   7.994  -6.732  1.00  0.00     0.124 A 
ATOM     10  H3  UNL     1       7.801   9.891  -7.534  1.00  0.00     0.169 HD
HETATM   11  C9  UNL     1       7.523   7.275  -5.585  1.00  0.00     0.015 A 
HETATM   12  C10 UNL     1       7.652   5.908  -5.498  1.00  0.00     0.070 A 
HETATM   13  C13 UNL     1       7.097   7.961  -4.443  1.00  0.00     0.026 A 
HETATM   14  C11 UNL     1       7.381   5.198  -4.343  1.00  0.00     0.174 A 
HETATM   15  N5  UNL     1       6.976   5.879  -3.265  1.00  0.00    -0.346 N 
HETATM   16  C12 UNL     1       6.840   7.204  -3.313  1.00  0.00     0.104 A 
ATOM     17  H5  UNL     1       6.771   5.380  -2.399  1.00  0.00     0.167 HD
BRANCH   9  18
HETATM   18  C8  UNL     1       8.223   7.369  -7.950  1.00  0.00     0.227 C 
HETATM   19  O4  UNL     1       9.434   7.576  -8.293  1.00  0.00    -0.643 OA
HETATM   20  O5  UNL     1       7.502   6.584  -8.775  1.00  0.00    -0.643 OA
ENDBRANCH   9  18
BRANCH  14  21
HETATM   21  N4  UNL     1       7.533   3.766  -4.301  1.00  0.00    -0.098 N 
HETATM   22  O6  UNL     1       6.521   3.074  -4.089  1.00  0.00    -0.531 OA
HETATM   23  O7  UNL     1       8.733   3.162  -4.483  1.00  0.00    -0.531 OA
ENDBRANCH  14  21
ENDBRANCH   3   5
BRANCH   1  24
HETATM   24  C4  UNL     1       4.178  10.623  -3.373  1.00  0.00     0.157 A 
HETATM   25  C3  UNL     1       3.090  10.679  -2.510  1.00  0.00     0.153 A 
HETATM   26  C15 UNL     1       1.779  10.836  -2.992  1.00  0.00     0.279 A 
HETATM   27  N8  UNL     1       1.628  10.929  -4.322  1.00  0.00    -0.155 N 
HETATM   28  O8  UNL     1       0.784  10.890  -2.238  1.00  0.00    -0.266 OA
HETATM   29  C14 UNL     1       2.645  10.879  -5.177  1.00  0.00     0.680 A 
ATOM     30  H8  UNL     1       0.687  11.045  -4.696  1.00  0.00     0.187 HD
HETATM   31  N6  UNL     1       3.886  10.730  -4.699  1.00  0.00    -0.174 N 
ATOM     32  H6  UNL     1       4.657  10.694  -5.366  1.00  0.00     0.186 HD
BRANCH  25  33
HETATM   33  C2  UNL     1       3.217  10.579  -1.065  1.00  0.00     0.302 C 
HETATM   34  O2  UNL     1       2.735   9.630  -0.399  1.00  0.00    -0.259 OA
BRANCH  33  35
HETATM   35  O1  UNL     1       3.893  11.545  -0.296  1.00  0.00    -0.322 OA
HETATM   36  C1  UNL     1       3.856  12.919  -0.618  1.00  0.00     0.213 C 
ENDBRANCH  33  35
ENDBRANCH  25  33
BRANCH  29  37
HETATM   37  N7  UNL     1       2.421  10.978  -6.467  1.00  0.00    -0.234 N 
ATOM     38  H72 UNL     1       3.012  11.580  -7.041  1.00  0.00     0.174 HD
ATOM     39  H71 UNL     1       1.663  10.461  -6.913  1.00  0.00     0.174 HD
ENDBRANCH  29  37
ENDBRANCH   1  24
TORSDOF 7
ENDMDL
MODEL 2
REMARK VINA RESULT: -9.323088390      2.548      3.650
REMARK  7 active torsions:
REMARK  status: ('A' for Active; 'I' for Inactive)
REMARK    1  A    between atoms: O1_2  and  C2_3 
REMARK    2  A    between atoms: C2_3  and  C3_5 
REMARK    3  A    between atoms: C4_6  and  N1_7 
REMARK    4  A    between atoms: N2_9  and  C5_11 
REMARK    5  A    between atoms: C7_16  and  C8_17 
REMARK    6  A    between atoms: C11_22  and  N4_23 
REMARK    7  A    between atoms: C14_32  and  N7_33 
ROOT
HETATM    1  N1  UNL     1       6.053  11.289  -2.643  1.00  0.00    -0.283 N 
ATOM      2  H1  UNL     1       5.427  11.287  -1.839  1.00  0.00     0.188 HD
HETATM    3  N2  UNL     1       6.039  10.225  -3.211  1.00  0.00    -0.293 N 
ATOM      4  H2  UNL     1       5.409   9.556  -2.769  1.00  0.00     0.187 HD
ENDROOT
BRANCH   3   5
HETATM    5  C5  UNL     1       6.685   9.693  -4.333  1.00  0.00     0.129 A 
HETATM    6  C6  UNL     1       7.075  10.434  -5.424  1.00  0.00     0.275 A 
HETATM    7  O3  UNL     1       6.855  11.696  -5.456  1.00  0.00    -0.266 OA
HETATM    8  N3  UNL     1       7.680   9.903  -6.477  1.00  0.00    -0.315 N 
HETATM    9  C7  UNL     1       7.966   8.572  -6.563  1.00  0.00     0.124 A 
ATOM     10  H3  UNL     1       7.943  10.513  -7.251  1.00  0.00     0.169 HD
HETATM   11  C9  UNL     1       7.606   7.762  -5.508  1.00  0.00     0.015 A 
HETATM   12  C10 UNL     1       7.833   6.405  -5.475  1.00  0.00     0.070 A 
HETATM   13  C13 UNL     1       6.967   8.340  -4.405  1.00  0.00     0.026 A 
HETATM   14  C11 UNL     1       7.460   5.604  -4.413  1.00  0.00     0.174 A 
HETATM   15  N5  UNL     1       6.852   6.182  -3.370  1.00  0.00    -0.346 N 
HETATM   16  C12 UNL     1       6.615   7.494  -3.367  1.00  0.00     0.104 A 
ATOM     17  H5  UNL     1       6.567   5.614  -2.572  1.00  0.00     0.167 HD
BRANCH   9  18
HETATM   18  C8  UNL     1       8.626   8.061  -7.735  1.00  0.00     0.227 C 
HETATM   19  O4  UNL     1       7.908   7.914  -8.778  1.00  0.00    -0.643 OA
HETATM   20  O5  UNL     1       9.924   7.719  -7.859  1.00  0.00    -0.643 OA
ENDBRANCH   9  18
BRANCH  14  21
HETATM   21  N4  UNL     1       7.721   4.187  -4.425  1.00  0.00    -0.098 N 
HETATM   22  O6  UNL     1       6.755   3.411  -4.327  1.00  0.00    -0.531 OA
HETATM   23  O7  UNL     1       8.976   3.686  -4.539  1.00  0.00    -0.531 OA
ENDBRANCH  14  21
ENDBRANCH   3   5
BRANCH   1  24
HETATM   24  C4  UNL     1       6.683  12.506  -2.783  1.00  0.00     0.157 A 
HETATM   25  C3  UNL     1       5.967  13.628  -3.187  1.00  0.00     0.153 A 
HETATM   26  C15 UNL     1       6.593  14.877  -3.348  1.00  0.00     0.279 A 
HETATM   27  N8  UNL     1       7.908  14.935  -3.094  1.00  0.00    -0.155 N 
HETATM   28  O8  UNL     1       5.973  15.901  -3.709  1.00  0.00    -0.266 OA
HETATM   29  C14 UNL     1       8.624  13.884  -2.707  1.00  0.00     0.680 A 
ATOM     30  H8  UNL     1       8.384  15.830  -3.202  1.00  0.00     0.187 HD
HETATM   31  N6  UNL     1       8.011  12.703  -2.558  1.00  0.00    -0.174 N 
ATOM     32  H6  UNL     1       8.572  11.904  -2.260  1.00  0.00     0.186 HD
BRANCH  25  33
HETATM   33  C2  UNL     1       4.542  13.601  -3.472  1.00  0.00     0.302 C 
HETATM   34  O2  UNL     1       4.067  13.155  -4.545  1.00  0.00    -0.259 OA
BRANCH  33  35
HETATM   35  O1  UNL     1       3.580  14.076  -2.561  1.00  0.00    -0.322 OA
HETATM   36  C1  UNL     1       3.609  13.733  -1.192  1.00  0.00     0.213 C 
ENDBRANCH  33  35
ENDBRANCH  25  33
BRANCH  29  37
HETATM   37  N7  UNL     1       9.909  14.016  -2.475  1.00  0.00    -0.234 N 
ATOM     38  H72 UNL     1      10.504  14.488  -3.157  1.00  0.00     0.174 HD
ATOM     39  H71 UNL     1      10.332  13.655  -1.619  1.00  0.00     0.174 HD
ENDBRANCH  29  37
ENDBRANCH   1  24
TORSDOF 7
ENDMDL
MODEL 3
REMARK VINA RESULT: -9.265715072      2.746      4.861
REMARK  7 active torsions:
REMARK  status: ('A' for Active; 'I' for Inactive)
REMARK    1  A    between atoms: O1_2  and  C2_3 
REMARK    2  A    between atoms: C2_3  and  C3_5 
REMARK    3  A    between atoms: C4_6  and  N1_7 
REMARK    4  A    between atoms: N2_9  and  C5_11 
REMARK    5  A    between atoms: C7_16  and  C8_17 
REMARK    6  A    between atoms: C11_22  and  N4_23 
REMARK    7  A    between atoms: C14_32  and  N7_33 
ROOT
HETATM    1  N1  UNL     1       3.471  10.295  -4.140  1.00  0.00    -0.283 N 
ATOM      2  H1  UNL     1       2.513  10.506  -3.862  1.00  0.00     0.188 HD
HETATM    3  N2  UNL     1       3.497   9.532  -5.072  1.00  0.00    -0.293 N 
ATOM      4  H2  UNL     1       2.563   9.263  -5.382  1.00  0.00     0.187 HD
ENDROOT
BRANCH   3   5
HETATM    5  C5  UNL     1       4.507   8.928  -5.830  1.00  0.00     0.129 A 
HETATM    6  C6  UNL     1       5.661   8.400  -5.297  1.00  0.00     0.275 A 
HETATM    7  O3  UNL     1       5.862   8.439  -4.033  1.00  0.00    -0.266 OA
HETATM    8  N3  UNL     1       6.605   7.837  -6.039  1.00  0.00    -0.315 N 
HETATM    9  C7  UNL     1       6.508   7.738  -7.396  1.00  0.00     0.124 A 
ATOM     10  H3  UNL     1       7.435   7.465  -5.577  1.00  0.00     0.169 HD
HETATM   11  C9  UNL     1       5.380   8.245  -8.004  1.00  0.00     0.015 A 
HETATM   12  C10 UNL     1       5.166   8.212  -9.363  1.00  0.00     0.070 A 
HETATM   13  C13 UNL     1       4.394   8.836  -7.206  1.00  0.00     0.026 A 
HETATM   14  C11 UNL     1       4.033   8.730  -9.960  1.00  0.00     0.174 A 
HETATM   15  N5  UNL     1       3.105   9.288  -9.173  1.00  0.00    -0.346 N 
HETATM   16  C12 UNL     1       3.279   9.339  -7.853  1.00  0.00     0.104 A 
ATOM     17  H5  UNL     1       2.258   9.678  -9.588  1.00  0.00     0.167 HD
BRANCH   9  18
HETATM   18  C8  UNL     1       7.569   7.115  -8.140  1.00  0.00     0.227 C 
HETATM   19  O4  UNL     1       7.593   5.840  -8.146  1.00  0.00    -0.643 OA
HETATM   20  O5  UNL     1       8.548   7.726  -8.839  1.00  0.00    -0.643 OA
ENDBRANCH   9  18
BRANCH  14  21
HETATM   21  N4  UNL     1       3.853   8.670 -11.388  1.00  0.00    -0.098 N 
HETATM   22  O6  UNL     1       4.511   7.830 -12.028  1.00  0.00    -0.531 OA
HETATM   23  O7  UNL     1       2.998   9.494 -12.043  1.00  0.00    -0.531 OA
ENDBRANCH  14  21
ENDBRANCH   3   5
BRANCH   1  24
HETATM   24  C4  UNL     1       4.380  10.961  -3.347  1.00  0.00     0.157 A 
HETATM   25  C3  UNL     1       4.133  11.141  -1.990  1.00  0.00     0.153 A 
HETATM   26  C15 UNL     1       5.041  11.828  -1.165  1.00  0.00     0.279 A 
HETATM   27  N8  UNL     1       6.154  12.299  -1.747  1.00  0.00    -0.155 N 
HETATM   28  O8  UNL     1       4.844  12.003   0.057  1.00  0.00    -0.266 OA
HETATM   29  C14 UNL     1       6.422  12.146  -3.040  1.00  0.00     0.680 A 
ATOM     30  H8  UNL     1       6.828  12.800  -1.169  1.00  0.00     0.187 HD
HETATM   31  N6  UNL     1       5.546  11.489  -3.810  1.00  0.00    -0.174 N 
ATOM     32  H6  UNL     1       5.764  11.378  -4.800  1.00  0.00     0.186 HD
BRANCH  25  33
HETATM   33  C2  UNL     1       2.938  10.645  -1.327  1.00  0.00     0.302 C 
HETATM   34  O2  UNL     1       2.972   9.822  -0.380  1.00  0.00    -0.259 OA
BRANCH  33  35
HETATM   35  O1  UNL     1       1.643  11.053  -1.698  1.00  0.00    -0.322 OA
HETATM   36  C1  UNL     1       0.594  10.130  -1.897  1.00  0.00     0.213 C 
ENDBRANCH  33  35
ENDBRANCH  25  33
BRANCH  29  37
HETATM   37  N7  UNL     1       7.533  12.635  -3.541  1.00  0.00    -0.234 N 
ATOM     38  H72 UNL     1       8.040  12.116  -4.258  1.00  0.00     0.174 HD
ATOM     39  H71 UNL     1       7.904  13.533  -3.227  1.00  0.00     0.174 HD
ENDBRANCH  29  37
ENDBRANCH   1  24
TORSDOF 7
ENDMDL
MODEL 4
REMARK VINA RESULT: -9.136014976      2.729      7.913
REMARK  7 active torsions:
REMARK  status: ('A' for Active; 'I' for Inactive)
REMARK    1  A    between atoms: O1_2  and  C2_3 
REMARK    2  A    between atoms: C2_3  and  C3_5 
REMARK    3  A    between atoms: C4_6  and  N1_7 
REMARK    4  A    between atoms: N2_9  and  C5_11 
REMARK    5  A    between atoms: C7_16  and  C8_17 
REMARK    6  A    between atoms: C11_22  and  N4_23 
REMARK    7  A    between atoms: C14_32  and  N7_33 
ROOT
HETATM    1  N1  UNL     1       7.547   9.187  -6.239  1.00  0.00    -0.283 N 
ATOM      2  H1  UNL     1       8.499   9.041  -6.576  1.00  0.00     0.188 HD
HETATM    3  N2  UNL     1       7.544   9.623  -5.115  1.00  0.00    -0.293 N 
ATOM      4  H2  UNL     1       8.485   9.752  -4.744  1.00  0.00     0.187 HD
ENDROOT
BRANCH   3   5
HETATM    5  C5  UNL     1       6.552   9.993  -4.200  1.00  0.00     0.129 A 
HETATM    6  C6  UNL     1       5.644   9.118  -3.648  1.00  0.00     0.275 A 
HETATM    7  O3  UNL     1       5.675   7.877  -3.963  1.00  0.00    -0.266 OA
HETATM    8  N3  UNL     1       4.711   9.497  -2.787  1.00  0.00    -0.315 N 
HETATM    9  C7  UNL     1       4.574  10.791  -2.376  1.00  0.00     0.124 A 
ATOM     10  H3  UNL     1       4.071   8.794  -2.416  1.00  0.00     0.169 HD
HETATM   11  C9  UNL     1       5.448  11.727  -2.885  1.00  0.00     0.015 A 
HETATM   12  C10 UNL     1       5.411  13.063  -2.556  1.00  0.00     0.070 A 
HETATM   13  C13 UNL     1       6.426  11.310  -3.794  1.00  0.00     0.026 A 
HETATM   14  C11 UNL     1       6.288  13.993  -3.080  1.00  0.00     0.174 A 
HETATM   15  N5  UNL     1       7.216  13.567  -3.946  1.00  0.00    -0.346 N 
HETATM   16  C12 UNL     1       7.281  12.280  -4.288  1.00  0.00     0.104 A 
ATOM     17  H5  UNL     1       7.877  14.232  -4.346  1.00  0.00     0.167 HD
BRANCH   9  18
HETATM   18  C8  UNL     1       3.539  11.133  -1.438  1.00  0.00     0.227 C 
HETATM   19  O4  UNL     1       3.820  10.998  -0.202  1.00  0.00    -0.643 OA
HETATM   20  O5  UNL     1       2.299  11.585  -1.716  1.00  0.00    -0.643 OA
ENDBRANCH   9  18
BRANCH  14  21
HETATM   21  N4  UNL     1       6.211  15.381  -2.702  1.00  0.00    -0.098 N 
HETATM   22  O6  UNL     1       5.099  15.939  -2.740  1.00  0.00    -0.531 OA
HETATM   23  O7  UNL     1       7.302  16.085  -2.313  1.00  0.00    -0.531 OA
ENDBRANCH  14  21
ENDBRANCH   3   5
BRANCH   1  24
HETATM   24  C4  UNL     1       6.619   8.832  -7.194  1.00  0.00     0.157 A 
HETATM   25  C3  UNL     1       6.988   8.041  -8.276  1.00  0.00     0.153 A 
HETATM   26  C15 UNL     1       6.060   7.678  -9.268  1.00  0.00     0.279 A 
HETATM   27  N8  UNL     1       4.805   8.129  -9.120  1.00  0.00    -0.155 N 
HETATM   28  O8  UNL     1       6.365   6.967 -10.250  1.00  0.00    -0.266 OA
HETATM   29  C14 UNL     1       4.418   8.887  -8.100  1.00  0.00     0.680 A 
ATOM     30  H8  UNL     1       4.114   7.878  -9.826  1.00  0.00     0.187 HD
HETATM   31  N6  UNL     1       5.315   9.222  -7.165  1.00  0.00    -0.174 N 
ATOM     32  H6  UNL     1       5.005   9.804  -6.386  1.00  0.00     0.186 HD
BRANCH  25  33
HETATM   33  C2  UNL     1       8.338   7.536  -8.468  1.00  0.00     0.302 C 
HETATM   34  O2  UNL     1       8.753   6.473  -7.944  1.00  0.00    -0.259 OA
BRANCH  33  35
HETATM   35  O1  UNL     1       9.289   8.204  -9.262  1.00  0.00    -0.322 OA
HETATM   36  C1  UNL     1      10.675   7.969  -9.129  1.00  0.00     0.213 C 
ENDBRANCH  33  35
ENDBRANCH  25  33
BRANCH  29  37
HETATM   37  N7  UNL     1       3.172   9.292  -8.021  1.00  0.00    -0.234 N 
ATOM     38  H72 UNL     1       2.822   9.697  -7.152  1.00  0.00     0.174 HD
ATOM     39  H71 UNL     1       2.539   9.212  -8.817  1.00  0.00     0.174 HD
ENDBRANCH  29  37
ENDBRANCH   1  24
TORSDOF 7
ENDMDL
MODEL 5
REMARK VINA RESULT: -9.042455814      1.928      2.675
REMARK  7 active torsions:
REMARK  status: ('A' for Active; 'I' for Inactive)
REMARK    1  A    between atoms: O1_2  and  C2_3 
REMARK    2  A    between atoms: C2_3  and  C3_5 
REMARK    3  A    between atoms: C4_6  and  N1_7 
REMARK    4  A    between atoms: N2_9  and  C5_11 
REMARK    5  A    between atoms: C7_16  and  C8_17 
REMARK    6  A    between atoms: C11_22  and  N4_23 
REMARK    7  A    between atoms: C14_32  and  N7_33 
ROOT
HETATM    1  N1  UNL     1       4.984   9.867  -2.745  1.00  0.00    -0.283 N 
ATOM      2  H1  UNL     1       4.469   9.821  -1.866  1.00  0.00     0.188 HD
HETATM    3  N2  UNL     1       5.150   8.768  -3.212  1.00  0.00    -0.293 N 
ATOM      4  H2  UNL     1       4.743   8.033  -2.634  1.00  0.00     0.187 HD
ENDROOT
BRANCH   3   5
HETATM    5  C5  UNL     1       5.770   8.264  -4.361  1.00  0.00     0.129 A 
HETATM    6  C6  UNL     1       5.661   8.831  -5.610  1.00  0.00     0.275 A 
HETATM    7  O3  UNL     1       4.959   9.890  -5.776  1.00  0.00    -0.266 OA
HETATM    8  N3  UNL     1       6.255   8.330  -6.683  1.00  0.00    -0.315 N 
HETATM    9  C7  UNL     1       7.025   7.205  -6.636  1.00  0.00     0.124 A 
ATOM     10  H3  UNL     1       6.132   8.803  -7.579  1.00  0.00     0.169 HD
HETATM   11  C9  UNL     1       7.183   6.578  -5.419  1.00  0.00     0.015 A 
HETATM   12  C10 UNL     1       7.928   5.436  -5.240  1.00  0.00     0.070 A 
HETATM   13  C13 UNL     1       6.548   7.121  -4.296  1.00  0.00     0.026 A 
HETATM   14  C11 UNL     1       8.072   4.814  -4.014  1.00  0.00     0.174 A 
HETATM   15  N5  UNL     1       7.455   5.354  -2.957  1.00  0.00    -0.346 N 
HETATM   16  C12 UNL     1       6.724   6.461  -3.093  1.00  0.00     0.104 A 
ATOM     17  H5  UNL     1       7.546   4.917  -2.040  1.00  0.00     0.167 HD
BRANCH   9  18
HETATM   18  C8  UNL     1       7.642   6.715  -7.839  1.00  0.00     0.227 C 
HETATM   19  O4  UNL     1       7.021   5.795  -8.467  1.00  0.00    -0.643 OA
HETATM   20  O5  UNL     1       8.807   7.118  -8.385  1.00  0.00    -0.643 OA
ENDBRANCH   9  18
BRANCH  14  21
HETATM   21  N4  UNL     1       8.865   3.619  -3.877  1.00  0.00    -0.098 N 
HETATM   22  O6  UNL     1       8.419   2.560  -4.354  1.00  0.00    -0.531 OA
HETATM   23  O7  UNL     1      10.068   3.619  -3.251  1.00  0.00    -0.531 OA
ENDBRANCH  14  21
ENDBRANCH   3   5
BRANCH   1  24
HETATM   24  C4  UNL     1       5.299  11.168  -3.071  1.00  0.00     0.157 A 
HETATM   25  C3  UNL     1       4.300  12.128  -3.185  1.00  0.00     0.153 A 
HETATM   26  C15 UNL     1       4.598  13.459  -3.530  1.00  0.00     0.279 A 
HETATM   27  N8  UNL     1       5.889  13.756  -3.742  1.00  0.00    -0.155 N 
HETATM   28  O8  UNL     1       3.720  14.341  -3.638  1.00  0.00    -0.266 OA
HETATM   29  C14 UNL     1       6.870  12.865  -3.643  1.00  0.00     0.680 A 
ATOM     30  H8  UNL     1       6.130  14.715  -3.992  1.00  0.00     0.187 HD
HETATM   31  N6  UNL     1       6.567  11.603  -3.314  1.00  0.00    -0.174 N 
ATOM     32  H6  UNL     1       7.329  10.929  -3.240  1.00  0.00     0.186 HD
BRANCH  25  33
HETATM   33  C2  UNL     1       2.893  11.840  -2.963  1.00  0.00     0.302 C 
HETATM   34  O2  UNL     1       2.179  11.229  -3.796  1.00  0.00    -0.259 OA
BRANCH  33  35
HETATM   35  O1  UNL     1       2.217  12.227  -1.790  1.00  0.00    -0.322 OA
HETATM   36  C1  UNL     1       2.628  11.795  -0.511  1.00  0.00     0.213 C 
ENDBRANCH  33  35
ENDBRANCH  25  33
BRANCH  29  37
HETATM   37  N7  UNL     1       8.111  13.229  -3.866  1.00  0.00    -0.234 N 
ATOM     38  H72 UNL     1       8.309  14.002  -4.502  1.00  0.00     0.174 HD
ATOM     39  H71 UNL     1       8.891  12.753  -3.411  1.00  0.00     0.174 HD
ENDBRANCH  29  37
ENDBRANCH   1  24
TORSDOF 7
ENDMDL
