MODEL 1
REMARK VINA RESULT: -8.106244181      0.000      0.000
REMARK  10 active torsions:
REMARK  status: ('A' for Active; 'I' for Inactive)
REMARK    1  A    between atoms: N2_7  and  C6_8 
REMARK    2  A    between atoms: C6_8  and  O1_9 
REMARK    3  A    between atoms: C6_8  and  C7_11 
REMARK    4  A    between atoms: C7_11  and  N3_12 
REMARK    5  A    between atoms: C7_11  and  C16_30 
REMARK       I    between atoms: N3_12  and  C8_14 
REMARK    6  A    between atoms: C8_14  and  C9_16 
REMARK    7  A    between atoms: C10_18  and  N4_19 
REMARK    8  A    between atoms: C15_27  and  O4_28 
REMARK    9  A    between atoms: C16_30  and  O5_31 
REMARK   10  A    between atoms: N6_33  and  O6_35 
ROOT
HETATM    1  N1  UNL     1       1.201  10.279  -3.371  1.00  0.00    -0.195 NA
HETATM    2  C1  UNL     1       1.864  11.153  -3.012  1.00  0.00     0.084 C 
HETATM    3  C2  UNL     1       2.744  12.277  -2.560  1.00  0.00     0.189 C 
HETATM    4  C3  UNL     1       1.979  12.905  -1.365  1.00  0.00     0.041 C 
HETATM    5  C4  UNL     1       2.148  11.839  -0.307  1.00  0.00     0.022 C 
HETATM    6  C5  UNL     1       3.348  11.058  -0.751  1.00  0.00     0.121 C 
HETATM    7  N2  UNL     1       3.860  11.738  -1.919  1.00  0.00    -0.369 N 
ENDROOT
BRANCH   7   8
HETATM    8  C6  UNL     1       5.070  12.380  -1.748  1.00  0.00     0.247 C 
BRANCH   8   9
HETATM    9  O1  UNL     1       5.693  11.820  -0.560  1.00  0.00    -0.374 OA
ATOM     10  H1  UNL     1       6.606  11.662  -0.767  1.00  0.00     0.212 HD
ENDBRANCH   8   9
BRANCH   8  11
HETATM   11  C7  UNL     1       6.130  12.232  -2.794  1.00  0.00     0.209 C 
BRANCH  11  12
HETATM   12  N3  UNL     1       6.509  10.797  -2.903  1.00  0.00    -0.340 N 
HETATM   13  C8  UNL     1       6.337  10.085  -4.079  1.00  0.00     0.263 C 
HETATM   14  O2  UNL     1       5.846  10.653  -5.106  1.00  0.00    -0.267 OA
ATOM     15  H3  UNL     1       6.906  10.325  -2.091  1.00  0.00     0.163 HD
BRANCH  13  16
HETATM   16  C9  UNL     1       6.695   8.681  -4.214  1.00  0.00     0.126 A 
HETATM   17  S1  UNL     1       6.455   7.425  -3.028  1.00  0.00    -0.044 SA
HETATM   18  C10 UNL     1       7.118   6.115  -3.900  1.00  0.00     0.149 A 
HETATM   19  N5  UNL     1       7.481   6.696  -5.033  1.00  0.00    -0.316 N 
HETATM   20  C15 UNL     1       7.284   7.962  -5.214  1.00  0.00     0.165 A 
ATOM     21  H5  UNL     1       7.920   6.142  -5.768  1.00  0.00     0.170 HD
BRANCH  18  22
HETATM   22  N4  UNL     1       7.255   4.743  -3.518  1.00  0.00    -0.357 N 
HETATM   23  C11 UNL     1       6.855   4.318  -2.196  1.00  0.00     0.151 C 
HETATM   24  C12 UNL     1       7.715   3.093  -1.854  1.00  0.00     0.187 C 
HETATM   25  O3  UNL     1       8.944   3.179  -2.455  1.00  0.00    -0.388 OA
HETATM   26  C13 UNL     1       8.992   3.130  -3.811  1.00  0.00     0.187 C 
HETATM   27  C14 UNL     1       7.784   3.786  -4.424  1.00  0.00     0.151 C 
ENDBRANCH  18  22
BRANCH  20  28
HETATM   28  O4  UNL     1       7.677   8.588  -6.438  1.00  0.00    -0.345 OA
ATOM     29  H4  UNL     1       8.095   8.089  -7.130  1.00  0.00     0.219 HD
ENDBRANCH  20  28
ENDBRANCH  13  16
ENDBRANCH  11  12
BRANCH  11  30
HETATM   30  C16 UNL     1       7.385  12.933  -2.505  1.00  0.00     0.163 C 
HETATM   31  N6  UNL     1       8.215  13.211  -3.477  1.00  0.00    -0.249 N 
ATOM     32  H6  UNL     1       9.085  13.699  -3.265  1.00  0.00     0.196 HD
BRANCH  30  33
HETATM   33  O5  UNL     1       7.751  13.323  -1.230  1.00  0.00    -0.346 OA
ATOM     34  H5  UNL     1       8.139  14.169  -1.041  1.00  0.00     0.219 HD
ENDBRANCH  30  33
BRANCH  31  35
HETATM   35  O6  UNL     1       7.938  12.859  -4.786  1.00  0.00    -0.288 OA
ATOM     36  H6  UNL     1       8.246  12.040  -5.155  1.00  0.00     0.244 HD
ENDBRANCH  31  35
ENDBRANCH  11  30
ENDBRANCH   8  11
ENDBRANCH   7   8
TORSDOF 10
ENDMDL
MODEL 2
REMARK VINA RESULT: -7.793763355      1.284      1.740
REMARK  10 active torsions:
REMARK  status: ('A' for Active; 'I' for Inactive)
REMARK    1  A    between atoms: N2_7  and  C6_8 
REMARK    2  A    between atoms: C6_8  and  O1_9 
REMARK    3  A    between atoms: C6_8  and  C7_11 
REMARK    4  A    between atoms: C7_11  and  N3_12 
REMARK    5  A    between atoms: C7_11  and  C16_30 
REMARK       I    between atoms: N3_12  and  C8_14 
REMARK    6  A    between atoms: C8_14  and  C9_16 
REMARK    7  A    between atoms: C10_18  and  N4_19 
REMARK    8  A    between atoms: C15_27  and  O4_28 
REMARK    9  A    between atoms: C16_30  and  O5_31 
REMARK   10  A    between atoms: N6_33  and  O6_35 
ROOT
HETATM    1  N1  UNL     1       2.991  10.319  -0.201  1.00  0.00    -0.195 NA
HETATM    2  C1  UNL     1       3.215  10.439  -1.328  1.00  0.00     0.084 C 
HETATM    3  C2  UNL     1       3.531  10.597  -2.783  1.00  0.00     0.189 C 
HETATM    4  C3  UNL     1       2.170  10.963  -3.432  1.00  0.00     0.041 C 
HETATM    5  C4  UNL     1       1.968  12.374  -2.931  1.00  0.00     0.022 C 
HETATM    6  C5  UNL     1       3.345  12.842  -2.566  1.00  0.00     0.121 C 
HETATM    7  N2  UNL     1       4.246  11.782  -2.956  1.00  0.00    -0.369 N 
ENDROOT
BRANCH   7   8
HETATM    8  C6  UNL     1       5.069  12.068  -4.028  1.00  0.00     0.247 C 
BRANCH   8   9
HETATM    9  O1  UNL     1       5.059  13.511  -4.207  1.00  0.00    -0.374 OA
ATOM     10  H1  UNL     1       4.461  13.703  -4.919  1.00  0.00     0.212 HD
ENDBRANCH   8   9
BRANCH   8  11
HETATM   11  C7  UNL     1       6.526  11.742  -3.938  1.00  0.00     0.209 C 
BRANCH  11  12
HETATM   12  N3  UNL     1       6.685  10.272  -3.759  1.00  0.00    -0.340 N 
HETATM   13  C8  UNL     1       6.964   9.435  -4.826  1.00  0.00     0.263 C 
HETATM   14  O2  UNL     1       7.095   9.911  -5.998  1.00  0.00    -0.267 OA
ATOM     15  H3  UNL     1       6.585   9.873  -2.826  1.00  0.00     0.163 HD
BRANCH  13  16
HETATM   16  C9  UNL     1       7.121   7.995  -4.682  1.00  0.00     0.126 A 
HETATM   17  S1  UNL     1       6.685   7.032  -3.294  1.00  0.00    -0.044 SA
HETATM   18  C10 UNL     1       7.169   5.502  -3.878  1.00  0.00     0.149 A 
HETATM   19  N5  UNL     1       7.630   5.802  -5.082  1.00  0.00    -0.316 N 
HETATM   20  C15 UNL     1       7.618   7.025  -5.504  1.00  0.00     0.165 A 
ATOM     21  H5  UNL     1       7.998   5.064  -5.682  1.00  0.00     0.170 HD
BRANCH  18  22
HETATM   22  N4  UNL     1       7.104   4.223  -3.242  1.00  0.00    -0.357 N 
HETATM   23  C11 UNL     1       6.987   4.135  -1.804  1.00  0.00     0.151 C 
HETATM   24  C12 UNL     1       7.621   2.798  -1.396  1.00  0.00     0.187 C 
HETATM   25  O3  UNL     1       8.635   2.460  -2.253  1.00  0.00    -0.388 OA
HETATM   26  C13 UNL     1       8.311   2.182  -3.542  1.00  0.00     0.187 C 
HETATM   27  C14 UNL     1       7.154   3.027  -4.007  1.00  0.00     0.151 C 
ENDBRANCH  18  22
BRANCH  20  28
HETATM   28  O4  UNL     1       8.116   7.347  -6.805  1.00  0.00    -0.345 OA
ATOM     29  H4  UNL     1       7.593   7.187  -7.582  1.00  0.00     0.219 HD
ENDBRANCH  20  28
ENDBRANCH  13  16
ENDBRANCH  11  12
BRANCH  11  30
HETATM   30  C16 UNL     1       7.224  12.339  -2.794  1.00  0.00     0.163 C 
HETATM   31  N6  UNL     1       8.081  13.306  -2.987  1.00  0.00    -0.249 N 
ATOM     32  H6  UNL     1       8.562  13.714  -2.185  1.00  0.00     0.196 HD
BRANCH  30  33
HETATM   33  O5  UNL     1       7.023  11.921  -1.492  1.00  0.00    -0.346 OA
ATOM     34  H5  UNL     1       6.181  11.981  -1.055  1.00  0.00     0.219 HD
ENDBRANCH  30  33
BRANCH  31  35
HETATM   35  O6  UNL     1       8.352  13.790  -4.255  1.00  0.00    -0.288 OA
ATOM     36  H6  UNL     1       9.095  13.478  -4.756  1.00  0.00     0.244 HD
ENDBRANCH  31  35
ENDBRANCH  11  30
ENDBRANCH   8  11
ENDBRANCH   7   8
TORSDOF 10
ENDMDL
MODEL 3
REMARK VINA RESULT: -7.771379040      3.202      8.237
REMARK  10 active torsions:
REMARK  status: ('A' for Active; 'I' for Inactive)
REMARK    1  A    between atoms: N2_7  and  C6_8 
REMARK    2  A    between atoms: C6_8  and  O1_9 
REMARK    3  A    between atoms: C6_8  and  C7_11 
REMARK    4  A    between atoms: C7_11  and  N3_12 
REMARK    5  A    between atoms: C7_11  and  C16_30 
REMARK       I    between atoms: N3_12  and  C8_14 
REMARK    6  A    between atoms: C8_14  and  C9_16 
REMARK    7  A    between atoms: C10_18  and  N4_19 
REMARK    8  A    between atoms: C15_27  and  O4_28 
REMARK    9  A    between atoms: C16_30  and  O5_31 
REMARK   10  A    between atoms: N6_33  and  O6_35 
ROOT
HETATM    1  N1  UNL     1       7.170   5.779  -7.632  1.00  0.00    -0.195 NA
HETATM    2  C1  UNL     1       7.243   6.534  -6.760  1.00  0.00     0.084 C 
HETATM    3  C2  UNL     1       7.320   7.498  -5.617  1.00  0.00     0.189 C 
HETATM    4  C3  UNL     1       7.902   8.791  -6.247  1.00  0.00     0.041 C 
HETATM    5  C4  UNL     1       6.733   9.275  -7.074  1.00  0.00     0.022 C 
HETATM    6  C5  UNL     1       5.538   8.613  -6.455  1.00  0.00     0.121 C 
HETATM    7  N2  UNL     1       6.027   7.907  -5.293  1.00  0.00    -0.369 N 
ENDROOT
BRANCH   7   8
HETATM    8  C6  UNL     1       5.636   8.428  -4.075  1.00  0.00     0.247 C 
BRANCH   8   9
HETATM    9  O1  UNL     1       6.810   8.452  -3.218  1.00  0.00    -0.374 OA
ATOM     10  H1  UNL     1       6.691   7.781  -2.557  1.00  0.00     0.212 HD
ENDBRANCH   8   9
BRANCH   8  11
HETATM   11  C7  UNL     1       5.133   9.835  -4.010  1.00  0.00     0.209 C 
BRANCH  11  12
HETATM   12  N3  UNL     1       6.187  10.703  -3.418  1.00  0.00    -0.340 N 
HETATM   13  C8  UNL     1       6.262  12.056  -3.702  1.00  0.00     0.263 C 
HETATM   14  O2  UNL     1       5.416  12.594  -4.485  1.00  0.00    -0.267 OA
ATOM     15  H3  UNL     1       6.874  10.289  -2.786  1.00  0.00     0.163 HD
BRANCH  13  16
HETATM   16  C9  UNL     1       7.284  12.928  -3.142  1.00  0.00     0.126 A 
HETATM   17  S1  UNL     1       8.216  14.128  -3.998  1.00  0.00    -0.044 SA
HETATM   18  C10 UNL     1       9.166  14.696  -2.698  1.00  0.00     0.149 A 
HETATM   19  N5  UNL     1       8.729  13.951  -1.694  1.00  0.00    -0.316 N 
HETATM   20  C15 UNL     1       7.800  13.071  -1.886  1.00  0.00     0.165 A 
ATOM     21  H5  UNL     1       9.127  14.072  -0.763  1.00  0.00     0.170 HD
BRANCH  18  22
HETATM   22  N4  UNL     1      10.176  15.708  -2.683  1.00  0.00    -0.357 N 
HETATM   23  C11 UNL     1       9.839  17.061  -2.307  1.00  0.00     0.151 C 
HETATM   24  C12 UNL     1      10.842  17.976  -3.024  1.00  0.00     0.187 C 
HETATM   25  O3  UNL     1      11.231  17.428  -4.218  1.00  0.00    -0.388 OA
HETATM   26  C13 UNL     1      11.947  16.274  -4.184  1.00  0.00     0.187 C 
HETATM   27  C14 UNL     1      11.518  15.400  -3.036  1.00  0.00     0.151 C 
ENDBRANCH  18  22
BRANCH  20  28
HETATM   28  O4  UNL     1       7.329  12.267  -0.801  1.00  0.00    -0.345 OA
ATOM     29  H4  UNL     1       7.889  11.614  -0.397  1.00  0.00     0.219 HD
ENDBRANCH  20  28
ENDBRANCH  13  16
ENDBRANCH  11  12
BRANCH  11  30
HETATM   30  C16 UNL     1       3.958  10.032  -3.154  1.00  0.00     0.163 C 
HETATM   31  N6  UNL     1       2.763  10.059  -3.683  1.00  0.00    -0.249 N 
ATOM     32  H6  UNL     1       1.953  10.197  -3.079  1.00  0.00     0.196 HD
BRANCH  30  33
HETATM   33  O5  UNL     1       4.047  10.199  -1.784  1.00  0.00    -0.346 OA
ATOM     34  H5  UNL     1       3.386  10.653  -1.276  1.00  0.00     0.219 HD
ENDBRANCH  30  33
BRANCH  31  35
HETATM   35  O6  UNL     1       2.572   9.904  -5.045  1.00  0.00    -0.288 OA
ATOM     36  H6  UNL     1       1.712   9.989  -5.437  1.00  0.00     0.244 HD
ENDBRANCH  31  35
ENDBRANCH  11  30
ENDBRANCH   8  11
ENDBRANCH   7   8
TORSDOF 10
ENDMDL
MODEL 4
REMARK VINA RESULT: -7.770498625      1.101      1.152
REMARK  10 active torsions:
REMARK  status: ('A' for Active; 'I' for Inactive)
REMARK    1  A    between atoms: N2_7  and  C6_8 
REMARK    2  A    between atoms: C6_8  and  O1_9 
REMARK    3  A    between atoms: C6_8  and  C7_11 
REMARK    4  A    between atoms: C7_11  and  N3_12 
REMARK    5  A    between atoms: C7_11  and  C16_30 
REMARK       I    between atoms: N3_12  and  C8_14 
REMARK    6  A    between atoms: C8_14  and  C9_16 
REMARK    7  A    between atoms: C10_18  and  N4_19 
REMARK    8  A    between atoms: C15_27  and  O4_28 
REMARK    9  A    between atoms: C16_30  and  O5_31 
REMARK   10  A    between atoms: N6_33  and  O6_35 
ROOT
HETATM    1  N1  UNL     1       1.096  11.400  -5.611  1.00  0.00    -0.195 NA
HETATM    2  C1  UNL     1       1.698  11.923  -4.775  1.00  0.00     0.084 C 
HETATM    3  C2  UNL     1       2.500  12.592  -3.703  1.00  0.00     0.189 C 
HETATM    4  C3  UNL     1       1.479  12.844  -2.563  1.00  0.00     0.041 C 
HETATM    5  C4  UNL     1       1.251  11.441  -2.048  1.00  0.00     0.022 C 
HETATM    6  C5  UNL     1       2.461  10.677  -2.498  1.00  0.00     0.121 C 
HETATM    7  N2  UNL     1       3.338  11.643  -3.118  1.00  0.00    -0.369 N 
ENDROOT
BRANCH   7   8
HETATM    8  C6  UNL     1       4.498  11.923  -2.422  1.00  0.00     0.247 C 
BRANCH   8   9
HETATM    9  O1  UNL     1       4.568  10.993  -1.307  1.00  0.00    -0.374 OA
ATOM     10  H1  UNL     1       5.358  11.196  -0.819  1.00  0.00     0.212 HD
ENDBRANCH   8   9
BRANCH   8  11
HETATM   11  C7  UNL     1       5.818  11.747  -3.102  1.00  0.00     0.209 C 
BRANCH  11  12
HETATM   12  N3  UNL     1       6.111  10.293  -3.227  1.00  0.00    -0.340 N 
HETATM   13  C8  UNL     1       6.731   9.768  -4.349  1.00  0.00     0.263 C 
HETATM   14  O2  UNL     1       7.070  10.530  -5.309  1.00  0.00    -0.267 OA
ATOM     15  H3  UNL     1       5.849   9.666  -2.466  1.00  0.00     0.163 HD
BRANCH  13  16
HETATM   16  C9  UNL     1       7.026   8.351  -4.501  1.00  0.00     0.126 A 
HETATM   17  S1  UNL     1       6.780   7.101  -3.309  1.00  0.00    -0.044 SA
HETATM   18  C10 UNL     1       7.356   5.768  -4.208  1.00  0.00     0.149 A 
HETATM   19  N5  UNL     1       7.700   6.339  -5.353  1.00  0.00    -0.316 N 
HETATM   20  C15 UNL     1       7.547   7.612  -5.523  1.00  0.00     0.165 A 
ATOM     21  H5  UNL     1       8.088   5.771  -6.105  1.00  0.00     0.170 HD
BRANCH  18  22
HETATM   22  N4  UNL     1       7.451   4.391  -3.835  1.00  0.00    -0.357 N 
HETATM   23  C11 UNL     1       6.381   3.768  -3.091  1.00  0.00     0.151 C 
HETATM   24  C12 UNL     1       7.019   2.632  -2.278  1.00  0.00     0.187 C 
HETATM   25  O3  UNL     1       8.309   2.945  -1.937  1.00  0.00    -0.388 OA
HETATM   26  C13 UNL     1       9.220   3.059  -2.937  1.00  0.00     0.187 C 
HETATM   27  C14 UNL     1       8.593   3.621  -4.185  1.00  0.00     0.151 C 
ENDBRANCH  18  22
BRANCH  20  28
HETATM   28  O4  UNL     1       7.919   8.227  -6.760  1.00  0.00    -0.345 OA
ATOM     29  H4  UNL     1       7.260   8.502  -7.387  1.00  0.00     0.219 HD
ENDBRANCH  20  28
ENDBRANCH  13  16
ENDBRANCH  11  12
BRANCH  11  30
HETATM   30  C16 UNL     1       6.966  12.301  -2.376  1.00  0.00     0.163 C 
HETATM   31  N6  UNL     1       7.929  12.892  -3.034  1.00  0.00    -0.249 N 
ATOM     32  H6  UNL     1       8.723  13.274  -2.519  1.00  0.00     0.196 HD
BRANCH  30  33
HETATM   33  O5  UNL     1       7.090  12.229  -1.001  1.00  0.00    -0.346 OA
ATOM     34  H5  UNL     1       7.365  11.440  -0.549  1.00  0.00     0.219 HD
ENDBRANCH  30  33
BRANCH  31  35
HETATM   35  O6  UNL     1       7.896  13.011  -4.412  1.00  0.00    -0.288 OA
ATOM     36  H6  UNL     1       8.208  12.315  -4.977  1.00  0.00     0.244 HD
ENDBRANCH  31  35
ENDBRANCH  11  30
ENDBRANCH   8  11
ENDBRANCH   7   8
TORSDOF 10
ENDMDL
MODEL 5
REMARK VINA RESULT: -7.583023413      2.950      4.035
REMARK  10 active torsions:
REMARK  status: ('A' for Active; 'I' for Inactive)
REMARK    1  A    between atoms: N2_7  and  C6_8 
REMARK    2  A    between atoms: C6_8  and  O1_9 
REMARK    3  A    between atoms: C6_8  and  C7_11 
REMARK    4  A    between atoms: C7_11  and  N3_12 
REMARK    5  A    between atoms: C7_11  and  C16_30 
REMARK       I    between atoms: N3_12  and  C8_14 
REMARK    6  A    between atoms: C8_14  and  C9_16 
REMARK    7  A    between atoms: C10_18  and  N4_19 
REMARK    8  A    between atoms: C15_27  and  O4_28 
REMARK    9  A    between atoms: C16_30  and  O5_31 
REMARK   10  A    between atoms: N6_33  and  O6_35 
ROOT
HETATM    1  N1  UNL     1      -1.338  11.093  -4.641  1.00  0.00    -0.195 NA
HETATM    2  C1  UNL     1      -0.631  11.492  -3.818  1.00  0.00     0.084 C 
HETATM    3  C2  UNL     1       0.305  11.995  -2.765  1.00  0.00     0.189 C 
HETATM    4  C3  UNL     1      -0.626  12.429  -1.602  1.00  0.00     0.041 C 
HETATM    5  C4  UNL     1      -1.099  11.092  -1.082  1.00  0.00     0.022 C 
HETATM    6  C5  UNL     1      -0.064  10.117  -1.558  1.00  0.00     0.121 C 
HETATM    7  N2  UNL     1       0.964  10.905  -2.198  1.00  0.00    -0.369 N 
ENDROOT
BRANCH   7   8
HETATM    8  C6  UNL     1       2.171  10.961  -1.528  1.00  0.00     0.247 C 
BRANCH   8   9
HETATM    9  O1  UNL     1       2.777   9.643  -1.617  1.00  0.00    -0.374 OA
ATOM     10  H1  UNL     1       3.202   9.584  -2.464  1.00  0.00     0.212 HD
ENDBRANCH   8   9
BRANCH   8  11
HETATM   11  C7  UNL     1       3.246  11.870  -2.034  1.00  0.00     0.209 C 
BRANCH  11  12
HETATM   12  N3  UNL     1       4.213  11.077  -2.842  1.00  0.00    -0.340 N 
HETATM   13  C8  UNL     1       5.002  11.665  -3.816  1.00  0.00     0.263 C 
HETATM   14  O2  UNL     1       4.918  12.914  -4.042  1.00  0.00    -0.267 OA
ATOM     15  H3  UNL     1       4.295  10.074  -2.674  1.00  0.00     0.163 HD
BRANCH  13  16
HETATM   16  C9  UNL     1       5.952  10.915  -4.624  1.00  0.00     0.126 A 
HETATM   17  S1  UNL     1       5.738   9.305  -5.262  1.00  0.00    -0.044 SA
HETATM   18  C10 UNL     1       7.239   9.140  -6.059  1.00  0.00     0.149 A 
HETATM   19  N5  UNL     1       7.815  10.303  -5.801  1.00  0.00    -0.316 N 
HETATM   20  C15 UNL     1       7.202  11.198  -5.095  1.00  0.00     0.165 A 
ATOM     21  H5  UNL     1       8.750  10.496  -6.160  1.00  0.00     0.170 HD
BRANCH  18  22
HETATM   22  N4  UNL     1       7.754   8.036  -6.809  1.00  0.00    -0.357 N 
HETATM   23  C11 UNL     1       7.922   8.150  -8.239  1.00  0.00     0.151 C 
HETATM   24  C12 UNL     1       7.796   6.729  -8.807  1.00  0.00     0.187 C 
HETATM   25  O3  UNL     1       6.944   5.974  -8.043  1.00  0.00    -0.388 OA
HETATM   26  C13 UNL     1       7.320   5.687  -6.770  1.00  0.00     0.187 C 
HETATM   27  C14 UNL     1       8.104   6.820  -6.164  1.00  0.00     0.151 C 
ENDBRANCH  18  22
BRANCH  20  28
HETATM   28  O4  UNL     1       7.826  12.454  -4.818  1.00  0.00    -0.345 OA
ATOM     29  H4  UNL     1       7.902  13.121  -5.490  1.00  0.00     0.219 HD
ENDBRANCH  20  28
ENDBRANCH  13  16
ENDBRANCH  11  12
BRANCH  11  30
HETATM   30  C16 UNL     1       4.059  12.506  -0.992  1.00  0.00     0.163 C 
HETATM   31  N6  UNL     1       4.216  13.804  -0.990  1.00  0.00    -0.249 N 
ATOM     32  H6  UNL     1       4.784  14.236  -0.261  1.00  0.00     0.196 HD
BRANCH  30  33
HETATM   33  O5  UNL     1       4.686  11.791   0.011  1.00  0.00    -0.346 OA
ATOM     34  H5  UNL     1       4.814  12.136   0.888  1.00  0.00     0.219 HD
ENDBRANCH  30  33
BRANCH  31  35
HETATM   35  O6  UNL     1       3.630  14.604  -1.955  1.00  0.00    -0.288 OA
ATOM     36  H6  UNL     1       3.674  15.551  -1.907  1.00  0.00     0.244 HD
ENDBRANCH  31  35
ENDBRANCH  11  30
ENDBRANCH   8  11
ENDBRANCH   7   8
TORSDOF 10
ENDMDL
