MODEL 1
REMARK VINA RESULT: -10.235964297      0.000      0.000
REMARK  8 active torsions:
REMARK  status: ('A' for Active; 'I' for Inactive)
REMARK    1  A    between atoms: O1_2  and  C2_3 
REMARK    2  A    between atoms: C2_3  and  C3_5 
REMARK    3  A    between atoms: C5_7  and  O3_8 
REMARK    4  A    between atoms: O3_8  and  C6_9 
REMARK    5  A    between atoms: C7_12  and  N2_13 
REMARK    6  A    between atoms: N2_13  and  C8_15 
REMARK    7  A    between atoms: C12_22  and  N4_23 
REMARK    8  A    between atoms: C13_29  and  C14_30 
ROOT
HETATM    1  O3  UNL     1       6.415   4.387  -4.210  1.00  0.00    -0.271 OA
ENDROOT
BRANCH   1   2
HETATM    2  C5  UNL     1       6.739   5.717  -4.565  1.00  0.00     0.122 A 
HETATM    3  C4  UNL     1       7.414   6.129  -5.669  1.00  0.00     0.064 A 
HETATM    4  C3  UNL     1       7.627   7.463  -5.830  1.00  0.00     0.064 A 
HETATM    5  C13 UNL     1       7.147   8.290  -4.873  1.00  0.00     0.076 A 
HETATM    6  S1  UNL     1       6.404   7.168  -3.762  1.00  0.00    -0.060 SA
BRANCH   4   7
HETATM    7  C2  UNL     1       8.360   7.942  -7.026  1.00  0.00     0.294 C 
HETATM    8  O2  UNL     1       9.583   7.608  -7.226  1.00  0.00    -0.259 OA
BRANCH   7   9
HETATM    9  O1  UNL     1       7.839   8.748  -7.990  1.00  0.00    -0.322 OA
HETATM   10  C1  UNL     1       6.490   8.615  -8.462  1.00  0.00     0.213 C 
ENDBRANCH   7   9
ENDBRANCH   4   7
BRANCH   5  11
HETATM   11  C14 UNL     1       7.145   9.725  -4.648  1.00  0.00     0.184 A 
HETATM   12  N6  UNL     1       7.566  10.745  -5.354  1.00  0.00    -0.275 N 
HETATM   13  N7  UNL     1       7.362  11.904  -4.754  1.00  0.00    -0.263 N 
ATOM     14  H6  UNL     1       8.005  10.654  -6.270  1.00  0.00     0.189 HD
HETATM   15  C15 UNL     1       6.768  11.588  -3.585  1.00  0.00     0.238 A 
ATOM     16  H7  UNL     1       7.600  12.834  -5.099  1.00  0.00     0.190 HD
HETATM   17  N8  UNL     1       6.416  12.484  -2.723  1.00  0.00    -0.364 N 
HETATM   18  O5  UNL     1       6.648  10.297  -3.538  1.00  0.00    -0.259 OA
ATOM     19  H82 UNL     1       6.510  13.499  -2.759  1.00  0.00     0.159 HD
ATOM     20  H81 UNL     1       5.967  12.245  -1.838  1.00  0.00     0.159 HD
ENDBRANCH   5  11
ENDBRANCH   1   2
BRANCH   1  21
HETATM   21  C6  UNL     1       6.964   3.791  -3.085  1.00  0.00     0.258 A 
HETATM   22  N1  UNL     1       7.651   2.639  -3.277  1.00  0.00    -0.154 N 
HETATM   23  C7  UNL     1       8.204   2.019  -2.218  1.00  0.00     0.696 A 
ATOM     24  H1  UNL     1       7.749   2.247  -4.213  1.00  0.00     0.188 HD
HETATM   25  N3  UNL     1       8.054   2.569  -0.991  1.00  0.00    -0.022 N 
HETATM   26  C12 UNL     1       7.376   3.706  -0.791  1.00  0.00     0.693 A 
ATOM     27  H3  UNL     1       8.473   2.100  -0.188  1.00  0.00     0.203 HD
HETATM   28  N5  UNL     1       6.826   4.318  -1.861  1.00  0.00    -0.154 N 
ATOM     29  H5  UNL     1       6.304   5.185  -1.738  1.00  0.00     0.188 HD
BRANCH  23  30
HETATM   30  N2  UNL     1       8.848   0.940  -2.412  1.00  0.00    -0.219 N 
ATOM     31  H2  UNL     1       8.427   0.090  -2.038  1.00  0.00     0.178 HD
BRANCH  30  32
HETATM   32  C8  UNL     1      10.090   0.781  -3.092  1.00  0.00     0.125 C 
HETATM   33  C9  UNL     1       9.934   0.297  -4.528  1.00  0.00     0.054 C 
HETATM   34  C10 UNL     1      11.132   0.973  -5.173  1.00  0.00     0.169 C 
HETATM   35  O4  UNL     1      11.370   2.137  -4.501  1.00  0.00    -0.389 OA
HETATM   36  C11 UNL     1      10.707   2.140  -3.308  1.00  0.00     0.193 C 
ENDBRANCH  30  32
ENDBRANCH  23  30
BRANCH  26  37
HETATM   37  N4  UNL     1       7.266   4.179   0.395  1.00  0.00    -0.234 N 
ATOM     38  H42 UNL     1       7.503   3.630   1.221  1.00  0.00     0.174 HD
ATOM     39  H41 UNL     1       6.934   5.134   0.529  1.00  0.00     0.174 HD
ENDBRANCH  26  37
ENDBRANCH   1  21
TORSDOF 8
ENDMDL
MODEL 2
REMARK VINA RESULT: -10.086141375      2.035      3.327
REMARK  8 active torsions:
REMARK  status: ('A' for Active; 'I' for Inactive)
REMARK    1  A    between atoms: O1_2  and  C2_3 
REMARK    2  A    between atoms: C2_3  and  C3_5 
REMARK    3  A    between atoms: C5_7  and  O3_8 
REMARK    4  A    between atoms: O3_8  and  C6_9 
REMARK    5  A    between atoms: C7_12  and  N2_13 
REMARK    6  A    between atoms: N2_13  and  C8_15 
REMARK    7  A    between atoms: C12_22  and  N4_23 
REMARK    8  A    between atoms: C13_29  and  C14_30 
ROOT
HETATM    1  O3  UNL     1       6.042   4.517  -3.727  1.00  0.00    -0.271 OA
ENDROOT
BRANCH   1   2
HETATM    2  C5  UNL     1       6.671   5.552  -4.458  1.00  0.00     0.122 A 
HETATM    3  C4  UNL     1       6.578   6.887  -4.234  1.00  0.00     0.064 A 
HETATM    4  C3  UNL     1       7.265   7.725  -5.057  1.00  0.00     0.064 A 
HETATM    5  C13 UNL     1       7.999   7.164  -6.045  1.00  0.00     0.076 A 
HETATM    6  S1  UNL     1       7.704   5.462  -5.796  1.00  0.00    -0.060 SA
BRANCH   4   7
HETATM    7  C2  UNL     1       7.184   9.188  -4.835  1.00  0.00     0.294 C 
HETATM    8  O2  UNL     1       7.432  10.013  -5.787  1.00  0.00    -0.259 OA
BRANCH   7   9
HETATM    9  O1  UNL     1       6.854   9.782  -3.657  1.00  0.00    -0.322 OA
HETATM   10  C1  UNL     1       6.473  11.163  -3.567  1.00  0.00     0.213 C 
ENDBRANCH   7   9
ENDBRANCH   4   7
BRANCH   5  11
HETATM   11  C14 UNL     1       8.854   7.658  -7.110  1.00  0.00     0.184 A 
HETATM   12  N6  UNL     1       8.635   8.406  -8.163  1.00  0.00    -0.275 N 
HETATM   13  N7  UNL     1       9.725   8.613  -8.881  1.00  0.00    -0.263 N 
ATOM     14  H6  UNL     1       7.721   8.788  -8.404  1.00  0.00     0.189 HD
HETATM   15  C15 UNL     1      10.700   7.947  -8.230  1.00  0.00     0.238 A 
ATOM     16  H7  UNL     1       9.810   9.158  -9.739  1.00  0.00     0.190 HD
HETATM   17  N8  UNL     1      11.922   7.924  -8.648  1.00  0.00    -0.364 N 
HETATM   18  O5  UNL     1      10.169   7.387  -7.187  1.00  0.00    -0.259 OA
ATOM     19  H82 UNL     1      12.340   8.363  -9.469  1.00  0.00     0.159 HD
ATOM     20  H81 UNL     1      12.660   7.420  -8.156  1.00  0.00     0.159 HD
ENDBRANCH   5  11
ENDBRANCH   1   2
BRANCH   1  21
HETATM   21  C6  UNL     1       6.716   3.831  -2.729  1.00  0.00     0.258 A 
HETATM   22  N1  UNL     1       7.365   2.699  -3.097  1.00  0.00    -0.154 N 
HETATM   23  C7  UNL     1       8.036   1.994  -2.167  1.00  0.00     0.696 A 
ATOM     24  H1  UNL     1       7.345   2.385  -4.067  1.00  0.00     0.188 HD
HETATM   25  N3  UNL     1       8.040   2.441  -0.890  1.00  0.00    -0.022 N 
HETATM   26  C12 UNL     1       7.402   3.557  -0.517  1.00  0.00     0.693 A 
ATOM     27  H3  UNL     1       8.548   1.907  -0.185  1.00  0.00     0.203 HD
HETATM   28  N5  UNL     1       6.732   4.255  -1.459  1.00  0.00    -0.154 N 
ATOM     29  H5  UNL     1       6.237   5.109  -1.202  1.00  0.00     0.188 HD
BRANCH  23  30
HETATM   30  N2  UNL     1       8.641   0.935  -2.525  1.00  0.00    -0.219 N 
ATOM     31  H2  UNL     1       8.128   0.061  -2.409  1.00  0.00     0.178 HD
BRANCH  30  32
HETATM   32  C8  UNL     1       9.954   0.828  -3.071  1.00  0.00     0.125 C 
HETATM   33  C9  UNL     1       9.971   0.303  -4.500  1.00  0.00     0.054 C 
HETATM   34  C10 UNL     1      11.193   1.028  -5.038  1.00  0.00     0.169 C 
HETATM   35  O4  UNL     1      11.301   2.219  -4.379  1.00  0.00    -0.389 OA
HETATM   36  C11 UNL     1      10.518   2.213  -3.260  1.00  0.00     0.193 C 
ENDBRANCH  30  32
ENDBRANCH  23  30
BRANCH  26  37
HETATM   37  N4  UNL     1       7.441   3.931   0.709  1.00  0.00    -0.234 N 
ATOM     38  H42 UNL     1       7.185   3.307   1.473  1.00  0.00     0.174 HD
ATOM     39  H41 UNL     1       7.737   4.880   0.938  1.00  0.00     0.174 HD
ENDBRANCH  26  37
ENDBRANCH   1  21
TORSDOF 8
ENDMDL
MODEL 3
REMARK VINA RESULT: -10.065132775      3.010      8.626
REMARK  8 active torsions:
REMARK  status: ('A' for Active; 'I' for Inactive)
REMARK    1  A    between atoms: O1_2  and  C2_3 
REMARK    2  A    between atoms: C2_3  and  C3_5 
REMARK    3  A    between atoms: C5_7  and  O3_8 
REMARK    4  A    between atoms: O3_8  and  C6_9 
REMARK    5  A    between atoms: C7_12  and  N2_13 
REMARK    6  A    between atoms: N2_13  and  C8_15 
REMARK    7  A    between atoms: C12_22  and  N4_23 
REMARK    8  A    between atoms: C13_29  and  C14_30 
ROOT
HETATM    1  O3  UNL     1       7.910   6.930  -4.992  1.00  0.00    -0.271 OA
ENDROOT
BRANCH   1   2
HETATM    2  C5  UNL     1       7.896   5.631  -4.432  1.00  0.00     0.122 A 
HETATM    3  C4  UNL     1       8.926   4.747  -4.389  1.00  0.00     0.064 A 
HETATM    4  C3  UNL     1       8.708   3.538  -3.803  1.00  0.00     0.064 A 
HETATM    5  C13 UNL     1       7.475   3.303  -3.301  1.00  0.00     0.076 A 
HETATM    6  S1  UNL     1       6.642   4.792  -3.666  1.00  0.00    -0.060 SA
BRANCH   4   7
HETATM    7  C2  UNL     1       9.814   2.553  -3.740  1.00  0.00     0.294 C 
HETATM    8  O2  UNL     1      10.877   2.799  -3.063  1.00  0.00    -0.259 OA
BRANCH   7   9
HETATM    9  O1  UNL     1       9.819   1.344  -4.362  1.00  0.00    -0.322 OA
HETATM   10  C1  UNL     1      10.981   0.818  -5.020  1.00  0.00     0.213 C 
ENDBRANCH   7   9
ENDBRANCH   4   7
BRANCH   5  11
HETATM   11  C14 UNL     1       6.827   2.196  -2.618  1.00  0.00     0.184 A 
HETATM   12  N6  UNL     1       7.165   0.948  -2.410  1.00  0.00    -0.275 N 
HETATM   13  N7  UNL     1       6.256   0.277  -1.725  1.00  0.00    -0.263 N 
ATOM     14  H6  UNL     1       8.037   0.537  -2.743  1.00  0.00     0.189 HD
HETATM   15  C15 UNL     1       5.276   1.171  -1.484  1.00  0.00     0.238 A 
ATOM     16  H7  UNL     1       6.289  -0.702  -1.441  1.00  0.00     0.190 HD
HETATM   17  N8  UNL     1       4.206   0.865  -0.827  1.00  0.00    -0.364 N 
HETATM   18  O5  UNL     1       5.628   2.299  -2.019  1.00  0.00    -0.259 OA
ATOM     19  H82 UNL     1       3.929  -0.022  -0.407  1.00  0.00     0.159 HD
ATOM     20  H81 UNL     1       3.464   1.541  -0.645  1.00  0.00     0.159 HD
ENDBRANCH   5  11
ENDBRANCH   1   2
BRANCH   1  21
HETATM   21  C6  UNL     1       8.038   7.121  -6.359  1.00  0.00     0.258 A 
HETATM   22  N1  UNL     1       6.896   7.113  -7.087  1.00  0.00    -0.154 N 
HETATM   23  C7  UNL     1       6.963   7.294  -8.419  1.00  0.00     0.696 A 
ATOM     24  H1  UNL     1       5.995   6.971  -6.631  1.00  0.00     0.188 HD
HETATM   25  N3  UNL     1       8.176   7.479  -8.989  1.00  0.00    -0.022 N 
HETATM   26  C12 UNL     1       9.311   7.488  -8.278  1.00  0.00     0.693 A 
ATOM     27  H3  UNL     1       8.228   7.616  -9.999  1.00  0.00     0.203 HD
HETATM   28  N5  UNL     1       9.230   7.305  -6.944  1.00  0.00    -0.154 N 
ATOM     29  H5  UNL     1      10.078   7.307  -6.378  1.00  0.00     0.188 HD
BRANCH  23  30
HETATM   30  N2  UNL     1       5.884   7.286  -9.091  1.00  0.00    -0.219 N 
ATOM     31  H2  UNL     1       5.484   6.369  -9.290  1.00  0.00     0.178 HD
BRANCH  30  32
HETATM   32  C8  UNL     1       5.168   8.410  -9.596  1.00  0.00     0.125 C 
HETATM   33  C9  UNL     1       4.168   8.046 -10.686  1.00  0.00     0.054 C 
HETATM   34  C10 UNL     1       3.101   9.099 -10.435  1.00  0.00     0.169 C 
HETATM   35  O4  UNL     1       3.107   9.394  -9.103  1.00  0.00    -0.389 OA
HETATM   36  C11 UNL     1       4.251   8.930  -8.519  1.00  0.00     0.193 C 
ENDBRANCH  30  32
ENDBRANCH  23  30
BRANCH  26  37
HETATM   37  N4  UNL     1      10.432   7.667  -8.875  1.00  0.00    -0.234 N 
ATOM     38  H42 UNL     1      10.486   7.929  -9.859  1.00  0.00     0.174 HD
ATOM     39  H41 UNL     1      11.303   7.548  -8.358  1.00  0.00     0.174 HD
ENDBRANCH  26  37
ENDBRANCH   1  21
TORSDOF 8
ENDMDL
MODEL 4
REMARK VINA RESULT: -9.854981240      3.356      7.918
REMARK  8 active torsions:
REMARK  status: ('A' for Active; 'I' for Inactive)
REMARK    1  A    between atoms: O1_2  and  C2_3 
REMARK    2  A    between atoms: C2_3  and  C3_5 
REMARK    3  A    between atoms: C5_7  and  O3_8 
REMARK    4  A    between atoms: O3_8  and  C6_9 
REMARK    5  A    between atoms: C7_12  and  N2_13 
REMARK    6  A    between atoms: N2_13  and  C8_15 
REMARK    7  A    between atoms: C12_22  and  N4_23 
REMARK    8  A    between atoms: C13_29  and  C14_30 
ROOT
HETATM    1  O3  UNL     1       7.877   6.850  -5.000  1.00  0.00    -0.271 OA
ENDROOT
BRANCH   1   2
HETATM    2  C5  UNL     1       7.851   5.559  -4.424  1.00  0.00     0.122 A 
HETATM    3  C4  UNL     1       8.887   4.687  -4.321  1.00  0.00     0.064 A 
HETATM    4  C3  UNL     1       8.656   3.484  -3.729  1.00  0.00     0.064 A 
HETATM    5  C13 UNL     1       7.403   3.241  -3.282  1.00  0.00     0.076 A 
HETATM    6  S1  UNL     1       6.572   4.715  -3.706  1.00  0.00    -0.060 SA
BRANCH   4   7
HETATM    7  C2  UNL     1       9.768   2.513  -3.601  1.00  0.00     0.294 C 
HETATM    8  O2  UNL     1      10.837   2.817  -2.959  1.00  0.00    -0.259 OA
BRANCH   7   9
HETATM    9  O1  UNL     1       9.773   1.258  -4.126  1.00  0.00    -0.322 OA
HETATM   10  C1  UNL     1      10.788   0.804  -5.034  1.00  0.00     0.213 C 
ENDBRANCH   7   9
ENDBRANCH   4   7
BRANCH   5  11
HETATM   11  C14 UNL     1       6.736   2.136  -2.615  1.00  0.00     0.184 A 
HETATM   12  N6  UNL     1       7.028   0.867  -2.470  1.00  0.00    -0.275 N 
HETATM   13  N7  UNL     1       6.120   0.207  -1.773  1.00  0.00    -0.263 N 
ATOM     14  H6  UNL     1       7.867   0.434  -2.854  1.00  0.00     0.189 HD
HETATM   15  C15 UNL     1       5.189   1.131  -1.457  1.00  0.00     0.238 A 
ATOM     16  H7  UNL     1       6.122  -0.782  -1.528  1.00  0.00     0.190 HD
HETATM   17  N8  UNL     1       4.135   0.844  -0.767  1.00  0.00    -0.364 N 
HETATM   18  O5  UNL     1       5.568   2.264  -1.962  1.00  0.00    -0.259 OA
ATOM     19  H82 UNL     1       3.837  -0.046  -0.370  1.00  0.00     0.159 HD
ATOM     20  H81 UNL     1       3.431   1.543  -0.528  1.00  0.00     0.159 HD
ENDBRANCH   5  11
ENDBRANCH   1   2
BRANCH   1  21
HETATM   21  C6  UNL     1       8.063   7.025  -6.363  1.00  0.00     0.258 A 
HETATM   22  N1  UNL     1       9.322   7.305  -6.777  1.00  0.00    -0.154 N 
HETATM   23  C7  UNL     1       9.558   7.484  -8.091  1.00  0.00     0.696 A 
ATOM     24  H1  UNL     1      10.083   7.380  -6.102  1.00  0.00     0.188 HD
HETATM   25  N3  UNL     1       8.524   7.377  -8.957  1.00  0.00    -0.022 N 
HETATM   26  C12 UNL     1       7.277   7.101  -8.557  1.00  0.00     0.693 A 
ATOM     27  H3  UNL     1       8.702   7.513  -9.952  1.00  0.00     0.203 HD
HETATM   28  N5  UNL     1       7.053   6.924  -7.238  1.00  0.00    -0.154 N 
ATOM     29  H5  UNL     1       6.112   6.713  -6.905  1.00  0.00     0.188 HD
BRANCH  23  30
HETATM   30  N2  UNL     1      10.744   7.745  -8.466  1.00  0.00    -0.219 N 
ATOM     31  H2  UNL     1      10.859   8.009  -9.445  1.00  0.00     0.178 HD
BRANCH  30  32
HETATM   32  C8  UNL     1      11.931   7.713  -7.678  1.00  0.00     0.125 C 
HETATM   33  C9  UNL     1      13.095   7.017  -8.370  1.00  0.00     0.054 C 
HETATM   34  C10 UNL     1      14.261   7.796  -7.785  1.00  0.00     0.169 C 
HETATM   35  O4  UNL     1      13.830   9.065  -7.524  1.00  0.00    -0.389 OA
HETATM   36  C11 UNL     1      12.466   9.115  -7.543  1.00  0.00     0.193 C 
ENDBRANCH  30  32
ENDBRANCH  23  30
BRANCH  26  37
HETATM   37  N4  UNL     1       6.337   7.014  -9.425  1.00  0.00    -0.234 N 
ATOM     38  H42 UNL     1       6.344   7.557 -10.288  1.00  0.00     0.174 HD
ATOM     39  H41 UNL     1       5.553   6.382  -9.258  1.00  0.00     0.174 HD
ENDBRANCH  26  37
ENDBRANCH   1  21
TORSDOF 8
ENDMDL
MODEL 5
REMARK VINA RESULT: -9.782446575      2.724      8.472
REMARK  8 active torsions:
REMARK  status: ('A' for Active; 'I' for Inactive)
REMARK    1  A    between atoms: O1_2  and  C2_3 
REMARK    2  A    between atoms: C2_3  and  C3_5 
REMARK    3  A    between atoms: C5_7  and  O3_8 
REMARK    4  A    between atoms: O3_8  and  C6_9 
REMARK    5  A    between atoms: C7_12  and  N2_13 
REMARK    6  A    between atoms: N2_13  and  C8_15 
REMARK    7  A    between atoms: C12_22  and  N4_23 
REMARK    8  A    between atoms: C13_29  and  C14_30 
ROOT
HETATM    1  O3  UNL     1       7.997   6.749  -5.240  1.00  0.00    -0.271 OA
ENDROOT
BRANCH   1   2
HETATM    2  C5  UNL     1       7.963   5.487  -4.604  1.00  0.00     0.122 A 
HETATM    3  C4  UNL     1       9.003   4.634  -4.421  1.00  0.00     0.064 A 
HETATM    4  C3  UNL     1       8.762   3.457  -3.781  1.00  0.00     0.064 A 
HETATM    5  C13 UNL     1       7.497   3.221  -3.367  1.00  0.00     0.076 A 
HETATM    6  S1  UNL     1       6.667   4.664  -3.892  1.00  0.00    -0.060 SA
BRANCH   4   7
HETATM    7  C2  UNL     1       9.879   2.506  -3.565  1.00  0.00     0.294 C 
HETATM    8  O2  UNL     1      10.926   2.858  -2.912  1.00  0.00    -0.259 OA
BRANCH   7   9
HETATM    9  O1  UNL     1       9.910   1.223  -4.017  1.00  0.00    -0.322 OA
HETATM   10  C1  UNL     1      10.836   0.779  -5.018  1.00  0.00     0.213 C 
ENDBRANCH   7   9
ENDBRANCH   4   7
BRANCH   5  11
HETATM   11  C14 UNL     1       6.817   2.142  -2.672  1.00  0.00     0.184 A 
HETATM   12  N6  UNL     1       7.095   0.875  -2.491  1.00  0.00    -0.275 N 
HETATM   13  N7  UNL     1       6.179   0.244  -1.779  1.00  0.00    -0.263 N 
ATOM     14  H6  UNL     1       7.932   0.422  -2.861  1.00  0.00     0.189 HD
HETATM   15  C15 UNL     1       5.257   1.185  -1.492  1.00  0.00     0.238 A 
ATOM     16  H7  UNL     1       6.170  -0.739  -1.507  1.00  0.00     0.190 HD
HETATM   17  N8  UNL     1       4.198   0.928  -0.797  1.00  0.00    -0.364 N 
HETATM   18  O5  UNL     1       5.648   2.300  -2.027  1.00  0.00    -0.259 OA
ATOM     19  H82 UNL     1       3.889   0.051  -0.377  1.00  0.00     0.159 HD
ATOM     20  H81 UNL     1       3.500   1.640  -0.580  1.00  0.00     0.159 HD
ENDBRANCH   5  11
ENDBRANCH   1   2
BRANCH   1  21
HETATM   21  C6  UNL     1       6.940   7.639  -5.127  1.00  0.00     0.258 A 
HETATM   22  N1  UNL     1       6.034   7.644  -6.135  1.00  0.00    -0.154 N 
HETATM   23  C7  UNL     1       4.988   8.489  -6.074  1.00  0.00     0.696 A 
ATOM     24  H1  UNL     1       6.144   7.015  -6.930  1.00  0.00     0.188 HD
HETATM   25  N3  UNL     1       4.876   9.308  -5.004  1.00  0.00    -0.022 N 
HETATM   26  C12 UNL     1       5.765   9.311  -4.004  1.00  0.00     0.693 A 
ATOM     27  H3  UNL     1       4.083   9.949  -4.958  1.00  0.00     0.203 HD
HETATM   28  N5  UNL     1       6.810   8.460  -4.076  1.00  0.00    -0.154 N 
ATOM     29  H5  UNL     1       7.503   8.441  -3.328  1.00  0.00     0.188 HD
BRANCH  23  30
HETATM   30  N2  UNL     1       4.145   8.483  -7.026  1.00  0.00    -0.219 N 
ATOM     31  H2  UNL     1       3.346   7.858  -6.916  1.00  0.00     0.178 HD
BRANCH  30  32
HETATM   32  C8  UNL     1       4.187   9.248  -8.227  1.00  0.00     0.125 C 
HETATM   33  C9  UNL     1       4.700   8.460  -9.426  1.00  0.00     0.054 C 
HETATM   34  C10 UNL     1       3.915   9.128 -10.543  1.00  0.00     0.169 C 
HETATM   35  O4  UNL     1       2.726   9.554 -10.025  1.00  0.00    -0.389 OA
HETATM   36  C11 UNL     1       2.776   9.555  -8.661  1.00  0.00     0.193 C 
ENDBRANCH  30  32
ENDBRANCH  23  30
BRANCH  26  37
HETATM   37  N4  UNL     1       5.606  10.112  -3.016  1.00  0.00    -0.234 N 
ATOM     38  H42 UNL     1       5.334  11.086  -3.146  1.00  0.00     0.174 HD
ATOM     39  H41 UNL     1       5.753   9.775  -2.064  1.00  0.00     0.174 HD
ENDBRANCH  26  37
ENDBRANCH   1  21
TORSDOF 8
ENDMDL
