MODEL 1
REMARK VINA RESULT: -4.223215428      0.000      0.000
REMARK  5 active torsions:
REMARK  status: ('A' for Active; 'I' for Inactive)
REMARK    1  A    between atoms: C2_2  and  N1_3 
REMARK    2  A    between atoms: C2_2  and  C3_7 
REMARK    3  A    between atoms: C4_8  and  C5_9 
REMARK    4  A    between atoms: C5_9  and  N3_13 
REMARK    5  A    between atoms: N3_13  and  N4_15 
ROOT
HETATM    1  C5  UNL     1      27.980 137.319 147.148  1.00  0.00     0.112 C 
HETATM    2  N2  UNL     1      26.713 137.468 146.931  1.00  0.00    -0.384 N 
ATOM      3  H21 UNL     1      26.307 137.059 146.089  1.00  0.00     0.157 HD
ATOM      4  H22 UNL     1      26.163 137.990 147.613  1.00  0.00     0.157 HD
ENDROOT
BRANCH   1   5
HETATM    5  C4  UNL     1      28.558 137.900 148.346  1.00  0.00     0.047 C 
HETATM    6  C3  UNL     1      28.086 137.620 149.542  1.00  0.00     0.009 C 
BRANCH   6   7
HETATM    7  C2  UNL     1      28.682 138.219 150.756  1.00  0.00     0.202 C 
HETATM    8  C1  UNL     1      30.200 138.224 150.649  1.00  0.00     0.044 C 
BRANCH   7   9
HETATM    9  N1  UNL     1      28.349 137.475 151.954  1.00  0.00    -0.072 N 
ATOM     10  H13 UNL     1      28.780 136.551 151.987  1.00  0.00     0.275 HD
ATOM     11  H12 UNL     1      28.788 137.850 152.795  1.00  0.00     0.275 HD
ATOM     12  H11 UNL     1      27.331 137.446 152.011  1.00  0.00     0.275 HD
ENDBRANCH   7   9
ENDBRANCH   6   7
ENDBRANCH   1   5
BRANCH   1  13
HETATM   13  N3  UNL     1      28.737 136.599 146.207  1.00  0.00    -0.292 N 
ATOM     14  H3  UNL     1      29.755 136.601 146.279  1.00  0.00     0.188 HD
BRANCH  13  15
HETATM   15  N4  UNL     1      28.124 135.882 145.176  1.00  0.00    -0.344 N 
ATOM     16  H42 UNL     1      27.123 135.697 145.243  1.00  0.00     0.176 HD
ATOM     17  H41 UNL     1      28.657 135.547 144.373  1.00  0.00     0.176 HD
ENDBRANCH  13  15
ENDBRANCH   1  13
TORSDOF 5
ENDMDL
MODEL 2
REMARK VINA RESULT: -4.149565878      1.583      4.605
REMARK  5 active torsions:
REMARK  status: ('A' for Active; 'I' for Inactive)
REMARK    1  A    between atoms: C2_2  and  N1_3 
REMARK    2  A    between atoms: C2_2  and  C3_7 
REMARK    3  A    between atoms: C4_8  and  C5_9 
REMARK    4  A    between atoms: C5_9  and  N3_13 
REMARK    5  A    between atoms: N3_13  and  N4_15 
ROOT
HETATM    1  C5  UNL     1      28.709 137.935 150.842  1.00  0.00     0.112 C 
HETATM    2  N2  UNL     1      28.159 137.338 151.849  1.00  0.00    -0.384 N 
ATOM      3  H21 UNL     1      28.534 137.502 152.783  1.00  0.00     0.157 HD
ATOM      4  H22 UNL     1      27.365 136.722 151.673  1.00  0.00     0.157 HD
ENDROOT
BRANCH   1   5
HETATM    5  C4  UNL     1      28.174 137.702 149.513  1.00  0.00     0.047 C 
HETATM    6  C3  UNL     1      27.222 136.817 149.300  1.00  0.00     0.009 C 
BRANCH   6   7
HETATM    7  C2  UNL     1      26.686 136.588 147.941  1.00  0.00     0.202 C 
HETATM    8  C1  UNL     1      27.504 135.523 147.225  1.00  0.00     0.044 C 
BRANCH   7   9
HETATM    9  N1  UNL     1      26.742 137.781 147.121  1.00  0.00    -0.072 N 
ATOM     10  H13 UNL     1      27.191 137.628 146.219  1.00  0.00     0.275 HD
ATOM     11  H12 UNL     1      25.830 138.066 146.764  1.00  0.00     0.275 HD
ATOM     12  H11 UNL     1      27.198 138.503 147.680  1.00  0.00     0.275 HD
ENDBRANCH   7   9
ENDBRANCH   6   7
ENDBRANCH   1   5
BRANCH   1  13
HETATM   13  N3  UNL     1      29.802 138.784 151.086  1.00  0.00    -0.292 N 
ATOM     14  H3  UNL     1      29.640 139.782 151.221  1.00  0.00     0.188 HD
BRANCH  13  15
HETATM   15  N4  UNL     1      31.108 138.287 151.148  1.00  0.00    -0.344 N 
ATOM     16  H42 UNL     1      31.759 138.716 151.806  1.00  0.00     0.176 HD
ATOM     17  H41 UNL     1      31.411 137.516 150.553  1.00  0.00     0.176 HD
ENDBRANCH  13  15
ENDBRANCH   1  13
TORSDOF 5
ENDMDL
MODEL 3
REMARK VINA RESULT: -4.118274422      1.313      4.659
REMARK  5 active torsions:
REMARK  status: ('A' for Active; 'I' for Inactive)
REMARK    1  A    between atoms: C2_2  and  N1_3 
REMARK    2  A    between atoms: C2_2  and  C3_7 
REMARK    3  A    between atoms: C4_8  and  C5_9 
REMARK    4  A    between atoms: C5_9  and  N3_13 
REMARK    5  A    between atoms: N3_13  and  N4_15 
ROOT
HETATM    1  C5  UNL     1      28.551 137.795 150.949  1.00  0.00     0.112 C 
HETATM    2  N2  UNL     1      28.112 137.263 152.043  1.00  0.00    -0.384 N 
ATOM      3  H21 UNL     1      28.481 137.595 152.935  1.00  0.00     0.157 HD
ATOM      4  H22 UNL     1      27.409 136.527 151.976  1.00  0.00     0.157 HD
ENDROOT
BRANCH   1   5
HETATM    5  C4  UNL     1      28.026 137.323 149.681  1.00  0.00     0.047 C 
HETATM    6  C3  UNL     1      28.335 137.915 148.546  1.00  0.00     0.009 C 
BRANCH   6   7
HETATM    7  C2  UNL     1      27.792 137.425 147.260  1.00  0.00     0.202 C 
HETATM    8  C1  UNL     1      26.745 136.348 147.506  1.00  0.00     0.044 C 
BRANCH   7   9
HETATM    9  N1  UNL     1      28.816 136.832 146.424  1.00  0.00    -0.072 N 
ATOM     10  H13 UNL     1      29.145 135.930 146.770  1.00  0.00     0.275 HD
ATOM     11  H12 UNL     1      28.461 136.503 145.527  1.00  0.00     0.275 HD
ATOM     12  H11 UNL     1      29.561 137.523 146.333  1.00  0.00     0.275 HD
ENDBRANCH   7   9
ENDBRANCH   6   7
ENDBRANCH   1   5
BRANCH   1  13
HETATM   13  N3  UNL     1      29.521 138.809 151.043  1.00  0.00    -0.292 N 
ATOM     14  H3  UNL     1      29.223 139.784 151.073  1.00  0.00     0.188 HD
BRANCH  13  15
HETATM   15  N4  UNL     1      30.885 138.508 151.096  1.00  0.00    -0.344 N 
ATOM     16  H42 UNL     1      31.239 138.005 151.909  1.00  0.00     0.176 HD
ATOM     17  H41 UNL     1      31.518 138.781 150.343  1.00  0.00     0.176 HD
ENDBRANCH  13  15
ENDBRANCH   1  13
TORSDOF 5
ENDMDL
MODEL 4
REMARK VINA RESULT: -4.048120492      1.464      1.813
REMARK  5 active torsions:
REMARK  status: ('A' for Active; 'I' for Inactive)
REMARK    1  A    between atoms: C2_2  and  N1_3 
REMARK    2  A    between atoms: C2_2  and  C3_7 
REMARK    3  A    between atoms: C4_8  and  C5_9 
REMARK    4  A    between atoms: C5_9  and  N3_13 
REMARK    5  A    between atoms: N3_13  and  N4_15 
ROOT
HETATM    1  C5  UNL     1      27.882 138.146 147.742  1.00  0.00     0.112 C 
HETATM    2  N2  UNL     1      26.704 138.463 147.312  1.00  0.00    -0.384 N 
ATOM      3  H21 UNL     1      26.624 139.019 146.461  1.00  0.00     0.157 HD
ATOM      4  H22 UNL     1      25.893 138.142 147.842  1.00  0.00     0.157 HD
ENDROOT
BRANCH   1   5
HETATM    5  C4  UNL     1      27.996 137.353 148.953  1.00  0.00     0.047 C 
HETATM    6  C3  UNL     1      28.812 137.700 149.926  1.00  0.00     0.009 C 
BRANCH   6   7
HETATM    7  C2  UNL     1      28.920 136.884 151.155  1.00  0.00     0.202 C 
HETATM    8  C1  UNL     1      28.492 135.450 150.874  1.00  0.00     0.044 C 
BRANCH   7   9
HETATM    9  N1  UNL     1      28.066 137.376 152.217  1.00  0.00    -0.072 N 
ATOM     10  H13 UNL     1      27.097 137.506 151.926  1.00  0.00     0.275 HD
ATOM     11  H12 UNL     1      27.890 136.684 152.945  1.00  0.00     0.275 HD
ATOM     12  H11 UNL     1      28.497 138.230 152.571  1.00  0.00     0.275 HD
ENDBRANCH   7   9
ENDBRANCH   6   7
ENDBRANCH   1   5
BRANCH   1  13
HETATM   13  N3  UNL     1      28.999 138.588 147.012  1.00  0.00    -0.292 N 
ATOM     14  H3  UNL     1      29.132 139.587 146.857  1.00  0.00     0.188 HD
BRANCH  13  15
HETATM   15  N4  UNL     1      29.933 137.684 146.493  1.00  0.00    -0.344 N 
ATOM     16  H42 UNL     1      30.780 137.501 147.031  1.00  0.00     0.176 HD
ATOM     17  H41 UNL     1      29.778 137.216 145.601  1.00  0.00     0.176 HD
ENDBRANCH  13  15
ENDBRANCH   1  13
TORSDOF 5
ENDMDL
MODEL 5
REMARK VINA RESULT: -4.003832443      1.186      4.708
REMARK  5 active torsions:
REMARK  status: ('A' for Active; 'I' for Inactive)
REMARK    1  A    between atoms: C2_2  and  N1_3 
REMARK    2  A    between atoms: C2_2  and  C3_7 
REMARK    3  A    between atoms: C4_8  and  C5_9 
REMARK    4  A    between atoms: C5_9  and  N3_13 
REMARK    5  A    between atoms: N3_13  and  N4_15 
ROOT
HETATM    1  C5  UNL     1      28.567 137.700 151.009  1.00  0.00     0.112 C 
HETATM    2  N2  UNL     1      29.305 138.760 151.086  1.00  0.00    -0.384 N 
ATOM      3  H21 UNL     1      29.679 139.033 151.995  1.00  0.00     0.157 HD
ATOM      4  H22 UNL     1      29.488 139.285 150.232  1.00  0.00     0.157 HD
ENDROOT
BRANCH   1   5
HETATM    5  C4  UNL     1      28.035 137.310 149.716  1.00  0.00     0.047 C 
HETATM    6  C3  UNL     1      28.445 137.883 148.603  1.00  0.00     0.009 C 
BRANCH   6   7
HETATM    7  C2  UNL     1      27.895 137.478 147.291  1.00  0.00     0.202 C 
HETATM    8  C1  UNL     1      26.778 136.462 147.480  1.00  0.00     0.044 C 
BRANCH   7   9
HETATM    9  N1  UNL     1      28.894 136.851 146.449  1.00  0.00    -0.072 N 
ATOM     10  H13 UNL     1      29.843 137.163 146.651  1.00  0.00     0.275 HD
ATOM     11  H12 UNL     1      29.035 135.864 146.660  1.00  0.00     0.275 HD
ATOM     12  H11 UNL     1      28.613 137.020 145.482  1.00  0.00     0.275 HD
ENDBRANCH   7   9
ENDBRANCH   6   7
ENDBRANCH   1   5
BRANCH   1  13
HETATM   13  N3  UNL     1      28.314 136.976 152.187  1.00  0.00    -0.292 N 
ATOM     14  H3  UNL     1      28.053 137.477 153.036  1.00  0.00     0.188 HD
BRANCH  13  15
HETATM   15  N4  UNL     1      28.415 135.581 152.218  1.00  0.00    -0.344 N 
ATOM     16  H42 UNL     1      29.292 135.152 151.926  1.00  0.00     0.176 HD
ATOM     17  H41 UNL     1      27.634 135.000 152.525  1.00  0.00     0.176 HD
ENDBRANCH  13  15
ENDBRANCH   1  13
TORSDOF 5
ENDMDL
