MODEL 1
REMARK VINA RESULT: -3.848037109      0.000      0.000
REMARK  2 active torsions:
REMARK  status: ('A' for Active; 'I' for Inactive)
REMARK    1  A    between atoms: C3_4  and  N1_5 
REMARK    2  A    between atoms: N1_5  and  N2_7 
REMARK       I    between atoms: N2_7  and  C4_9 
ROOT
HETATM    1  N2  UNL     1      27.025 136.383 147.286  1.00  0.00    -0.276 N 
ATOM      2  H2  UNL     1      26.638 135.967 148.134  1.00  0.00     0.189 HD
HETATM    3  C4  UNL     1      27.774 135.577 146.399  1.00  0.00     0.200 C 
HETATM    4  N3  UNL     1      28.657 136.040 145.577  1.00  0.00    -0.372 N 
ATOM      5  H31 UNL     1      29.198 135.459 144.937  1.00  0.00     0.158 HD
ATOM      6  H32 UNL     1      28.787 137.051 145.606  1.00  0.00     0.158 HD
HETATM    7  N4  UNL     1      27.590 134.146 146.358  1.00  0.00    -0.062 NA
ENDROOT
BRANCH   1   8
HETATM    8  N1  UNL     1      26.809 137.704 147.032  1.00  0.00    -0.299 N 
ATOM      9  H1  UNL     1      26.169 138.025 146.305  1.00  0.00     0.183 HD
BRANCH   8  10
HETATM   10  C3  UNL     1      27.553 138.616 147.866  1.00  0.00     0.299 A 
HETATM   11  C2  UNL     1      28.483 138.232 148.850  1.00  0.00     0.090 A 
HETATM   12  C1  UNL     1      28.917 137.861 150.040  1.00  0.00     0.051 C 
HETATM   13  O1  UNL     1      28.996 138.510 147.512  1.00  0.00    -0.319 OA
ENDBRANCH   8  10
ENDBRANCH   1   8
TORSDOF 2
ENDMDL
MODEL 2
REMARK VINA RESULT: -3.779134110      2.537      4.724
REMARK  2 active torsions:
REMARK  status: ('A' for Active; 'I' for Inactive)
REMARK    1  A    between atoms: C3_4  and  N1_5 
REMARK    2  A    between atoms: N1_5  and  N2_7 
REMARK       I    between atoms: N2_7  and  C4_9 
ROOT
HETATM    1  N2  UNL     1      28.694 136.690 146.640  1.00  0.00    -0.276 N 
ATOM      2  H2  UNL     1      29.598 136.376 146.991  1.00  0.00     0.189 HD
HETATM    3  C4  UNL     1      27.988 137.692 147.343  1.00  0.00     0.200 C 
HETATM    4  N3  UNL     1      26.707 137.850 147.282  1.00  0.00    -0.372 N 
ATOM      5  H31 UNL     1      26.197 138.572 147.790  1.00  0.00     0.158 HD
ATOM      6  H32 UNL     1      26.219 137.189 146.678  1.00  0.00     0.158 HD
HETATM    7  N4  UNL     1      28.679 138.627 148.199  1.00  0.00    -0.062 NA
ENDROOT
BRANCH   1   8
HETATM    8  N1  UNL     1      28.189 136.135 145.502  1.00  0.00    -0.299 N 
ATOM      9  H1  UNL     1      28.191 136.623 144.606  1.00  0.00     0.183 HD
BRANCH   8  10
HETATM   10  C3  UNL     1      27.649 134.806 145.658  1.00  0.00     0.299 A 
HETATM   11  C2  UNL     1      27.183 133.998 144.605  1.00  0.00     0.090 A 
HETATM   12  C1  UNL     1      26.322 133.509 143.730  1.00  0.00     0.051 C 
HETATM   13  O1  UNL     1      28.577 133.840 145.006  1.00  0.00    -0.319 OA
ENDBRANCH   8  10
ENDBRANCH   1   8
TORSDOF 2
ENDMDL
MODEL 3
REMARK VINA RESULT: -3.740530246      1.996      3.981
REMARK  2 active torsions:
REMARK  status: ('A' for Active; 'I' for Inactive)
REMARK    1  A    between atoms: C3_4  and  N1_5 
REMARK    2  A    between atoms: N1_5  and  N2_7 
REMARK       I    between atoms: N2_7  and  C4_9 
ROOT
HETATM    1  N2  UNL     1      27.076 137.800 147.952  1.00  0.00    -0.276 N 
ATOM      2  H2  UNL     1      26.321 137.890 148.632  1.00  0.00     0.189 HD
HETATM    3  C4  UNL     1      28.347 138.341 148.253  1.00  0.00     0.200 C 
HETATM    4  N3  UNL     1      29.212 138.690 147.358  1.00  0.00    -0.372 N 
ATOM      5  H31 UNL     1      30.128 139.080 147.574  1.00  0.00     0.158 HD
ATOM      6  H32 UNL     1      28.916 138.546 146.392  1.00  0.00     0.158 HD
HETATM    7  N4  UNL     1      28.765 138.544 149.619  1.00  0.00    -0.062 NA
ENDROOT
BRANCH   1   8
HETATM    8  N1  UNL     1      26.840 137.160 146.772  1.00  0.00    -0.299 N 
ATOM      9  H1  UNL     1      26.273 137.571 146.030  1.00  0.00     0.183 HD
BRANCH   8  10
HETATM   10  C3  UNL     1      27.453 135.860 146.649  1.00  0.00     0.299 A 
HETATM   11  C2  UNL     1      27.588 135.144 145.445  1.00  0.00     0.090 A 
HETATM   12  C1  UNL     1      27.248 134.324 144.468  1.00  0.00     0.051 C 
HETATM   13  O1  UNL     1      28.701 135.998 145.848  1.00  0.00    -0.319 OA
ENDBRANCH   8  10
ENDBRANCH   1   8
TORSDOF 2
ENDMDL
MODEL 4
REMARK VINA RESULT: -3.632719977      2.309      3.665
REMARK  2 active torsions:
REMARK  status: ('A' for Active; 'I' for Inactive)
REMARK    1  A    between atoms: C3_4  and  N1_5 
REMARK    2  A    between atoms: N1_5  and  N2_7 
REMARK       I    between atoms: N2_7  and  C4_9 
ROOT
HETATM    1  N2  UNL     1      29.662 136.788 146.784  1.00  0.00    -0.276 N 
ATOM      2  H2  UNL     1      30.374 136.130 147.102  1.00  0.00     0.189 HD
HETATM    3  C4  UNL     1      29.633 138.093 147.327  1.00  0.00     0.200 C 
HETATM    4  N3  UNL     1      28.576 138.836 147.360  1.00  0.00    -0.372 N 
ATOM      5  H31 UNL     1      28.555 139.777 147.752  1.00  0.00     0.158 HD
ATOM      6  H32 UNL     1      27.739 138.414 146.959  1.00  0.00     0.158 HD
HETATM    7  N4  UNL     1      30.819 138.689 147.894  1.00  0.00    -0.062 NA
ENDROOT
BRANCH   1   8
HETATM    8  N1  UNL     1      28.759 136.392 145.844  1.00  0.00    -0.299 N 
ATOM      9  H1  UNL     1      28.770 136.749 144.888  1.00  0.00     0.183 HD
BRANCH   8  10
HETATM   10  C3  UNL     1      27.784 135.431 146.300  1.00  0.00     0.299 A 
HETATM   11  C2  UNL     1      27.632 135.009 147.633  1.00  0.00     0.090 A 
HETATM   12  C1  UNL     1      27.849 134.285 148.716  1.00  0.00     0.051 C 
HETATM   13  O1  UNL     1      26.811 136.129 147.186  1.00  0.00    -0.319 OA
ENDBRANCH   8  10
ENDBRANCH   1   8
TORSDOF 2
ENDMDL
MODEL 5
REMARK VINA RESULT: -3.596529988      1.823      1.953
REMARK  2 active torsions:
REMARK  status: ('A' for Active; 'I' for Inactive)
REMARK    1  A    between atoms: C3_4  and  N1_5 
REMARK    2  A    between atoms: N1_5  and  N2_7 
REMARK       I    between atoms: N2_7  and  C4_9 
ROOT
HETATM    1  N2  UNL     1      26.930 136.179 146.960  1.00  0.00    -0.276 N 
ATOM      2  H2  UNL     1      26.238 135.431 146.984  1.00  0.00     0.189 HD
HETATM    3  C4  UNL     1      28.017 136.089 146.059  1.00  0.00     0.200 C 
HETATM    4  N3  UNL     1      29.147 136.692 146.230  1.00  0.00    -0.372 N 
ATOM      5  H31 UNL     1      29.930 136.626 145.581  1.00  0.00     0.158 HD
ATOM      6  H32 UNL     1      29.212 137.255 147.078  1.00  0.00     0.158 HD
HETATM    7  N4  UNL     1      27.924 135.291 144.860  1.00  0.00    -0.062 NA
ENDROOT
BRANCH   1   8
HETATM    8  N1  UNL     1      26.791 137.247 147.795  1.00  0.00    -0.299 N 
ATOM      9  H1  UNL     1      26.483 138.163 147.467  1.00  0.00     0.183 HD
BRANCH   8  10
HETATM   10  C3  UNL     1      27.113 136.987 149.177  1.00  0.00     0.299 A 
HETATM   11  C2  UNL     1      27.817 135.861 149.642  1.00  0.00     0.090 A 
HETATM   12  C1  UNL     1      27.995 134.626 150.076  1.00  0.00     0.051 C 
HETATM   13  O1  UNL     1      28.591 137.060 149.340  1.00  0.00    -0.319 OA
ENDBRANCH   8  10
ENDBRANCH   1   8
TORSDOF 2
ENDMDL
