MODEL 1
REMARK VINA RESULT: -7.675898132      0.000      0.000
REMARK  6 active torsions:
REMARK  status: ('A' for Active; 'I' for Inactive)
REMARK    1  A    between atoms: C2_2  and  C4_4 
REMARK    2  A    between atoms: C4_4  and  S1_5 
REMARK    3  A    between atoms: C4_4  and  C15_22 
REMARK    4  A    between atoms: S1_5  and  C5_6 
REMARK    5  A    between atoms: N4_16  and  C10_17 
REMARK       I    between atoms: C15_22  and  N5_24 
REMARK    6  A    between atoms: N5_24  and  C16_26 
ROOT
HETATM    1  C5  UNL     1     -12.957 -55.937 -30.983  1.00  0.00     0.151 A 
HETATM    2  N1  UNL     1     -13.347 -55.850 -29.675  1.00  0.00    -0.319 N 
ATOM      3  H1  UNL     1     -13.149 -55.065 -29.055  1.00  0.00     0.169 HD
HETATM    4  C6  UNL     1     -14.026 -56.944 -29.332  1.00  0.00     0.155 A 
HETATM    5  C7  UNL     1     -14.085 -57.758 -30.421  1.00  0.00     0.156 A 
HETATM    6  N2  UNL     1     -14.778 -58.880 -30.079  1.00  0.00    -0.335 N 
ATOM      7  H2  UNL     1     -14.992 -59.677 -30.678  1.00  0.00     0.168 HD
HETATM    8  C8  UNL     1     -15.126 -58.720 -28.781  1.00  0.00     0.185 A 
HETATM    9  N3  UNL     1     -14.675 -57.551 -28.321  1.00  0.00    -0.331 N 
HETATM   10  C9  UNL     1     -14.851 -57.039 -26.983  1.00  0.00     0.158 C 
HETATM   11  N4  UNL     1     -13.432 -57.131 -31.417  1.00  0.00    -0.305 N 
ENDROOT
BRANCH   1  12
HETATM   12  S1  UNL     1     -12.099 -54.720 -31.935  1.00  0.00    -0.079 SA
BRANCH  12  13
HETATM   13  C4  UNL     1     -10.384 -54.524 -31.649  1.00  0.00     0.150 C 
BRANCH  13  14
HETATM   14  C2  UNL     1      -9.389 -54.862 -32.685  1.00  0.00     0.001 C 
HETATM   15  C1  UNL     1      -9.841 -54.757 -34.097  1.00  0.00     0.011 C 
HETATM   16  C3  UNL     1      -8.127 -54.033 -32.439  1.00  0.00     0.011 C 
ENDBRANCH  13  14
BRANCH  13  17
HETATM   17  C15 UNL     1      -9.953 -55.103 -30.315  1.00  0.00     0.232 C 
HETATM   18  O1  UNL     1      -9.644 -56.299 -30.263  1.00  0.00    -0.272 OA
HETATM   19  N5  UNL     1      -9.930 -54.246 -29.213  1.00  0.00    -0.355 N 
ATOM     20  H5  UNL     1     -10.202 -53.274 -29.358  1.00  0.00     0.162 HD
BRANCH  19  21
HETATM   21  C16 UNL     1      -9.545 -54.651 -27.872  1.00  0.00     0.084 C 
HETATM   22  C17 UNL     1     -10.663 -55.381 -27.181  1.00  0.00     0.025 C 
HETATM   23  C18 UNL     1     -11.674 -54.473 -26.554  1.00  0.00     0.002 C 
HETATM   24  C19 UNL     1     -11.065 -53.350 -25.765  1.00  0.00     0.000 C 
HETATM   25  C20 UNL     1     -10.138 -52.551 -26.647  1.00  0.00     0.002 C 
HETATM   26  C21 UNL     1      -9.038 -53.466 -27.108  1.00  0.00     0.025 C 
ENDBRANCH  19  21
ENDBRANCH  13  17
ENDBRANCH  12  13
ENDBRANCH   1  12
BRANCH  11  27
HETATM   27  C10 UNL     1     -13.288 -57.602 -32.764  1.00  0.00     0.093 C 
HETATM   28  C11 UNL     1     -11.813 -57.751 -33.141  1.00  0.00     0.026 C 
HETATM   29  C12 UNL     1     -11.869 -57.850 -34.650  1.00  0.00     0.002 C 
HETATM   30  C13 UNL     1     -13.225 -57.325 -35.075  1.00  0.00     0.002 C 
HETATM   31  C14 UNL     1     -13.715 -56.602 -33.806  1.00  0.00     0.026 C 
ENDBRANCH  11  27
TORSDOF 6
ENDMDL
MODEL 2
REMARK VINA RESULT: -7.530116709      1.925      6.921
REMARK  6 active torsions:
REMARK  status: ('A' for Active; 'I' for Inactive)
REMARK    1  A    between atoms: C2_2  and  C4_4 
REMARK    2  A    between atoms: C4_4  and  S1_5 
REMARK    3  A    between atoms: C4_4  and  C15_22 
REMARK    4  A    between atoms: S1_5  and  C5_6 
REMARK    5  A    between atoms: N4_16  and  C10_17 
REMARK       I    between atoms: C15_22  and  N5_24 
REMARK    6  A    between atoms: N5_24  and  C16_26 
ROOT
HETATM    1  C5  UNL     1      -9.661 -54.507 -30.377  1.00  0.00     0.151 A 
HETATM    2  N1  UNL     1      -8.424 -54.391 -30.947  1.00  0.00    -0.319 N 
ATOM      3  H1  UNL     1      -8.228 -54.467 -31.945  1.00  0.00     0.169 HD
HETATM    4  C6  UNL     1      -7.511 -54.163 -30.003  1.00  0.00     0.155 A 
HETATM    5  C7  UNL     1      -8.151 -54.128 -28.802  1.00  0.00     0.156 A 
HETATM    6  N2  UNL     1      -7.224 -53.895 -27.831  1.00  0.00    -0.335 N 
ATOM      7  H2  UNL     1      -7.393 -53.813 -26.829  1.00  0.00     0.168 HD
HETATM    8  C8  UNL     1      -6.035 -53.794 -28.468  1.00  0.00     0.185 A 
HETATM    9  N3  UNL     1      -6.200 -53.955 -29.784  1.00  0.00    -0.331 N 
HETATM   10  C9  UNL     1      -5.157 -53.915 -30.782  1.00  0.00     0.158 C 
HETATM   11  N4  UNL     1      -9.458 -54.337 -29.047  1.00  0.00    -0.305 N 
ENDROOT
BRANCH   1  12
HETATM   12  S1  UNL     1     -11.209 -54.737 -31.199  1.00  0.00    -0.079 SA
BRANCH  12  13
HETATM   13  C4  UNL     1     -11.960 -56.315 -31.094  1.00  0.00     0.150 C 
BRANCH  13  14
HETATM   14  C2  UNL     1     -11.881 -57.278 -32.208  1.00  0.00     0.001 C 
HETATM   15  C1  UNL     1     -13.047 -57.323 -33.129  1.00  0.00     0.011 C 
HETATM   16  C3  UNL     1     -10.576 -57.037 -32.971  1.00  0.00     0.011 C 
ENDBRANCH  13  14
BRANCH  13  17
HETATM   17  C15 UNL     1     -13.384 -56.240 -30.578  1.00  0.00     0.232 C 
HETATM   18  O1  UNL     1     -14.019 -55.193 -30.748  1.00  0.00    -0.272 OA
HETATM   19  N5  UNL     1     -13.902 -57.367 -29.937  1.00  0.00    -0.355 N 
ATOM     20  H5  UNL     1     -13.299 -58.185 -29.848  1.00  0.00     0.162 HD
BRANCH  19  21
HETATM   21  C16 UNL     1     -15.244 -57.449 -29.388  1.00  0.00     0.084 C 
HETATM   22  C17 UNL     1     -15.249 -57.149 -27.914  1.00  0.00     0.025 C 
HETATM   23  C18 UNL     1     -14.890 -58.327 -27.062  1.00  0.00     0.002 C 
HETATM   24  C19 UNL     1     -15.599 -59.591 -27.456  1.00  0.00     0.000 C 
HETATM   25  C20 UNL     1     -15.316 -59.904 -28.905  1.00  0.00     0.002 C 
HETATM   26  C21 UNL     1     -15.856 -58.772 -29.734  1.00  0.00     0.025 C 
ENDBRANCH  19  21
ENDBRANCH  13  17
ENDBRANCH  12  13
ENDBRANCH   1  12
BRANCH  11  27
HETATM   27  C10 UNL     1     -10.513 -54.332 -28.075  1.00  0.00     0.093 C 
HETATM   28  C11 UNL     1     -10.247 -53.298 -26.979  1.00  0.00     0.026 C 
HETATM   29  C12 UNL     1     -11.210 -53.720 -25.890  1.00  0.00     0.002 C 
HETATM   30  C13 UNL     1     -11.621 -55.145 -26.196  1.00  0.00     0.002 C 
HETATM   31  C14 UNL     1     -10.570 -55.581 -27.235  1.00  0.00     0.026 C 
ENDBRANCH  11  27
TORSDOF 6
ENDMDL
MODEL 3
REMARK VINA RESULT: -7.095312576      1.901      6.154
REMARK  6 active torsions:
REMARK  status: ('A' for Active; 'I' for Inactive)
REMARK    1  A    between atoms: C2_2  and  C4_4 
REMARK    2  A    between atoms: C4_4  and  S1_5 
REMARK    3  A    between atoms: C4_4  and  C15_22 
REMARK    4  A    between atoms: S1_5  and  C5_6 
REMARK    5  A    between atoms: N4_16  and  C10_17 
REMARK       I    between atoms: C15_22  and  N5_24 
REMARK    6  A    between atoms: N5_24  and  C16_26 
ROOT
HETATM    1  C5  UNL     1     -13.770 -56.215 -30.324  1.00  0.00     0.151 A 
HETATM    2  N1  UNL     1     -14.640 -57.189 -30.733  1.00  0.00    -0.319 N 
ATOM      3  H1  UNL     1     -14.884 -57.386 -31.703  1.00  0.00     0.169 HD
HETATM    4  C6  UNL     1     -15.120 -57.840 -29.674  1.00  0.00     0.155 A 
HETATM    5  C7  UNL     1     -14.563 -57.294 -28.559  1.00  0.00     0.156 A 
HETATM    6  N2  UNL     1     -15.049 -57.955 -27.471  1.00  0.00    -0.335 N 
ATOM      7  H2  UNL     1     -14.820 -57.779 -26.493  1.00  0.00     0.168 HD
HETATM    8  C8  UNL     1     -15.896 -58.893 -27.954  1.00  0.00     0.185 A 
HETATM    9  N3  UNL     1     -15.944 -58.831 -29.287  1.00  0.00    -0.331 N 
HETATM   10  C9  UNL     1     -16.741 -59.671 -30.148  1.00  0.00     0.158 C 
HETATM   11  N4  UNL     1     -13.743 -56.308 -28.970  1.00  0.00    -0.305 N 
ENDROOT
BRANCH   1  12
HETATM   12  S1  UNL     1     -12.814 -55.129 -31.337  1.00  0.00    -0.079 SA
BRANCH  12  13
HETATM   13  C4  UNL     1     -11.390 -55.784 -32.115  1.00  0.00     0.150 C 
BRANCH  13  14
HETATM   14  C2  UNL     1     -10.051 -55.212 -31.873  1.00  0.00     0.001 C 
HETATM   15  C1  UNL     1      -9.993 -54.001 -31.014  1.00  0.00     0.011 C 
HETATM   16  C3  UNL     1      -9.137 -56.319 -31.343  1.00  0.00     0.011 C 
ENDBRANCH  13  14
BRANCH  13  17
HETATM   17  C15 UNL     1     -11.595 -56.002 -33.601  1.00  0.00     0.232 C 
HETATM   18  O1  UNL     1     -10.803 -55.473 -34.390  1.00  0.00    -0.272 OA
HETATM   19  N5  UNL     1     -12.674 -56.793 -33.999  1.00  0.00    -0.355 N 
ATOM     20  H5  UNL     1     -13.270 -57.187 -33.271  1.00  0.00     0.162 HD
BRANCH  19  21
HETATM   21  C16 UNL     1     -13.003 -57.090 -35.382  1.00  0.00     0.084 C 
HETATM   22  C17 UNL     1     -14.473 -57.363 -35.546  1.00  0.00     0.025 C 
HETATM   23  C18 UNL     1     -14.862 -58.769 -35.211  1.00  0.00     0.002 C 
HETATM   24  C19 UNL     1     -13.954 -59.803 -35.811  1.00  0.00     0.000 C 
HETATM   25  C20 UNL     1     -12.532 -59.549 -35.372  1.00  0.00     0.002 C 
HETATM   26  C21 UNL     1     -12.127 -58.196 -35.887  1.00  0.00     0.025 C 
ENDBRANCH  19  21
ENDBRANCH  13  17
ENDBRANCH  12  13
ENDBRANCH   1  12
BRANCH  11  27
HETATM   27  C10 UNL     1     -12.909 -55.495 -28.133  1.00  0.00     0.093 C 
HETATM   28  C11 UNL     1     -11.434 -55.864 -28.301  1.00  0.00     0.026 C 
HETATM   29  C12 UNL     1     -10.794 -55.217 -27.093  1.00  0.00     0.002 C 
HETATM   30  C13 UNL     1     -11.910 -54.925 -26.110  1.00  0.00     0.002 C 
HETATM   31  C14 UNL     1     -13.072 -55.772 -26.662  1.00  0.00     0.026 C 
ENDBRANCH  11  27
TORSDOF 6
ENDMDL
MODEL 4
REMARK VINA RESULT: -7.087583687      1.786      6.099
REMARK  6 active torsions:
REMARK  status: ('A' for Active; 'I' for Inactive)
REMARK    1  A    between atoms: C2_2  and  C4_4 
REMARK    2  A    between atoms: C4_4  and  S1_5 
REMARK    3  A    between atoms: C4_4  and  C15_22 
REMARK    4  A    between atoms: S1_5  and  C5_6 
REMARK    5  A    between atoms: N4_16  and  C10_17 
REMARK       I    between atoms: C15_22  and  N5_24 
REMARK    6  A    between atoms: N5_24  and  C16_26 
ROOT
HETATM    1  C5  UNL     1     -10.721 -55.891 -29.948  1.00  0.00     0.151 A 
HETATM    2  N1  UNL     1     -11.454 -55.773 -28.799  1.00  0.00    -0.319 N 
ATOM      3  H1  UNL     1     -12.312 -56.285 -28.596  1.00  0.00     0.169 HD
HETATM    4  C6  UNL     1     -10.878 -54.888 -27.985  1.00  0.00     0.155 A 
HETATM    5  C7  UNL     1      -9.758 -54.421 -28.600  1.00  0.00     0.156 A 
HETATM    6  N2  UNL     1      -9.163 -53.516 -27.773  1.00  0.00    -0.335 N 
ATOM      7  H2  UNL     1      -8.307 -52.993 -27.951  1.00  0.00     0.168 HD
HETATM    8  C8  UNL     1      -9.942 -53.454 -26.668  1.00  0.00     0.185 A 
HETATM    9  N3  UNL     1     -10.982 -54.282 -26.788  1.00  0.00    -0.331 N 
HETATM   10  C9  UNL     1     -12.026 -54.482 -25.811  1.00  0.00     0.158 C 
HETATM   11  N4  UNL     1      -9.675 -55.041 -29.792  1.00  0.00    -0.305 N 
ENDROOT
BRANCH   1  12
HETATM   12  S1  UNL     1     -11.016 -56.981 -31.307  1.00  0.00    -0.079 SA
BRANCH  12  13
HETATM   13  C4  UNL     1     -12.625 -57.008 -31.994  1.00  0.00     0.150 C 
BRANCH  13  14
HETATM   14  C2  UNL     1     -12.968 -56.197 -33.178  1.00  0.00     0.001 C 
HETATM   15  C1  UNL     1     -11.832 -55.743 -34.022  1.00  0.00     0.011 C 
HETATM   16  C3  UNL     1     -14.010 -56.955 -34.003  1.00  0.00     0.011 C 
ENDBRANCH  13  14
BRANCH  13  17
HETATM   17  C15 UNL     1     -13.703 -56.859 -30.939  1.00  0.00     0.232 C 
HETATM   18  O1  UNL     1     -14.073 -55.721 -30.629  1.00  0.00    -0.272 OA
HETATM   19  N5  UNL     1     -14.224 -58.025 -30.373  1.00  0.00    -0.355 N 
ATOM     20  H5  UNL     1     -13.854 -58.918 -30.697  1.00  0.00     0.162 HD
BRANCH  19  21
HETATM   21  C16 UNL     1     -15.256 -58.046 -29.351  1.00  0.00     0.084 C 
HETATM   22  C17 UNL     1     -14.939 -59.049 -28.277  1.00  0.00     0.025 C 
HETATM   23  C18 UNL     1     -15.337 -60.449 -28.628  1.00  0.00     0.002 C 
HETATM   24  C19 UNL     1     -16.719 -60.553 -29.206  1.00  0.00     0.000 C 
HETATM   25  C20 UNL     1     -16.830 -59.670 -30.424  1.00  0.00     0.002 C 
HETATM   26  C21 UNL     1     -16.597 -58.251 -29.987  1.00  0.00     0.025 C 
ENDBRANCH  19  21
ENDBRANCH  13  17
ENDBRANCH  12  13
ENDBRANCH   1  12
BRANCH  11  27
HETATM   27  C10 UNL     1      -8.622 -54.891 -30.754  1.00  0.00     0.093 C 
HETATM   28  C11 UNL     1      -7.439 -54.124 -30.159  1.00  0.00     0.026 C 
HETATM   29  C12 UNL     1      -6.653 -53.728 -31.390  1.00  0.00     0.002 C 
HETATM   30  C13 UNL     1      -7.590 -53.869 -32.572  1.00  0.00     0.002 C 
HETATM   31  C14 UNL     1      -8.970 -53.972 -31.895  1.00  0.00     0.026 C 
ENDBRANCH  11  27
TORSDOF 6
ENDMDL
MODEL 5
REMARK VINA RESULT: -7.064264001      1.342      3.555
REMARK  6 active torsions:
REMARK  status: ('A' for Active; 'I' for Inactive)
REMARK    1  A    between atoms: C2_2  and  C4_4 
REMARK    2  A    between atoms: C4_4  and  S1_5 
REMARK    3  A    between atoms: C4_4  and  C15_22 
REMARK    4  A    between atoms: S1_5  and  C5_6 
REMARK    5  A    between atoms: N4_16  and  C10_17 
REMARK       I    between atoms: C15_22  and  N5_24 
REMARK    6  A    between atoms: N5_24  and  C16_26 
ROOT
HETATM    1  C5  UNL     1     -13.194 -56.247 -32.406  1.00  0.00     0.151 A 
HETATM    2  N1  UNL     1     -13.341 -56.598 -33.720  1.00  0.00    -0.319 N 
ATOM      3  H1  UNL     1     -13.086 -56.013 -34.515  1.00  0.00     0.169 HD
HETATM    4  C6  UNL     1     -13.869 -57.819 -33.805  1.00  0.00     0.155 A 
HETATM    5  C7  UNL     1     -14.070 -58.277 -32.540  1.00  0.00     0.156 A 
HETATM    6  N2  UNL     1     -14.609 -59.526 -32.618  1.00  0.00    -0.335 N 
ATOM      7  H2  UNL     1     -14.872 -60.131 -31.841  1.00  0.00     0.168 HD
HETATM    8  C8  UNL     1     -14.724 -59.799 -33.938  1.00  0.00     0.185 A 
HETATM    9  N3  UNL     1     -14.278 -58.771 -34.664  1.00  0.00    -0.331 N 
HETATM   10  C9  UNL     1     -14.247 -58.698 -36.106  1.00  0.00     0.158 C 
HETATM   11  N4  UNL     1     -13.654 -57.311 -31.700  1.00  0.00    -0.305 N 
ENDROOT
BRANCH   1  12
HETATM   12  S1  UNL     1     -12.477 -54.767 -31.760  1.00  0.00    -0.079 SA
BRANCH  12  13
HETATM   13  C4  UNL     1     -10.734 -54.708 -31.606  1.00  0.00     0.150 C 
BRANCH  13  14
HETATM   14  C2  UNL     1      -9.851 -55.187 -32.686  1.00  0.00     0.001 C 
HETATM   15  C1  UNL     1     -10.401 -55.131 -34.065  1.00  0.00     0.011 C 
HETATM   16  C3  UNL     1      -8.515 -54.449 -32.587  1.00  0.00     0.011 C 
ENDBRANCH  13  14
BRANCH  13  17
HETATM   17  C15 UNL     1     -10.256 -55.250 -30.273  1.00  0.00     0.232 C 
HETATM   18  O1  UNL     1     -10.040 -56.463 -30.172  1.00  0.00    -0.272 OA
HETATM   19  N5  UNL     1     -10.086 -54.342 -29.226  1.00  0.00    -0.355 N 
ATOM     20  H5  UNL     1     -10.289 -53.360 -29.409  1.00  0.00     0.162 HD
BRANCH  19  21
HETATM   21  C16 UNL     1      -9.637 -54.707 -27.893  1.00  0.00     0.084 C 
HETATM   22  C17 UNL     1     -10.754 -55.318 -27.091  1.00  0.00     0.025 C 
HETATM   23  C18 UNL     1     -11.653 -54.307 -26.450  1.00  0.00     0.002 C 
HETATM   24  C19 UNL     1     -10.914 -53.195 -25.765  1.00  0.00     0.000 C 
HETATM   25  C20 UNL     1      -9.996 -52.511 -26.748  1.00  0.00     0.002 C 
HETATM   26  C21 UNL     1      -8.998 -53.527 -27.229  1.00  0.00     0.025 C 
ENDBRANCH  19  21
ENDBRANCH  13  17
ENDBRANCH  12  13
ENDBRANCH   1  12
BRANCH  11  27
HETATM   27  C10 UNL     1     -13.633 -57.384 -30.268  1.00  0.00     0.093 C 
HETATM   28  C11 UNL     1     -14.799 -58.222 -29.743  1.00  0.00     0.026 C 
HETATM   29  C12 UNL     1     -14.838 -57.849 -28.277  1.00  0.00     0.002 C 
HETATM   30  C13 UNL     1     -14.054 -56.561 -28.132  1.00  0.00     0.002 C 
HETATM   31  C14 UNL     1     -13.938 -56.075 -29.589  1.00  0.00     0.026 C 
ENDBRANCH  11  27
TORSDOF 6
ENDMDL
