MODEL 1
REMARK VINA RESULT: -5.954594827      0.000      0.000
REMARK  2 active torsions:
REMARK  status: ('A' for Active; 'I' for Inactive)
REMARK    1  A    between atoms: C2_2  and  C3_3 
REMARK    2  A    between atoms: C11_12  and  O1_13 
ROOT
HETATM    1  C3  UNL     1     -28.012   5.376   2.591  1.00  0.00     0.045 C 
HETATM    2  C4  UNL     1     -28.763   5.052   1.389  1.00  0.00     0.012 C 
HETATM    3  C5  UNL     1     -29.098   3.640   1.077  1.00  0.00     0.015 C 
HETATM    4  C6  UNL     1     -28.199   2.533   1.324  1.00  0.00     0.011 C 
HETATM    5  C7  UNL     1     -28.655   1.347   2.131  1.00  0.00     0.113 C 
HETATM    6  N1  UNL     1     -30.040   1.383   1.815  1.00  0.00    -0.269 NA
HETATM    7  C8  UNL     1     -30.688   1.118   2.985  1.00  0.00     0.061 C 
HETATM    8  C9  UNL     1     -30.916   2.208   3.967  1.00  0.00    -0.008 C 
HETATM    9  C10 UNL     1     -29.822   2.812   4.761  1.00  0.00     0.095 C 
HETATM   10  C11 UNL     1     -29.236   4.114   4.300  1.00  0.00     0.076 C 
HETATM   11  C12 UNL     1     -27.959   4.270   3.638  1.00  0.00     0.081 C 
HETATM   12  O2  UNL     1     -27.174   3.381   3.116  1.00  0.00    -0.341 OA
HETATM   13  C13 UNL     1     -26.911   2.769   2.041  1.00  0.00     0.073 C 
HETATM   14  C14 UNL     1     -26.211   1.508   2.571  1.00  0.00     0.047 C 
HETATM   15  C15 UNL     1     -26.097   3.061   0.854  1.00  0.00     0.040 C 
HETATM   16  C16 UNL     1     -26.473   1.853  -0.068  1.00  0.00     0.013 C 
HETATM   17  C17 UNL     1     -27.906   1.900  -0.054  1.00  0.00     0.028 C 
HETATM   18  C18 UNL     1     -28.889   0.862  -0.327  1.00  0.00    -0.068 C 
HETATM   19  C19 UNL     1     -28.369  -0.506  -0.724  1.00  0.00     0.044 C 
HETATM   20  C20 UNL     1     -30.133   0.796   0.572  1.00  0.00     0.067 C 
ENDROOT
BRANCH   1  21
HETATM   21  C2  UNL     1     -28.280   6.743   3.175  1.00  0.00     0.007 C 
HETATM   22  C1  UNL     1     -27.911   7.837   2.153  1.00  0.00     0.006 C 
ENDBRANCH   1  21
BRANCH  10  23
HETATM   23  O1  UNL     1     -30.342   4.772   3.682  1.00  0.00    -0.362 OA
ATOM     24  H1  UNL     1     -30.399   4.351   2.833  1.00  0.00     0.217 HD
ENDBRANCH  10  23
TORSDOF 2
ENDMDL
MODEL 2
REMARK VINA RESULT: -5.879728240      1.012      1.259
REMARK  2 active torsions:
REMARK  status: ('A' for Active; 'I' for Inactive)
REMARK    1  A    between atoms: C2_2  and  C3_3 
REMARK    2  A    between atoms: C11_12  and  O1_13 
ROOT
HETATM    1  C3  UNL     1     -27.581   5.710   2.827  1.00  0.00     0.045 C 
HETATM    2  C4  UNL     1     -28.757   5.390   2.036  1.00  0.00     0.012 C 
HETATM    3  C5  UNL     1     -29.305   4.010   2.038  1.00  0.00     0.015 C 
HETATM    4  C6  UNL     1     -28.479   2.823   2.063  1.00  0.00     0.011 C 
HETATM    5  C7  UNL     1     -28.693   1.768   3.114  1.00  0.00     0.113 C 
HETATM    6  N1  UNL     1     -30.086   1.951   3.331  1.00  0.00    -0.269 NA
HETATM    7  C8  UNL     1     -30.260   1.858   4.680  1.00  0.00     0.061 C 
HETATM    8  C9  UNL     1     -30.003   3.039   5.542  1.00  0.00    -0.008 C 
HETATM    9  C10 UNL     1     -28.641   3.563   5.798  1.00  0.00     0.095 C 
HETATM   10  C11 UNL     1     -28.165   4.743   5.004  1.00  0.00     0.076 C 
HETATM   11  C12 UNL     1     -27.228   4.689   3.903  1.00  0.00     0.081 C 
HETATM   12  O2  UNL     1     -26.780   3.672   3.235  1.00  0.00    -0.341 OA
HETATM   13  C13 UNL     1     -27.000   2.953   2.220  1.00  0.00     0.073 C 
HETATM   14  C14 UNL     1     -26.262   1.658   2.597  1.00  0.00     0.047 C 
HETATM   15  C15 UNL     1     -26.677   3.050   0.790  1.00  0.00     0.040 C 
HETATM   16  C16 UNL     1     -27.478   1.830   0.221  1.00  0.00     0.013 C 
HETATM   17  C17 UNL     1     -28.788   2.055   0.759  1.00  0.00     0.028 C 
HETATM   18  C18 UNL     1     -29.885   1.129   0.993  1.00  0.00    -0.068 C 
HETATM   19  C19 UNL     1     -29.675  -0.319   0.595  1.00  0.00     0.044 C 
HETATM   20  C20 UNL     1     -30.694   1.286   2.289  1.00  0.00     0.067 C 
ENDROOT
BRANCH   1  21
HETATM   21  C2  UNL     1     -27.488   7.139   3.305  1.00  0.00     0.007 C 
HETATM   22  C1  UNL     1     -27.860   8.105   2.161  1.00  0.00     0.006 C 
ENDBRANCH   1  21
BRANCH  10  23
HETATM   23  O1  UNL     1     -29.363   5.483   4.766  1.00  0.00    -0.362 OA
ATOM     24  H1  UNL     1     -29.957   4.830   4.418  1.00  0.00     0.217 HD
ENDBRANCH  10  23
TORSDOF 2
ENDMDL
MODEL 3
REMARK VINA RESULT: -5.788722492      1.958      5.135
REMARK  2 active torsions:
REMARK  status: ('A' for Active; 'I' for Inactive)
REMARK    1  A    between atoms: C2_2  and  C3_3 
REMARK    2  A    between atoms: C11_12  and  O1_13 
ROOT
HETATM    1  C3  UNL     1     -28.128   1.264   0.629  1.00  0.00     0.045 C 
HETATM    2  C4  UNL     1     -28.999   2.428   0.606  1.00  0.00     0.012 C 
HETATM    3  C5  UNL     1     -29.097   3.310   1.795  1.00  0.00     0.015 C 
HETATM    4  C6  UNL     1     -29.085   2.820   3.156  1.00  0.00     0.011 C 
HETATM    5  C7  UNL     1     -28.102   3.367   4.155  1.00  0.00     0.113 C 
HETATM    6  N1  UNL     1     -27.954   4.677   3.625  1.00  0.00    -0.269 NA
HETATM    7  C8  UNL     1     -26.623   4.959   3.716  1.00  0.00     0.061 C 
HETATM    8  C9  UNL     1     -25.690   4.466   2.671  1.00  0.00    -0.008 C 
HETATM    9  C10 UNL     1     -25.333   3.036   2.528  1.00  0.00     0.095 C 
HETATM   10  C11 UNL     1     -26.039   2.221   1.485  1.00  0.00     0.076 C 
HETATM   11  C12 UNL     1     -27.087   1.258   1.743  1.00  0.00     0.081 C 
HETATM   12  O2  UNL     1     -27.779   1.042   2.817  1.00  0.00    -0.341 OA
HETATM   13  C13 UNL     1     -28.840   1.371   3.420  1.00  0.00     0.073 C 
HETATM   14  C14 UNL     1     -28.487   1.017   4.874  1.00  0.00     0.047 C 
HETATM   15  C15 UNL     1     -30.243   0.940   3.361  1.00  0.00     0.040 C 
HETATM   16  C16 UNL     1     -30.916   1.987   4.311  1.00  0.00     0.013 C 
HETATM   17  C17 UNL     1     -30.441   3.228   3.773  1.00  0.00     0.028 C 
HETATM   18  C18 UNL     1     -30.316   4.539   4.390  1.00  0.00    -0.068 C 
HETATM   19  C19 UNL     1     -30.773   4.681   5.829  1.00  0.00     0.044 C 
HETATM   20  C20 UNL     1     -29.060   5.365   4.073  1.00  0.00     0.067 C 
ENDROOT
BRANCH   1  21
HETATM   21  C2  UNL     1     -27.575   0.839  -0.710  1.00  0.00     0.007 C 
HETATM   22  C1  UNL     1     -28.406  -0.329  -1.280  1.00  0.00     0.006 C 
ENDBRANCH   1  21
BRANCH  10  23
HETATM   23  O1  UNL     1     -26.305   3.169   0.452  1.00  0.00    -0.362 OA
ATOM     24  H1  UNL     1     -25.551   3.745   0.485  1.00  0.00     0.217 HD
ENDBRANCH  10  23
TORSDOF 2
ENDMDL
MODEL 4
REMARK VINA RESULT: -5.555828956      1.517      4.608
REMARK  2 active torsions:
REMARK  status: ('A' for Active; 'I' for Inactive)
REMARK    1  A    between atoms: C2_2  and  C3_3 
REMARK    2  A    between atoms: C11_12  and  O1_13 
ROOT
HETATM    1  C3  UNL     1     -25.839   2.845   1.319  1.00  0.00     0.045 C 
HETATM    2  C4  UNL     1     -25.983   2.537   2.732  1.00  0.00     0.012 C 
HETATM    3  C5  UNL     1     -27.327   2.539   3.363  1.00  0.00     0.015 C 
HETATM    4  C6  UNL     1     -28.364   3.492   3.031  1.00  0.00     0.011 C 
HETATM    5  C7  UNL     1     -29.730   3.018   2.617  1.00  0.00     0.113 C 
HETATM    6  N1  UNL     1     -29.771   1.797   3.343  1.00  0.00    -0.269 NA
HETATM    7  C8  UNL     1     -30.337   0.889   2.498  1.00  0.00     0.061 C 
HETATM    8  C9  UNL     1     -29.502   0.214   1.472  1.00  0.00    -0.008 C 
HETATM    9  C10 UNL     1     -28.966   0.919   0.285  1.00  0.00     0.095 C 
HETATM   10  C11 UNL     1     -27.545   1.397   0.316  1.00  0.00     0.076 C 
HETATM   11  C12 UNL     1     -27.126   2.769   0.506  1.00  0.00     0.081 C 
HETATM   12  O2  UNL     1     -27.804   3.804   0.894  1.00  0.00    -0.341 OA
HETATM   13  C13 UNL     1     -28.150   4.461   1.916  1.00  0.00     0.073 C 
HETATM   14  C14 UNL     1     -29.416   5.170   1.408  1.00  0.00     0.047 C 
HETATM   15  C15 UNL     1     -27.539   5.527   2.720  1.00  0.00     0.040 C 
HETATM   16  C16 UNL     1     -28.563   5.633   3.900  1.00  0.00     0.013 C 
HETATM   17  C17 UNL     1     -28.666   4.269   4.331  1.00  0.00     0.028 C 
HETATM   18  C18 UNL     1     -29.719   3.588   5.067  1.00  0.00    -0.068 C 
HETATM   19  C19 UNL     1     -30.916   4.413   5.500  1.00  0.00     0.044 C 
HETATM   20  C20 UNL     1     -30.096   2.164   4.631  1.00  0.00     0.067 C 
ENDROOT
BRANCH   1  21
HETATM   21  C2  UNL     1     -24.657   2.204   0.631  1.00  0.00     0.007 C 
HETATM   22  C1  UNL     1     -23.560   1.872   1.663  1.00  0.00     0.006 C 
ENDBRANCH   1  21
BRANCH  10  23
HETATM   23  O1  UNL     1     -26.890   0.427   1.133  1.00  0.00    -0.362 OA
ATOM     24  H1  UNL     1     -27.265  -0.394   0.840  1.00  0.00     0.217 HD
ENDBRANCH  10  23
TORSDOF 2
ENDMDL
MODEL 5
REMARK VINA RESULT: -5.551886449      2.013      3.290
REMARK  2 active torsions:
REMARK  status: ('A' for Active; 'I' for Inactive)
REMARK    1  A    between atoms: C2_2  and  C3_3 
REMARK    2  A    between atoms: C11_12  and  O1_13 
ROOT
HETATM    1  C3  UNL     1     -26.352   5.788   4.228  1.00  0.00     0.045 C 
HETATM    2  C4  UNL     1     -25.614   5.101   3.181  1.00  0.00     0.012 C 
HETATM    3  C5  UNL     1     -26.304   4.126   2.300  1.00  0.00     0.015 C 
HETATM    4  C6  UNL     1     -27.326   3.213   2.764  1.00  0.00     0.011 C 
HETATM    5  C7  UNL     1     -28.667   3.161   2.085  1.00  0.00     0.113 C 
HETATM    6  N1  UNL     1     -28.267   3.538   0.775  1.00  0.00    -0.269 NA
HETATM    7  C8  UNL     1     -29.232   4.391   0.329  1.00  0.00     0.061 C 
HETATM    8  C9  UNL     1     -29.190   5.823   0.719  1.00  0.00    -0.008 C 
HETATM    9  C10 UNL     1     -29.477   6.286   2.096  1.00  0.00     0.095 C 
HETATM   10  C11 UNL     1     -28.324   6.586   3.008  1.00  0.00     0.076 C 
HETATM   11  C12 UNL     1     -27.869   5.739   4.089  1.00  0.00     0.081 C 
HETATM   12  O2  UNL     1     -28.170   4.510   4.372  1.00  0.00    -0.341 OA
HETATM   13  C13 UNL     1     -27.825   3.312   4.168  1.00  0.00     0.073 C 
HETATM   14  C14 UNL     1     -29.137   2.564   4.454  1.00  0.00     0.047 C 
HETATM   15  C15 UNL     1     -26.846   2.397   4.770  1.00  0.00     0.040 C 
HETATM   16  C16 UNL     1     -26.948   1.172   3.800  1.00  0.00     0.013 C 
HETATM   17  C17 UNL     1     -26.777   1.790   2.518  1.00  0.00     0.028 C 
HETATM   18  C18 UNL     1     -27.174   1.343   1.192  1.00  0.00    -0.068 C 
HETATM   19  C19 UNL     1     -27.862  -0.004   1.086  1.00  0.00     0.044 C 
HETATM   20  C20 UNL     1     -27.745   2.388   0.222  1.00  0.00     0.067 C 
ENDROOT
BRANCH   1  21
HETATM   21  C2  UNL     1     -25.829   7.155   4.602  1.00  0.00     0.007 C 
HETATM   22  C1  UNL     1     -24.951   7.059   5.866  1.00  0.00     0.006 C 
ENDBRANCH   1  21
BRANCH  10  23
HETATM   23  O1  UNL     1     -27.313   7.052   2.115  1.00  0.00    -0.362 OA
ATOM     24  H1  UNL     1     -27.783   7.650   1.546  1.00  0.00     0.217 HD
ENDBRANCH  10  23
TORSDOF 2
ENDMDL
