MODEL 1
REMARK VINA RESULT: -6.852571951      0.000      0.000
REMARK  1 active torsions:
REMARK  status: ('A' for Active; 'I' for Inactive)
REMARK    1  A    between atoms: C4_7  and  C5_8 
ROOT
HETATM    1  C5  UNL     1     -20.744  -1.182  -4.998  1.00  0.00     0.107 C 
HETATM    2  N2  UNL     1     -21.102   0.000  -5.575  1.00  0.00    -0.375 N 
HETATM    3  C6  UNL     1     -20.884   1.195  -4.831  1.00  0.00     0.142 C 
HETATM    4  C7  UNL     1     -22.201   1.870  -4.502  1.00  0.00     0.133 C 
HETATM    5  N3  UNL     1     -23.245   1.601  -5.438  1.00  0.00    -0.417 N 
ATOM      6  H3  UNL     1     -23.954   2.308  -5.636  1.00  0.00     0.153 HD
HETATM    7  C8  UNL     1     -23.289   0.339  -6.091  1.00  0.00     0.145 C 
HETATM    8  C9  UNL     1     -21.901   0.125  -6.717  1.00  0.00     0.055 C 
HETATM    9  C10 UNL     1     -21.919  -1.085  -7.587  1.00  0.00     0.016 C 
HETATM   10  C11 UNL     1     -20.621  -1.239  -8.375  1.00  0.00     0.012 C 
HETATM   11  C12 UNL     1     -20.451  -0.047  -9.309  1.00  0.00    -0.013 C 
HETATM   12  C13 UNL     1     -21.619   0.132 -10.232  1.00  0.00     0.009 C 
HETATM   13  C14 UNL     1     -22.896   0.262  -9.411  1.00  0.00    -0.013 C 
HETATM   14  C15 UNL     1     -23.026  -1.006  -8.607  1.00  0.00     0.012 C 
HETATM   15  C16 UNL     1     -22.757   1.491  -8.561  1.00  0.00     0.012 C 
HETATM   16  C17 UNL     1     -21.597   1.315  -7.581  1.00  0.00     0.016 C 
HETATM   17  C18 UNL     1     -20.355   1.168  -8.426  1.00  0.00     0.012 C 
ENDROOT
BRANCH   1  18
HETATM   18  C4  UNL     1     -20.611  -1.209  -3.530  1.00  0.00     0.043 A 
HETATM   19  C2  UNL     1     -19.544  -1.936  -2.912  1.00  0.00     0.024 A 
HETATM   20  C1  UNL     1     -18.468  -2.504  -3.815  1.00  0.00     0.069 C 
HETATM   21  N1  UNL     1     -19.572  -2.011  -1.672  1.00  0.00    -0.362 N 
HETATM   22  C3  UNL     1     -20.497  -1.483  -0.923  1.00  0.00     0.139 A 
ATOM     23  H1  UNL     1     -18.818  -2.520  -1.210  1.00  0.00     0.165 HD
HETATM   24  S1  UNL     1     -21.483  -0.733  -2.144  1.00  0.00    -0.082 SA
ENDBRANCH   1  18
TORSDOF 1
ENDMDL
MODEL 2
REMARK VINA RESULT: -6.848939688      1.693      3.728
REMARK  1 active torsions:
REMARK  status: ('A' for Active; 'I' for Inactive)
REMARK    1  A    between atoms: C4_7  and  C5_8 
ROOT
HETATM    1  C5  UNL     1     -22.825   1.189  -5.004  1.00  0.00     0.107 C 
HETATM    2  N2  UNL     1     -22.475   0.004  -5.583  1.00  0.00    -0.375 N 
HETATM    3  C6  UNL     1     -22.703  -1.190  -4.841  1.00  0.00     0.142 C 
HETATM    4  C7  UNL     1     -21.391  -1.876  -4.513  1.00  0.00     0.133 C 
HETATM    5  N3  UNL     1     -20.345  -1.614  -5.448  1.00  0.00    -0.417 N 
ATOM      6  H3  UNL     1     -19.642  -2.326  -5.647  1.00  0.00     0.153 HD
HETATM    7  C8  UNL     1     -20.291  -0.350  -6.099  1.00  0.00     0.145 C 
HETATM    8  C9  UNL     1     -21.677  -0.124  -6.725  1.00  0.00     0.055 C 
HETATM    9  C10 UNL     1     -21.648   1.087  -7.593  1.00  0.00     0.016 C 
HETATM   10  C11 UNL     1     -22.945   1.253  -8.382  1.00  0.00     0.012 C 
HETATM   11  C12 UNL     1     -23.124   0.063  -9.318  1.00  0.00    -0.013 C 
HETATM   12  C13 UNL     1     -21.956  -0.123 -10.240  1.00  0.00     0.009 C 
HETATM   13  C14 UNL     1     -20.681  -0.265  -9.419  1.00  0.00    -0.013 C 
HETATM   14  C15 UNL     1     -20.542   1.001  -8.612  1.00  0.00     0.012 C 
HETATM   15  C16 UNL     1     -20.830  -1.494  -8.571  1.00  0.00     0.012 C 
HETATM   16  C17 UNL     1     -21.990  -1.311  -7.592  1.00  0.00     0.016 C 
HETATM   17  C18 UNL     1     -23.230  -1.152  -8.437  1.00  0.00     0.012 C 
ENDROOT
BRANCH   1  18
HETATM   18  C4  UNL     1     -22.958   1.214  -3.537  1.00  0.00     0.043 A 
HETATM   19  C2  UNL     1     -24.023   1.944  -2.919  1.00  0.00     0.024 A 
HETATM   20  C1  UNL     1     -25.097   2.516  -3.821  1.00  0.00     0.069 C 
HETATM   21  N1  UNL     1     -23.996   2.016  -1.679  1.00  0.00    -0.362 N 
HETATM   22  C3  UNL     1     -23.072   1.485  -0.929  1.00  0.00     0.139 A 
ATOM     23  H1  UNL     1     -24.748   2.527  -1.216  1.00  0.00     0.165 HD
HETATM   24  S1  UNL     1     -22.088   0.733  -2.151  1.00  0.00    -0.082 SA
ENDBRANCH   1  18
TORSDOF 1
ENDMDL
MODEL 3
REMARK VINA RESULT: -6.011781230      9.360     11.745
REMARK  1 active torsions:
REMARK  status: ('A' for Active; 'I' for Inactive)
REMARK    1  A    between atoms: C4_7  and  C5_8 
ROOT
HETATM    1  C5  UNL     1     -27.127   4.753   2.439  1.00  0.00     0.107 C 
HETATM    2  N2  UNL     1     -27.202   3.473   2.903  1.00  0.00    -0.375 N 
HETATM    3  C6  UNL     1     -27.001   3.258   4.297  1.00  0.00     0.142 C 
HETATM    4  C7  UNL     1     -25.755   2.428   4.537  1.00  0.00     0.133 C 
HETATM    5  N3  UNL     1     -25.419   1.553   3.460  1.00  0.00    -0.417 N 
ATOM      6  H3  UNL     1     -24.975   0.654   3.647  1.00  0.00     0.153 HD
HETATM    7  C8  UNL     1     -25.710   1.945   2.124  1.00  0.00     0.145 C 
HETATM    8  C9  UNL     1     -27.199   2.328   2.098  1.00  0.00     0.055 C 
HETATM    9  C10 UNL     1     -27.636   2.564   0.693  1.00  0.00     0.016 C 
HETATM   10  C11 UNL     1     -29.145   2.768   0.593  1.00  0.00     0.012 C 
HETATM   11  C12 UNL     1     -29.859   1.501   1.051  1.00  0.00    -0.013 C 
HETATM   12  C13 UNL     1     -29.429   0.288   0.281  1.00  0.00     0.009 C 
HETATM   13  C14 UNL     1     -27.918   0.131   0.388  1.00  0.00    -0.013 C 
HETATM   14  C15 UNL     1     -27.309   1.385  -0.186  1.00  0.00     0.012 C 
HETATM   15  C16 UNL     1     -27.592  -0.076   1.839  1.00  0.00     0.012 C 
HETATM   16  C17 UNL     1     -27.983   1.166   2.640  1.00  0.00     0.016 C 
HETATM   17  C18 UNL     1     -29.478   1.304   2.494  1.00  0.00     0.012 C 
ENDROOT
BRANCH   1  18
HETATM   18  C4  UNL     1     -26.401   5.733   3.266  1.00  0.00     0.043 A 
HETATM   19  C2  UNL     1     -26.901   7.067   3.415  1.00  0.00     0.024 A 
HETATM   20  C1  UNL     1     -28.278   7.366   2.859  1.00  0.00     0.069 C 
HETATM   21  N1  UNL     1     -26.170   7.865   4.026  1.00  0.00    -0.362 N 
HETATM   22  C3  UNL     1     -25.002   7.566   4.520  1.00  0.00     0.139 A 
ATOM     23  H1  UNL     1     -26.508   8.819   4.149  1.00  0.00     0.165 HD
HETATM   24  S1  UNL     1     -24.914   5.883   4.086  1.00  0.00    -0.082 SA
ENDBRANCH   1  18
TORSDOF 1
ENDMDL
MODEL 4
REMARK VINA RESULT: -5.936122006      1.909      2.754
REMARK  1 active torsions:
REMARK  status: ('A' for Active; 'I' for Inactive)
REMARK    1  A    between atoms: C4_7  and  C5_8 
ROOT
HETATM    1  C5  UNL     1     -22.814   0.140  -5.598  1.00  0.00     0.107 C 
HETATM    2  N2  UNL     1     -21.772   0.397  -6.439  1.00  0.00    -0.375 N 
HETATM    3  C6  UNL     1     -20.591   0.964  -5.880  1.00  0.00     0.142 C 
HETATM    4  C7  UNL     1     -20.347   2.353  -6.439  1.00  0.00     0.133 C 
HETATM    5  N3  UNL     1     -20.882   2.558  -7.747  1.00  0.00    -0.417 N 
ATOM      6  H3  UNL     1     -20.410   3.180  -8.404  1.00  0.00     0.153 HD
HETATM    7  C8  UNL     1     -22.078   1.889  -8.125  1.00  0.00     0.145 C 
HETATM    8  C9  UNL     1     -21.852   0.396  -7.836  1.00  0.00     0.055 C 
HETATM    9  C10 UNL     1     -22.983  -0.403  -8.386  1.00  0.00     0.016 C 
HETATM   10  C11 UNL     1     -22.720  -1.903  -8.289  1.00  0.00     0.012 C 
HETATM   11  C12 UNL     1     -21.501  -2.260  -9.131  1.00  0.00    -0.013 C 
HETATM   12  C13 UNL     1     -21.645  -1.833 -10.561  1.00  0.00     0.009 C 
HETATM   13  C14 UNL     1     -21.925  -0.336 -10.616  1.00  0.00    -0.013 C 
HETATM   14  C15 UNL     1     -23.202  -0.105  -9.847  1.00  0.00     0.012 C 
HETATM   15  C16 UNL     1     -20.739   0.363 -10.018  1.00  0.00     0.012 C 
HETATM   16  C17 UNL     1     -20.596  -0.025  -8.547  1.00  0.00     0.016 C 
HETATM   17  C18 UNL     1     -20.342  -1.512  -8.529  1.00  0.00     0.012 C 
ENDROOT
BRANCH   1  18
HETATM   18  C4  UNL     1     -22.848   0.870  -4.318  1.00  0.00     0.043 A 
HETATM   19  C2  UNL     1     -22.361   0.255  -3.120  1.00  0.00     0.024 A 
HETATM   20  C1  UNL     1     -21.646  -1.074  -3.255  1.00  0.00     0.069 C 
HETATM   21  N1  UNL     1     -22.537   0.886  -2.065  1.00  0.00    -0.362 N 
HETATM   22  C3  UNL     1     -23.130   2.044  -1.988  1.00  0.00     0.139 A 
ATOM     23  H1  UNL     1     -22.193   0.470  -1.199  1.00  0.00     0.165 HD
HETATM   24  S1  UNL     1     -23.480   2.315  -3.670  1.00  0.00    -0.082 SA
ENDBRANCH   1  18
TORSDOF 1
ENDMDL
MODEL 5
REMARK VINA RESULT: -5.928322841      1.496      2.799
REMARK  1 active torsions:
REMARK  status: ('A' for Active; 'I' for Inactive)
REMARK    1  A    between atoms: C4_7  and  C5_8 
ROOT
HETATM    1  C5  UNL     1     -20.754  -0.158  -5.611  1.00  0.00     0.107 C 
HETATM    2  N2  UNL     1     -21.802  -0.407  -6.446  1.00  0.00    -0.375 N 
HETATM    3  C6  UNL     1     -22.985  -0.966  -5.881  1.00  0.00     0.142 C 
HETATM    4  C7  UNL     1     -23.242  -2.353  -6.438  1.00  0.00     0.133 C 
HETATM    5  N3  UNL     1     -22.716  -2.563  -7.748  1.00  0.00    -0.417 N 
ATOM      6  H3  UNL     1     -23.196  -3.182  -8.402  1.00  0.00     0.153 HD
HETATM    7  C8  UNL     1     -21.516  -1.903  -8.133  1.00  0.00     0.145 C 
HETATM    8  C9  UNL     1     -21.730  -0.408  -7.844  1.00  0.00     0.055 C 
HETATM    9  C10 UNL     1     -20.596   0.382  -8.400  1.00  0.00     0.016 C 
HETATM   10  C11 UNL     1     -20.847   1.884  -8.302  1.00  0.00     0.012 C 
HETATM   11  C12 UNL     1     -22.068   2.249  -9.138  1.00  0.00    -0.013 C 
HETATM   12  C13 UNL     1     -21.935   1.821 -10.569  1.00  0.00     0.009 C 
HETATM   13  C14 UNL     1     -21.666   0.322 -10.624  1.00  0.00    -0.013 C 
HETATM   14  C15 UNL     1     -20.387   0.082  -9.862  1.00  0.00     0.012 C 
HETATM   15  C16 UNL     1     -22.854  -0.367 -10.020  1.00  0.00     0.012 C 
HETATM   16  C17 UNL     1     -22.986   0.022  -8.548  1.00  0.00     0.016 C 
HETATM   17  C18 UNL     1     -23.229   1.511  -8.529  1.00  0.00     0.012 C 
ENDROOT
BRANCH   1  18
HETATM   18  C4  UNL     1     -20.718  -0.888  -4.330  1.00  0.00     0.043 A 
HETATM   19  C2  UNL     1     -21.208  -0.274  -3.133  1.00  0.00     0.024 A 
HETATM   20  C1  UNL     1     -21.927   1.053  -3.269  1.00  0.00     0.069 C 
HETATM   21  N1  UNL     1     -21.031  -0.905  -2.078  1.00  0.00    -0.362 N 
HETATM   22  C3  UNL     1     -20.434  -2.060  -2.000  1.00  0.00     0.139 A 
ATOM     23  H1  UNL     1     -21.376  -0.489  -1.213  1.00  0.00     0.165 HD
HETATM   24  S1  UNL     1     -20.082  -2.331  -3.682  1.00  0.00    -0.082 SA
ENDBRANCH   1  18
TORSDOF 1
ENDMDL
