MODEL 1
REMARK VINA RESULT: -5.720412219      0.000      0.000
REMARK  3 active torsions:
REMARK  status: ('A' for Active; 'I' for Inactive)
REMARK    1  A    between atoms: C2_2  and  C4_4 
REMARK    2  A    between atoms: C4_4  and  C6_6 
REMARK    3  A    between atoms: C19_22  and  O4_23 
ROOT
HETATM    1  C6  UNL     1     -21.782  -0.617  -7.068  1.00  0.00     0.091 C 
HETATM    2  C7  UNL     1     -20.284  -0.978  -7.022  1.00  0.00     0.042 C 
HETATM    3  C8  UNL     1     -20.026  -2.192  -6.199  1.00  0.00     0.015 C 
HETATM    4  C9  UNL     1     -20.095  -2.056  -4.736  1.00  0.00    -0.006 C 
HETATM    5  C10 UNL     1     -20.898  -3.138  -4.052  1.00  0.00     0.018 C 
HETATM    6  C11 UNL     1     -18.748  -2.020  -4.026  1.00  0.00     0.122 C 
HETATM    7  C12 UNL     1     -19.158  -1.308  -2.761  1.00  0.00     0.260 C 
HETATM    8  O1  UNL     1     -18.475  -1.145  -1.709  1.00  0.00    -0.265 OA
HETATM    9  O2  UNL     1     -20.465  -0.821  -2.898  1.00  0.00    -0.312 OA
HETATM   10  C13 UNL     1     -20.632  -0.699  -4.322  1.00  0.00     0.170 C 
HETATM   11  C14 UNL     1     -22.058  -0.580  -4.739  1.00  0.00     0.160 C 
HETATM   12  O3  UNL     1     -22.359  -1.170  -5.934  1.00  0.00    -0.368 OA
HETATM   13  C15 UNL     1     -22.575   0.813  -4.569  1.00  0.00    -0.017 C 
HETATM   14  C16 UNL     1     -21.631   1.762  -3.911  1.00  0.00     0.018 C 
HETATM   15  C17 UNL     1     -23.886   0.860  -3.781  1.00  0.00     0.018 C 
HETATM   16  C18 UNL     1     -22.898   1.337  -5.951  1.00  0.00     0.046 C 
HETATM   17  C19 UNL     1     -21.842   0.852  -6.956  1.00  0.00     0.153 C 
ENDROOT
BRANCH   1  18
HETATM   18  C4  UNL     1     -22.392  -1.291  -8.239  1.00  0.00     0.022 C 
HETATM   19  C5  UNL     1     -23.446  -2.335  -7.928  1.00  0.00     0.013 C 
BRANCH  18  20
HETATM   20  C2  UNL     1     -21.519  -1.680  -9.371  1.00  0.00    -0.016 C 
HETATM   21  C1  UNL     1     -21.900  -0.718 -10.526  1.00  0.00     0.010 C 
HETATM   22  C3  UNL     1     -21.604  -3.027  -9.951  1.00  0.00     0.010 C 
ENDBRANCH  18  20
ENDBRANCH   1  18
BRANCH  17  23
HETATM   23  O4  UNL     1     -21.989   1.605  -8.074  1.00  0.00    -0.392 OA
ATOM     24  H4  UNL     1     -22.781   1.528  -8.593  1.00  0.00     0.210 HD
ENDBRANCH  17  23
TORSDOF 3
ENDMDL
MODEL 2
REMARK VINA RESULT: -5.690540051      2.047      4.347
REMARK  3 active torsions:
REMARK  status: ('A' for Active; 'I' for Inactive)
REMARK    1  A    between atoms: C2_2  and  C4_4 
REMARK    2  A    between atoms: C4_4  and  C6_6 
REMARK    3  A    between atoms: C19_22  and  O4_23 
ROOT
HETATM    1  C6  UNL     1     -21.762   0.626  -6.926  1.00  0.00     0.091 C 
HETATM    2  C7  UNL     1     -23.261   0.981  -6.883  1.00  0.00     0.042 C 
HETATM    3  C8  UNL     1     -23.522   2.210  -6.084  1.00  0.00     0.015 C 
HETATM    4  C9  UNL     1     -23.449   2.103  -4.618  1.00  0.00    -0.006 C 
HETATM    5  C10 UNL     1     -22.649   3.202  -3.958  1.00  0.00     0.018 C 
HETATM    6  C11 UNL     1     -24.795   2.076  -3.904  1.00  0.00     0.122 C 
HETATM    7  C12 UNL     1     -24.379   1.391  -2.627  1.00  0.00     0.260 C 
HETATM    8  O1  UNL     1     -25.058   1.246  -1.571  1.00  0.00    -0.265 OA
HETATM    9  O2  UNL     1     -23.070   0.907  -2.757  1.00  0.00    -0.312 OA
HETATM   10  C13 UNL     1     -22.906   0.757  -4.179  1.00  0.00     0.170 C 
HETATM   11  C14 UNL     1     -21.481   0.636  -4.597  1.00  0.00     0.160 C 
HETATM   12  O3  UNL     1     -21.184   1.203  -5.804  1.00  0.00    -0.368 OA
HETATM   13  C15 UNL     1     -20.957  -0.751  -4.400  1.00  0.00    -0.017 C 
HETATM   14  C16 UNL     1     -21.895  -1.691  -3.721  1.00  0.00     0.018 C 
HETATM   15  C17 UNL     1     -19.644  -0.778  -3.615  1.00  0.00     0.018 C 
HETATM   16  C18 UNL     1     -20.635  -1.301  -5.773  1.00  0.00     0.046 C 
HETATM   17  C19 UNL     1     -21.695  -0.840  -6.784  1.00  0.00     0.153 C 
ENDROOT
BRANCH   1  18
HETATM   18  C4  UNL     1     -21.157   1.279  -8.111  1.00  0.00     0.022 C 
HETATM   19  C5  UNL     1     -20.107   2.334  -7.823  1.00  0.00     0.013 C 
BRANCH  18  20
HETATM   20  C2  UNL     1     -22.034   1.641  -9.249  1.00  0.00    -0.016 C 
HETATM   21  C1  UNL     1     -21.658   0.651 -10.382  1.00  0.00     0.010 C 
HETATM   22  C3  UNL     1     -21.951   2.974  -9.861  1.00  0.00     0.010 C 
ENDBRANCH  18  20
ENDBRANCH   1  18
BRANCH  17  23
HETATM   23  O4  UNL     1     -21.548  -1.615  -7.888  1.00  0.00    -0.392 OA
ATOM     24  H4  UNL     1     -21.205  -2.498  -7.801  1.00  0.00     0.210 HD
ENDBRANCH  17  23
TORSDOF 3
ENDMDL
MODEL 3
REMARK VINA RESULT: -5.257644090      2.520      5.478
REMARK  3 active torsions:
REMARK  status: ('A' for Active; 'I' for Inactive)
REMARK    1  A    between atoms: C2_2  and  C4_4 
REMARK    2  A    between atoms: C4_4  and  C6_6 
REMARK    3  A    between atoms: C19_22  and  O4_23 
ROOT
HETATM    1  C6  UNL     1     -22.502   0.858  -6.602  1.00  0.00     0.091 C 
HETATM    2  C7  UNL     1     -22.744  -0.664  -6.619  1.00  0.00     0.042 C 
HETATM    3  C8  UNL     1     -21.485  -1.428  -6.840  1.00  0.00     0.015 C 
HETATM    4  C9  UNL     1     -20.924  -1.447  -8.200  1.00  0.00    -0.006 C 
HETATM    5  C10 UNL     1     -19.440  -1.169  -8.259  1.00  0.00     0.018 C 
HETATM    6  C11 UNL     1     -21.140  -2.742  -8.971  1.00  0.00     0.122 C 
HETATM    7  C12 UNL     1     -21.010  -2.214 -10.377  1.00  0.00     0.260 C 
HETATM    8  O1  UNL     1     -20.932  -2.879 -11.449  1.00  0.00    -0.265 OA
HETATM    9  O2  UNL     1     -20.983  -0.813 -10.352  1.00  0.00    -0.312 OA
HETATM   10  C13 UNL     1     -21.650  -0.484  -9.120  1.00  0.00     0.170 C 
HETATM   11  C14 UNL     1     -21.401   0.916  -8.672  1.00  0.00     0.160 C 
HETATM   12  O3  UNL     1     -21.335   1.084  -7.318  1.00  0.00    -0.368 OA
HETATM   13  C15 UNL     1     -22.270   1.896  -9.393  1.00  0.00    -0.017 C 
HETATM   14  C16 UNL     1     -23.105   1.317 -10.485  1.00  0.00     0.018 C 
HETATM   15  C17 UNL     1     -21.473   3.053  -9.999  1.00  0.00     0.018 C 
HETATM   16  C18 UNL     1     -23.188   2.515  -8.362  1.00  0.00     0.046 C 
HETATM   17  C19 UNL     1     -23.629   1.450  -7.346  1.00  0.00     0.153 C 
ENDROOT
BRANCH   1  18
HETATM   18  C4  UNL     1     -22.242   1.278  -5.204  1.00  0.00     0.022 C 
HETATM   19  C5  UNL     1     -20.856   1.822  -4.922  1.00  0.00     0.013 C 
BRANCH  18  20
HETATM   20  C2  UNL     1     -22.762   0.437  -4.100  1.00  0.00    -0.016 C 
HETATM   21  C1  UNL     1     -23.828   1.311  -3.392  1.00  0.00     0.010 C 
HETATM   22  C3  UNL     1     -21.869  -0.023  -3.029  1.00  0.00     0.010 C 
ENDBRANCH  18  20
ENDBRANCH   1  18
BRANCH  17  23
HETATM   23  O4  UNL     1     -24.684   1.967  -6.668  1.00  0.00    -0.392 OA
ATOM     24  H4  UNL     1     -24.701   1.922  -5.719  1.00  0.00     0.210 HD
ENDBRANCH  17  23
TORSDOF 3
ENDMDL
MODEL 4
REMARK VINA RESULT: -5.251796104      1.964      6.054
REMARK  3 active torsions:
REMARK  status: ('A' for Active; 'I' for Inactive)
REMARK    1  A    between atoms: C2_2  and  C4_4 
REMARK    2  A    between atoms: C4_4  and  C6_6 
REMARK    3  A    between atoms: C19_22  and  O4_23 
ROOT
HETATM    1  C6  UNL     1     -21.070  -0.862  -6.598  1.00  0.00     0.091 C 
HETATM    2  C7  UNL     1     -20.822   0.659  -6.616  1.00  0.00     0.042 C 
HETATM    3  C8  UNL     1     -22.078   1.429  -6.833  1.00  0.00     0.015 C 
HETATM    4  C9  UNL     1     -22.643   1.450  -8.192  1.00  0.00    -0.006 C 
HETATM    5  C10 UNL     1     -24.129   1.179  -8.247  1.00  0.00     0.018 C 
HETATM    6  C11 UNL     1     -22.424   2.744  -8.964  1.00  0.00     0.122 C 
HETATM    7  C12 UNL     1     -22.561   2.216 -10.369  1.00  0.00     0.260 C 
HETATM    8  O1  UNL     1     -22.639   2.882 -11.441  1.00  0.00    -0.265 OA
HETATM    9  O2  UNL     1     -22.594   0.815 -10.344  1.00  0.00    -0.312 OA
HETATM   10  C13 UNL     1     -21.925   0.483  -9.114  1.00  0.00     0.170 C 
HETATM   11  C14 UNL     1     -22.178  -0.915  -8.665  1.00  0.00     0.160 C 
HETATM   12  O3  UNL     1     -22.241  -1.082  -7.310  1.00  0.00    -0.368 OA
HETATM   13  C15 UNL     1     -21.316  -1.899  -9.389  1.00  0.00    -0.017 C 
HETATM   14  C16 UNL     1     -20.482  -1.324 -10.483  1.00  0.00     0.018 C 
HETATM   15  C17 UNL     1     -22.119  -3.053  -9.992  1.00  0.00     0.018 C 
HETATM   16  C18 UNL     1     -20.397  -2.521  -8.360  1.00  0.00     0.046 C 
HETATM   17  C19 UNL     1     -19.948  -1.458  -7.346  1.00  0.00     0.153 C 
ENDROOT
BRANCH   1  18
HETATM   18  C4  UNL     1     -21.328  -1.280  -5.199  1.00  0.00     0.022 C 
HETATM   19  C5  UNL     1     -22.708  -1.839  -4.918  1.00  0.00     0.013 C 
BRANCH  18  20
HETATM   20  C2  UNL     1     -20.820  -0.430  -4.097  1.00  0.00    -0.016 C 
HETATM   21  C1  UNL     1     -19.744  -1.289  -3.386  1.00  0.00     0.010 C 
HETATM   22  C3  UNL     1     -21.720   0.022  -3.028  1.00  0.00     0.010 C 
ENDBRANCH  18  20
ENDBRANCH   1  18
BRANCH  17  23
HETATM   23  O4  UNL     1     -18.894  -1.980  -6.670  1.00  0.00    -0.392 OA
ATOM     24  H4  UNL     1     -18.391  -2.688  -7.058  1.00  0.00     0.210 HD
ENDBRANCH  17  23
TORSDOF 3
ENDMDL
MODEL 5
REMARK VINA RESULT: -5.070804959      9.865     12.318
REMARK  3 active torsions:
REMARK  status: ('A' for Active; 'I' for Inactive)
REMARK    1  A    between atoms: C2_2  and  C4_4 
REMARK    2  A    between atoms: C4_4  and  C6_6 
REMARK    3  A    between atoms: C19_22  and  O4_23 
ROOT
HETATM    1  C6  UNL     1     -26.261   2.358   3.125  1.00  0.00     0.091 C 
HETATM    2  C7  UNL     1     -25.341   3.527   2.722  1.00  0.00     0.042 C 
HETATM    3  C8  UNL     1     -25.461   4.681   3.656  1.00  0.00     0.015 C 
HETATM    4  C9  UNL     1     -26.664   5.521   3.557  1.00  0.00    -0.006 C 
HETATM    5  C10 UNL     1     -27.316   5.825   4.886  1.00  0.00     0.018 C 
HETATM    6  C11 UNL     1     -26.459   6.867   2.874  1.00  0.00     0.122 C 
HETATM    7  C12 UNL     1     -27.877   7.136   2.436  1.00  0.00     0.260 C 
HETATM    8  O1  UNL     1     -28.347   8.207   1.956  1.00  0.00    -0.265 OA
HETATM    9  O2  UNL     1     -28.657   5.990   2.637  1.00  0.00    -0.312 OA
HETATM   10  C13 UNL     1     -27.695   4.919   2.621  1.00  0.00     0.170 C 
HETATM   11  C14 UNL     1     -28.216   3.651   3.205  1.00  0.00     0.160 C 
HETATM   12  O3  UNL     1     -27.291   2.903   3.878  1.00  0.00    -0.368 OA
HETATM   13  C15 UNL     1     -29.060   2.894   2.230  1.00  0.00    -0.017 C 
HETATM   14  C16 UNL     1     -29.319   3.594   0.939  1.00  0.00     0.018 C 
HETATM   15  C17 UNL     1     -30.420   2.501   2.811  1.00  0.00     0.018 C 
HETATM   16  C18 UNL     1     -28.340   1.596   1.938  1.00  0.00     0.046 C 
HETATM   17  C19 UNL     1     -26.825   1.842   1.864  1.00  0.00     0.153 C 
ENDROOT
BRANCH   1  18
HETATM   18  C4  UNL     1     -25.504   1.450   4.019  1.00  0.00     0.022 C 
HETATM   19  C5  UNL     1     -26.025   1.329   5.437  1.00  0.00     0.013 C 
BRANCH  18  20
HETATM   20  C2  UNL     1     -24.023   1.458   3.953  1.00  0.00    -0.016 C 
HETATM   21  C1  UNL     1     -23.630   0.027   3.502  1.00  0.00     0.010 C 
HETATM   22  C3  UNL     1     -23.224   1.714   5.158  1.00  0.00     0.010 C 
ENDBRANCH  18  20
ENDBRANCH   1  18
BRANCH  17  23
HETATM   23  O4  UNL     1     -26.277   0.745   1.283  1.00  0.00    -0.392 OA
ATOM     24  H4  UNL     1     -26.243   0.682   0.335  1.00  0.00     0.210 HD
ENDBRANCH  17  23
TORSDOF 3
ENDMDL
