MODEL 1
REMARK VINA RESULT: -6.555142672      0.000      0.000
REMARK  3 active torsions:
REMARK  status: ('A' for Active; 'I' for Inactive)
REMARK    1  A    between atoms: C2_2  and  C4_4 
REMARK    2  A    between atoms: C15_16  and  C16_17 
REMARK    3  A    between atoms: C16_17  and  O2_18 
ROOT
HETATM    1  C4  UNL     1     -27.804   3.464   1.315  1.00  0.00     0.062 C 
HETATM    2  C5  UNL     1     -27.797   4.539   2.060  1.00  0.00     0.021 C 
HETATM    3  C6  UNL     1     -26.755   5.259   2.936  1.00  0.00     0.061 C 
HETATM    4  C7  UNL     1     -26.054   4.253   3.751  1.00  0.00     0.006 A 
HETATM    5  C8  UNL     1     -25.492   4.277   5.072  1.00  0.00     0.015 A 
HETATM    6  C9  UNL     1     -26.744   3.414   4.695  1.00  0.00    -0.039 A 
HETATM    7  C10 UNL     1     -26.474   1.896   4.791  1.00  0.00     0.015 C 
HETATM    8  C11 UNL     1     -27.959   3.853   5.402  1.00  0.00     0.019 C 
HETATM    9  C12 UNL     1     -29.194   3.931   4.601  1.00  0.00     0.054 A 
HETATM   10  C13 UNL     1     -30.308   4.833   5.048  1.00  0.00     0.079 A 
HETATM   11  C14 UNL     1     -29.344   5.169   3.868  1.00  0.00     0.173 A 
HETATM   12  O1  UNL     1     -30.042   5.107   2.653  1.00  0.00    -0.312 OA
HETATM   13  C15 UNL     1     -29.113   4.897   1.642  1.00  0.00     0.221 C 
HETATM   14  O3  UNL     1     -29.140   3.634   1.014  1.00  0.00    -0.311 OA
HETATM   15  O4  UNL     1     -28.603   6.244   4.105  1.00  0.00    -0.344 OA
HETATM   16  C17 UNL     1     -27.366   6.430   3.593  1.00  0.00     0.065 C 
HETATM   17  C18 UNL     1     -26.444   7.042   4.668  1.00  0.00     0.046 C 
HETATM   18  C19 UNL     1     -27.419   7.570   2.558  1.00  0.00     0.046 C 
ENDROOT
BRANCH   1  19
HETATM   19  C2  UNL     1     -26.919   2.330   0.836  1.00  0.00     0.035 C 
HETATM   20  C1  UNL     1     -26.792   2.443  -0.700  1.00  0.00     0.016 C 
HETATM   21  C3  UNL     1     -27.548   1.021   1.179  1.00  0.00     0.016 C 
ENDBRANCH   1  19
BRANCH  13  22
HETATM   22  C16 UNL     1     -29.416   5.855   0.506  1.00  0.00     0.238 C 
BRANCH  22  23
HETATM   23  O2  UNL     1     -30.541   5.583  -0.207  1.00  0.00    -0.395 OA
ATOM     24  H2  UNL     1     -30.708   6.156  -0.945  1.00  0.00     0.209 HD
ENDBRANCH  22  23
ENDBRANCH  13  22
TORSDOF 3
ENDMDL
MODEL 2
REMARK VINA RESULT: -6.369736282      1.652      3.940
REMARK  3 active torsions:
REMARK  status: ('A' for Active; 'I' for Inactive)
REMARK    1  A    between atoms: C2_2  and  C4_4 
REMARK    2  A    between atoms: C15_16  and  C16_17 
REMARK    3  A    between atoms: C16_17  and  O2_18 
ROOT
HETATM    1  C4  UNL     1     -26.022   3.916   2.887  1.00  0.00     0.062 C 
HETATM    2  C5  UNL     1     -27.290   4.099   3.153  1.00  0.00     0.021 C 
HETATM    3  C6  UNL     1     -28.435   3.219   3.687  1.00  0.00     0.061 C 
HETATM    4  C7  UNL     1     -28.400   1.926   2.984  1.00  0.00     0.006 A 
HETATM    5  C8  UNL     1     -29.419   1.003   2.571  1.00  0.00     0.015 A 
HETATM    6  C9  UNL     1     -28.554   1.825   1.557  1.00  0.00    -0.039 A 
HETATM    7  C10 UNL     1     -27.633   0.930   0.696  1.00  0.00     0.015 C 
HETATM    8  C11 UNL     1     -29.361   2.780   0.779  1.00  0.00     0.019 C 
HETATM    9  C12 UNL     1     -28.793   4.128   0.599  1.00  0.00     0.054 A 
HETATM   10  C13 UNL     1     -29.708   5.283   0.312  1.00  0.00     0.079 A 
HETATM   11  C14 UNL     1     -29.050   5.027   1.703  1.00  0.00     0.173 A 
HETATM   12  O1  UNL     1     -28.084   6.012   1.959  1.00  0.00    -0.312 OA
HETATM   13  C15 UNL     1     -27.194   5.498   2.894  1.00  0.00     0.221 C 
HETATM   14  O3  UNL     1     -25.891   5.213   2.434  1.00  0.00    -0.311 OA
HETATM   15  O4  UNL     1     -29.942   4.772   2.651  1.00  0.00    -0.344 OA
HETATM   16  C17 UNL     1     -29.693   3.991   3.726  1.00  0.00     0.065 C 
HETATM   17  C18 UNL     1     -30.916   3.097   4.016  1.00  0.00     0.046 C 
HETATM   18  C19 UNL     1     -29.658   4.873   4.988  1.00  0.00     0.046 C 
ENDROOT
BRANCH   1  19
HETATM   19  C2  UNL     1     -24.928   2.868   2.922  1.00  0.00     0.035 C 
HETATM   20  C1  UNL     1     -23.737   3.450   3.715  1.00  0.00     0.016 C 
HETATM   21  C3  UNL     1     -24.483   2.558   1.531  1.00  0.00     0.016 C 
ENDBRANCH   1  19
BRANCH  13  22
HETATM   22  C16 UNL     1     -26.961   6.550   3.962  1.00  0.00     0.238 C 
BRANCH  22  23
HETATM   23  O2  UNL     1     -27.842   7.585   3.968  1.00  0.00    -0.395 OA
ATOM     24  H2  UNL     1     -27.854   8.118   3.182  1.00  0.00     0.209 HD
ENDBRANCH  22  23
ENDBRANCH  13  22
TORSDOF 3
ENDMDL
MODEL 3
REMARK VINA RESULT: -6.182985524      1.169      1.347
REMARK  3 active torsions:
REMARK  status: ('A' for Active; 'I' for Inactive)
REMARK    1  A    between atoms: C2_2  and  C4_4 
REMARK    2  A    between atoms: C15_16  and  C16_17 
REMARK    3  A    between atoms: C16_17  and  O2_18 
ROOT
HETATM    1  C4  UNL     1     -27.921   2.742   0.759  1.00  0.00     0.062 C 
HETATM    2  C5  UNL     1     -27.880   3.603   1.743  1.00  0.00     0.021 C 
HETATM    3  C6  UNL     1     -26.853   3.981   2.827  1.00  0.00     0.061 C 
HETATM    4  C7  UNL     1     -26.312   2.744   3.412  1.00  0.00     0.006 A 
HETATM    5  C8  UNL     1     -25.860   2.394   4.729  1.00  0.00     0.015 A 
HETATM    6  C9  UNL     1     -27.148   1.782   4.081  1.00  0.00    -0.039 A 
HETATM    7  C10 UNL     1     -27.021   0.264   3.819  1.00  0.00     0.015 C 
HETATM    8  C11 UNL     1     -28.373   2.166   4.802  1.00  0.00     0.019 C 
HETATM    9  C12 UNL     1     -29.527   2.560   3.974  1.00  0.00     0.054 A 
HETATM   10  C13 UNL     1     -30.591   3.443   4.562  1.00  0.00     0.079 A 
HETATM   11  C14 UNL     1     -29.507   3.946   3.558  1.00  0.00     0.173 A 
HETATM   12  O1  UNL     1     -30.107   4.247   2.326  1.00  0.00    -0.312 OA
HETATM   13  C15 UNL     1     -29.121   4.187   1.350  1.00  0.00     0.221 C 
HETATM   14  O3  UNL     1     -29.207   3.119   0.432  1.00  0.00    -0.311 OA
HETATM   15  O4  UNL     1     -28.697   4.850   4.092  1.00  0.00    -0.344 OA
HETATM   16  C17 UNL     1     -27.410   5.021   3.713  1.00  0.00     0.065 C 
HETATM   17  C18 UNL     1     -26.529   5.260   4.957  1.00  0.00     0.046 C 
HETATM   18  C19 UNL     1     -27.279   6.373   2.986  1.00  0.00     0.046 C 
ENDROOT
BRANCH   1  19
HETATM   19  C2  UNL     1     -27.102   1.668   0.070  1.00  0.00     0.035 C 
HETATM   20  C1  UNL     1     -26.476   2.288  -1.199  1.00  0.00     0.016 C 
HETATM   21  C3  UNL     1     -27.990   0.536  -0.328  1.00  0.00     0.016 C 
ENDBRANCH   1  19
BRANCH  13  22
HETATM   22  C16 UNL     1     -29.245   5.413   0.466  1.00  0.00     0.238 C 
BRANCH  22  23
HETATM   23  O2  UNL     1     -30.445   5.572  -0.151  1.00  0.00    -0.395 OA
ATOM     24  H2  UNL     1     -31.027   4.822  -0.116  1.00  0.00     0.209 HD
ENDBRANCH  22  23
ENDBRANCH  13  22
TORSDOF 3
ENDMDL
MODEL 4
REMARK VINA RESULT: -5.721926778      2.604      5.415
REMARK  3 active torsions:
REMARK  status: ('A' for Active; 'I' for Inactive)
REMARK    1  A    between atoms: C2_2  and  C4_4 
REMARK    2  A    between atoms: C15_16  and  C16_17 
REMARK    3  A    between atoms: C16_17  and  O2_18 
ROOT
HETATM    1  C4  UNL     1     -27.067   3.778   2.341  1.00  0.00     0.062 C 
HETATM    2  C5  UNL     1     -27.295   2.668   1.687  1.00  0.00     0.021 C 
HETATM    3  C6  UNL     1     -28.539   1.982   1.094  1.00  0.00     0.061 C 
HETATM    4  C7  UNL     1     -29.626   2.042   2.085  1.00  0.00     0.006 A 
HETATM    5  C8  UNL     1     -30.708   1.157   2.413  1.00  0.00     0.015 A 
HETATM    6  C9  UNL     1     -29.512   1.435   3.385  1.00  0.00    -0.039 A 
HETATM    7  C10 UNL     1     -29.947   2.170   4.673  1.00  0.00     0.015 C 
HETATM    8  C11 UNL     1     -28.697   0.232   3.628  1.00  0.00     0.019 C 
HETATM    9  C12 UNL     1     -27.235   0.413   3.608  1.00  0.00     0.054 A 
HETATM   10  C13 UNL     1     -26.349  -0.763   3.315  1.00  0.00     0.079 A 
HETATM   11  C14 UNL     1     -26.653   0.368   2.284  1.00  0.00     0.173 A 
HETATM   12  O1  UNL     1     -25.500   1.138   2.071  1.00  0.00    -0.312 OA
HETATM   13  C15 UNL     1     -25.902   2.379   1.594  1.00  0.00     0.221 C 
HETATM   14  O3  UNL     1     -25.726   3.476   2.464  1.00  0.00    -0.311 OA
HETATM   15  O4  UNL     1     -27.310  -0.074   1.220  1.00  0.00    -0.344 OA
HETATM   16  C17 UNL     1     -28.168   0.683   0.500  1.00  0.00     0.065 C 
HETATM   17  C18 UNL     1     -29.404  -0.156   0.113  1.00  0.00     0.046 C 
HETATM   18  C19 UNL     1     -27.548   0.962  -0.882  1.00  0.00     0.046 C 
ENDROOT
BRANCH   1  19
HETATM   19  C2  UNL     1     -27.759   5.010   2.891  1.00  0.00     0.035 C 
HETATM   20  C1  UNL     1     -28.795   5.480   1.845  1.00  0.00     0.016 C 
HETATM   21  C3  UNL     1     -26.757   6.095   3.107  1.00  0.00     0.016 C 
ENDBRANCH   1  19
BRANCH  13  22
HETATM   22  C16 UNL     1     -25.033   2.739   0.403  1.00  0.00     0.238 C 
BRANCH  22  23
HETATM   23  O2  UNL     1     -23.974   1.917   0.180  1.00  0.00    -0.395 OA
ATOM     24  H2  UNL     1     -24.037   1.053   0.569  1.00  0.00     0.209 HD
ENDBRANCH  22  23
ENDBRANCH  13  22
TORSDOF 3
ENDMDL
MODEL 5
REMARK VINA RESULT: -5.699725682      1.701      3.566
REMARK  3 active torsions:
REMARK  status: ('A' for Active; 'I' for Inactive)
REMARK    1  A    between atoms: C2_2  and  C4_4 
REMARK    2  A    between atoms: C15_16  and  C16_17 
REMARK    3  A    between atoms: C16_17  and  O2_18 
ROOT
HETATM    1  C4  UNL     1     -29.885   3.149   2.765  1.00  0.00     0.062 C 
HETATM    2  C5  UNL     1     -28.690   3.133   2.232  1.00  0.00     0.021 C 
HETATM    3  C6  UNL     1     -27.560   2.096   2.104  1.00  0.00     0.061 C 
HETATM    4  C7  UNL     1     -27.378   1.439   3.409  1.00  0.00     0.006 A 
HETATM    5  C8  UNL     1     -26.231   0.909   4.092  1.00  0.00     0.015 A 
HETATM    6  C9  UNL     1     -27.011   2.172   4.592  1.00  0.00    -0.039 A 
HETATM    7  C10 UNL     1     -27.714   1.941   5.949  1.00  0.00     0.015 C 
HETATM    8  C11 UNL     1     -26.189   3.392   4.543  1.00  0.00     0.019 C 
HETATM    9  C12 UNL     1     -26.843   4.606   4.021  1.00  0.00     0.054 A 
HETATM   10  C13 UNL     1     -26.002   5.708   3.444  1.00  0.00     0.079 A 
HETATM   11  C14 UNL     1     -26.830   4.708   2.578  1.00  0.00     0.173 A 
HETATM   12  O1  UNL     1     -27.907   5.378   1.978  1.00  0.00    -0.312 OA
HETATM   13  C15 UNL     1     -28.872   4.430   1.665  1.00  0.00     0.221 C 
HETATM   14  O3  UNL     1     -30.065   4.473   2.419  1.00  0.00    -0.311 OA
HETATM   15  O4  UNL     1     -26.065   3.947   1.806  1.00  0.00    -0.344 OA
HETATM   16  C17 UNL     1     -26.396   2.694   1.423  1.00  0.00     0.065 C 
HETATM   17  C18 UNL     1     -25.152   1.783   1.487  1.00  0.00     0.046 C 
HETATM   18  C19 UNL     1     -26.691   2.695  -0.089  1.00  0.00     0.046 C 
ENDROOT
BRANCH   1  19
HETATM   19  C2  UNL     1     -30.874   2.280   3.516  1.00  0.00     0.035 C 
HETATM   20  C1  UNL     1     -30.776   2.635   5.017  1.00  0.00     0.016 C 
HETATM   21  C3  UNL     1     -30.521   0.841   3.331  1.00  0.00     0.016 C 
ENDBRANCH   1  19
BRANCH  13  22
HETATM   22  C16 UNL     1     -29.350   4.683   0.248  1.00  0.00     0.238 C 
BRANCH  22  23
HETATM   23  O2  UNL     1     -29.399   5.987  -0.131  1.00  0.00    -0.395 OA
ATOM     24  H2  UNL     1     -28.951   6.196  -0.941  1.00  0.00     0.209 HD
ENDBRANCH  22  23
ENDBRANCH  13  22
TORSDOF 3
ENDMDL
