MODEL 1
REMARK VINA RESULT: -7.193188089      0.000      0.000
REMARK  3 active torsions:
REMARK  status: ('A' for Active; 'I' for Inactive)
REMARK    1  A    between atoms: C2_2  and  N1_4 
REMARK    2  A    between atoms: N2_11  and  C9_12 
REMARK    3  A    between atoms: C14_17  and  O2_18 
ROOT
HETATM    1  N1  UNL     1       9.632  -9.994  -5.158  1.00  0.00     0.118 N 
HETATM    2  C4  UNL     1       9.301 -10.476  -6.469  1.00  0.00     0.441 C 
HETATM    3  O1  UNL     1       9.556 -11.832  -6.452  1.00  0.00    -0.349 OA
HETATM    4  C5  UNL     1      10.456 -12.095  -5.431  1.00  0.00     0.091 C 
HETATM    5  C6  UNL     1      11.679 -12.705  -6.052  1.00  0.00     0.042 C 
HETATM    6  C7  UNL     1      11.185 -13.714  -7.083  1.00  0.00     0.033 C 
HETATM    7  C8  UNL     1      10.475 -14.802  -6.294  1.00  0.00     0.273 C 
HETATM    8  N2  UNL     1      11.166 -14.913  -5.038  1.00  0.00     0.095 N 
HETATM    9  C15 UNL     1      10.592 -14.147  -3.974  1.00  0.00     0.276 C 
HETATM   10  C16 UNL     1       9.780 -12.971  -4.418  1.00  0.00     0.070 C 
HETATM   11  C17 UNL     1      10.826 -10.733  -4.853  1.00  0.00     0.313 C 
ENDROOT
BRANCH   8  12
HETATM   12  C9  UNL     1      11.497 -16.270  -4.675  1.00  0.00     0.251 C 
HETATM   13  C10 UNL     1      12.968 -16.376  -4.584  1.00  0.00     0.038 C 
HETATM   14  C11 UNL     1      13.515 -17.282  -3.537  1.00  0.00     0.002 C 
HETATM   15  C12 UNL     1      12.488 -18.337  -3.148  1.00  0.00     0.003 C 
HETATM   16  C13 UNL     1      11.379 -17.536  -2.492  1.00  0.00     0.034 C 
HETATM   17  C14 UNL     1      10.706 -16.626  -3.471  1.00  0.00     0.151 C 
BRANCH  17  18
HETATM   18  O2  UNL     1       9.523 -17.283  -3.857  1.00  0.00    -0.393 OA
ATOM     19  H2  UNL     1       8.966 -16.683  -4.339  1.00  0.00     0.210 HD
ENDBRANCH  17  18
ENDBRANCH   8  12
BRANCH   1  20
HETATM   20  C2  UNL     1       9.757  -8.577  -5.051  1.00  0.00     0.217 C 
HETATM   21  C1  UNL     1       9.331  -7.977  -6.385  1.00  0.00     0.042 C 
HETATM   22  C3  UNL     1      11.139  -8.085  -4.746  1.00  0.00     0.042 C 
ENDBRANCH   1  20
TORSDOF 3
ENDMDL
MODEL 2
REMARK VINA RESULT: -6.789006572      2.027      2.604
REMARK  3 active torsions:
REMARK  status: ('A' for Active; 'I' for Inactive)
REMARK    1  A    between atoms: C2_2  and  N1_4 
REMARK    2  A    between atoms: N2_11  and  C9_12 
REMARK    3  A    between atoms: C14_17  and  O2_18 
ROOT
HETATM    1  N1  UNL     1      10.264  -9.675  -5.147  1.00  0.00     0.118 N 
HETATM    2  C4  UNL     1       8.939  -9.765  -5.690  1.00  0.00     0.441 C 
HETATM    3  O1  UNL     1       8.677 -11.112  -5.834  1.00  0.00    -0.349 OA
HETATM    4  C5  UNL     1       9.885 -11.788  -5.892  1.00  0.00     0.091 C 
HETATM    5  C6  UNL     1       9.945 -12.496  -7.214  1.00  0.00     0.042 C 
HETATM    6  C7  UNL     1       8.569 -13.114  -7.439  1.00  0.00     0.033 C 
HETATM    7  C8  UNL     1       8.405 -14.169  -6.356  1.00  0.00     0.273 C 
HETATM    8  N2  UNL     1       9.715 -14.708  -6.109  1.00  0.00     0.095 N 
HETATM    9  C15 UNL     1      10.416 -14.094  -5.024  1.00  0.00     0.276 C 
HETATM   10  C16 UNL     1       9.976 -12.700  -4.704  1.00  0.00     0.070 C 
HETATM   11  C17 UNL     1      10.960 -10.706  -5.866  1.00  0.00     0.313 C 
ENDROOT
BRANCH   8  12
HETATM   12  C9  UNL     1       9.757 -16.150  -6.099  1.00  0.00     0.251 C 
HETATM   13  C10 UNL     1      10.203 -16.588  -4.760  1.00  0.00     0.038 C 
HETATM   14  C11 UNL     1       9.604 -17.842  -4.227  1.00  0.00     0.002 C 
HETATM   15  C12 UNL     1       9.093 -18.720  -5.362  1.00  0.00     0.003 C 
HETATM   16  C13 UNL     1       7.953 -17.913  -5.956  1.00  0.00     0.034 C 
HETATM   17  C14 UNL     1       8.445 -16.647  -6.584  1.00  0.00     0.151 C 
BRANCH  17  18
HETATM   18  O2  UNL     1       8.515 -16.905  -7.965  1.00  0.00    -0.393 OA
ATOM     19  H2  UNL     1       8.311 -17.817  -8.132  1.00  0.00     0.210 HD
ENDBRANCH  17  18
ENDBRANCH   8  12
BRANCH   1  20
HETATM   20  C2  UNL     1      10.860  -8.380  -5.224  1.00  0.00     0.217 C 
HETATM   21  C1  UNL     1      11.048  -7.877  -3.798  1.00  0.00     0.042 C 
HETATM   22  C3  UNL     1      10.060  -7.358  -5.971  1.00  0.00     0.042 C 
ENDBRANCH   1  20
TORSDOF 3
ENDMDL
MODEL 3
REMARK VINA RESULT: -6.686204015      1.203      1.306
REMARK  3 active torsions:
REMARK  status: ('A' for Active; 'I' for Inactive)
REMARK    1  A    between atoms: C2_2  and  N1_4 
REMARK    2  A    between atoms: N2_11  and  C9_12 
REMARK    3  A    between atoms: C14_17  and  O2_18 
ROOT
HETATM    1  N1  UNL     1       9.793  -9.587  -4.936  1.00  0.00     0.118 N 
HETATM    2  C4  UNL     1       8.671  -9.921  -5.765  1.00  0.00     0.441 C 
HETATM    3  O1  UNL     1       8.732 -11.287  -5.956  1.00  0.00    -0.349 OA
HETATM    4  C5  UNL     1      10.035 -11.702  -5.733  1.00  0.00     0.091 C 
HETATM    5  C6  UNL     1      10.533 -12.329  -7.002  1.00  0.00     0.042 C 
HETATM    6  C7  UNL     1       9.399 -13.203  -7.529  1.00  0.00     0.033 C 
HETATM    7  C8  UNL     1       9.220 -14.312  -6.504  1.00  0.00     0.273 C 
HETATM    8  N2  UNL     1      10.523 -14.584  -5.963  1.00  0.00     0.095 N 
HETATM    9  C15 UNL     1      10.821 -13.885  -4.751  1.00  0.00     0.276 C 
HETATM   10  C16 UNL     1      10.044 -12.623  -4.549  1.00  0.00     0.070 C 
HETATM   11  C17 UNL     1      10.830 -10.426  -5.471  1.00  0.00     0.313 C 
ENDROOT
BRANCH   8  12
HETATM   12  C9  UNL     1      10.858 -15.987  -5.932  1.00  0.00     0.251 C 
HETATM   13  C10 UNL     1      12.193 -16.156  -6.543  1.00  0.00     0.038 C 
HETATM   14  C11 UNL     1      13.070 -17.210  -5.964  1.00  0.00     0.002 C 
HETATM   15  C12 UNL     1      12.241 -18.270  -5.251  1.00  0.00     0.003 C 
HETATM   16  C13 UNL     1      11.629 -17.523  -4.080  1.00  0.00     0.034 C 
HETATM   17  C14 UNL     1      10.672 -16.470  -4.541  1.00  0.00     0.151 C 
BRANCH  17  18
HETATM   18  O2  UNL     1       9.388 -17.029  -4.399  1.00  0.00    -0.393 OA
ATOM     19  H2  UNL     1       8.983 -16.703  -3.604  1.00  0.00     0.210 HD
ENDBRANCH  17  18
ENDBRANCH   8  12
BRANCH   1  20
HETATM   20  C2  UNL     1      10.112  -8.197  -4.885  1.00  0.00     0.217 C 
HETATM   21  C1  UNL     1       9.687  -7.580  -6.212  1.00  0.00     0.042 C 
HETATM   22  C3  UNL     1      11.563  -7.887  -4.679  1.00  0.00     0.042 C 
ENDBRANCH   1  20
TORSDOF 3
ENDMDL
MODEL 4
REMARK VINA RESULT: -6.582356639      1.568      2.128
REMARK  3 active torsions:
REMARK  status: ('A' for Active; 'I' for Inactive)
REMARK    1  A    between atoms: C2_2  and  N1_4 
REMARK    2  A    between atoms: N2_11  and  C9_12 
REMARK    3  A    between atoms: C14_17  and  O2_18 
ROOT
HETATM    1  N1  UNL     1      10.538  -9.525  -4.943  1.00  0.00     0.118 N 
HETATM    2  C4  UNL     1       9.128  -9.688  -5.155  1.00  0.00     0.441 C 
HETATM    3  O1  UNL     1       8.922 -11.041  -5.329  1.00  0.00    -0.349 OA
HETATM    4  C5  UNL     1      10.119 -11.618  -5.724  1.00  0.00     0.091 C 
HETATM    5  C6  UNL     1       9.896 -12.245  -7.069  1.00  0.00     0.042 C 
HETATM    6  C7  UNL     1       8.547 -12.955  -7.000  1.00  0.00     0.033 C 
HETATM    7  C8  UNL     1       8.720 -14.077  -5.988  1.00  0.00     0.273 C 
HETATM    8  N2  UNL     1      10.081 -14.526  -6.103  1.00  0.00     0.095 N 
HETATM    9  C15 UNL     1      10.987 -13.919  -5.177  1.00  0.00     0.276 C 
HETATM   10  C16 UNL     1      10.554 -12.583  -4.662  1.00  0.00     0.070 C 
HETATM   11  C17 UNL     1      11.098 -10.459  -5.880  1.00  0.00     0.313 C 
ENDROOT
BRANCH   8  12
HETATM   12  C9  UNL     1      10.213 -15.959  -6.206  1.00  0.00     0.251 C 
HETATM   13  C10 UNL     1      11.035 -16.262  -7.396  1.00  0.00     0.038 C 
HETATM   14  C11 UNL     1      11.948 -17.433  -7.303  1.00  0.00     0.002 C 
HETATM   15  C12 UNL     1      11.463 -18.414  -6.243  1.00  0.00     0.003 C 
HETATM   16  C13 UNL     1      11.612 -17.643  -4.945  1.00  0.00     0.034 C 
HETATM   17  C14 UNL     1      10.688 -16.468  -4.894  1.00  0.00     0.151 C 
BRANCH  17  18
HETATM   18  O2  UNL     1       9.589 -16.875  -4.116  1.00  0.00    -0.393 OA
ATOM     19  H2  UNL     1       9.143 -17.597  -4.544  1.00  0.00     0.210 HD
ENDBRANCH  17  18
ENDBRANCH   8  12
BRANCH   1  20
HETATM   20  C2  UNL     1      11.016  -8.186  -5.068  1.00  0.00     0.217 C 
HETATM   21  C1  UNL     1      11.219  -7.639  -3.661  1.00  0.00     0.042 C 
HETATM   22  C3  UNL     1      10.100  -7.252  -5.797  1.00  0.00     0.042 C 
ENDBRANCH   1  20
TORSDOF 3
ENDMDL
MODEL 5
REMARK VINA RESULT: -6.448632029      1.497      7.033
REMARK  3 active torsions:
REMARK  status: ('A' for Active; 'I' for Inactive)
REMARK    1  A    between atoms: C2_2  and  N1_4 
REMARK    2  A    between atoms: N2_11  and  C9_12 
REMARK    3  A    between atoms: C14_17  and  O2_18 
ROOT
HETATM    1  N1  UNL     1      11.394 -15.765  -5.298  1.00  0.00     0.118 N 
HETATM    2  C4  UNL     1      10.678 -15.608  -6.531  1.00  0.00     0.441 C 
HETATM    3  O1  UNL     1      10.387 -14.262  -6.634  1.00  0.00    -0.349 OA
HETATM    4  C5  UNL     1      10.431 -13.707  -5.365  1.00  0.00     0.091 C 
HETATM    5  C6  UNL     1       9.072 -13.140  -5.074  1.00  0.00     0.042 C 
HETATM    6  C7  UNL     1       8.619 -12.424  -6.342  1.00  0.00     0.033 C 
HETATM    7  C8  UNL     1       9.578 -11.258  -6.527  1.00  0.00     0.273 C 
HETATM    8  N2  UNL     1       9.947 -10.819  -5.209  1.00  0.00     0.095 N 
HETATM    9  C15 UNL     1      11.163 -11.386  -4.712  1.00  0.00     0.276 C 
HETATM   10  C16 UNL     1      11.539 -12.697  -5.327  1.00  0.00     0.070 C 
HETATM   11  C17 UNL     1      10.688 -14.875  -4.418  1.00  0.00     0.313 C 
ENDROOT
BRANCH   8  12
HETATM   12  C9  UNL     1       9.842  -9.393  -5.022  1.00  0.00     0.251 C 
HETATM   13  C10 UNL     1      11.021  -8.939  -4.256  1.00  0.00     0.038 C 
HETATM   14  C11 UNL     1      11.572  -7.600  -4.597  1.00  0.00     0.002 C 
HETATM   15  C12 UNL     1      10.507  -6.729  -5.251  1.00  0.00     0.003 C 
HETATM   16  C13 UNL     1      10.226  -7.431  -6.567  1.00  0.00     0.034 C 
HETATM   17  C14 UNL     1       9.606  -8.775  -6.351  1.00  0.00     0.151 C 
BRANCH  17  18
HETATM   18  O2  UNL     1       8.225  -8.599  -6.555  1.00  0.00    -0.393 OA
ATOM     19  H2  UNL     1       7.805  -8.376  -5.733  1.00  0.00     0.210 HD
ENDBRANCH  17  18
ENDBRANCH   8  12
BRANCH   1  20
HETATM   20  C2  UNL     1      11.505 -17.109  -4.832  1.00  0.00     0.217 C 
HETATM   21  C1  UNL     1      10.103 -17.585  -4.469  1.00  0.00     0.042 C 
HETATM   22  C3  UNL     1      12.378 -17.292  -3.628  1.00  0.00     0.042 C 
ENDBRANCH   1  20
TORSDOF 3
ENDMDL
