MODEL 1
REMARK VINA RESULT: -7.015879456      0.000      0.000
REMARK  2 active torsions:
REMARK  status: ('A' for Active; 'I' for Inactive)
REMARK    1  A    between atoms: C2_4  and  C3_5 
REMARK    2  A    between atoms: C9_13  and  N3_14 
ROOT
HETATM    1  C3  UNL     1      14.732 -32.938   3.156  1.00  0.00     0.042 C 
HETATM    2  C4  UNL     1      13.910 -31.918   3.301  1.00  0.00     0.030 C 
HETATM    3  C5  UNL     1      12.684 -31.846   2.494  1.00  0.00     0.088 C 
HETATM    4  C6  UNL     1      11.636 -30.958   3.095  1.00  0.00     0.045 C 
HETATM    5  C7  UNL     1      11.236 -29.894   2.101  1.00  0.00     0.039 C 
HETATM    6  C8  UNL     1      10.393 -31.813   3.370  1.00  0.00     0.039 C 
HETATM    7  N2  UNL     1      12.013 -30.354   4.333  1.00  0.00    -0.217 N 
ATOM      8  H2  UNL     1      11.261 -30.056   4.954  1.00  0.00     0.178 HD
HETATM    9  C9  UNL     1      13.340 -30.133   4.773  1.00  0.00     0.677 C 
HETATM   10  N4  UNL     1      14.256 -30.905   4.259  1.00  0.00    -0.196 N 
ATOM     11  H4  UNL     1      15.229 -30.790   4.540  1.00  0.00     0.184 HD
ENDROOT
BRANCH   9  12
HETATM   12  N3  UNL     1      13.684 -29.134   5.718  1.00  0.00    -0.216 N 
HETATM   13  C10 UNL     1      12.661 -28.457   6.432  1.00  0.00     0.151 C 
HETATM   14  C11 UNL     1      12.740 -26.955   6.364  1.00  0.00     0.094 C 
HETATM   15  S1  UNL     1      14.423 -26.328   6.483  1.00  0.00    -0.166 SA
HETATM   16  C12 UNL     1      15.468 -27.455   5.481  1.00  0.00     0.094 C 
HETATM   17  C13 UNL     1      15.088 -28.852   5.908  1.00  0.00     0.151 C 
ENDBRANCH   9  12
BRANCH   1  18
HETATM   18  C2  UNL     1      15.963 -33.061   3.930  1.00  0.00     0.084 C 
HETATM   19  N1  UNL     1      17.007 -33.559   3.379  1.00  0.00    -0.403 N 
HETATM   20  C1  UNL     1      17.023 -34.012   2.004  1.00  0.00     0.145 C 
ATOM     21  H1  UNL     1      17.861 -33.640   3.931  1.00  0.00     0.158 HD
ENDBRANCH   1  18
TORSDOF 2
ENDMDL
MODEL 2
REMARK VINA RESULT: -6.856521879      2.890      3.822
REMARK  2 active torsions:
REMARK  status: ('A' for Active; 'I' for Inactive)
REMARK    1  A    between atoms: C2_4  and  C3_5 
REMARK    2  A    between atoms: C9_13  and  N3_14 
ROOT
HETATM    1  C3  UNL     1      17.337 -30.274   1.050  1.00  0.00     0.042 C 
HETATM    2  C4  UNL     1      16.389 -30.534   1.928  1.00  0.00     0.030 C 
HETATM    3  C5  UNL     1      16.019 -31.928   2.213  1.00  0.00     0.088 C 
HETATM    4  C6  UNL     1      15.334 -32.094   3.536  1.00  0.00     0.045 C 
HETATM    5  C7  UNL     1      13.995 -32.763   3.338  1.00  0.00     0.039 C 
HETATM    6  C8  UNL     1      16.188 -33.035   4.396  1.00  0.00     0.039 C 
HETATM    7  N2  UNL     1      15.172 -30.883   4.274  1.00  0.00    -0.217 N 
ATOM      8  H2  UNL     1      15.062 -30.964   5.286  1.00  0.00     0.178 HD
HETATM    9  C9  UNL     1      15.150 -29.579   3.725  1.00  0.00     0.677 C 
HETATM   10  N4  UNL     1      15.749 -29.425   2.577  1.00  0.00    -0.196 N 
ATOM     11  H4  UNL     1      15.764 -28.506   2.136  1.00  0.00     0.184 HD
ENDROOT
BRANCH   9  12
HETATM   12  N3  UNL     1      14.519 -28.482   4.363  1.00  0.00    -0.216 N 
HETATM   13  C10 UNL     1      15.015 -27.167   4.160  1.00  0.00     0.151 C 
HETATM   14  C11 UNL     1      15.302 -26.405   5.428  1.00  0.00     0.094 C 
HETATM   15  S1  UNL     1      14.062 -26.662   6.706  1.00  0.00    -0.166 SA
HETATM   16  C12 UNL     1      13.630 -28.445   6.659  1.00  0.00     0.094 C 
HETATM   17  C13 UNL     1      13.379 -28.766   5.205  1.00  0.00     0.151 C 
ENDBRANCH   9  12
BRANCH   1  18
HETATM   18  C2  UNL     1      17.745 -28.910   0.728  1.00  0.00     0.084 C 
HETATM   19  N1  UNL     1      18.698 -28.718  -0.107  1.00  0.00    -0.403 N 
HETATM   20  C1  UNL     1      19.399 -29.807  -0.755  1.00  0.00     0.145 C 
ATOM     21  H1  UNL     1      18.974 -27.760  -0.324  1.00  0.00     0.158 HD
ENDBRANCH   1  18
TORSDOF 2
ENDMDL
MODEL 3
REMARK VINA RESULT: -6.854138856      2.951      3.846
REMARK  2 active torsions:
REMARK  status: ('A' for Active; 'I' for Inactive)
REMARK    1  A    between atoms: C2_4  and  C3_5 
REMARK    2  A    between atoms: C9_13  and  N3_14 
ROOT
HETATM    1  C3  UNL     1      17.002 -29.542   1.324  1.00  0.00     0.042 C 
HETATM    2  C4  UNL     1      16.192 -30.102   2.201  1.00  0.00     0.030 C 
HETATM    3  C5  UNL     1      15.909 -31.542   2.119  1.00  0.00     0.088 C 
HETATM    4  C6  UNL     1      15.417 -32.118   3.412  1.00  0.00     0.045 C 
HETATM    5  C7  UNL     1      14.085 -32.796   3.198  1.00  0.00     0.039 C 
HETATM    6  C8  UNL     1      16.410 -33.200   3.856  1.00  0.00     0.039 C 
HETATM    7  N2  UNL     1      15.320 -31.175   4.480  1.00  0.00    -0.217 N 
ATOM      8  H2  UNL     1      15.353 -31.543   5.432  1.00  0.00     0.178 HD
HETATM    9  C9  UNL     1      15.182 -29.774   4.334  1.00  0.00     0.677 C 
HETATM   10  N4  UNL     1      15.613 -29.265   3.214  1.00  0.00    -0.196 N 
ATOM     11  H4  UNL     1      15.538 -28.260   3.055  1.00  0.00     0.184 HD
ENDROOT
BRANCH   9  12
HETATM   12  N3  UNL     1      14.611 -28.946   5.332  1.00  0.00    -0.216 N 
HETATM   13  C10 UNL     1      13.662 -29.487   6.239  1.00  0.00     0.151 C 
HETATM   14  C11 UNL     1      12.371 -28.717   6.327  1.00  0.00     0.094 C 
HETATM   15  S1  UNL     1      12.607 -26.933   6.301  1.00  0.00    -0.166 SA
HETATM   16  C12 UNL     1      13.915 -26.601   5.058  1.00  0.00     0.094 C 
HETATM   17  C13 UNL     1      15.033 -27.565   5.374  1.00  0.00     0.151 C 
ENDBRANCH   9  12
BRANCH   1  18
HETATM   18  C2  UNL     1      17.319 -28.118   1.358  1.00  0.00     0.084 C 
HETATM   19  N1  UNL     1      18.160 -27.640   0.519  1.00  0.00    -0.403 N 
HETATM   20  C1  UNL     1      18.822 -28.458  -0.476  1.00  0.00     0.145 C 
ATOM     21  H1  UNL     1      18.373 -26.643   0.553  1.00  0.00     0.158 HD
ENDBRANCH   1  18
TORSDOF 2
ENDMDL
MODEL 4
REMARK VINA RESULT: -6.699258162      2.676      5.691
REMARK  2 active torsions:
REMARK  status: ('A' for Active; 'I' for Inactive)
REMARK    1  A    between atoms: C2_4  and  C3_5 
REMARK    2  A    between atoms: C9_13  and  N3_14 
ROOT
HETATM    1  C3  UNL     1      14.386 -28.938   6.037  1.00  0.00     0.042 C 
HETATM    2  C4  UNL     1      14.201 -29.729   4.999  1.00  0.00     0.030 C 
HETATM    3  C5  UNL     1      15.340 -30.459   4.425  1.00  0.00     0.088 C 
HETATM    4  C6  UNL     1      14.926 -31.658   3.625  1.00  0.00     0.045 C 
HETATM    5  C7  UNL     1      15.487 -31.560   2.227  1.00  0.00     0.039 C 
HETATM    6  C8  UNL     1      15.549 -32.899   4.278  1.00  0.00     0.039 C 
HETATM    7  N2  UNL     1      13.516 -31.875   3.573  1.00  0.00    -0.217 N 
ATOM      8  H2  UNL     1      13.197 -32.824   3.378  1.00  0.00     0.178 HD
HETATM    9  C9  UNL     1      12.522 -30.887   3.768  1.00  0.00     0.677 C 
HETATM   10  N4  UNL     1      12.872 -29.844   4.467  1.00  0.00    -0.196 N 
ATOM     11  H4  UNL     1      12.195 -29.101   4.639  1.00  0.00     0.184 HD
ENDROOT
BRANCH   9  12
HETATM   12  N3  UNL     1      11.209 -30.997   3.245  1.00  0.00    -0.216 N 
HETATM   13  C10 UNL     1      10.432 -32.151   3.528  1.00  0.00     0.151 C 
HETATM   14  C11 UNL     1       9.859 -32.833   2.313  1.00  0.00     0.094 C 
HETATM   15  S1  UNL     1       9.253 -31.679   1.073  1.00  0.00    -0.166 SA
HETATM   16  C12 UNL     1      10.472 -30.309   0.999  1.00  0.00     0.094 C 
HETATM   17  C13 UNL     1      10.721 -29.906   2.433  1.00  0.00     0.151 C 
ENDBRANCH   9  12
BRANCH   1  18
HETATM   18  C2  UNL     1      13.293 -28.189   6.648  1.00  0.00     0.084 C 
HETATM   19  N1  UNL     1      13.448 -26.943   6.904  1.00  0.00    -0.403 N 
HETATM   20  C1  UNL     1      14.675 -26.233   6.611  1.00  0.00     0.145 C 
ATOM     21  H1  UNL     1      12.676 -26.431   7.331  1.00  0.00     0.158 HD
ENDBRANCH   1  18
TORSDOF 2
ENDMDL
MODEL 5
REMARK VINA RESULT: -6.674909821      2.710      3.663
REMARK  2 active torsions:
REMARK  status: ('A' for Active; 'I' for Inactive)
REMARK    1  A    between atoms: C2_4  and  C3_5 
REMARK    2  A    between atoms: C9_13  and  N3_14 
ROOT
HETATM    1  C3  UNL     1      15.927 -32.105   2.893  1.00  0.00     0.042 C 
HETATM    2  C4  UNL     1      15.995 -30.806   2.678  1.00  0.00     0.030 C 
HETATM    3  C5  UNL     1      16.712 -30.297   1.501  1.00  0.00     0.088 C 
HETATM    4  C6  UNL     1      16.292 -28.911   1.111  1.00  0.00     0.045 C 
HETATM    5  C7  UNL     1      17.497 -28.002   1.075  1.00  0.00     0.039 C 
HETATM    6  C8  UNL     1      15.727 -28.972  -0.313  1.00  0.00     0.039 C 
HETATM    7  N2  UNL     1      15.277 -28.346   1.941  1.00  0.00    -0.217 N 
ATOM      8  H2  UNL     1      14.705 -27.604   1.539  1.00  0.00     0.178 HD
HETATM    9  C9  UNL     1      14.996 -28.727   3.275  1.00  0.00     0.677 C 
HETATM   10  N4  UNL     1      15.353 -29.933   3.620  1.00  0.00    -0.196 N 
ATOM     11  H4  UNL     1      15.174 -30.260   4.569  1.00  0.00     0.184 HD
ENDROOT
BRANCH   9  12
HETATM   12  N3  UNL     1      14.363 -27.867   4.207  1.00  0.00    -0.216 N 
HETATM   13  C10 UNL     1      14.823 -26.533   4.360  1.00  0.00     0.151 C 
HETATM   14  C11 UNL     1      15.136 -26.138   5.780  1.00  0.00     0.094 C 
HETATM   15  S1  UNL     1      13.945 -26.773   6.970  1.00  0.00    -0.166 SA
HETATM   16  C12 UNL     1      13.551 -28.487   6.446  1.00  0.00     0.094 C 
HETATM   17  C13 UNL     1      13.259 -28.406   4.967  1.00  0.00     0.151 C 
ENDBRANCH   9  12
BRANCH   1  18
HETATM   18  C2  UNL     1      15.229 -32.666   4.045  1.00  0.00     0.084 C 
HETATM   19  N1  UNL     1      14.016 -33.059   3.916  1.00  0.00    -0.403 N 
HETATM   20  C1  UNL     1      13.296 -32.971   2.663  1.00  0.00     0.145 C 
ATOM     21  H1  UNL     1      13.539 -33.450   4.729  1.00  0.00     0.158 HD
ENDBRANCH   1  18
TORSDOF 2
ENDMDL
