MODEL 1
REMARK VINA RESULT: -7.324183219      0.000      0.000
REMARK  3 active torsions:
REMARK  status: ('A' for Active; 'I' for Inactive)
REMARK    1  A    between atoms: C4_4  and  C5_5 
REMARK    2  A    between atoms: C5_5  and  N1_6 
REMARK    3  A    between atoms: C8_10  and  N2_11 
ROOT
HETATM    1  N1  UNL     1      14.191 -28.823   3.934  1.00  0.00    -0.328 N 
HETATM    2  C6  UNL     1      14.141 -27.790   4.719  1.00  0.00     0.027 A 
HETATM    3  C7  UNL     1      13.780 -27.980   6.026  1.00  0.00     0.009 A 
HETATM    4  S1  UNL     1      13.521 -29.670   6.071  1.00  0.00    -0.057 SA
HETATM    5  C8  UNL     1      13.887 -30.017   4.442  1.00  0.00     0.145 A 
HETATM    6  C9  UNL     1      13.696 -26.844   7.008  1.00  0.00     0.048 C 
HETATM    7  C10 UNL     1      14.915 -25.972   6.864  1.00  0.00     0.006 C 
HETATM    8  C11 UNL     1      15.324 -25.745   5.452  1.00  0.00     0.006 C 
HETATM    9  C12 UNL     1      14.433 -26.334   4.409  1.00  0.00     0.058 C 
ENDROOT
BRANCH   1  10
HETATM   10  C5  UNL     1      14.563 -28.762   2.500  1.00  0.00     0.163 C 
BRANCH  10  11
HETATM   11  C4  UNL     1      16.048 -29.003   2.313  1.00  0.00     0.144 C 
HETATM   12  C3  UNL     1      16.621 -27.801   1.624  1.00  0.00     0.065 C 
HETATM   13  C2  UNL     1      17.883 -28.102   0.859  1.00  0.00     0.122 C 
HETATM   14  C1  UNL     1      18.186 -26.897  -0.011  1.00  0.00     0.040 C 
HETATM   15  O2  UNL     1      17.602 -29.215   0.044  1.00  0.00    -0.362 OA
HETATM   16  C13 UNL     1      17.385 -30.283   0.921  1.00  0.00     0.338 C 
HETATM   17  O1  UNL     1      16.226 -30.176   1.639  1.00  0.00    -0.360 OA
ENDBRANCH  10  11
ENDBRANCH   1  10
BRANCH   5  18
HETATM   18  N2  UNL     1      13.848 -31.199   3.904  1.00  0.00    -0.379 N 
ATOM     19  H22 UNL     1      14.258 -31.447   3.003  1.00  0.00     0.158 HD
ATOM     20  H21 UNL     1      13.442 -32.077   4.226  1.00  0.00     0.158 HD
ENDBRANCH   5  18
TORSDOF 3
ENDMDL
MODEL 2
REMARK VINA RESULT: -7.014370909      2.391      3.234
REMARK  3 active torsions:
REMARK  status: ('A' for Active; 'I' for Inactive)
REMARK    1  A    between atoms: C4_4  and  C5_5 
REMARK    2  A    between atoms: C5_5  and  N1_6 
REMARK    3  A    between atoms: C8_10  and  N2_11 
ROOT
HETATM    1  N1  UNL     1      13.826 -29.536   3.513  1.00  0.00    -0.328 N 
HETATM    2  C6  UNL     1      14.141 -28.323   3.854  1.00  0.00     0.027 A 
HETATM    3  C7  UNL     1      13.425 -27.718   4.853  1.00  0.00     0.009 A 
HETATM    4  S1  UNL     1      12.307 -28.944   5.266  1.00  0.00    -0.057 SA
HETATM    5  C8  UNL     1      12.820 -30.130   4.154  1.00  0.00     0.145 A 
HETATM    6  C9  UNL     1      13.718 -26.318   5.315  1.00  0.00     0.048 C 
HETATM    7  C10 UNL     1      15.205 -26.152   5.485  1.00  0.00     0.006 C 
HETATM    8  C11 UNL     1      16.005 -26.795   4.409  1.00  0.00     0.006 C 
HETATM    9  C12 UNL     1      15.228 -27.421   3.300  1.00  0.00     0.058 C 
ENDROOT
BRANCH   1  10
HETATM   10  C5  UNL     1      14.514 -30.307   2.450  1.00  0.00     0.163 C 
BRANCH  10  11
HETATM   11  C4  UNL     1      15.710 -31.052   3.007  1.00  0.00     0.144 C 
HETATM   12  C3  UNL     1      16.280 -31.889   1.902  1.00  0.00     0.065 C 
HETATM   13  C2  UNL     1      17.050 -33.084   2.401  1.00  0.00     0.122 C 
HETATM   14  C1  UNL     1      17.314 -33.986   1.209  1.00  0.00     0.040 C 
HETATM   15  O2  UNL     1      16.213 -33.747   3.318  1.00  0.00    -0.362 OA
HETATM   16  C13 UNL     1      16.065 -32.870   4.398  1.00  0.00     0.338 C 
HETATM   17  O1  UNL     1      15.320 -31.761   4.106  1.00  0.00    -0.360 OA
ENDBRANCH  10  11
ENDBRANCH   1  10
BRANCH   5  18
HETATM   18  N2  UNL     1      12.293 -31.311   4.026  1.00  0.00    -0.379 N 
ATOM     19  H22 UNL     1      12.654 -32.052   3.425  1.00  0.00     0.158 HD
ATOM     20  H21 UNL     1      11.475 -31.738   4.459  1.00  0.00     0.158 HD
ENDBRANCH   5  18
TORSDOF 3
ENDMDL
MODEL 3
REMARK VINA RESULT: -6.578166362      3.073      5.880
REMARK  3 active torsions:
REMARK  status: ('A' for Active; 'I' for Inactive)
REMARK    1  A    between atoms: C4_4  and  C5_5 
REMARK    2  A    between atoms: C5_5  and  N1_6 
REMARK    3  A    between atoms: C8_10  and  N2_11 
ROOT
HETATM    1  N1  UNL     1      15.406 -29.593   2.090  1.00  0.00    -0.328 N 
HETATM    2  C6  UNL     1      15.522 -30.858   2.359  1.00  0.00     0.027 A 
HETATM    3  C7  UNL     1      16.586 -31.542   1.835  1.00  0.00     0.009 A 
HETATM    4  S1  UNL     1      17.390 -30.312   0.960  1.00  0.00    -0.057 SA
HETATM    5  C8  UNL     1      16.331 -29.024   1.316  1.00  0.00     0.145 A 
HETATM    6  C9  UNL     1      16.803 -33.007   2.092  1.00  0.00     0.048 C 
HETATM    7  C10 UNL     1      16.595 -33.291   3.556  1.00  0.00     0.006 C 
HETATM    8  C11 UNL     1      15.441 -32.564   4.148  1.00  0.00     0.006 C 
HETATM    9  C12 UNL     1      14.626 -31.746   3.201  1.00  0.00     0.058 C 
ENDROOT
BRANCH   1  10
HETATM   10  C5  UNL     1      14.305 -28.733   2.587  1.00  0.00     0.163 C 
BRANCH  10  11
HETATM   11  C4  UNL     1      14.602 -28.224   3.984  1.00  0.00     0.144 C 
HETATM   12  C3  UNL     1      13.298 -28.112   4.715  1.00  0.00     0.065 C 
HETATM   13  C2  UNL     1      13.332 -27.109   5.838  1.00  0.00     0.122 C 
HETATM   14  C1  UNL     1      11.902 -26.884   6.292  1.00  0.00     0.040 C 
HETATM   15  O2  UNL     1      13.849 -25.916   5.295  1.00  0.00    -0.362 OA
HETATM   16  C13 UNL     1      15.175 -26.199   4.953  1.00  0.00     0.338 C 
HETATM   17  O1  UNL     1      15.297 -27.053   3.891  1.00  0.00    -0.360 OA
ENDBRANCH  10  11
ENDBRANCH   1  10
BRANCH   5  18
HETATM   18  N2  UNL     1      16.466 -27.805   0.888  1.00  0.00    -0.379 N 
ATOM     19  H22 UNL     1      17.355 -27.358   0.664  1.00  0.00     0.158 HD
ATOM     20  H21 UNL     1      15.781 -27.077   0.689  1.00  0.00     0.158 HD
ENDBRANCH   5  18
TORSDOF 3
ENDMDL
MODEL 4
REMARK VINA RESULT: -6.572065252      1.585      2.039
REMARK  3 active torsions:
REMARK  status: ('A' for Active; 'I' for Inactive)
REMARK    1  A    between atoms: C4_4  and  C5_5 
REMARK    2  A    between atoms: C5_5  and  N1_6 
REMARK    3  A    between atoms: C8_10  and  N2_11 
ROOT
HETATM    1  N1  UNL     1      14.917 -28.862   3.128  1.00  0.00    -0.328 N 
HETATM    2  C6  UNL     1      14.646 -27.897   3.953  1.00  0.00     0.027 A 
HETATM    3  C7  UNL     1      13.356 -27.753   4.389  1.00  0.00     0.009 A 
HETATM    4  S1  UNL     1      12.572 -29.037   3.575  1.00  0.00    -0.057 SA
HETATM    5  C8  UNL     1      13.923 -29.664   2.746  1.00  0.00     0.145 A 
HETATM    6  C9  UNL     1      12.949 -26.666   5.344  1.00  0.00     0.048 C 
HETATM    7  C10 UNL     1      13.951 -26.590   6.466  1.00  0.00     0.006 C 
HETATM    8  C11 UNL     1      15.362 -26.738   6.018  1.00  0.00     0.006 C 
HETATM    9  C12 UNL     1      15.572 -26.851   4.544  1.00  0.00     0.058 C 
ENDROOT
BRANCH   1  10
HETATM   10  C5  UNL     1      16.266 -29.132   2.576  1.00  0.00     0.163 C 
BRANCH  10  11
HETATM   11  C4  UNL     1      16.524 -28.297   1.337  1.00  0.00     0.144 C 
HETATM   12  C3  UNL     1      16.967 -29.225   0.246  1.00  0.00     0.065 C 
HETATM   13  C2  UNL     1      17.800 -28.545  -0.808  1.00  0.00     0.122 C 
HETATM   14  C1  UNL     1      18.415 -29.630  -1.673  1.00  0.00     0.040 C 
HETATM   15  O2  UNL     1      18.817 -27.848  -0.129  1.00  0.00    -0.362 OA
HETATM   16  C13 UNL     1      18.169 -26.844   0.597  1.00  0.00     0.338 C 
HETATM   17  O1  UNL     1      17.423 -27.317   1.642  1.00  0.00    -0.360 OA
ENDBRANCH  10  11
ENDBRANCH   1  10
BRANCH   5  18
HETATM   18  N2  UNL     1      13.898 -30.687   1.945  1.00  0.00    -0.379 N 
ATOM     19  H22 UNL     1      13.828 -30.634   0.929  1.00  0.00     0.158 HD
ATOM     20  H21 UNL     1      13.944 -31.690   2.126  1.00  0.00     0.158 HD
ENDBRANCH   5  18
TORSDOF 3
ENDMDL
MODEL 5
REMARK VINA RESULT: -6.571279145      2.858      5.568
REMARK  3 active torsions:
REMARK  status: ('A' for Active; 'I' for Inactive)
REMARK    1  A    between atoms: C4_4  and  C5_5 
REMARK    2  A    between atoms: C5_5  and  N1_6 
REMARK    3  A    between atoms: C8_10  and  N2_11 
ROOT
HETATM    1  N1  UNL     1      15.189 -31.169   3.206  1.00  0.00    -0.328 N 
HETATM    2  C6  UNL     1      15.750 -30.651   2.155  1.00  0.00     0.027 A 
HETATM    3  C7  UNL     1      15.629 -31.307   0.959  1.00  0.00     0.009 A 
HETATM    4  S1  UNL     1      14.695 -32.668   1.406  1.00  0.00    -0.057 SA
HETATM    5  C8  UNL     1      14.523 -32.315   3.064  1.00  0.00     0.145 A 
HETATM    6  C9  UNL     1      16.244 -30.783  -0.309  1.00  0.00     0.048 C 
HETATM    7  C10 UNL     1      15.962 -29.308  -0.425  1.00  0.00     0.006 C 
HETATM    8  C11 UNL     1      16.093 -28.571   0.860  1.00  0.00     0.006 C 
HETATM    9  C12 UNL     1      16.558 -29.373   2.030  1.00  0.00     0.058 C 
ENDROOT
BRANCH   1  10
HETATM   10  C5  UNL     1      15.242 -30.568   4.560  1.00  0.00     0.163 C 
BRANCH  10  11
HETATM   11  C4  UNL     1      14.148 -29.534   4.739  1.00  0.00     0.144 C 
HETATM   12  C3  UNL     1      14.804 -28.191   4.847  1.00  0.00     0.065 C 
HETATM   13  C2  UNL     1      13.970 -27.182   5.592  1.00  0.00     0.122 C 
HETATM   14  C1  UNL     1      14.854 -25.983   5.879  1.00  0.00     0.040 C 
HETATM   15  O2  UNL     1      13.590 -27.791   6.803  1.00  0.00    -0.362 OA
HETATM   16  C13 UNL     1      12.744 -28.846   6.448  1.00  0.00     0.338 C 
HETATM   17  O1  UNL     1      13.387 -29.877   5.819  1.00  0.00    -0.360 OA
ENDBRANCH  10  11
ENDBRANCH   1  10
BRANCH   5  18
HETATM   18  N2  UNL     1      13.879 -33.049   3.921  1.00  0.00    -0.379 N 
ATOM     19  H22 UNL     1      14.000 -34.054   4.040  1.00  0.00     0.158 HD
ATOM     20  H21 UNL     1      13.169 -32.815   4.615  1.00  0.00     0.158 HD
ENDBRANCH   5  18
TORSDOF 3
ENDMDL
