MODEL 1
REMARK VINA RESULT: -7.659096104      0.000      0.000
REMARK  3 active torsions:
REMARK  status: ('A' for Active; 'I' for Inactive)
REMARK    1  A    between atoms: N3_11  and  C7_12 
REMARK    2  A    between atoms: C7_12  and  C8_13 
REMARK    3  A    between atoms: C13_19  and  O2_20 
ROOT
HETATM    1  C1  UNL     1      13.125 -26.536   5.166  1.00  0.00     0.015 C 
HETATM    2  C2  UNL     1      14.327 -27.133   5.827  1.00  0.00    -0.045 C 
HETATM    3  C3  UNL     1      14.813 -26.082   6.838  1.00  0.00     0.015 C 
HETATM    4  C4  UNL     1      14.062 -28.371   6.609  1.00  0.00     0.015 C 
HETATM    5  C5  UNL     1      13.380 -29.477   5.833  1.00  0.00     0.061 C 
HETATM    6  C6  UNL     1      14.246 -30.046   4.795  1.00  0.00     0.054 A 
HETATM    7  N1  UNL     1      14.475 -31.341   4.647  1.00  0.00    -0.288 N 
ATOM      8  H1  UNL     1      14.076 -32.085   5.219  1.00  0.00     0.188 HD
HETATM    9  N2  UNL     1      15.289 -31.508   3.654  1.00  0.00    -0.240 N 
ATOM     10  H2  UNL     1      15.624 -32.416   3.333  1.00  0.00     0.208 HD
HETATM   11  N3  UNL     1      15.639 -30.330   3.096  1.00  0.00    -0.275 N 
HETATM   12  C12 UNL     1      14.999 -29.409   3.792  1.00  0.00     0.082 A 
HETATM   13  C13 UNL     1      15.002 -27.946   3.586  1.00  0.00     0.172 C 
HETATM   14  C14 UNL     1      15.497 -27.339   4.888  1.00  0.00     0.047 C 
ENDROOT
BRANCH  11  15
HETATM   15  C7  UNL     1      16.570 -30.259   1.999  1.00  0.00     0.182 C 
BRANCH  15  16
HETATM   16  C8  UNL     1      16.674 -31.554   1.262  1.00  0.00     0.141 C 
HETATM   17  C9  UNL     1      17.645 -31.392   0.084  1.00  0.00     0.036 C 
HETATM   18  C10 UNL     1      17.913 -32.825  -0.271  1.00  0.00     0.029 C 
HETATM   19  C11 UNL     1      17.532 -33.549   0.995  1.00  0.00     0.168 C 
HETATM   20  O1  UNL     1      17.210 -32.609   1.942  1.00  0.00    -0.384 OA
ENDBRANCH  15  16
ENDBRANCH  11  15
BRANCH  13  21
HETATM   21  O2  UNL     1      15.722 -27.458   2.552  1.00  0.00    -0.389 OA
ATOM     22  H2  UNL     1      15.375 -26.705   2.087  1.00  0.00     0.210 HD
ENDBRANCH  13  21
TORSDOF 3
ENDMDL
MODEL 2
REMARK VINA RESULT: -7.611819797      1.333      1.690
REMARK  3 active torsions:
REMARK  status: ('A' for Active; 'I' for Inactive)
REMARK    1  A    between atoms: N3_11  and  C7_12 
REMARK    2  A    between atoms: C7_12  and  C8_13 
REMARK    3  A    between atoms: C13_19  and  O2_20 
ROOT
HETATM    1  C1  UNL     1      13.133 -27.041   4.773  1.00  0.00     0.015 C 
HETATM    2  C2  UNL     1      14.597 -27.279   4.977  1.00  0.00    -0.045 C 
HETATM    3  C3  UNL     1      15.182 -25.923   5.406  1.00  0.00     0.015 C 
HETATM    4  C4  UNL     1      14.929 -28.238   6.064  1.00  0.00     0.015 C 
HETATM    5  C5  UNL     1      14.269 -29.594   5.937  1.00  0.00     0.061 C 
HETATM    6  C6  UNL     1      14.780 -30.359   4.795  1.00  0.00     0.054 A 
HETATM    7  N1  UNL     1      15.217 -31.606   4.871  1.00  0.00    -0.288 N 
ATOM      8  H1  UNL     1      15.241 -32.176   5.716  1.00  0.00     0.188 HD
HETATM    9  N2  UNL     1      15.609 -31.981   3.696  1.00  0.00    -0.240 N 
ATOM     10  H2  UNL     1      15.990 -32.904   3.487  1.00  0.00     0.208 HD
HETATM   11  N3  UNL     1      15.451 -31.001   2.783  1.00  0.00    -0.275 N 
HETATM   12  C12 UNL     1      14.935 -29.983   3.448  1.00  0.00     0.082 A 
HETATM   13  C13 UNL     1      14.534 -28.662   2.922  1.00  0.00     0.172 C 
HETATM   14  C14 UNL     1      15.338 -27.637   3.706  1.00  0.00     0.047 C 
ENDROOT
BRANCH  11  15
HETATM   15  C7  UNL     1      15.856 -31.170   1.410  1.00  0.00     0.182 C 
BRANCH  15  16
HETATM   16  C8  UNL     1      17.209 -30.594   1.147  1.00  0.00     0.141 C 
HETATM   17  C9  UNL     1      18.063 -31.628   0.400  1.00  0.00     0.036 C 
HETATM   18  C10 UNL     1      19.185 -30.767  -0.104  1.00  0.00     0.029 C 
HETATM   19  C11 UNL     1      18.582 -29.387  -0.055  1.00  0.00     0.168 C 
HETATM   20  O1  UNL     1      17.266 -29.510   0.319  1.00  0.00    -0.384 OA
ENDBRANCH  15  16
ENDBRANCH  11  15
BRANCH  13  21
HETATM   21  O2  UNL     1      14.681 -28.440   1.597  1.00  0.00    -0.389 OA
ATOM     22  H2  UNL     1      15.519 -28.653   1.203  1.00  0.00     0.210 HD
ENDBRANCH  13  21
TORSDOF 3
ENDMDL
MODEL 3
REMARK VINA RESULT: -7.601742244      2.109      2.500
REMARK  3 active torsions:
REMARK  status: ('A' for Active; 'I' for Inactive)
REMARK    1  A    between atoms: N3_11  and  C7_12 
REMARK    2  A    between atoms: C7_12  and  C8_13 
REMARK    3  A    between atoms: C13_19  and  O2_20 
ROOT
HETATM    1  C1  UNL     1      14.410 -25.409   4.821  1.00  0.00     0.015 C 
HETATM    2  C2  UNL     1      14.343 -26.655   5.646  1.00  0.00    -0.045 C 
HETATM    3  C3  UNL     1      15.049 -26.318   6.970  1.00  0.00     0.015 C 
HETATM    4  C4  UNL     1      12.967 -27.092   6.008  1.00  0.00     0.015 C 
HETATM    5  C5  UNL     1      12.032 -27.280   4.833  1.00  0.00     0.061 C 
HETATM    6  C6  UNL     1      12.416 -28.417   3.990  1.00  0.00     0.054 A 
HETATM    7  N1  UNL     1      11.589 -29.381   3.619  1.00  0.00    -0.288 N 
ATOM      8  H1  UNL     1      10.599 -29.441   3.863  1.00  0.00     0.188 HD
HETATM    9  N2  UNL     1      12.241 -30.233   2.896  1.00  0.00    -0.240 N 
ATOM     10  H2  UNL     1      11.829 -31.071   2.486  1.00  0.00     0.208 HD
HETATM   11  N3  UNL     1      13.534 -29.876   2.753  1.00  0.00    -0.275 N 
HETATM   12  C12 UNL     1      13.662 -28.748   3.426  1.00  0.00     0.082 A 
HETATM   13  C13 UNL     1      14.869 -27.908   3.574  1.00  0.00     0.172 C 
HETATM   14  C14 UNL     1      15.132 -27.811   5.068  1.00  0.00     0.047 C 
ENDROOT
BRANCH  11  15
HETATM   15  C7  UNL     1      14.470 -30.693   2.022  1.00  0.00     0.182 C 
BRANCH  15  16
HETATM   16  C8  UNL     1      14.836 -31.935   2.769  1.00  0.00     0.141 C 
HETATM   17  C9  UNL     1      16.316 -32.257   2.521  1.00  0.00     0.036 C 
HETATM   18  C10 UNL     1      16.584 -33.250   3.614  1.00  0.00     0.029 C 
HETATM   19  C11 UNL     1      15.474 -32.962   4.592  1.00  0.00     0.168 C 
HETATM   20  O1  UNL     1      14.771 -31.877   4.131  1.00  0.00    -0.384 OA
ENDBRANCH  15  16
ENDBRANCH  11  15
BRANCH  13  21
HETATM   21  O2  UNL     1      15.993 -28.303   2.938  1.00  0.00    -0.389 OA
ATOM     22  H2  UNL     1      16.509 -28.994   3.338  1.00  0.00     0.210 HD
ENDBRANCH  13  21
TORSDOF 3
ENDMDL
MODEL 4
REMARK VINA RESULT: -7.578348661      3.385      3.986
REMARK  3 active torsions:
REMARK  status: ('A' for Active; 'I' for Inactive)
REMARK    1  A    between atoms: N3_11  and  C7_12 
REMARK    2  A    between atoms: C7_12  and  C8_13 
REMARK    3  A    between atoms: C13_19  and  O2_20 
ROOT
HETATM    1  C1  UNL     1      13.020 -27.036   6.311  1.00  0.00     0.015 C 
HETATM    2  C2  UNL     1      14.006 -27.168   5.193  1.00  0.00    -0.045 C 
HETATM    3  C3  UNL     1      14.446 -25.733   4.854  1.00  0.00     0.015 C 
HETATM    4  C4  UNL     1      15.247 -27.913   5.537  1.00  0.00     0.015 C 
HETATM    5  C5  UNL     1      15.019 -29.299   6.099  1.00  0.00     0.061 C 
HETATM    6  C6  UNL     1      14.470 -30.223   5.101  1.00  0.00     0.054 A 
HETATM    7  N1  UNL     1      14.975 -31.417   4.836  1.00  0.00    -0.288 N 
ATOM      8  H1  UNL     1      15.786 -31.834   5.294  1.00  0.00     0.188 HD
HETATM    9  N2  UNL     1      14.270 -31.968   3.901  1.00  0.00    -0.240 N 
ATOM     10  H2  UNL     1      14.454 -32.894   3.515  1.00  0.00     0.208 HD
HETATM   11  N3  UNL     1      13.263 -31.165   3.500  1.00  0.00    -0.275 N 
HETATM   12  C12 UNL     1      13.370 -30.075   4.236  1.00  0.00     0.082 A 
HETATM   13  C13 UNL     1      12.499 -28.881   4.228  1.00  0.00     0.172 C 
HETATM   14  C14 UNL     1      13.405 -27.703   3.910  1.00  0.00     0.047 C 
ENDROOT
BRANCH  11  15
HETATM   15  C7  UNL     1      12.366 -31.547   2.439  1.00  0.00     0.182 C 
BRANCH  15  16
HETATM   16  C8  UNL     1      11.456 -32.660   2.844  1.00  0.00     0.141 C 
HETATM   17  C9  UNL     1      11.465 -33.744   1.756  1.00  0.00     0.036 C 
HETATM   18  C10 UNL     1      10.842 -34.896   2.489  1.00  0.00     0.029 C 
HETATM   19  C11 UNL     1      11.057 -34.516   3.932  1.00  0.00     0.168 C 
HETATM   20  O1  UNL     1      11.800 -33.363   3.962  1.00  0.00    -0.384 OA
ENDBRANCH  15  16
ENDBRANCH  11  15
BRANCH  13  21
HETATM   21  O2  UNL     1      11.439 -28.881   3.390  1.00  0.00    -0.389 OA
ATOM     22  H2  UNL     1      11.294 -28.106   2.860  1.00  0.00     0.210 HD
ENDBRANCH  13  21
TORSDOF 3
ENDMDL
MODEL 5
REMARK VINA RESULT: -7.519511786      1.652      2.649
REMARK  3 active torsions:
REMARK  status: ('A' for Active; 'I' for Inactive)
REMARK    1  A    between atoms: N3_11  and  C7_12 
REMARK    2  A    between atoms: C7_12  and  C8_13 
REMARK    3  A    between atoms: C13_19  and  O2_20 
ROOT
HETATM    1  C1  UNL     1      13.723 -27.312   7.022  1.00  0.00     0.015 C 
HETATM    2  C2  UNL     1      13.106 -27.128   5.672  1.00  0.00    -0.045 C 
HETATM    3  C3  UNL     1      11.687 -26.594   5.931  1.00  0.00     0.015 C 
HETATM    4  C4  UNL     1      13.778 -26.120   4.809  1.00  0.00     0.015 C 
HETATM    5  C5  UNL     1      15.258 -26.352   4.597  1.00  0.00     0.061 C 
HETATM    6  C6  UNL     1      15.526 -27.551   3.796  1.00  0.00     0.054 A 
HETATM    7  N1  UNL     1      16.311 -27.572   2.730  1.00  0.00    -0.288 N 
ATOM      8  H1  UNL     1      16.821 -26.774   2.352  1.00  0.00     0.188 HD
HETATM    9  N2  UNL     1      16.323 -28.773   2.248  1.00  0.00    -0.240 N 
ATOM     10  H2  UNL     1      16.854 -29.054   1.424  1.00  0.00     0.208 HD
HETATM   11  N3  UNL     1      15.546 -29.607   2.971  1.00  0.00    -0.275 N 
HETATM   12  C12 UNL     1      15.043 -28.864   3.939  1.00  0.00     0.082 A 
HETATM   13  C13 UNL     1      14.147 -29.284   5.036  1.00  0.00     0.172 C 
HETATM   14  C14 UNL     1      12.901 -28.423   4.914  1.00  0.00     0.047 C 
ENDROOT
BRANCH  11  15
HETATM   15  C7  UNL     1      15.369 -30.988   2.602  1.00  0.00     0.182 C 
BRANCH  15  16
HETATM   16  C8  UNL     1      16.626 -31.594   2.069  1.00  0.00     0.141 C 
HETATM   17  C9  UNL     1      16.500 -33.124   2.090  1.00  0.00     0.036 C 
HETATM   18  C10 UNL     1      17.634 -33.522   1.192  1.00  0.00     0.029 C 
HETATM   19  C11 UNL     1      17.882 -32.260   0.405  1.00  0.00     0.168 C 
HETATM   20  O1  UNL     1      16.925 -31.342   0.761  1.00  0.00    -0.384 OA
ENDBRANCH  15  16
ENDBRANCH  11  15
BRANCH  13  21
HETATM   21  O2  UNL     1      13.796 -30.588   5.099  1.00  0.00    -0.389 OA
ATOM     22  H2  UNL     1      13.078 -30.826   5.674  1.00  0.00     0.210 HD
ENDBRANCH  13  21
TORSDOF 3
ENDMDL
