MODEL 1
REMARK VINA RESULT: -9.673327451      0.000      0.000
REMARK  19 active torsions:
REMARK  status: ('A' for Active; 'I' for Inactive)
REMARK    1  A    between atoms: C3_4  and  N2_5 
REMARK    2  A    between atoms: C7_13  and  C8_14 
REMARK    3  A    between atoms: C8_14  and  O1_15 
REMARK    4  A    between atoms: C8_14  and  O2_17 
REMARK    5  A    between atoms: C9_23  and  N6_24 
REMARK    6  A    between atoms: N6_24  and  C10_26 
REMARK    7  A    between atoms: C10_26  and  C11_27 
REMARK    8  A    between atoms: C11_27  and  N7_28 
REMARK    9  A    between atoms: N7_28  and  S1_30 
REMARK   10  A    between atoms: S1_30  and  N8_33 
REMARK   11  A    between atoms: N10_37  and  C13_38 
REMARK   12  A    between atoms: C13_38  and  O5_39 
REMARK   13  A    between atoms: O5_39  and  C14_40 
REMARK   14  A    between atoms: C14_40  and  C15_41 
REMARK   15  A    between atoms: C14_40  and  C16_44 
REMARK   16  A    between atoms: C15_41  and  O6_42 
REMARK   17  A    between atoms: C16_44  and  O7_45 
REMARK   18  A    between atoms: N11_47  and  N12_48 
REMARK   19  A    between atoms: C18_55  and  N14_56 
ROOT
HETATM    1  N1  UNL     1       9.527 -11.431 -10.029  1.00  0.00    -0.191 NA
HETATM    2  C1  UNL     1       9.382 -12.302  -9.288  1.00  0.00     0.107 C 
HETATM    3  C2  UNL     1       9.189 -13.377  -8.348  1.00  0.00     0.133 A 
HETATM    4  C3  UNL     1       9.133 -14.686  -8.795  1.00  0.00     0.147 A 
HETATM    5  N5  UNL     1       8.948 -15.652  -7.850  1.00  0.00    -0.175 N 
ATOM      6  H5  UNL     1       8.902 -16.628  -8.143  1.00  0.00     0.186 HD
HETATM    7  C9  UNL     1       8.826 -15.355  -6.543  1.00  0.00     0.681 A 
HETATM    8  N13 UNL     1       8.886 -14.083  -6.160  1.00  0.00    -0.176 N 
ATOM      9  H13 UNL     1       8.792 -13.865  -5.168  1.00  0.00     0.186 HD
HETATM   10  C18 UNL     1       9.065 -13.077  -7.028  1.00  0.00     0.139 A 
ENDROOT
BRANCH   4  11
HETATM   11  N2  UNL     1       9.261 -14.999 -10.166  1.00  0.00    -0.327 N 
HETATM   12  C4  UNL     1      10.404 -15.171 -10.752  1.00  0.00     0.111 A 
HETATM   13  C5  UNL     1      10.411 -15.474 -12.102  1.00  0.00     0.091 A 
HETATM   14  N4  UNL     1      11.574 -15.065 -10.101  1.00  0.00    -0.328 N 
HETATM   15  C6  UNL     1      11.622 -15.656 -12.725  1.00  0.00     0.108 A 
HETATM   16 CL1  UNL     1      11.692 -16.046 -14.445  1.00  0.00    -0.064 Cl
HETATM   17  N3  UNL     1      12.769 -15.543 -12.041  1.00  0.00    -0.332 N 
HETATM   18  C7  UNL     1      12.750 -15.245 -10.722  1.00  0.00     0.140 A 
ATOM     19  H3  UNL     1      13.659 -15.681 -12.518  1.00  0.00     0.168 HD
ATOM     20  H4  UNL     1      11.568 -14.841  -9.106  1.00  0.00     0.169 HD
ATOM     21  H2  UNL     1       8.412 -15.095 -10.723  1.00  0.00     0.169 HD
BRANCH  18  22
HETATM   22  C8  UNL     1      14.054 -15.131 -10.016  1.00  0.00     0.323 C 
BRANCH  22  23
HETATM   23  O1  UNL     1      14.554 -16.379  -9.673  1.00  0.00    -0.365 OA
ATOM     24  H1  UNL     1      15.497 -16.356  -9.564  1.00  0.00     0.213 HD
ENDBRANCH  22  23
BRANCH  22  25
HETATM   25  O2  UNL     1      13.922 -14.345  -8.878  1.00  0.00    -0.365 OA
ATOM     26  H2  UNL     1      14.405 -13.533  -8.978  1.00  0.00     0.213 HD
ENDBRANCH  22  25
ENDBRANCH  18  22
ENDBRANCH   4  11
BRANCH  10  27
HETATM   27  N14 UNL     1       9.117 -11.857  -6.602  1.00  0.00    -0.384 N 
ATOM     28 2H14 UNL     1       8.324 -11.459  -6.100  1.00  0.00     0.157 HD
ATOM     29 1H14 UNL     1       9.938 -11.273  -6.754  1.00  0.00     0.157 HD
ENDBRANCH  10  27
BRANCH   7  30
HETATM   30  N6  UNL     1       8.653 -16.330  -5.717  1.00  0.00    -0.224 N 
ATOM     31  H6  UNL     1       8.700 -17.280  -6.082  1.00  0.00     0.177 HD
BRANCH  30  32
HETATM   32  C10 UNL     1       8.402 -16.161  -4.318  1.00  0.00     0.158 C 
BRANCH  32  33
HETATM   33  C11 UNL     1       6.989 -15.630  -4.169  1.00  0.00     0.154 C 
BRANCH  33  34
HETATM   34  N7  UNL     1       6.124 -16.466  -4.970  1.00  0.00    -0.299 N 
ATOM     35  H7  UNL     1       6.173 -17.485  -4.992  1.00  0.00     0.173 HD
BRANCH  34  36
HETATM   36  S1  UNL     1       4.997 -15.531  -5.883  1.00  0.00     0.343 S 
HETATM   37  O3  UNL     1       4.382 -16.434  -6.918  1.00  0.00    -0.181 OA
HETATM   38  O4  UNL     1       5.642 -14.336  -6.505  1.00  0.00    -0.181 OA
BRANCH  36  39
HETATM   39  N8  UNL     1       3.721 -15.059  -4.813  1.00  0.00    -0.106 N 
HETATM   40  N9  UNL     1       3.547 -15.700  -3.584  1.00  0.00    -0.273 N 
HETATM   41  C12 UNL     1       2.616 -15.392  -2.746  1.00  0.00     0.223 A 
ATOM     42  H9  UNL     1       4.191 -16.451  -3.336  1.00  0.00     0.189 HD
HETATM   43  N10 UNL     1       1.667 -14.357  -3.000  1.00  0.00    -0.238 N 
HETATM   44  N11 UNL     1       1.766 -13.667  -4.198  1.00  0.00    -0.141 N 
HETATM   45  C17 UNL     1       2.807 -14.015  -5.129  1.00  0.00     0.393 A 
HETATM   46  O8  UNL     1       2.913 -13.401  -6.221  1.00  0.00    -0.240 OA
BRANCH  43  47
HETATM   47  C13 UNL     1       0.665 -14.098  -1.988  1.00  0.00     0.320 C 
BRANCH  47  48
HETATM   48  O5  UNL     1       1.275 -13.379  -0.977  1.00  0.00    -0.361 OA
BRANCH  48  49
HETATM   49  C14 UNL     1       0.799 -13.637   0.280  1.00  0.00     0.170 C 
BRANCH  49  50
HETATM   50  C15 UNL     1       1.973 -13.557   1.244  1.00  0.00     0.198 C 
BRANCH  50  51
HETATM   51  O6  UNL     1       1.536 -13.418   2.560  1.00  0.00    -0.398 OA
ATOM     52  H6  UNL     1       1.756 -12.561   2.906  1.00  0.00     0.209 HD
ENDBRANCH  50  51
ENDBRANCH  49  50
BRANCH  49  53
HETATM   53  C16 UNL     1       0.199 -15.014   0.426  1.00  0.00     0.198 C 
BRANCH  53  54
HETATM   54  O7  UNL     1      -0.518 -15.140   1.589  1.00  0.00    -0.398 OA
ATOM     55  H7  UNL     1      -1.389 -15.484   1.434  1.00  0.00     0.209 HD
ENDBRANCH  53  54
ENDBRANCH  49  53
ENDBRANCH  48  49
ENDBRANCH  47  48
ENDBRANCH  43  47
BRANCH  44  56
HETATM   56  N12 UNL     1       0.847 -12.653  -4.462  1.00  0.00    -0.319 N 
ATOM     57 2H12 UNL     1       0.102 -12.764  -5.150  1.00  0.00     0.179 HD
ATOM     58 1H12 UNL     1       0.925 -11.776  -3.947  1.00  0.00     0.179 HD
ENDBRANCH  44  56
ENDBRANCH  36  39
ENDBRANCH  34  36
ENDBRANCH  33  34
ENDBRANCH  32  33
ENDBRANCH  30  32
ENDBRANCH   7  30
TORSDOF 19
ENDMDL
MODEL 2
REMARK VINA RESULT: -9.497329345      4.148     11.536
REMARK  19 active torsions:
REMARK  status: ('A' for Active; 'I' for Inactive)
REMARK    1  A    between atoms: C3_4  and  N2_5 
REMARK    2  A    between atoms: C7_13  and  C8_14 
REMARK    3  A    between atoms: C8_14  and  O1_15 
REMARK    4  A    between atoms: C8_14  and  O2_17 
REMARK    5  A    between atoms: C9_23  and  N6_24 
REMARK    6  A    between atoms: N6_24  and  C10_26 
REMARK    7  A    between atoms: C10_26  and  C11_27 
REMARK    8  A    between atoms: C11_27  and  N7_28 
REMARK    9  A    between atoms: N7_28  and  S1_30 
REMARK   10  A    between atoms: S1_30  and  N8_33 
REMARK   11  A    between atoms: N10_37  and  C13_38 
REMARK   12  A    between atoms: C13_38  and  O5_39 
REMARK   13  A    between atoms: O5_39  and  C14_40 
REMARK   14  A    between atoms: C14_40  and  C15_41 
REMARK   15  A    between atoms: C14_40  and  C16_44 
REMARK   16  A    between atoms: C15_41  and  O6_42 
REMARK   17  A    between atoms: C16_44  and  O7_45 
REMARK   18  A    between atoms: N11_47  and  N12_48 
REMARK   19  A    between atoms: C18_55  and  N14_56 
ROOT
HETATM    1  N1  UNL     1       2.773 -19.406  -2.885  1.00  0.00    -0.191 NA
HETATM    2  C1  UNL     1       3.516 -18.705  -3.420  1.00  0.00     0.107 C 
HETATM    3  C2  UNL     1       4.443 -17.844  -4.107  1.00  0.00     0.133 A 
HETATM    4  C3  UNL     1       4.446 -16.484  -3.850  1.00  0.00     0.147 A 
HETATM    5  N5  UNL     1       5.351 -15.729  -4.537  1.00  0.00    -0.175 N 
ATOM      6  H5  UNL     1       5.382 -14.723  -4.373  1.00  0.00     0.186 HD
HETATM    7  C9  UNL     1       6.205 -16.273  -5.424  1.00  0.00     0.681 A 
HETATM    8  N13 UNL     1       6.166 -17.584  -5.639  1.00  0.00    -0.176 N 
ATOM      9  H13 UNL     1       6.815 -17.990  -6.313  1.00  0.00     0.186 HD
HETATM   10  C18 UNL     1       5.306 -18.393  -5.003  1.00  0.00     0.139 A 
ENDROOT
BRANCH   4  11
HETATM   11  N2  UNL     1       3.551 -15.911  -2.919  1.00  0.00    -0.327 N 
HETATM   12  C4  UNL     1       2.600 -15.100  -3.255  1.00  0.00     0.111 A 
HETATM   13  C5  UNL     1       1.782 -14.598  -2.259  1.00  0.00     0.091 A 
HETATM   14  N4  UNL     1       2.379 -14.730  -4.527  1.00  0.00    -0.328 N 
HETATM   15  C6  UNL     1       0.772 -13.737  -2.613  1.00  0.00     0.108 A 
HETATM   16 CL1  UNL     1      -0.303 -13.066  -1.384  1.00  0.00    -0.064 Cl
HETATM   17  N3  UNL     1       0.583 -13.391  -3.894  1.00  0.00    -0.332 N 
HETATM   18  C7  UNL     1       1.388 -13.887  -4.860  1.00  0.00     0.140 A 
ATOM     19  H3  UNL     1      -0.171 -12.752  -4.141  1.00  0.00     0.168 HD
ATOM     20  H4  UNL     1       2.982 -15.100  -5.262  1.00  0.00     0.169 HD
ATOM     21  H2  UNL     1       3.661 -16.149  -1.933  1.00  0.00     0.169 HD
BRANCH  18  22
HETATM   22  C8  UNL     1       1.132 -13.468  -6.263  1.00  0.00     0.323 C 
BRANCH  22  23
HETATM   23  O1  UNL     1       0.176 -14.274  -6.865  1.00  0.00    -0.365 OA
ATOM     24  H1  UNL     1       0.150 -14.137  -7.804  1.00  0.00     0.213 HD
ENDBRANCH  22  23
BRANCH  22  25
HETATM   25  O2  UNL     1       2.309 -13.498  -7.002  1.00  0.00    -0.365 OA
ATOM     26  H2  UNL     1       2.332 -12.776  -7.618  1.00  0.00     0.213 HD
ENDBRANCH  22  25
ENDBRANCH  18  22
ENDBRANCH   4  11
BRANCH  10  27
HETATM   27  N14 UNL     1       5.310 -19.663  -5.249  1.00  0.00    -0.384 N 
ATOM     28 2H14 UNL     1       6.141 -20.218  -5.046  1.00  0.00     0.157 HD
ATOM     29 1H14 UNL     1       4.497 -20.133  -5.646  1.00  0.00     0.157 HD
ENDBRANCH  10  27
BRANCH   7  30
HETATM   30  N6  UNL     1       7.028 -15.487  -6.029  1.00  0.00    -0.224 N 
ATOM     31  H6  UNL     1       7.973 -15.827  -6.204  1.00  0.00     0.177 HD
BRANCH  30  32
HETATM   32  C10 UNL     1       6.698 -14.167  -6.472  1.00  0.00     0.158 C 
BRANCH  32  33
HETATM   33  C11 UNL     1       7.802 -13.707  -7.403  1.00  0.00     0.154 C 
BRANCH  33  34
HETATM   34  N7  UNL     1       8.622 -12.766  -6.675  1.00  0.00    -0.299 N 
ATOM     35  H7  UNL     1       8.314 -11.832  -6.400  1.00  0.00     0.173 HD
BRANCH  34  36
HETATM   36  S1  UNL     1      10.183 -13.413  -6.327  1.00  0.00     0.343 S 
HETATM   37  O3  UNL     1       9.988 -14.711  -5.591  1.00  0.00    -0.181 OA
HETATM   38  O4  UNL     1      11.019 -12.454  -5.543  1.00  0.00    -0.181 OA
BRANCH  36  39
HETATM   39  N8  UNL     1      10.936 -13.803  -7.835  1.00  0.00    -0.106 N 
HETATM   40  N9  UNL     1      11.499 -15.064  -8.045  1.00  0.00    -0.273 N 
HETATM   41  C12 UNL     1      12.073 -15.412  -9.147  1.00  0.00     0.223 A 
ATOM     42  H9  UNL     1      11.454 -15.746  -7.288  1.00  0.00     0.189 HD
HETATM   43  N10 UNL     1      12.186 -14.532 -10.264  1.00  0.00    -0.238 N 
HETATM   44  N11 UNL     1      11.653 -13.258 -10.143  1.00  0.00    -0.141 N 
HETATM   45  C17 UNL     1      11.015 -12.876  -8.911  1.00  0.00     0.393 A 
HETATM   46  O8  UNL     1      10.525 -11.725  -8.781  1.00  0.00    -0.240 OA
BRANCH  43  47
HETATM   47  C13 UNL     1      12.851 -15.030 -11.450  1.00  0.00     0.320 C 
BRANCH  47  48
HETATM   48  O5  UNL     1      12.022 -15.979 -12.020  1.00  0.00    -0.361 OA
BRANCH  48  49
HETATM   49  C14 UNL     1      11.125 -15.488 -12.929  1.00  0.00     0.170 C 
BRANCH  49  50
HETATM   50  C15 UNL     1       9.733 -15.647 -12.337  1.00  0.00     0.198 C 
BRANCH  50  51
HETATM   51  O6  UNL     1       8.773 -15.018 -13.128  1.00  0.00    -0.398 OA
ATOM     52  H6  UNL     1       8.504 -14.190 -12.749  1.00  0.00     0.209 HD
ENDBRANCH  50  51
ENDBRANCH  49  50
BRANCH  49  53
HETATM   53  C16 UNL     1      11.134 -16.228 -14.245  1.00  0.00     0.198 C 
BRANCH  53  54
HETATM   54  O7  UNL     1      10.256 -17.282 -14.247  1.00  0.00    -0.398 OA
ATOM     55  H7  UNL     1      10.497 -17.943 -14.884  1.00  0.00     0.209 HD
ENDBRANCH  53  54
ENDBRANCH  49  53
ENDBRANCH  48  49
ENDBRANCH  47  48
ENDBRANCH  43  47
BRANCH  44  56
HETATM   56  N12 UNL     1      11.756 -12.386 -11.224  1.00  0.00    -0.319 N 
ATOM     57 2H12 UNL     1      12.577 -12.369 -11.830  1.00  0.00     0.179 HD
ATOM     58 1H12 UNL     1      10.982 -11.748 -11.413  1.00  0.00     0.179 HD
ENDBRANCH  44  56
ENDBRANCH  36  39
ENDBRANCH  34  36
ENDBRANCH  33  34
ENDBRANCH  32  33
ENDBRANCH  30  32
ENDBRANCH   7  30
TORSDOF 19
ENDMDL
MODEL 3
REMARK VINA RESULT: -9.128891480      3.990     10.948
REMARK  19 active torsions:
REMARK  status: ('A' for Active; 'I' for Inactive)
REMARK    1  A    between atoms: C3_4  and  N2_5 
REMARK    2  A    between atoms: C7_13  and  C8_14 
REMARK    3  A    between atoms: C8_14  and  O1_15 
REMARK    4  A    between atoms: C8_14  and  O2_17 
REMARK    5  A    between atoms: C9_23  and  N6_24 
REMARK    6  A    between atoms: N6_24  and  C10_26 
REMARK    7  A    between atoms: C10_26  and  C11_27 
REMARK    8  A    between atoms: C11_27  and  N7_28 
REMARK    9  A    between atoms: N7_28  and  S1_30 
REMARK   10  A    between atoms: S1_30  and  N8_33 
REMARK   11  A    between atoms: N10_37  and  C13_38 
REMARK   12  A    between atoms: C13_38  and  O5_39 
REMARK   13  A    between atoms: O5_39  and  C14_40 
REMARK   14  A    between atoms: C14_40  and  C15_41 
REMARK   15  A    between atoms: C14_40  and  C16_44 
REMARK   16  A    between atoms: C15_41  and  O6_42 
REMARK   17  A    between atoms: C16_44  and  O7_45 
REMARK   18  A    between atoms: N11_47  and  N12_48 
REMARK   19  A    between atoms: C18_55  and  N14_56 
ROOT
HETATM    1  N1  UNL     1       0.257 -12.684  -2.732  1.00  0.00    -0.191 NA
HETATM    2  C1  UNL     1       0.894 -13.379  -3.397  1.00  0.00     0.107 C 
HETATM    3  C2  UNL     1       1.698 -14.227  -4.238  1.00  0.00     0.133 A 
HETATM    4  C3  UNL     1       2.178 -15.431  -3.751  1.00  0.00     0.147 A 
HETATM    5  N5  UNL     1       2.932 -16.183  -4.603  1.00  0.00    -0.175 N 
ATOM      6  H5  UNL     1       3.302 -17.076  -4.278  1.00  0.00     0.186 HD
HETATM    7  C9  UNL     1       3.201 -15.782  -5.859  1.00  0.00     0.681 A 
HETATM    8  N13 UNL     1       2.718 -14.619  -6.284  1.00  0.00    -0.176 N 
ATOM      9  H13 UNL     1       2.926 -14.320  -7.237  1.00  0.00     0.186 HD
HETATM   10  C18 UNL     1       1.969 -13.823  -5.508  1.00  0.00     0.139 A 
ENDROOT
BRANCH   4  11
HETATM   11  N2  UNL     1       1.897 -15.854  -2.433  1.00  0.00    -0.327 N 
HETATM   12  C4  UNL     1       2.789 -15.896  -1.495  1.00  0.00     0.111 A 
HETATM   13  C5  UNL     1       2.402 -16.328  -0.239  1.00  0.00     0.091 A 
HETATM   14  N4  UNL     1       4.068 -15.540  -1.696  1.00  0.00    -0.328 N 
HETATM   15  C6  UNL     1       3.346 -16.374   0.757  1.00  0.00     0.108 A 
HETATM   16 CL1  UNL     1       2.909 -16.916   2.379  1.00  0.00    -0.064 Cl
HETATM   17  N3  UNL     1       4.614 -16.009   0.518  1.00  0.00    -0.332 N 
HETATM   18  C7  UNL     1       4.982 -15.590  -0.713  1.00  0.00     0.140 A 
ATOM     19  H3  UNL     1       5.303 -16.049   1.268  1.00  0.00     0.168 HD
ATOM     20  H4  UNL     1       4.354 -15.221  -2.622  1.00  0.00     0.169 HD
ATOM     21  H2  UNL     1       0.944 -16.139  -2.209  1.00  0.00     0.169 HD
BRANCH  18  22
HETATM   22  C8  UNL     1       6.401 -15.198  -0.920  1.00  0.00     0.323 C 
BRANCH  22  23
HETATM   23  O1  UNL     1       6.673 -13.963  -0.351  1.00  0.00    -0.365 OA
ATOM     24  H1  UNL     1       6.597 -13.993   0.595  1.00  0.00     0.213 HD
ENDBRANCH  22  23
BRANCH  22  25
HETATM   25  O2  UNL     1       6.705 -15.172  -2.276  1.00  0.00    -0.365 OA
ATOM     26  H2  UNL     1       7.312 -15.869  -2.493  1.00  0.00     0.213 HD
ENDBRANCH  22  25
ENDBRANCH  18  22
ENDBRANCH   4  11
BRANCH  10  27
HETATM   27  N14 UNL     1       1.524 -12.700  -5.971  1.00  0.00    -0.384 N 
ATOM     28 2H14 UNL     1       0.693 -12.687  -6.562  1.00  0.00     0.157 HD
ATOM     29 1H14 UNL     1       1.985 -11.815  -5.761  1.00  0.00     0.157 HD
ENDBRANCH  10  27
BRANCH   7  30
HETATM   30  N6  UNL     1       3.922 -16.555  -6.598  1.00  0.00    -0.224 N 
ATOM     31  H6  UNL     1       3.718 -16.589  -7.596  1.00  0.00     0.177 HD
BRANCH  30  32
HETATM   32  C10 UNL     1       4.991 -17.368  -6.105  1.00  0.00     0.158 C 
BRANCH  32  33
HETATM   33  C11 UNL     1       6.290 -16.763  -6.599  1.00  0.00     0.154 C 
BRANCH  33  34
HETATM   34  N7  UNL     1       6.889 -16.054  -5.491  1.00  0.00    -0.299 N 
ATOM     35  H7  UNL     1       7.265 -16.507  -4.657  1.00  0.00     0.173 HD
BRANCH  34  36
HETATM   36  S1  UNL     1       6.891 -14.348  -5.750  1.00  0.00     0.343 S 
HETATM   37  O3  UNL     1       7.307 -13.689  -4.462  1.00  0.00    -0.181 OA
HETATM   38  O4  UNL     1       5.560 -13.856  -6.217  1.00  0.00    -0.181 OA
BRANCH  36  39
HETATM   39  N8  UNL     1       8.124 -13.997  -6.911  1.00  0.00    -0.106 N 
HETATM   40  N9  UNL     1       7.863 -13.155  -7.995  1.00  0.00    -0.273 N 
HETATM   41  C12 UNL     1       8.741 -12.856  -8.892  1.00  0.00     0.223 A 
ATOM     42  H9  UNL     1       6.929 -12.754  -8.082  1.00  0.00     0.189 HD
HETATM   43  N10 UNL     1      10.074 -13.364  -8.858  1.00  0.00    -0.238 N 
HETATM   44  N11 UNL     1      10.421 -14.208  -7.815  1.00  0.00    -0.141 N 
HETATM   45  C17 UNL     1       9.437 -14.537  -6.819  1.00  0.00     0.393 A 
HETATM   46  O8  UNL     1       9.731 -15.301  -5.864  1.00  0.00    -0.240 OA
BRANCH  43  47
HETATM   47  C13 UNL     1      10.976 -12.962  -9.918  1.00  0.00     0.320 C 
BRANCH  47  48
HETATM   48  O5  UNL     1      10.469 -13.464 -11.103  1.00  0.00    -0.361 OA
BRANCH  48  49
HETATM   49  C14 UNL     1      10.755 -14.781 -11.338  1.00  0.00     0.170 C 
BRANCH  49  50
HETATM   50  C15 UNL     1      12.224 -14.874 -11.718  1.00  0.00     0.198 C 
BRANCH  50  51
HETATM   51  O6  UNL     1      12.422 -15.794 -12.746  1.00  0.00    -0.398 OA
ATOM     52  H6  UNL     1      11.723 -16.436 -12.773  1.00  0.00     0.209 HD
ENDBRANCH  50  51
ENDBRANCH  49  50
BRANCH  49  53
HETATM   53  C16 UNL     1       9.963 -15.376 -12.478  1.00  0.00     0.198 C 
BRANCH  53  54
HETATM   54  O7  UNL     1       8.715 -14.818 -12.581  1.00  0.00    -0.398 OA
ATOM     55  H7  UNL     1       8.739 -13.972 -13.013  1.00  0.00     0.209 HD
ENDBRANCH  53  54
ENDBRANCH  49  53
ENDBRANCH  48  49
ENDBRANCH  47  48
ENDBRANCH  43  47
BRANCH  44  56
HETATM   56  N12 UNL     1      11.719 -14.713  -7.768  1.00  0.00    -0.319 N 
ATOM     57 2H12 UNL     1      12.416 -14.479  -8.475  1.00  0.00     0.179 HD
ATOM     58 1H12 UNL     1      11.974 -15.335  -7.000  1.00  0.00     0.179 HD
ENDBRANCH  44  56
ENDBRANCH  36  39
ENDBRANCH  34  36
ENDBRANCH  33  34
ENDBRANCH  32  33
ENDBRANCH  30  32
ENDBRANCH   7  30
TORSDOF 19
ENDMDL
MODEL 4
REMARK VINA RESULT: -9.083766089      3.962     10.877
REMARK  19 active torsions:
REMARK  status: ('A' for Active; 'I' for Inactive)
REMARK    1  A    between atoms: C3_4  and  N2_5 
REMARK    2  A    between atoms: C7_13  and  C8_14 
REMARK    3  A    between atoms: C8_14  and  O1_15 
REMARK    4  A    between atoms: C8_14  and  O2_17 
REMARK    5  A    between atoms: C9_23  and  N6_24 
REMARK    6  A    between atoms: N6_24  and  C10_26 
REMARK    7  A    between atoms: C10_26  and  C11_27 
REMARK    8  A    between atoms: C11_27  and  N7_28 
REMARK    9  A    between atoms: N7_28  and  S1_30 
REMARK   10  A    between atoms: S1_30  and  N8_33 
REMARK   11  A    between atoms: N10_37  and  C13_38 
REMARK   12  A    between atoms: C13_38  and  O5_39 
REMARK   13  A    between atoms: O5_39  and  C14_40 
REMARK   14  A    between atoms: C14_40  and  C15_41 
REMARK   15  A    between atoms: C14_40  and  C16_44 
REMARK   16  A    between atoms: C15_41  and  O6_42 
REMARK   17  A    between atoms: C16_44  and  O7_45 
REMARK   18  A    between atoms: N11_47  and  N12_48 
REMARK   19  A    between atoms: C18_55  and  N14_56 
ROOT
HETATM    1  N1  UNL     1       1.562 -13.444   2.242  1.00  0.00    -0.191 NA
HETATM    2  C1  UNL     1       1.604 -13.766   1.136  1.00  0.00     0.107 C 
HETATM    3  C2  UNL     1       1.653 -14.147  -0.252  1.00  0.00     0.133 A 
HETATM    4  C3  UNL     1       2.387 -15.255  -0.641  1.00  0.00     0.147 A 
HETATM    5  N5  UNL     1       2.389 -15.556  -1.971  1.00  0.00    -0.175 N 
ATOM      6  H5  UNL     1       2.918 -16.366  -2.294  1.00  0.00     0.186 HD
HETATM    7  C9  UNL     1       1.713 -14.817  -2.870  1.00  0.00     0.681 A 
HETATM    8  N13 UNL     1       1.022 -13.761  -2.451  1.00  0.00    -0.176 N 
ATOM      9  H13 UNL     1       0.512 -13.205  -3.137  1.00  0.00     0.186 HD
HETATM   10  C18 UNL     1       0.970 -13.400  -1.160  1.00  0.00     0.139 A 
ENDROOT
BRANCH   4  11
HETATM   11  N2  UNL     1       3.097 -16.032   0.301  1.00  0.00    -0.327 N 
HETATM   12  C4  UNL     1       4.386 -16.003   0.418  1.00  0.00     0.111 A 
HETATM   13  C5  UNL     1       4.977 -16.808   1.376  1.00  0.00     0.091 A 
HETATM   14  N4  UNL     1       5.166 -15.226  -0.352  1.00  0.00    -0.328 N 
HETATM   15  C6  UNL     1       6.345 -16.779   1.501  1.00  0.00     0.108 A 
HETATM   16 CL1  UNL     1       7.153 -17.784   2.706  1.00  0.00    -0.064 Cl
HETATM   17  N3  UNL     1       7.089 -15.989   0.714  1.00  0.00    -0.332 N 
HETATM   18  C7  UNL     1       6.502 -15.207  -0.219  1.00  0.00     0.140 A 
ATOM     19  H3  UNL     1       8.103 -15.978   0.820  1.00  0.00     0.168 HD
ATOM     20  H4  UNL     1       4.730 -14.632  -1.058  1.00  0.00     0.169 HD
ATOM     21  H2  UNL     1       2.567 -16.646   0.919  1.00  0.00     0.169 HD
BRANCH  18  22
HETATM   22  C8  UNL     1       7.378 -14.353  -1.063  1.00  0.00     0.323 C 
BRANCH  22  23
HETATM   23  O1  UNL     1       7.302 -13.021  -0.683  1.00  0.00    -0.365 OA
ATOM     24  H1  UNL     1       8.060 -12.532  -0.983  1.00  0.00     0.213 HD
ENDBRANCH  22  23
BRANCH  22  25
HETATM   25  O2  UNL     1       7.037 -14.483  -2.404  1.00  0.00    -0.365 OA
ATOM     26  H2  UNL     1       6.104 -14.636  -2.496  1.00  0.00     0.213 HD
ENDBRANCH  22  25
ENDBRANCH  18  22
ENDBRANCH   4  11
BRANCH  10  27
HETATM   27  N14 UNL     1       0.282 -12.364  -0.806  1.00  0.00    -0.384 N 
ATOM     28 2H14 UNL     1      -0.674 -12.478  -0.470  1.00  0.00     0.157 HD
ATOM     29 1H14 UNL     1       0.671 -11.423  -0.853  1.00  0.00     0.157 HD
ENDBRANCH  10  27
BRANCH   7  30
HETATM   30  N6  UNL     1       1.769 -15.173  -4.108  1.00  0.00    -0.224 N 
ATOM     31  H6  UNL     1       2.064 -16.126  -4.319  1.00  0.00     0.177 HD
BRANCH  30  32
HETATM   32  C10 UNL     1       1.441 -14.315  -5.205  1.00  0.00     0.158 C 
BRANCH  32  33
HETATM   33  C11 UNL     1       2.570 -14.410  -6.212  1.00  0.00     0.154 C 
BRANCH  33  34
HETATM   34  N7  UNL     1       3.792 -14.045  -5.533  1.00  0.00    -0.299 N 
ATOM     35  H7  UNL     1       4.051 -13.087  -5.296  1.00  0.00     0.173 HD
BRANCH  34  36
HETATM   36  S1  UNL     1       4.759 -15.427  -5.169  1.00  0.00     0.343 S 
HETATM   37  O3  UNL     1       4.097 -16.627  -5.791  1.00  0.00    -0.181 OA
HETATM   38  O4  UNL     1       4.948 -15.601  -3.698  1.00  0.00    -0.181 OA
BRANCH  36  39
HETATM   39  N8  UNL     1       6.280 -15.227  -5.970  1.00  0.00    -0.106 N 
HETATM   40  N9  UNL     1       6.808 -16.248  -6.763  1.00  0.00    -0.273 N 
HETATM   41  C12 UNL     1       7.935 -16.156  -7.384  1.00  0.00     0.223 A 
ATOM     42  H9  UNL     1       6.274 -17.112  -6.857  1.00  0.00     0.189 HD
HETATM   43  N10 UNL     1       8.755 -14.990  -7.317  1.00  0.00    -0.238 N 
HETATM   44  N11 UNL     1       8.306 -13.925  -6.552  1.00  0.00    -0.141 N 
HETATM   45  C17 UNL     1       7.048 -14.034  -5.861  1.00  0.00     0.393 A 
HETATM   46  O8  UNL     1       6.624 -13.079  -5.162  1.00  0.00    -0.240 OA
BRANCH  43  47
HETATM   47  C13 UNL     1      10.000 -14.998  -8.055  1.00  0.00     0.320 C 
BRANCH  47  48
HETATM   48  O5  UNL     1       9.859 -14.119  -9.113  1.00  0.00    -0.361 OA
BRANCH  48  49
HETATM   49  C14 UNL     1      10.993 -13.424  -9.437  1.00  0.00     0.170 C 
BRANCH  49  50
HETATM   50  C15 UNL     1      11.255 -13.633 -10.920  1.00  0.00     0.198 C 
BRANCH  50  51
HETATM   51  O6  UNL     1      11.879 -12.523 -11.485  1.00  0.00    -0.398 OA
ATOM     52  H6  UNL     1      11.245 -11.933 -11.875  1.00  0.00     0.209 HD
ENDBRANCH  50  51
ENDBRANCH  49  50
BRANCH  49  53
HETATM   53  C16 UNL     1      12.222 -13.897  -8.699  1.00  0.00     0.198 C 
BRANCH  53  54
HETATM   54  O7  UNL     1      13.378 -13.537  -9.344  1.00  0.00    -0.398 OA
ATOM     55  H7  UNL     1      13.706 -12.698  -9.042  1.00  0.00     0.209 HD
ENDBRANCH  53  54
ENDBRANCH  49  53
ENDBRANCH  48  49
ENDBRANCH  47  48
ENDBRANCH  43  47
BRANCH  44  56
HETATM   56  N12 UNL     1       9.095 -12.779  -6.476  1.00  0.00    -0.319 N 
ATOM     57 2H12 UNL     1      10.114 -12.823  -6.478  1.00  0.00     0.179 HD
ATOM     58 1H12 UNL     1       8.633 -11.871  -6.417  1.00  0.00     0.179 HD
ENDBRANCH  44  56
ENDBRANCH  36  39
ENDBRANCH  34  36
ENDBRANCH  33  34
ENDBRANCH  32  33
ENDBRANCH  30  32
ENDBRANCH   7  30
TORSDOF 19
ENDMDL
MODEL 5
REMARK VINA RESULT: -8.855444344      2.745      3.715
REMARK  19 active torsions:
REMARK  status: ('A' for Active; 'I' for Inactive)
REMARK    1  A    between atoms: C3_4  and  N2_5 
REMARK    2  A    between atoms: C7_13  and  C8_14 
REMARK    3  A    between atoms: C8_14  and  O1_15 
REMARK    4  A    between atoms: C8_14  and  O2_17 
REMARK    5  A    between atoms: C9_23  and  N6_24 
REMARK    6  A    between atoms: N6_24  and  C10_26 
REMARK    7  A    between atoms: C10_26  and  C11_27 
REMARK    8  A    between atoms: C11_27  and  N7_28 
REMARK    9  A    between atoms: N7_28  and  S1_30 
REMARK   10  A    between atoms: S1_30  and  N8_33 
REMARK   11  A    between atoms: N10_37  and  C13_38 
REMARK   12  A    between atoms: C13_38  and  O5_39 
REMARK   13  A    between atoms: O5_39  and  C14_40 
REMARK   14  A    between atoms: C14_40  and  C15_41 
REMARK   15  A    between atoms: C14_40  and  C16_44 
REMARK   16  A    between atoms: C15_41  and  O6_42 
REMARK   17  A    between atoms: C16_44  and  O7_45 
REMARK   18  A    between atoms: N11_47  and  N12_48 
REMARK   19  A    between atoms: C18_55  and  N14_56 
ROOT
HETATM    1  N1  UNL     1       9.323 -11.409  -9.994  1.00  0.00    -0.191 NA
HETATM    2  C1  UNL     1       9.290 -12.234  -9.189  1.00  0.00     0.107 C 
HETATM    3  C2  UNL     1       9.237 -13.250  -8.170  1.00  0.00     0.133 A 
HETATM    4  C3  UNL     1       9.189 -14.587  -8.526  1.00  0.00     0.147 A 
HETATM    5  N5  UNL     1       9.140 -15.494  -7.509  1.00  0.00    -0.175 N 
ATOM      6  H5  UNL     1       9.105 -16.488  -7.734  1.00  0.00     0.186 HD
HETATM    7  C9  UNL     1       9.139 -15.116  -6.217  1.00  0.00     0.681 A 
HETATM    8  N13 UNL     1       9.186 -13.821  -5.922  1.00  0.00    -0.176 N 
ATOM      9  H13 UNL     1       9.184 -13.541  -4.941  1.00  0.00     0.186 HD
HETATM   10  C18 UNL     1       9.235 -12.868  -6.865  1.00  0.00     0.139 A 
ENDROOT
BRANCH   4  11
HETATM   11  N2  UNL     1       9.190 -14.985  -9.881  1.00  0.00    -0.327 N 
HETATM   12  C4  UNL     1      10.274 -15.203 -10.557  1.00  0.00     0.111 A 
HETATM   13  C5  UNL     1      10.157 -15.590 -11.880  1.00  0.00     0.091 A 
HETATM   14  N4  UNL     1      11.499 -15.068 -10.023  1.00  0.00    -0.328 N 
HETATM   15  C6  UNL     1      11.305 -15.821 -12.598  1.00  0.00     0.108 A 
HETATM   16 CL1  UNL     1      11.216 -16.316 -14.290  1.00  0.00    -0.064 Cl
HETATM   17  N3  UNL     1      12.510 -15.675 -12.030  1.00  0.00    -0.332 N 
HETATM   18  C7  UNL     1      12.613 -15.297 -10.736  1.00  0.00     0.140 A 
ATOM     19  H3  UNL     1      13.353 -15.851 -12.576  1.00  0.00     0.168 HD
ATOM     20  H4  UNL     1      11.585 -14.783  -9.047  1.00  0.00     0.169 HD
ATOM     21  H2  UNL     1       8.293 -15.108 -10.351  1.00  0.00     0.169 HD
BRANCH  18  22
HETATM   22  C8  UNL     1      13.976 -15.151 -10.160  1.00  0.00     0.323 C 
BRANCH  22  23
HETATM   23  O1  UNL     1      14.449 -16.360  -9.670  1.00  0.00    -0.365 OA
ATOM     24  H1  UNL     1      14.283 -17.069 -10.279  1.00  0.00     0.213 HD
ENDBRANCH  22  23
BRANCH  22  25
HETATM   25  O2  UNL     1      13.976 -14.198  -9.149  1.00  0.00    -0.365 OA
ATOM     26  H2  UNL     1      14.784 -13.700  -9.163  1.00  0.00     0.213 HD
ENDBRANCH  22  25
ENDBRANCH  18  22
ENDBRANCH   4  11
BRANCH  10  27
HETATM   27  N14 UNL     1       9.280 -11.622  -6.523  1.00  0.00    -0.384 N 
ATOM     28 2H14 UNL     1      10.100 -11.255  -6.040  1.00  0.00     0.157 HD
ATOM     29 1H14 UNL     1       8.511 -10.985  -6.724  1.00  0.00     0.157 HD
ENDBRANCH  10  27
BRANCH   7  30
HETATM   30  N6  UNL     1       9.091 -16.039  -5.318  1.00  0.00    -0.224 N 
ATOM     31  H6  UNL     1       8.387 -16.770  -5.420  1.00  0.00     0.177 HD
BRANCH  30  32
HETATM   32  C10 UNL     1       9.965 -16.104  -4.188  1.00  0.00     0.158 C 
BRANCH  32  33
HETATM   33  C11 UNL     1       9.154 -16.613  -3.012  1.00  0.00     0.154 C 
BRANCH  33  34
HETATM   34  N7  UNL     1       8.791 -15.469  -2.207  1.00  0.00    -0.299 N 
ATOM     35  H7  UNL     1       9.388 -14.653  -2.069  1.00  0.00     0.173 HD
BRANCH  34  36
HETATM   36  S1  UNL     1       7.223 -15.652  -1.507  1.00  0.00     0.343 S 
HETATM   37  O3  UNL     1       6.880 -14.364  -0.808  1.00  0.00    -0.181 OA
HETATM   38  O4  UNL     1       7.163 -16.818  -0.576  1.00  0.00    -0.181 OA
BRANCH  36  39
HETATM   39  N8  UNL     1       6.091 -15.833  -2.802  1.00  0.00    -0.106 N 
HETATM   40  N9  UNL     1       5.118 -16.835  -2.764  1.00  0.00    -0.273 N 
HETATM   41  C12 UNL     1       4.248 -17.018  -3.698  1.00  0.00     0.223 A 
ATOM     42  H9  UNL     1       5.094 -17.454  -1.953  1.00  0.00     0.189 HD
HETATM   43  N10 UNL     1       4.198 -16.206  -4.870  1.00  0.00    -0.238 N 
HETATM   44  N11 UNL     1       5.128 -15.185  -4.991  1.00  0.00    -0.141 N 
HETATM   45  C17 UNL     1       6.096 -14.986  -3.946  1.00  0.00     0.393 A 
HETATM   46  O8  UNL     1       6.948 -14.066  -4.037  1.00  0.00    -0.240 OA
BRANCH  43  47
HETATM   47  C13 UNL     1       3.178 -16.503  -5.853  1.00  0.00     0.320 C 
BRANCH  47  48
HETATM   48  O5  UNL     1       2.496 -15.328  -6.109  1.00  0.00    -0.361 OA
BRANCH  48  49
HETATM   49  C14 UNL     1       1.471 -15.059  -5.243  1.00  0.00     0.170 C 
BRANCH  49  50
HETATM   50  C15 UNL     1       0.215 -14.834  -6.070  1.00  0.00     0.198 C 
BRANCH  50  51
HETATM   51  O6  UNL     1       0.435 -13.899  -7.079  1.00  0.00    -0.398 OA
ATOM     52  H6  UNL     1      -0.208 -13.201  -7.048  1.00  0.00     0.209 HD
ENDBRANCH  50  51
ENDBRANCH  49  50
BRANCH  49  53
HETATM   53  C16 UNL     1       1.689 -13.812  -4.420  1.00  0.00     0.198 C 
BRANCH  53  54
HETATM   54  O7  UNL     1       2.522 -12.922  -5.048  1.00  0.00    -0.398 OA
ATOM     55  H7  UNL     1       3.259 -12.678  -4.500  1.00  0.00     0.209 HD
ENDBRANCH  53  54
ENDBRANCH  49  53
ENDBRANCH  48  49
ENDBRANCH  47  48
ENDBRANCH  43  47
BRANCH  44  56
HETATM   56  N12 UNL     1       5.093 -14.383  -6.130  1.00  0.00    -0.319 N 
ATOM     57 2H12 UNL     1       4.428 -13.616  -6.231  1.00  0.00     0.179 HD
ATOM     58 1H12 UNL     1       5.755 -14.573  -6.883  1.00  0.00     0.179 HD
ENDBRANCH  44  56
ENDBRANCH  36  39
ENDBRANCH  34  36
ENDBRANCH  33  34
ENDBRANCH  32  33
ENDBRANCH  30  32
ENDBRANCH   7  30
TORSDOF 19
ENDMDL
