MODEL 1
REMARK VINA RESULT: -7.076249955      0.000      0.000
REMARK  7 active torsions:
REMARK  status: ('A' for Active; 'I' for Inactive)
REMARK    1  A    between atoms: O1_1  and  C1_3 
REMARK    2  A    between atoms: N1_7  and  C5_8 
REMARK    3  A    between atoms: C5_8  and  C6_9 
REMARK    4  A    between atoms: C6_9  and  C7_10 
REMARK    5  A    between atoms: C7_10  and  C8_11 
REMARK    6  A    between atoms: C8_11  and  C9_12 
REMARK    7  A    between atoms: C9_12  and  C10_13 
ROOT
HETATM    1  C6  UNL     1       1.560  -1.214   8.104  1.00  0.00     0.020 C 
ENDROOT
BRANCH   1   2
HETATM    2  C5  UNL     1       0.386  -1.386   9.008  1.00  0.00     0.122 C 
BRANCH   2   3
HETATM    3  N1  UNL     1      -0.366  -0.227   9.308  1.00  0.00    -0.391 N 
HETATM    4  C4  UNL     1      -1.524  -0.041   8.480  1.00  0.00     0.122 C 
HETATM    5  C3  UNL     1      -1.406   1.021   7.448  1.00  0.00     0.023 C 
HETATM    6  C2  UNL     1      -0.873   2.300   8.030  1.00  0.00     0.039 C 
HETATM    7  C1  UNL     1       0.505   1.966   8.614  1.00  0.00     0.156 C 
HETATM    8  C16 UNL     1       0.300   0.944   9.700  1.00  0.00     0.089 C 
BRANCH   7   9
HETATM    9  O1  UNL     1       0.957   3.138   9.219  1.00  0.00    -0.390 OA
ATOM     10  H1  UNL     1       1.559   2.863   9.900  1.00  0.00     0.210 HD
ENDBRANCH   7   9
ENDBRANCH   2   3
ENDBRANCH   1   2
BRANCH   1  11
HETATM   11  C7  UNL     1       1.485  -2.042   6.858  1.00  0.00     0.002 C 
BRANCH  11  12
HETATM   12  C8  UNL     1       0.765  -1.357   5.737  1.00  0.00     0.000 C 
BRANCH  12  13
HETATM   13  C9  UNL     1       1.248  -1.747   4.366  1.00  0.00     0.004 C 
BRANCH  13  14
HETATM   14  C10 UNL     1       1.059  -0.568   3.423  1.00  0.00    -0.014 C 
HETATM   15  C11 UNL     1      -0.078  -0.816   2.464  1.00  0.00     0.004 C 
HETATM   16  C12 UNL     1      -1.416  -0.393   3.076  1.00  0.00     0.000 C 
HETATM   17  C13 UNL     1      -1.453   1.064   3.400  1.00  0.00     0.000 C 
HETATM   18  C14 UNL     1      -0.063   1.661   3.435  1.00  0.00     0.000 C 
HETATM   19  C15 UNL     1       0.832   0.698   4.212  1.00  0.00     0.004 C 
ENDBRANCH  13  14
ENDBRANCH  12  13
ENDBRANCH  11  12
ENDBRANCH   1  11
TORSDOF 7
ENDMDL
MODEL 2
REMARK VINA RESULT: -6.973789945      1.915      3.569
REMARK  7 active torsions:
REMARK  status: ('A' for Active; 'I' for Inactive)
REMARK    1  A    between atoms: O1_1  and  C1_3 
REMARK    2  A    between atoms: N1_7  and  C5_8 
REMARK    3  A    between atoms: C5_8  and  C6_9 
REMARK    4  A    between atoms: C6_9  and  C7_10 
REMARK    5  A    between atoms: C7_10  and  C8_11 
REMARK    6  A    between atoms: C8_11  and  C9_12 
REMARK    7  A    between atoms: C9_12  and  C10_13 
ROOT
HETATM    1  C6  UNL     1      -0.107   2.137   8.290  1.00  0.00     0.020 C 
ENDROOT
BRANCH   1   2
HETATM    2  C5  UNL     1      -0.254   1.335   9.538  1.00  0.00     0.122 C 
BRANCH   2   3
HETATM    3  N1  UNL     1       0.506   0.147   9.630  1.00  0.00    -0.391 N 
HETATM    4  C4  UNL     1       1.582   0.056   8.684  1.00  0.00     0.122 C 
HETATM    5  C3  UNL     1       1.356  -0.874   7.548  1.00  0.00     0.023 C 
HETATM    6  C2  UNL     1       0.860  -2.212   8.021  1.00  0.00     0.039 C 
HETATM    7  C1  UNL     1      -0.455  -1.946   8.764  1.00  0.00     0.156 C 
HETATM    8  C16 UNL     1      -0.138  -1.061   9.940  1.00  0.00     0.089 C 
BRANCH   7   9
HETATM    9  O1  UNL     1      -0.868  -3.179   9.264  1.00  0.00    -0.390 OA
ATOM     10  H1  UNL     1      -1.535  -3.492   8.666  1.00  0.00     0.210 HD
ENDBRANCH   7   9
ENDBRANCH   2   3
ENDBRANCH   1   2
BRANCH   1  11
HETATM   11  C7  UNL     1      -1.269   2.006   7.353  1.00  0.00     0.002 C 
BRANCH  11  12
HETATM   12  C8  UNL     1      -0.970   1.151   6.159  1.00  0.00     0.000 C 
BRANCH  12  13
HETATM   13  C9  UNL     1      -1.136   1.857   4.839  1.00  0.00     0.004 C 
BRANCH  13  14
HETATM   14  C10 UNL     1      -1.026   0.835   3.718  1.00  0.00    -0.014 C 
HETATM   15  C11 UNL     1       0.097   1.185   2.773  1.00  0.00     0.004 C 
HETATM   16  C12 UNL     1       1.429   0.614   3.268  1.00  0.00     0.000 C 
HETATM   17  C13 UNL     1       1.406  -0.876   3.357  1.00  0.00     0.000 C 
HETATM   18  C14 UNL     1      -0.009  -1.412   3.343  1.00  0.00     0.000 C 
HETATM   19  C15 UNL     1      -0.838  -0.549   4.290  1.00  0.00     0.004 C 
ENDBRANCH  13  14
ENDBRANCH  12  13
ENDBRANCH  11  12
ENDBRANCH   1  11
TORSDOF 7
ENDMDL
MODEL 3
REMARK VINA RESULT: -6.889826873      1.112      1.437
REMARK  7 active torsions:
REMARK  status: ('A' for Active; 'I' for Inactive)
REMARK    1  A    between atoms: O1_1  and  C1_3 
REMARK    2  A    between atoms: N1_7  and  C5_8 
REMARK    3  A    between atoms: C5_8  and  C6_9 
REMARK    4  A    between atoms: C6_9  and  C7_10 
REMARK    5  A    between atoms: C7_10  and  C8_11 
REMARK    6  A    between atoms: C8_11  and  C9_12 
REMARK    7  A    between atoms: C9_12  and  C10_13 
ROOT
HETATM    1  C6  UNL     1       1.560  -1.542   8.078  1.00  0.00     0.020 C 
ENDROOT
BRANCH   1   2
HETATM    2  C5  UNL     1       1.661  -0.055   8.036  1.00  0.00     0.122 C 
BRANCH   2   3
HETATM    3  N1  UNL     1       0.582   0.676   8.581  1.00  0.00    -0.391 N 
HETATM    4  C4  UNL     1      -0.417  -0.130   9.224  1.00  0.00     0.122 C 
HETATM    5  C3  UNL     1      -1.684  -0.300   8.467  1.00  0.00     0.023 C 
HETATM    6  C2  UNL     1      -2.209   1.017   7.967  1.00  0.00     0.039 C 
HETATM    7  C1  UNL     1      -1.117   1.598   7.059  1.00  0.00     0.156 C 
HETATM    8  C16 UNL     1       0.108   1.812   7.907  1.00  0.00     0.089 C 
BRANCH   7   9
HETATM    9  O1  UNL     1      -1.579   2.851   6.661  1.00  0.00    -0.390 OA
ATOM     10  H1  UNL     1      -2.001   2.719   5.821  1.00  0.00     0.210 HD
ENDBRANCH   7   9
ENDBRANCH   2   3
ENDBRANCH   1   2
BRANCH   1  11
HETATM   11  C7  UNL     1       1.597  -2.185   6.725  1.00  0.00     0.002 C 
BRANCH  11  12
HETATM   12  C8  UNL     1       0.858  -1.404   5.682  1.00  0.00     0.000 C 
BRANCH  12  13
HETATM   13  C9  UNL     1       1.168  -1.820   4.268  1.00  0.00     0.004 C 
BRANCH  13  14
HETATM   14  C10 UNL     1       1.022  -0.610   3.357  1.00  0.00    -0.014 C 
HETATM   15  C11 UNL     1      -0.121  -0.794   2.389  1.00  0.00     0.004 C 
HETATM   16  C12 UNL     1      -1.445  -0.341   3.010  1.00  0.00     0.000 C 
HETATM   17  C13 UNL     1      -1.432   1.107   3.373  1.00  0.00     0.000 C 
HETATM   18  C14 UNL     1      -0.022   1.655   3.425  1.00  0.00     0.000 C 
HETATM   19  C15 UNL     1       0.837   0.642   4.178  1.00  0.00     0.004 C 
ENDBRANCH  13  14
ENDBRANCH  12  13
ENDBRANCH  11  12
ENDBRANCH   1  11
TORSDOF 7
ENDMDL
MODEL 4
REMARK VINA RESULT: -6.880001272      1.893      3.597
REMARK  7 active torsions:
REMARK  status: ('A' for Active; 'I' for Inactive)
REMARK    1  A    between atoms: O1_1  and  C1_3 
REMARK    2  A    between atoms: N1_7  and  C5_8 
REMARK    3  A    between atoms: C5_8  and  C6_9 
REMARK    4  A    between atoms: C6_9  and  C7_10 
REMARK    5  A    between atoms: C7_10  and  C8_11 
REMARK    6  A    between atoms: C8_11  and  C9_12 
REMARK    7  A    between atoms: C9_12  and  C10_13 
ROOT
HETATM    1  C6  UNL     1      -1.600   1.543   8.035  1.00  0.00     0.020 C 
ENDROOT
BRANCH   1   2
HETATM    2  C5  UNL     1      -1.681   0.055   7.976  1.00  0.00     0.122 C 
BRANCH   2   3
HETATM    3  N1  UNL     1      -0.604  -0.667   8.540  1.00  0.00    -0.391 N 
HETATM    4  C4  UNL     1       0.385   0.149   9.186  1.00  0.00     0.122 C 
HETATM    5  C3  UNL     1       1.659   0.317   8.441  1.00  0.00     0.023 C 
HETATM    6  C2  UNL     1       2.194  -1.003   7.957  1.00  0.00     0.039 C 
HETATM    7  C1  UNL     1       1.114  -1.596   7.044  1.00  0.00     0.156 C 
HETATM    8  C16 UNL     1      -0.120  -1.807   7.881  1.00  0.00     0.089 C 
BRANCH   7   9
HETATM    9  O1  UNL     1       1.584  -2.851   6.662  1.00  0.00    -0.390 OA
ATOM     10  H1  UNL     1       2.518  -2.842   6.833  1.00  0.00     0.210 HD
ENDBRANCH   7   9
ENDBRANCH   2   3
ENDBRANCH   1   2
BRANCH   1  11
HETATM   11  C7  UNL     1      -1.598   2.197   6.687  1.00  0.00     0.002 C 
BRANCH  11  12
HETATM   12  C8  UNL     1      -0.882   1.395   5.643  1.00  0.00     0.000 C 
BRANCH  12  13
HETATM   13  C9  UNL     1      -1.197   1.803   4.229  1.00  0.00     0.004 C 
BRANCH  13  14
HETATM   14  C10 UNL     1      -1.029   0.595   3.319  1.00  0.00    -0.014 C 
HETATM   15  C11 UNL     1       0.129   0.785   2.372  1.00  0.00     0.004 C 
HETATM   16  C12 UNL     1       1.444   0.337   3.016  1.00  0.00     0.000 C 
HETATM   17  C13 UNL     1       1.431  -1.112   3.377  1.00  0.00     0.000 C 
HETATM   18  C14 UNL     1       0.023  -1.665   3.404  1.00  0.00     0.000 C 
HETATM   19  C15 UNL     1      -0.853  -0.657   4.143  1.00  0.00     0.004 C 
ENDBRANCH  13  14
ENDBRANCH  12  13
ENDBRANCH  11  12
ENDBRANCH   1  11
TORSDOF 7
ENDMDL
MODEL 5
REMARK VINA RESULT: -6.774442570      1.895      3.390
REMARK  7 active torsions:
REMARK  status: ('A' for Active; 'I' for Inactive)
REMARK    1  A    between atoms: O1_1  and  C1_3 
REMARK    2  A    between atoms: N1_7  and  C5_8 
REMARK    3  A    between atoms: C5_8  and  C6_9 
REMARK    4  A    between atoms: C6_9  and  C7_10 
REMARK    5  A    between atoms: C7_10  and  C8_11 
REMARK    6  A    between atoms: C8_11  and  C9_12 
REMARK    7  A    between atoms: C9_12  and  C10_13 
ROOT
HETATM    1  C6  UNL     1      -1.533   1.249   7.962  1.00  0.00     0.020 C 
ENDROOT
BRANCH   1   2
HETATM    2  C5  UNL     1      -0.433   1.432   8.951  1.00  0.00     0.122 C 
BRANCH   2   3
HETATM    3  N1  UNL     1       0.289   0.276   9.328  1.00  0.00    -0.391 N 
HETATM    4  C4  UNL     1       1.507   0.073   8.598  1.00  0.00     0.122 C 
HETATM    5  C3  UNL     1       1.466  -1.005   7.576  1.00  0.00     0.023 C 
HETATM    6  C2  UNL     1       0.884  -2.273   8.135  1.00  0.00     0.039 C 
HETATM    7  C1  UNL     1      -0.535  -1.925   8.603  1.00  0.00     0.156 C 
HETATM    8  C16 UNL     1      -0.411  -0.886   9.686  1.00  0.00     0.089 C 
BRANCH   7   9
HETATM    9  O1  UNL     1      -1.039  -3.086   9.189  1.00  0.00    -0.390 OA
ATOM     10  H1  UNL     1      -1.629  -3.464   8.549  1.00  0.00     0.210 HD
ENDBRANCH   7   9
ENDBRANCH   2   3
ENDBRANCH   1   2
BRANCH   1  11
HETATM   11  C7  UNL     1      -1.238   1.842   6.618  1.00  0.00     0.002 C 
BRANCH  11  12
HETATM   12  C8  UNL     1      -0.898   0.815   5.582  1.00  0.00     0.000 C 
BRANCH  12  13
HETATM   13  C9  UNL     1       0.343   1.128   4.789  1.00  0.00     0.004 C 
BRANCH  13  14
HETATM   14  C10 UNL     1       0.137   0.670   3.353  1.00  0.00    -0.014 C 
HETATM   15  C11 UNL     1       0.955  -0.561   3.052  1.00  0.00     0.004 C 
HETATM   16  C12 UNL     1       0.198  -1.833   3.444  1.00  0.00     0.000 C 
HETATM   17  C13 UNL     1      -1.080  -1.985   2.687  1.00  0.00     0.000 C 
HETATM   18  C14 UNL     1      -1.506  -0.680   2.048  1.00  0.00     0.000 C 
HETATM   19  C15 UNL     1      -1.329   0.421   3.090  1.00  0.00     0.004 C 
ENDBRANCH  13  14
ENDBRANCH  12  13
ENDBRANCH  11  12
ENDBRANCH   1  11
TORSDOF 7
ENDMDL
