MODEL 1
REMARK VINA RESULT: -6.960184185      0.000      0.000
REMARK  6 active torsions:
REMARK  status: ('A' for Active; 'I' for Inactive)
REMARK    1  A    between atoms: C2_3  and  C3_4 
REMARK    2  A    between atoms: C3_4  and  C4_5 
REMARK    3  A    between atoms: C4_5  and  C5_6 
REMARK    4  A    between atoms: C5_6  and  C6_7 
REMARK    5  A    between atoms: C8_9  and  N2_10 
REMARK    6  A    between atoms: N2_10  and  C9_13 
ROOT
HETATM    1  N1  UNL     1       5.322   2.725  -0.091  1.00  0.00    -0.197 NA
HETATM    2  C1  UNL     1       4.750   2.070   0.674  1.00  0.00     0.059 C 
HETATM    3  C2  UNL     1       4.047   1.228   1.643  1.00  0.00     0.124 C 
ENDROOT
BRANCH   3   4
HETATM    4  C3  UNL     1       2.984   1.978   2.385  1.00  0.00     0.014 C 
BRANCH   4   5
HETATM    5  C4  UNL     1       1.716   2.190   1.594  1.00  0.00     0.001 C 
BRANCH   5   6
HETATM    6  C5  UNL     1       0.700   1.195   2.165  1.00  0.00     0.005 C 
BRANCH   6   7
HETATM    7  C6  UNL     1       0.708   1.202   3.655  1.00  0.00    -0.011 C 
HETATM    8  C7  UNL     1      -0.625   1.494   4.341  1.00  0.00     0.037 C 
HETATM    9  C8  UNL     1      -0.291   0.370   5.322  1.00  0.00     0.187 C 
HETATM   10  C16 UNL     1       0.619  -0.200   4.227  1.00  0.00     0.037 C 
BRANCH   9  11
HETATM   11  N2  UNL     1       0.426   0.791   6.483  1.00  0.00    -0.066 N 
ATOM     12  H22 UNL     1       1.413   0.542   6.417  1.00  0.00     0.278 HD
ATOM     13  H21 UNL     1       0.517   1.806   6.511  1.00  0.00     0.278 HD
BRANCH  11  14
HETATM   14  C9  UNL     1      -0.150   0.294   7.683  1.00  0.00     0.190 C 
HETATM   15  C10 UNL     1      -0.712  -1.118   7.528  1.00  0.00     0.038 C 
HETATM   16  C11 UNL     1       0.344  -2.069   8.035  1.00  0.00    -0.012 C 
HETATM   17  C12 UNL     1       0.188  -2.168   9.544  1.00  0.00     0.005 C 
HETATM   18  C15 UNL     1       1.589  -1.168   8.018  1.00  0.00     0.011 C 
HETATM   19  C13 UNL     1       0.245  -0.668   9.881  1.00  0.00     0.007 C 
HETATM   20  C14 UNL     1       0.916   0.012   8.742  1.00  0.00     0.017 C 
ENDBRANCH  11  14
ENDBRANCH   9  11
ENDBRANCH   6   7
ENDBRANCH   5   6
ENDBRANCH   4   5
ENDBRANCH   3   4
TORSDOF 6
ENDMDL
MODEL 2
REMARK VINA RESULT: -6.953578067      1.259      2.158
REMARK  6 active torsions:
REMARK  status: ('A' for Active; 'I' for Inactive)
REMARK    1  A    between atoms: C2_3  and  C3_4 
REMARK    2  A    between atoms: C3_4  and  C4_5 
REMARK    3  A    between atoms: C4_5  and  C5_6 
REMARK    4  A    between atoms: C5_6  and  C6_7 
REMARK    5  A    between atoms: C8_9  and  N2_10 
REMARK    6  A    between atoms: N2_10  and  C9_13 
ROOT
HETATM    1  N1  UNL     1       4.476   0.851   1.133  1.00  0.00    -0.197 NA
HETATM    2  C1  UNL     1       3.698   1.346   1.834  1.00  0.00     0.059 C 
HETATM    3  C2  UNL     1       2.733   1.985   2.730  1.00  0.00     0.124 C 
ENDROOT
BRANCH   3   4
HETATM    4  C3  UNL     1       1.376   2.111   2.111  1.00  0.00     0.014 C 
BRANCH   4   5
HETATM    5  C4  UNL     1       0.238   1.993   3.097  1.00  0.00     0.001 C 
BRANCH   5   6
HETATM    6  C5  UNL     1      -0.341   0.589   2.896  1.00  0.00     0.005 C 
BRANCH   6   7
HETATM    7  C6  UNL     1      -0.447  -0.148   4.187  1.00  0.00    -0.011 C 
HETATM    8  C7  UNL     1       0.737  -1.037   4.561  1.00  0.00     0.037 C 
HETATM    9  C8  UNL     1       0.604  -0.498   5.986  1.00  0.00     0.187 C 
HETATM   10  C16 UNL     1      -0.080   0.729   5.369  1.00  0.00     0.037 C 
BRANCH   9  11
HETATM   11  N2  UNL     1      -0.264  -1.259   6.827  1.00  0.00    -0.066 N 
ATOM     12  H22 UNL     1      -1.194  -0.842   6.869  1.00  0.00     0.278 HD
ATOM     13  H21 UNL     1      -0.504  -2.151   6.398  1.00  0.00     0.278 HD
BRANCH  11  14
HETATM   14  C9  UNL     1       0.273  -1.444   8.130  1.00  0.00     0.190 C 
HETATM   15  C10 UNL     1       1.049  -0.227   8.628  1.00  0.00     0.038 C 
HETATM   16  C11 UNL     1       0.107   0.571   9.495  1.00  0.00    -0.012 C 
HETATM   17  C12 UNL     1       0.144  -0.030  10.890  1.00  0.00     0.005 C 
HETATM   18  C15 UNL     1      -1.252  -0.003   9.063  1.00  0.00     0.011 C 
HETATM   19  C13 UNL     1      -0.164  -1.491  10.522  1.00  0.00     0.007 C 
HETATM   20  C14 UNL     1      -0.827  -1.477   9.191  1.00  0.00     0.017 C 
ENDBRANCH  11  14
ENDBRANCH   9  11
ENDBRANCH   6   7
ENDBRANCH   5   6
ENDBRANCH   4   5
ENDBRANCH   3   4
TORSDOF 6
ENDMDL
MODEL 3
REMARK VINA RESULT: -6.947824133      0.879      1.555
REMARK  6 active torsions:
REMARK  status: ('A' for Active; 'I' for Inactive)
REMARK    1  A    between atoms: C2_3  and  C3_4 
REMARK    2  A    between atoms: C3_4  and  C4_5 
REMARK    3  A    between atoms: C4_5  and  C5_6 
REMARK    4  A    between atoms: C5_6  and  C6_7 
REMARK    5  A    between atoms: C8_9  and  N2_10 
REMARK    6  A    between atoms: N2_10  and  C9_13 
ROOT
HETATM    1  N1  UNL     1       5.323   2.731  -0.129  1.00  0.00    -0.197 NA
HETATM    2  C1  UNL     1       4.736   2.098   0.643  1.00  0.00     0.059 C 
HETATM    3  C2  UNL     1       4.014   1.285   1.623  1.00  0.00     0.124 C 
ENDROOT
BRANCH   3   4
HETATM    4  C3  UNL     1       2.917   2.048   2.299  1.00  0.00     0.014 C 
BRANCH   4   5
HETATM    5  C4  UNL     1       1.659   2.177   1.473  1.00  0.00     0.001 C 
BRANCH   5   6
HETATM    6  C5  UNL     1       0.667   1.173   2.071  1.00  0.00     0.005 C 
BRANCH   6   7
HETATM    7  C6  UNL     1       0.750   1.143   3.558  1.00  0.00    -0.011 C 
HETATM    8  C7  UNL     1      -0.556   1.365   4.317  1.00  0.00     0.037 C 
HETATM    9  C8  UNL     1      -0.130   0.230   5.249  1.00  0.00     0.187 C 
HETATM   10  C16 UNL     1       0.745  -0.276   4.095  1.00  0.00     0.037 C 
BRANCH   9  11
HETATM   11  N2  UNL     1       0.629   0.650   6.384  1.00  0.00    -0.066 N 
ATOM     12  H22 UNL     1       1.621   0.718   6.159  1.00  0.00     0.278 HD
ATOM     13  H21 UNL     1       0.445   1.628   6.608  1.00  0.00     0.278 HD
BRANCH  11  14
HETATM   14  C9  UNL     1       0.415  -0.184   7.514  1.00  0.00     0.190 C 
HETATM   15  C10 UNL     1       1.422   0.069   8.634  1.00  0.00     0.038 C 
HETATM   16  C11 UNL     1       0.761   1.003   9.618  1.00  0.00    -0.012 C 
HETATM   17  C12 UNL     1      -0.081   0.158  10.560  1.00  0.00     0.005 C 
HETATM   18  C15 UNL     1      -0.389   1.565   8.767  1.00  0.00     0.011 C 
HETATM   19  C13 UNL     1      -0.909  -0.603   9.510  1.00  0.00     0.007 C 
HETATM   20  C14 UNL     1      -0.867   0.194   8.256  1.00  0.00     0.017 C 
ENDBRANCH  11  14
ENDBRANCH   9  11
ENDBRANCH   6   7
ENDBRANCH   5   6
ENDBRANCH   4   5
ENDBRANCH   3   4
TORSDOF 6
ENDMDL
MODEL 4
REMARK VINA RESULT: -6.942490223      3.611      5.121
REMARK  6 active torsions:
REMARK  status: ('A' for Active; 'I' for Inactive)
REMARK    1  A    between atoms: C2_3  and  C3_4 
REMARK    2  A    between atoms: C3_4  and  C4_5 
REMARK    3  A    between atoms: C4_5  and  C5_6 
REMARK    4  A    between atoms: C5_6  and  C6_7 
REMARK    5  A    between atoms: C8_9  and  N2_10 
REMARK    6  A    between atoms: N2_10  and  C9_13 
ROOT
HETATM    1  N1  UNL     1      -5.487  -2.832  -0.271  1.00  0.00    -0.197 NA
HETATM    2  C1  UNL     1      -4.932  -2.147   0.482  1.00  0.00     0.059 C 
HETATM    3  C2  UNL     1      -4.253  -1.270   1.436  1.00  0.00     0.124 C 
ENDROOT
BRANCH   3   4
HETATM    4  C3  UNL     1      -3.169  -1.977   2.189  1.00  0.00     0.014 C 
BRANCH   4   5
HETATM    5  C4  UNL     1      -1.923  -2.235   1.376  1.00  0.00     0.001 C 
BRANCH   5   6
HETATM    6  C5  UNL     1      -0.879  -1.238   1.891  1.00  0.00     0.005 C 
BRANCH   6   7
HETATM    7  C6  UNL     1      -0.853  -1.194   3.380  1.00  0.00    -0.011 C 
HETATM    8  C7  UNL     1       0.502  -1.434   4.043  1.00  0.00     0.037 C 
HETATM    9  C8  UNL     1       0.165  -0.285   4.993  1.00  0.00     0.187 C 
HETATM   10  C16 UNL     1      -0.783   0.228   3.902  1.00  0.00     0.037 C 
BRANCH   9  11
HETATM   11  N2  UNL     1      -0.516  -0.682   6.184  1.00  0.00    -0.066 N 
ATOM     12  H22 UNL     1      -1.519  -0.767   6.024  1.00  0.00     0.278 HD
ATOM     13  H21 UNL     1      -0.307  -1.651   6.422  1.00  0.00     0.278 HD
BRANCH  11  14
HETATM   14  C9  UNL     1      -0.242   0.184   7.277  1.00  0.00     0.190 C 
HETATM   15  C10 UNL     1      -1.330   0.147   8.348  1.00  0.00     0.038 C 
HETATM   16  C11 UNL     1      -0.860  -0.806   9.420  1.00  0.00    -0.012 C 
HETATM   17  C12 UNL     1       0.046  -0.029  10.361  1.00  0.00     0.005 C 
HETATM   18  C15 UNL     1       0.239  -1.577   8.670  1.00  0.00     0.011 C 
HETATM   19  C13 UNL     1       1.026   0.541   9.321  1.00  0.00     0.007 C 
HETATM   20  C14 UNL     1       0.934  -0.321   8.113  1.00  0.00     0.017 C 
ENDBRANCH  11  14
ENDBRANCH   9  11
ENDBRANCH   6   7
ENDBRANCH   5   6
ENDBRANCH   4   5
ENDBRANCH   3   4
TORSDOF 6
ENDMDL
MODEL 5
REMARK VINA RESULT: -6.937570211      3.167      4.413
REMARK  6 active torsions:
REMARK  status: ('A' for Active; 'I' for Inactive)
REMARK    1  A    between atoms: C2_3  and  C3_4 
REMARK    2  A    between atoms: C3_4  and  C4_5 
REMARK    3  A    between atoms: C4_5  and  C5_6 
REMARK    4  A    between atoms: C5_6  and  C6_7 
REMARK    5  A    between atoms: C8_9  and  N2_10 
REMARK    6  A    between atoms: N2_10  and  C9_13 
ROOT
HETATM    1  N1  UNL     1      -4.458  -1.026   0.843  1.00  0.00    -0.197 NA
HETATM    2  C1  UNL     1      -3.737  -1.451   1.644  1.00  0.00     0.059 C 
HETATM    3  C2  UNL     1      -2.846  -1.997   2.669  1.00  0.00     0.124 C 
ENDROOT
BRANCH   3   4
HETATM    4  C3  UNL     1      -1.494  -2.341   2.124  1.00  0.00     0.014 C 
BRANCH   4   5
HETATM    5  C4  UNL     1      -0.353  -2.012   3.058  1.00  0.00     0.001 C 
BRANCH   5   6
HETATM    6  C5  UNL     1      -0.081  -0.516   2.869  1.00  0.00     0.005 C 
BRANCH   6   7
HETATM    7  C6  UNL     1       0.173   0.162   4.171  1.00  0.00    -0.011 C 
HETATM    8  C7  UNL     1      -0.821   1.247   4.577  1.00  0.00     0.037 C 
HETATM    9  C8  UNL     1      -0.776   0.665   5.991  1.00  0.00     0.187 C 
HETATM   10  C16 UNL     1      -0.339  -0.655   5.342  1.00  0.00     0.037 C 
BRANCH   9  11
HETATM   11  N2  UNL     1       0.227   1.234   6.833  1.00  0.00    -0.066 N 
ATOM     12  H22 UNL     1       1.084   0.682   6.811  1.00  0.00     0.278 HD
ATOM     13  H21 UNL     1       0.585   2.105   6.443  1.00  0.00     0.278 HD
BRANCH  11  14
HETATM   14  C9  UNL     1      -0.229   1.419   8.166  1.00  0.00     0.190 C 
HETATM   15  C10 UNL     1      -1.098   0.263   8.659  1.00  0.00     0.038 C 
HETATM   16  C11 UNL     1      -0.199  -0.656   9.450  1.00  0.00    -0.012 C 
HETATM   17  C12 UNL     1      -0.114  -0.111  10.865  1.00  0.00     0.005 C 
HETATM   18  C15 UNL     1       1.188  -0.199   8.971  1.00  0.00     0.011 C 
HETATM   19  C13 UNL     1       0.319   1.327  10.534  1.00  0.00     0.007 C 
HETATM   20  C14 UNL     1       0.916   1.303   9.172  1.00  0.00     0.017 C 
ENDBRANCH  11  14
ENDBRANCH   9  11
ENDBRANCH   6   7
ENDBRANCH   5   6
ENDBRANCH   4   5
ENDBRANCH   3   4
TORSDOF 6
ENDMDL
