MODEL 1
REMARK VINA RESULT: -8.540844294      0.000      0.000
REMARK  5 active torsions:
REMARK  status: ('A' for Active; 'I' for Inactive)
REMARK    1  A    between atoms: N1_1  and  C1_4 
REMARK    2  A    between atoms: N3_8  and  N4_10 
REMARK    3  A    between atoms: C3_12  and  C4_13 
REMARK    4  A    between atoms: C5_14  and  C6_15 
REMARK    5  A    between atoms: C6_15  and  N5_16 
ROOT
HETATM    1  C1  UNL     1     -23.082 -11.580  -4.741  1.00  0.00     0.679 A 
HETATM    2  N2  UNL     1     -22.340 -11.096  -5.683  1.00  0.00    -0.173 N 
ATOM      3  H2  UNL     1     -22.998 -10.791  -6.400  1.00  0.00     0.186 HD
HETATM    4  C2  UNL     1     -21.198 -10.815  -6.153  1.00  0.00     0.166 A 
HETATM    5  N3  UNL     1     -20.128 -10.548  -6.588  1.00  0.00    -0.283 N 
ATOM      6  H3  UNL     1     -20.064 -10.821  -7.568  1.00  0.00     0.188 HD
HETATM    7  C11 UNL     1     -20.444 -11.432  -4.758  1.00  0.00     0.124 A 
HETATM    8  N7  UNL     1     -19.152 -11.523  -4.616  1.00  0.00    -0.346 N 
ATOM      9  H7  UNL     1     -18.447 -11.199  -5.277  1.00  0.00     0.167 HD
HETATM   10  C12 UNL     1     -18.916 -12.143  -3.393  1.00  0.00     0.182 A 
HETATM   11  N8  UNL     1     -20.141 -12.396  -2.867  1.00  0.00    -0.336 N 
ATOM     12  H8  UNL     1     -20.328 -12.846  -1.972  1.00  0.00     0.168 HD
HETATM   13  C13 UNL     1     -21.085 -11.938  -3.756  1.00  0.00     0.152 A 
HETATM   14  N9  UNL     1     -22.405 -12.057  -3.644  1.00  0.00    -0.174 N 
ATOM     15  H9  UNL     1     -22.866 -12.460  -2.828  1.00  0.00     0.186 HD
ENDROOT
BRANCH   5  16
HETATM   16  N4  UNL     1     -18.965  -9.992  -6.174  1.00  0.00    -0.310 N 
HETATM   17  C3  UNL     1     -18.496  -8.938  -6.811  1.00  0.00     0.107 C 
ATOM     18  H4  UNL     1     -18.458 -10.383  -5.380  1.00  0.00     0.186 HD
BRANCH  17  19
HETATM   19  C4  UNL     1     -19.205  -8.414  -7.920  1.00  0.00     0.016 C 
HETATM   20  C5  UNL     1     -18.676  -8.305  -9.111  1.00  0.00     0.004 C 
BRANCH  20  21
HETATM   21  C6  UNL     1     -17.271  -8.713  -9.359  1.00  0.00     0.300 C 
BRANCH  21  22
HETATM   22  N5  UNL     1     -16.595  -7.448  -9.759  1.00  0.00     0.095 N 
HETATM   23  C7  UNL     1     -15.895  -6.867  -8.644  1.00  0.00     0.300 C 
HETATM   24  C8  UNL     1     -14.465  -6.455  -9.071  1.00  0.00     0.262 C 
HETATM   25  N6  UNL     1     -13.747  -7.731  -9.139  1.00  0.00    -0.072 N 
HETATM   26  C9  UNL     1     -14.361  -8.522 -10.188  1.00  0.00     0.262 C 
ATOM     27  H62 UNL     1     -12.741  -7.615  -9.266  1.00  0.00     0.277 HD
ATOM     28  H61 UNL     1     -13.714  -8.216  -8.243  1.00  0.00     0.277 HD
HETATM   29  C10 UNL     1     -15.595  -7.857 -10.777  1.00  0.00     0.300 C 
ENDBRANCH  21  22
ENDBRANCH  20  21
ENDBRANCH  17  19
ENDBRANCH   5  16
BRANCH   1  30
HETATM   30  N1  UNL     1     -24.369 -11.576  -4.786  1.00  0.00    -0.234 N 
ATOM     31  H12 UNL     1     -24.877 -10.937  -5.396  1.00  0.00     0.174 HD
ATOM     32  H11 UNL     1     -24.948 -12.227  -4.256  1.00  0.00     0.174 HD
ENDBRANCH   1  30
TORSDOF 5
ENDMDL
MODEL 2
REMARK VINA RESULT: -8.520061620      1.029      1.333
REMARK  5 active torsions:
REMARK  status: ('A' for Active; 'I' for Inactive)
REMARK    1  A    between atoms: N1_1  and  C1_4 
REMARK    2  A    between atoms: N3_8  and  N4_10 
REMARK    3  A    between atoms: C3_12  and  C4_13 
REMARK    4  A    between atoms: C5_14  and  C6_15 
REMARK    5  A    between atoms: C6_15  and  N5_16 
ROOT
HETATM    1  C1  UNL     1     -23.025 -11.535  -4.772  1.00  0.00     0.679 A 
HETATM    2  N2  UNL     1     -22.267 -11.060  -5.707  1.00  0.00    -0.173 N 
ATOM      3  H2  UNL     1     -22.913 -10.754  -6.434  1.00  0.00     0.186 HD
HETATM    4  C2  UNL     1     -21.117 -10.789  -6.164  1.00  0.00     0.166 A 
HETATM    5  N3  UNL     1     -20.039 -10.533  -6.586  1.00  0.00    -0.283 N 
ATOM      6  H3  UNL     1     -19.964 -10.810  -7.564  1.00  0.00     0.188 HD
HETATM    7  C11 UNL     1     -20.386 -11.405  -4.756  1.00  0.00     0.124 A 
HETATM    8  N7  UNL     1     -19.096 -11.504  -4.596  1.00  0.00    -0.346 N 
ATOM      9  H7  UNL     1     -18.380 -11.188  -5.250  1.00  0.00     0.167 HD
HETATM   10  C12 UNL     1     -18.880 -12.120  -3.368  1.00  0.00     0.182 A 
HETATM   11  N8  UNL     1     -20.114 -12.362  -2.857  1.00  0.00    -0.336 N 
ATOM     12  H8  UNL     1     -20.316 -12.806  -1.962  1.00  0.00     0.168 HD
HETATM   13  C13 UNL     1     -21.043 -11.902  -3.760  1.00  0.00     0.152 A 
HETATM   14  N9  UNL     1     -22.365 -12.011  -3.664  1.00  0.00    -0.174 N 
ATOM     15  H9  UNL     1     -22.840 -12.407  -2.853  1.00  0.00     0.186 HD
ENDROOT
BRANCH   5  16
HETATM   16  N4  UNL     1     -18.878  -9.982  -6.160  1.00  0.00    -0.310 N 
HETATM   17  C3  UNL     1     -18.388  -8.941  -6.801  1.00  0.00     0.107 C 
ATOM     18  H4  UNL     1     -18.389 -10.368  -5.353  1.00  0.00     0.186 HD
BRANCH  17  19
HETATM   19  C4  UNL     1     -19.074  -8.424  -7.929  1.00  0.00     0.016 C 
HETATM   20  C5  UNL     1     -18.605  -7.441  -8.652  1.00  0.00     0.004 C 
BRANCH  20  21
HETATM   21  C6  UNL     1     -17.317  -6.790  -8.308  1.00  0.00     0.300 C 
BRANCH  21  22
HETATM   22  N5  UNL     1     -16.442  -7.084  -9.477  1.00  0.00     0.095 N 
HETATM   23  C7  UNL     1     -16.525  -6.032 -10.456  1.00  0.00     0.300 C 
HETATM   24  C8  UNL     1     -15.105  -5.621 -10.915  1.00  0.00     0.262 C 
HETATM   25  N6  UNL     1     -14.595  -4.833  -9.789  1.00  0.00    -0.072 N 
HETATM   26  C9  UNL     1     -14.502  -5.718  -8.644  1.00  0.00     0.262 C 
ATOM     27  H62 UNL     1     -13.716  -4.361 -10.000  1.00  0.00     0.277 HD
ATOM     28  H61 UNL     1     -15.153  -4.000  -9.603  1.00  0.00     0.277 HD
HETATM   29  C10 UNL     1     -15.064  -7.102  -8.925  1.00  0.00     0.300 C 
ENDBRANCH  21  22
ENDBRANCH  20  21
ENDBRANCH  17  19
ENDBRANCH   5  16
BRANCH   1  30
HETATM   30  N1  UNL     1     -24.311 -11.522  -4.834  1.00  0.00    -0.234 N 
ATOM     31  H12 UNL     1     -24.852 -10.733  -4.484  1.00  0.00     0.174 HD
ATOM     32  H11 UNL     1     -24.856 -12.268  -5.267  1.00  0.00     0.174 HD
ENDBRANCH   1  30
TORSDOF 5
ENDMDL
MODEL 3
REMARK VINA RESULT: -8.510797870      0.930      1.302
REMARK  5 active torsions:
REMARK  status: ('A' for Active; 'I' for Inactive)
REMARK    1  A    between atoms: N1_1  and  C1_4 
REMARK    2  A    between atoms: N3_8  and  N4_10 
REMARK    3  A    between atoms: C3_12  and  C4_13 
REMARK    4  A    between atoms: C5_14  and  C6_15 
REMARK    5  A    between atoms: C6_15  and  N5_16 
ROOT
HETATM    1  C1  UNL     1     -23.033 -11.564  -4.773  1.00  0.00     0.679 A 
HETATM    2  N2  UNL     1     -22.274 -11.082  -5.703  1.00  0.00    -0.173 N 
ATOM      3  H2  UNL     1     -22.919 -10.775  -6.431  1.00  0.00     0.186 HD
HETATM    4  C2  UNL     1     -21.124 -10.803  -6.155  1.00  0.00     0.166 A 
HETATM    5  N3  UNL     1     -20.046 -10.539  -6.572  1.00  0.00    -0.283 N 
ATOM      6  H3  UNL     1     -19.966 -10.812  -7.551  1.00  0.00     0.188 HD
HETATM    7  C11 UNL     1     -20.394 -11.422  -4.747  1.00  0.00     0.124 A 
HETATM    8  N7  UNL     1     -19.105 -11.515  -4.583  1.00  0.00    -0.346 N 
ATOM      9  H7  UNL     1     -18.388 -11.193  -5.233  1.00  0.00     0.167 HD
HETATM   10  C12 UNL     1     -18.890 -12.135  -3.357  1.00  0.00     0.182 A 
HETATM   11  N8  UNL     1     -20.125 -12.385  -2.851  1.00  0.00    -0.336 N 
ATOM     12  H8  UNL     1     -20.328 -12.834  -1.959  1.00  0.00     0.168 HD
HETATM   13  C13 UNL     1     -21.053 -11.926  -3.756  1.00  0.00     0.152 A 
HETATM   14  N9  UNL     1     -22.375 -12.042  -3.665  1.00  0.00    -0.174 N 
ATOM     15  H9  UNL     1     -22.850 -12.444  -2.857  1.00  0.00     0.186 HD
ENDROOT
BRANCH   5  16
HETATM   16  N4  UNL     1     -18.888  -9.985  -6.139  1.00  0.00    -0.310 N 
HETATM   17  C3  UNL     1     -18.374  -8.972  -6.806  1.00  0.00     0.107 C 
ATOM     18  H4  UNL     1     -18.421 -10.347  -5.308  1.00  0.00     0.186 HD
BRANCH  17  19
HETATM   19  C4  UNL     1     -19.029  -8.489  -7.966  1.00  0.00     0.016 C 
HETATM   20  C5  UNL     1     -18.381  -8.029  -9.005  1.00  0.00     0.004 C 
BRANCH  20  21
HETATM   21  C6  UNL     1     -16.899  -7.970  -9.011  1.00  0.00     0.300 C 
BRANCH  21  22
HETATM   22  N5  UNL     1     -16.503  -8.977 -10.035  1.00  0.00     0.095 N 
HETATM   23  C7  UNL     1     -15.591  -8.404 -10.990  1.00  0.00     0.300 C 
HETATM   24  C8  UNL     1     -14.389  -9.355 -11.211  1.00  0.00     0.262 C 
HETATM   25  N6  UNL     1     -13.582  -9.175 -10.001  1.00  0.00    -0.072 N 
HETATM   26  C9  UNL     1     -14.371  -9.639  -8.877  1.00  0.00     0.262 C 
ATOM     27  H62 UNL     1     -12.670  -9.627 -10.061  1.00  0.00     0.277 HD
ATOM     28  H61 UNL     1     -13.249  -8.218  -9.885  1.00  0.00     0.277 HD
HETATM   29  C10 UNL     1     -15.785 -10.030  -9.275  1.00  0.00     0.300 C 
ENDBRANCH  21  22
ENDBRANCH  20  21
ENDBRANCH  17  19
ENDBRANCH   5  16
BRANCH   1  30
HETATM   30  N1  UNL     1     -24.318 -11.557  -4.840  1.00  0.00    -0.234 N 
ATOM     31  H12 UNL     1     -24.842 -12.394  -5.094  1.00  0.00     0.174 HD
ATOM     32  H11 UNL     1     -24.885 -10.742  -4.608  1.00  0.00     0.174 HD
ENDBRANCH   1  30
TORSDOF 5
ENDMDL
MODEL 4
REMARK VINA RESULT: -8.480769078      1.683      2.351
REMARK  5 active torsions:
REMARK  status: ('A' for Active; 'I' for Inactive)
REMARK    1  A    between atoms: N1_1  and  C1_4 
REMARK    2  A    between atoms: N3_8  and  N4_10 
REMARK    3  A    between atoms: C3_12  and  C4_13 
REMARK    4  A    between atoms: C5_14  and  C6_15 
REMARK    5  A    between atoms: C6_15  and  N5_16 
ROOT
HETATM    1  C1  UNL     1     -23.048 -11.486  -4.762  1.00  0.00     0.679 A 
HETATM    2  N2  UNL     1     -22.301 -11.036  -5.718  1.00  0.00    -0.173 N 
ATOM      3  H2  UNL     1     -22.956 -10.735  -6.439  1.00  0.00     0.186 HD
HETATM    4  C2  UNL     1     -21.156 -10.785  -6.199  1.00  0.00     0.166 A 
HETATM    5  N3  UNL     1     -20.083 -10.546  -6.643  1.00  0.00    -0.283 N 
ATOM      6  H3  UNL     1     -20.028 -10.841  -7.617  1.00  0.00     0.188 HD
HETATM    7  C11 UNL     1     -20.407 -11.384  -4.793  1.00  0.00     0.124 A 
HETATM    8  N7  UNL     1     -19.117 -11.493  -4.653  1.00  0.00    -0.346 N 
ATOM      9  H7  UNL     1     -18.408 -11.196  -5.324  1.00  0.00     0.167 HD
HETATM   10  C12 UNL     1     -18.886 -12.090  -3.418  1.00  0.00     0.182 A 
HETATM   11  N8  UNL     1     -20.113 -12.311  -2.882  1.00  0.00    -0.336 N 
ATOM     12  H8  UNL     1     -20.304 -12.737  -1.976  1.00  0.00     0.168 HD
HETATM   13  C13 UNL     1     -21.053 -11.857  -3.778  1.00  0.00     0.152 A 
HETATM   14  N9  UNL     1     -22.374 -11.950  -3.657  1.00  0.00    -0.174 N 
ATOM     15  H9  UNL     1     -22.839 -12.327  -2.832  1.00  0.00     0.186 HD
ENDROOT
BRANCH   5  16
HETATM   16  N4  UNL     1     -18.909 -10.000  -6.246  1.00  0.00    -0.310 N 
HETATM   17  C3  UNL     1     -18.420  -8.977  -6.914  1.00  0.00     0.107 C 
ATOM     18  H4  UNL     1     -18.411 -10.377  -5.440  1.00  0.00     0.186 HD
BRANCH  17  19
HETATM   19  C4  UNL     1     -19.118  -8.473  -8.039  1.00  0.00     0.016 C 
HETATM   20  C5  UNL     1     -18.665  -8.581  -9.261  1.00  0.00     0.004 C 
BRANCH  20  21
HETATM   21  C6  UNL     1     -17.360  -9.232  -9.532  1.00  0.00     0.300 C 
BRANCH  21  22
HETATM   22  N5  UNL     1     -17.132  -8.990 -10.984  1.00  0.00     0.095 N 
HETATM   23  C7  UNL     1     -15.915  -9.621 -11.424  1.00  0.00     0.300 C 
HETATM   24  C8  UNL     1     -16.168 -10.402 -12.737  1.00  0.00     0.262 C 
HETATM   25  N6  UNL     1     -16.887 -11.599 -12.291  1.00  0.00    -0.072 N 
HETATM   26  C9  UNL     1     -18.152 -11.164 -11.730  1.00  0.00     0.262 C 
ATOM     27  H62 UNL     1     -16.997 -12.295 -13.029  1.00  0.00     0.277 HD
ATOM     28  H61 UNL     1     -16.343 -12.172 -11.646  1.00  0.00     0.277 HD
HETATM   29  C10 UNL     1     -18.274  -9.650 -11.664  1.00  0.00     0.300 C 
ENDBRANCH  21  22
ENDBRANCH  20  21
ENDBRANCH  17  19
ENDBRANCH   5  16
BRANCH   1  30
HETATM   30  N1  UNL     1     -24.334 -11.461  -4.803  1.00  0.00    -0.234 N 
ATOM     31  H12 UNL     1     -24.840 -11.555  -5.684  1.00  0.00     0.174 HD
ATOM     32  H11 UNL     1     -24.918 -11.389  -3.970  1.00  0.00     0.174 HD
ENDBRANCH   1  30
TORSDOF 5
ENDMDL
MODEL 5
REMARK VINA RESULT: -8.336972917      3.877      9.234
REMARK  5 active torsions:
REMARK  status: ('A' for Active; 'I' for Inactive)
REMARK    1  A    between atoms: N1_1  and  C1_4 
REMARK    2  A    between atoms: N3_8  and  N4_10 
REMARK    3  A    between atoms: C3_12  and  C4_13 
REMARK    4  A    between atoms: C5_14  and  C6_15 
REMARK    5  A    between atoms: C6_15  and  N5_16 
ROOT
HETATM    1  C1  UNL     1     -20.108 -12.088  -3.353  1.00  0.00     0.679 A 
HETATM    2  N2  UNL     1     -21.389 -12.144  -3.520  1.00  0.00    -0.173 N 
ATOM      3  H2  UNL     1     -21.735 -12.651  -2.705  1.00  0.00     0.186 HD
HETATM    4  C2  UNL     1     -22.426 -11.880  -4.197  1.00  0.00     0.166 A 
HETATM    5  N3  UNL     1     -23.395 -11.625  -4.832  1.00  0.00    -0.283 N 
ATOM      6  H3  UNL     1     -24.007 -12.438  -4.888  1.00  0.00     0.188 HD
HETATM    7  C11 UNL     1     -21.485 -11.091  -5.375  1.00  0.00     0.124 A 
HETATM    8  N7  UNL     1     -21.971 -10.608  -6.484  1.00  0.00    -0.346 N 
ATOM      9  H7  UNL     1     -22.953 -10.594  -6.758  1.00  0.00     0.167 HD
HETATM   10  C12 UNL     1     -20.900 -10.116  -7.223  1.00  0.00     0.182 A 
HETATM   11  N8  UNL     1     -19.795 -10.354  -6.470  1.00  0.00    -0.336 N 
ATOM     12  H8  UNL     1     -18.836 -10.115  -6.721  1.00  0.00     0.168 HD
HETATM   13  C13 UNL     1     -20.199 -10.975  -5.312  1.00  0.00     0.152 A 
HETATM   14  N9  UNL     1     -19.413 -11.434  -4.342  1.00  0.00    -0.174 N 
ATOM     15  H9  UNL     1     -18.400 -11.312  -4.333  1.00  0.00     0.186 HD
ENDROOT
BRANCH   5  16
HETATM   16  N4  UNL     1     -23.933 -10.580  -5.504  1.00  0.00    -0.310 N 
HETATM   17  C3  UNL     1     -24.380  -9.544  -4.827  1.00  0.00     0.107 C 
ATOM     18  H4  UNL     1     -23.991 -10.596  -6.522  1.00  0.00     0.186 HD
BRANCH  17  19
HETATM   19  C4  UNL     1     -24.304  -9.542  -3.412  1.00  0.00     0.016 C 
HETATM   20  C5  UNL     1     -25.363  -9.508  -2.645  1.00  0.00     0.004 C 
BRANCH  20  21
HETATM   21  C6  UNL     1     -26.724  -9.444  -3.233  1.00  0.00     0.300 C 
BRANCH  21  22
HETATM   22  N5  UNL     1     -27.562 -10.227  -2.283  1.00  0.00     0.095 N 
HETATM   23  C7  UNL     1     -28.915 -10.335  -2.763  1.00  0.00     0.300 C 
HETATM   24  C8  UNL     1     -29.401 -11.801  -2.653  1.00  0.00     0.262 C 
HETATM   25  N6  UNL     1     -28.720 -12.472  -3.763  1.00  0.00    -0.072 N 
HETATM   26  C9  UNL     1     -27.294 -12.409  -3.503  1.00  0.00     0.262 C 
ATOM     27  H62 UNL     1     -29.054 -13.423  -3.919  1.00  0.00     0.277 HD
ATOM     28  H61 UNL     1     -28.974 -12.091  -4.675  1.00  0.00     0.277 HD
HETATM   29  C10 UNL     1     -26.960 -11.583  -2.272  1.00  0.00     0.300 C 
ENDBRANCH  21  22
ENDBRANCH  20  21
ENDBRANCH  17  19
ENDBRANCH   5  16
BRANCH   1  30
HETATM   30  N1  UNL     1     -19.512 -12.562  -2.314  1.00  0.00    -0.234 N 
ATOM     31  H12 UNL     1     -19.949 -12.537  -1.393  1.00  0.00     0.174 HD
ATOM     32  H11 UNL     1     -18.601 -13.019  -2.353  1.00  0.00     0.174 HD
ENDBRANCH   1  30
TORSDOF 5
ENDMDL
