MODEL 1
REMARK VINA RESULT: -7.631576880      0.000      0.000
REMARK  8 active torsions:
REMARK  status: ('A' for Active; 'I' for Inactive)
REMARK    1  A    between atoms: C2_3  and  C3_4 
REMARK    2  A    between atoms: C3_4  and  C4_5 
REMARK    3  A    between atoms: C4_5  and  C5_6 
REMARK    4  A    between atoms: C5_6  and  N2_7 
REMARK    5  A    between atoms: C9_19  and  N5_20 
REMARK    6  A    between atoms: N7_26  and  C11_27 
REMARK    7  A    between atoms: C11_27  and  C12_28 
REMARK    8  A    between atoms: C13_29  and  N8_30 
ROOT
HETATM    1  C1  UNL     1     -19.948  -8.026  -9.125  1.00  0.00     0.159 C 
HETATM    2  N1  UNL     1     -19.565  -8.773  -7.932  1.00  0.00    -0.325 N 
HETATM    3  C2  UNL     1     -18.339  -8.925  -7.400  1.00  0.00     0.085 A 
HETATM    4  N3  UNL     1     -18.441  -9.697  -6.293  1.00  0.00    -0.342 N 
ATOM      5  H3  UNL     1     -17.662  -9.970  -5.694  1.00  0.00     0.167 HD
HETATM    6  C6  UNL     1     -19.719 -10.046  -6.104  1.00  0.00     0.098 A 
HETATM    7  C7  UNL     1     -20.610 -10.741  -5.310  1.00  0.00     0.108 A 
HETATM    8  C8  UNL     1     -20.492 -11.503  -4.161  1.00  0.00     0.276 A 
HETATM    9  O1  UNL     1     -19.312 -11.617  -3.697  1.00  0.00    -0.267 OA
HETATM   10  N4  UNL     1     -21.548 -12.091  -3.566  1.00  0.00    -0.155 N 
ATOM     11  H4  UNL     1     -21.436 -12.649  -2.719  1.00  0.00     0.187 HD
HETATM   12  C9  UNL     1     -22.756 -11.914  -4.129  1.00  0.00     0.680 A 
HETATM   13  N6  UNL     1     -22.909 -11.180  -5.245  1.00  0.00    -0.175 N 
ATOM     14  H6  UNL     1     -23.842 -11.069  -5.643  1.00  0.00     0.186 HD
HETATM   15  C10 UNL     1     -21.855 -10.583  -5.857  1.00  0.00     0.144 A 
HETATM   16  N7  UNL     1     -21.707  -9.816  -6.945  1.00  0.00    -0.304 N 
HETATM   17  C14 UNL     1     -20.426  -9.458  -7.144  1.00  0.00     0.141 A 
ENDROOT
BRANCH   3  18
HETATM   18  C3  UNL     1     -17.077  -8.359  -7.912  1.00  0.00     0.078 C 
BRANCH  18  19
HETATM   19  C4  UNL     1     -16.279  -9.388  -8.705  1.00  0.00     0.034 C 
BRANCH  19  20
HETATM   20  C5  UNL     1     -16.549  -9.275 -10.190  1.00  0.00     0.230 C 
BRANCH  20  21
HETATM   21  N2  UNL     1     -17.197 -10.503 -10.599  1.00  0.00    -0.079 N 
ATOM     22  H23 UNL     1     -16.756 -11.337 -10.210  1.00  0.00     0.274 HD
ATOM     23  H22 UNL     1     -18.116 -10.631 -10.175  1.00  0.00     0.274 HD
ATOM     24  H21 UNL     1     -17.223 -10.502 -11.618  1.00  0.00     0.274 HD
ENDBRANCH  20  21
ENDBRANCH  19  20
ENDBRANCH  18  19
ENDBRANCH   3  18
BRANCH  16  25
HETATM   25  C11 UNL     1     -22.799  -9.414  -7.808  1.00  0.00     0.227 C 
BRANCH  25  26
HETATM   26  C12 UNL     1     -23.685  -8.509  -7.083  1.00  0.00    -0.064 C 
HETATM   27  C13 UNL     1     -24.432  -7.745  -6.490  1.00  0.00     0.005 C 
BRANCH  27  28
HETATM   28  N8  UNL     1     -25.294  -6.894  -5.811  1.00  0.00    -0.359 N 
ATOM     29  H82 UNL     1     -25.315  -7.796  -6.287  1.00  0.00     0.166 HD
ATOM     30  H81 UNL     1     -25.915  -6.258  -5.310  1.00  0.00     0.166 HD
ENDBRANCH  27  28
ENDBRANCH  25  26
ENDBRANCH  16  25
BRANCH  12  31
HETATM   31  N5  UNL     1     -23.757 -12.494  -3.532  1.00  0.00    -0.234 N 
ATOM     32  H52 UNL     1     -23.974 -12.334  -2.548  1.00  0.00     0.174 HD
ATOM     33  H51 UNL     1     -24.318 -13.123  -4.105  1.00  0.00     0.174 HD
ENDBRANCH  12  31
TORSDOF 8
ENDMDL
MODEL 2
REMARK VINA RESULT: -7.354288466      3.764      6.282
REMARK  8 active torsions:
REMARK  status: ('A' for Active; 'I' for Inactive)
REMARK    1  A    between atoms: C2_3  and  C3_4 
REMARK    2  A    between atoms: C3_4  and  C4_5 
REMARK    3  A    between atoms: C4_5  and  C5_6 
REMARK    4  A    between atoms: C5_6  and  N2_7 
REMARK    5  A    between atoms: C9_19  and  N5_20 
REMARK    6  A    between atoms: N7_26  and  C11_27 
REMARK    7  A    between atoms: C11_27  and  C12_28 
REMARK    8  A    between atoms: C13_29  and  N8_30 
ROOT
HETATM    1  C1  UNL     1     -22.148  -9.102  -7.322  1.00  0.00     0.159 C 
HETATM    2  N1  UNL     1     -23.316  -8.842  -6.490  1.00  0.00    -0.325 N 
HETATM    3  C2  UNL     1     -24.212  -7.845  -6.596  1.00  0.00     0.085 A 
HETATM    4  N3  UNL     1     -25.135  -7.986  -5.616  1.00  0.00    -0.342 N 
ATOM      5  H3  UNL     1     -25.930  -7.365  -5.464  1.00  0.00     0.167 HD
HETATM    6  C6  UNL     1     -24.844  -9.062  -4.876  1.00  0.00     0.098 A 
HETATM    7  C7  UNL     1     -25.215  -9.846  -3.801  1.00  0.00     0.108 A 
HETATM    8  C8  UNL     1     -26.251  -9.805  -2.885  1.00  0.00     0.276 A 
HETATM    9  O1  UNL     1     -27.072  -8.843  -3.028  1.00  0.00    -0.267 OA
HETATM   10  N4  UNL     1     -26.391 -10.717  -1.903  1.00  0.00    -0.155 N 
ATOM     11  H4  UNL     1     -27.163 -10.665  -1.239  1.00  0.00     0.187 HD
HETATM   12  C9  UNL     1     -25.474 -11.698  -1.832  1.00  0.00     0.680 A 
HETATM   13  N6  UNL     1     -24.453 -11.770  -2.704  1.00  0.00    -0.175 N 
ATOM     14  H6  UNL     1     -23.778 -12.530  -2.617  1.00  0.00     0.186 HD
HETATM   15  C10 UNL     1     -24.298 -10.858  -3.698  1.00  0.00     0.144 A 
HETATM   16  N7  UNL     1     -23.410 -10.681  -4.683  1.00  0.00    -0.304 N 
HETATM   17  C14 UNL     1     -23.692  -9.601  -5.434  1.00  0.00     0.141 A 
ENDROOT
BRANCH   3  18
HETATM   18  C3  UNL     1     -24.218  -6.765  -7.601  1.00  0.00     0.078 C 
BRANCH  18  19
HETATM   19  C4  UNL     1     -25.492  -5.931  -7.526  1.00  0.00     0.034 C 
BRANCH  19  20
HETATM   20  C5  UNL     1     -25.276  -4.658  -6.736  1.00  0.00     0.230 C 
BRANCH  20  21
HETATM   21  N2  UNL     1     -26.181  -4.699  -5.607  1.00  0.00    -0.079 N 
ATOM     22  H23 UNL     1     -27.156  -4.553  -5.870  1.00  0.00     0.274 HD
ATOM     23  H22 UNL     1     -26.290  -5.635  -5.215  1.00  0.00     0.274 HD
ATOM     24  H21 UNL     1     -25.844  -4.017  -4.928  1.00  0.00     0.274 HD
ENDBRANCH  20  21
ENDBRANCH  19  20
ENDBRANCH  18  19
ENDBRANCH   3  18
BRANCH  16  25
HETATM   25  C11 UNL     1     -22.275 -11.549  -4.918  1.00  0.00     0.227 C 
BRANCH  25  26
HETATM   26  C12 UNL     1     -21.321 -11.411  -3.822  1.00  0.00    -0.064 C 
HETATM   27  C13 UNL     1     -20.535 -11.287  -2.894  1.00  0.00     0.005 C 
BRANCH  27  28
HETATM   28  N8  UNL     1     -19.642 -11.170  -1.838  1.00  0.00    -0.359 N 
ATOM     29  H82 UNL     1     -20.139 -11.898  -2.352  1.00  0.00     0.166 HD
ATOM     30  H81 UNL     1     -18.985 -11.067  -1.063  1.00  0.00     0.166 HD
ENDBRANCH  27  28
ENDBRANCH  25  26
ENDBRANCH  16  25
BRANCH  12  31
HETATM   31  N5  UNL     1     -25.635 -12.564  -0.872  1.00  0.00    -0.234 N 
ATOM     32  H52 UNL     1     -26.221 -13.392  -0.976  1.00  0.00     0.174 HD
ATOM     33  H51 UNL     1     -25.140 -12.367  -0.003  1.00  0.00     0.174 HD
ENDBRANCH  12  31
TORSDOF 8
ENDMDL
MODEL 3
REMARK VINA RESULT: -7.286008808      3.284      7.839
REMARK  8 active torsions:
REMARK  status: ('A' for Active; 'I' for Inactive)
REMARK    1  A    between atoms: C2_3  and  C3_4 
REMARK    2  A    between atoms: C3_4  and  C4_5 
REMARK    3  A    between atoms: C4_5  and  C5_6 
REMARK    4  A    between atoms: C5_6  and  N2_7 
REMARK    5  A    between atoms: C9_19  and  N5_20 
REMARK    6  A    between atoms: N7_26  and  C11_27 
REMARK    7  A    between atoms: C11_27  and  C12_28 
REMARK    8  A    between atoms: C13_29  and  N8_30 
ROOT
HETATM    1  C1  UNL     1     -25.386 -11.727  -2.057  1.00  0.00     0.159 C 
HETATM    2  N1  UNL     1     -25.338 -10.630  -3.018  1.00  0.00    -0.325 N 
HETATM    3  C2  UNL     1     -26.135  -9.550  -3.094  1.00  0.00     0.085 A 
HETATM    4  N3  UNL     1     -25.734  -8.789  -4.139  1.00  0.00    -0.342 N 
ATOM      5  H3  UNL     1     -26.166  -7.910  -4.425  1.00  0.00     0.167 HD
HETATM    6  C6  UNL     1     -24.687  -9.366  -4.740  1.00  0.00     0.098 A 
HETATM    7  C7  UNL     1     -23.765  -9.278  -5.764  1.00  0.00     0.108 A 
HETATM    8  C8  UNL     1     -23.523  -8.364  -6.774  1.00  0.00     0.276 A 
HETATM    9  O1  UNL     1     -24.305  -7.360  -6.803  1.00  0.00    -0.267 OA
HETATM   10  N4  UNL     1     -22.530  -8.516  -7.672  1.00  0.00    -0.155 N 
ATOM     11  H4  UNL     1     -22.372  -7.828  -8.408  1.00  0.00     0.187 HD
HETATM   12  C9  UNL     1     -21.756  -9.609  -7.561  1.00  0.00     0.680 A 
HETATM   13  N6  UNL     1     -21.960 -10.520  -6.593  1.00  0.00    -0.175 N 
ATOM     14  H6  UNL     1     -21.351 -11.336  -6.542  1.00  0.00     0.186 HD
HETATM   15  C10 UNL     1     -22.957 -10.381  -5.682  1.00  0.00     0.144 A 
HETATM   16  N7  UNL     1     -23.387 -11.102  -4.639  1.00  0.00    -0.304 N 
HETATM   17  C14 UNL     1     -24.440 -10.531  -4.027  1.00  0.00     0.141 A 
ENDROOT
BRANCH   3  18
HETATM   18  C3  UNL     1     -27.264  -9.221  -2.204  1.00  0.00     0.078 C 
BRANCH  18  19
HETATM   19  C4  UNL     1     -27.714  -7.775  -2.375  1.00  0.00     0.034 C 
BRANCH  19  20
HETATM   20  C5  UNL     1     -27.548  -6.988  -1.092  1.00  0.00     0.230 C 
BRANCH  20  21
HETATM   21  N2  UNL     1     -26.132  -6.950  -0.797  1.00  0.00    -0.079 N 
ATOM     22  H23 UNL     1     -25.918  -6.480   0.084  1.00  0.00     0.274 HD
ATOM     23  H22 UNL     1     -25.748  -7.864  -0.553  1.00  0.00     0.274 HD
ATOM     24  H21 UNL     1     -25.670  -6.523  -1.600  1.00  0.00     0.274 HD
ENDBRANCH  20  21
ENDBRANCH  19  20
ENDBRANCH  18  19
ENDBRANCH   3  18
BRANCH  16  25
HETATM   25  C11 UNL     1     -22.790 -12.351  -4.215  1.00  0.00     0.227 C 
BRANCH  25  26
HETATM   26  C12 UNL     1     -21.348 -12.177  -4.072  1.00  0.00    -0.064 C 
HETATM   27  C13 UNL     1     -20.139 -12.047  -3.946  1.00  0.00     0.005 C 
BRANCH  27  28
HETATM   28  N8  UNL     1     -18.763 -11.900  -3.826  1.00  0.00    -0.359 N 
ATOM     29  H82 UNL     1     -19.499 -11.747  -4.516  1.00  0.00     0.166 HD
ATOM     30  H81 UNL     1     -17.754 -11.798  -3.721  1.00  0.00     0.166 HD
ENDBRANCH  27  28
ENDBRANCH  25  26
ENDBRANCH  16  25
BRANCH  12  31
HETATM   31  N5  UNL     1     -20.805  -9.729  -8.443  1.00  0.00    -0.234 N 
ATOM     32  H52 UNL     1     -20.624 -10.602  -8.937  1.00  0.00     0.174 HD
ATOM     33  H51 UNL     1     -20.245  -8.894  -8.614  1.00  0.00     0.174 HD
ENDBRANCH  12  31
TORSDOF 8
ENDMDL
MODEL 4
REMARK VINA RESULT: -7.236472507      2.855      7.315
REMARK  8 active torsions:
REMARK  status: ('A' for Active; 'I' for Inactive)
REMARK    1  A    between atoms: C2_3  and  C3_4 
REMARK    2  A    between atoms: C3_4  and  C4_5 
REMARK    3  A    between atoms: C4_5  and  C5_6 
REMARK    4  A    between atoms: C5_6  and  N2_7 
REMARK    5  A    between atoms: C9_19  and  N5_20 
REMARK    6  A    between atoms: N7_26  and  C11_27 
REMARK    7  A    between atoms: C11_27  and  C12_28 
REMARK    8  A    between atoms: C13_29  and  N8_30 
ROOT
HETATM    1  C1  UNL     1     -23.897 -12.006  -3.437  1.00  0.00     0.159 C 
HETATM    2  N1  UNL     1     -23.977 -10.929  -4.416  1.00  0.00    -0.325 N 
HETATM    3  C2  UNL     1     -24.982 -10.058  -4.621  1.00  0.00     0.085 A 
HETATM    4  N3  UNL     1     -24.634  -9.227  -5.631  1.00  0.00    -0.342 N 
ATOM      5  H3  UNL     1     -25.213  -8.469  -5.993  1.00  0.00     0.167 HD
HETATM    6  C6  UNL     1     -23.417  -9.550  -6.082  1.00  0.00     0.098 A 
HETATM    7  C7  UNL     1     -22.416  -9.256  -6.987  1.00  0.00     0.108 A 
HETATM    8  C8  UNL     1     -22.262  -8.311  -7.985  1.00  0.00     0.276 A 
HETATM    9  O1  UNL     1     -23.240  -7.511  -8.140  1.00  0.00    -0.267 OA
HETATM   10  N4  UNL     1     -21.155  -8.233  -8.750  1.00  0.00    -0.155 N 
ATOM     11  H4  UNL     1     -21.065  -7.528  -9.481  1.00  0.00     0.187 HD
HETATM   12  C9  UNL     1     -20.174  -9.121  -8.513  1.00  0.00     0.680 A 
HETATM   13  N6  UNL     1     -20.288 -10.054  -7.551  1.00  0.00    -0.175 N 
ATOM     14  H6  UNL     1     -19.521 -10.710  -7.401  1.00  0.00     0.186 HD
HETATM   15  C10 UNL     1     -21.397 -10.145  -6.774  1.00  0.00     0.144 A 
HETATM   16  N7  UNL     1     -21.782 -10.944  -5.771  1.00  0.00    -0.304 N 
HETATM   17  C14 UNL     1     -23.005 -10.628  -5.309  1.00  0.00     0.141 A 
ENDROOT
BRANCH   3  18
HETATM   18  C3  UNL     1     -26.259  -9.995  -3.886  1.00  0.00     0.078 C 
BRANCH  18  19
HETATM   19  C4  UNL     1     -26.090  -9.348  -2.516  1.00  0.00     0.034 C 
BRANCH  19  20
HETATM   20  C5  UNL     1     -27.248  -8.430  -2.189  1.00  0.00     0.230 C 
BRANCH  20  21
HETATM   21  N2  UNL     1     -26.775  -7.485  -1.201  1.00  0.00    -0.079 N 
ATOM     22  H23 UNL     1     -25.760  -7.378  -1.203  1.00  0.00     0.274 HD
ATOM     23  H22 UNL     1     -27.008  -6.517  -1.428  1.00  0.00     0.274 HD
ATOM     24  H21 UNL     1     -27.144  -7.785  -0.299  1.00  0.00     0.274 HD
ENDBRANCH  20  21
ENDBRANCH  19  20
ENDBRANCH  18  19
ENDBRANCH   3  18
BRANCH  16  25
HETATM   25  C11 UNL     1     -20.976 -12.025  -5.240  1.00  0.00     0.227 C 
BRANCH  25  26
HETATM   26  C12 UNL     1     -20.514 -11.674  -3.901  1.00  0.00    -0.064 C 
HETATM   27  C13 UNL     1     -20.135 -11.365  -2.781  1.00  0.00     0.005 C 
BRANCH  27  28
HETATM   28  N8  UNL     1     -19.719 -11.030  -1.499  1.00  0.00    -0.359 N 
ATOM     29  H82 UNL     1     -20.041 -11.848  -2.017  1.00  0.00     0.166 HD
ATOM     30  H81 UNL     1     -19.411 -10.767  -0.562  1.00  0.00     0.166 HD
ENDBRANCH  27  28
ENDBRANCH  25  26
ENDBRANCH  16  25
BRANCH  12  31
HETATM   31  N5  UNL     1     -19.117  -9.022  -9.267  1.00  0.00    -0.234 N 
ATOM     32  H52 UNL     1     -18.684  -8.125  -9.486  1.00  0.00     0.174 HD
ATOM     33  H51 UNL     1     -18.742  -9.897  -9.631  1.00  0.00     0.174 HD
ENDBRANCH  12  31
TORSDOF 8
ENDMDL
MODEL 5
REMARK VINA RESULT: -7.223918974      2.902      4.731
REMARK  8 active torsions:
REMARK  status: ('A' for Active; 'I' for Inactive)
REMARK    1  A    between atoms: C2_3  and  C3_4 
REMARK    2  A    between atoms: C3_4  and  C4_5 
REMARK    3  A    between atoms: C4_5  and  C5_6 
REMARK    4  A    between atoms: C5_6  and  N2_7 
REMARK    5  A    between atoms: C9_19  and  N5_20 
REMARK    6  A    between atoms: N7_26  and  C11_27 
REMARK    7  A    between atoms: C11_27  and  C12_28 
REMARK    8  A    between atoms: C13_29  and  N8_30 
ROOT
HETATM    1  C1  UNL     1     -19.781  -9.013  -5.901  1.00  0.00     0.159 C 
HETATM    2  N1  UNL     1     -21.101  -9.532  -6.240  1.00  0.00    -0.325 N 
HETATM    3  C2  UNL     1     -21.652  -9.682  -7.457  1.00  0.00     0.085 A 
HETATM    4  N3  UNL     1     -22.894 -10.199  -7.309  1.00  0.00    -0.342 N 
ATOM      5  H3  UNL     1     -23.536 -10.414  -8.072  1.00  0.00     0.167 HD
HETATM    6  C6  UNL     1     -23.152 -10.385  -6.009  1.00  0.00     0.098 A 
HETATM    7  C7  UNL     1     -24.073 -10.819  -5.076  1.00  0.00     0.108 A 
HETATM    8  C8  UNL     1     -25.353 -11.337  -5.147  1.00  0.00     0.276 A 
HETATM    9  O1  UNL     1     -25.831 -11.460  -6.321  1.00  0.00    -0.267 OA
HETATM   10  N4  UNL     1     -26.057 -11.693  -4.055  1.00  0.00    -0.155 N 
ATOM     11  H4  UNL     1     -27.001 -12.073  -4.134  1.00  0.00     0.187 HD
HETATM   12  C9  UNL     1     -25.470 -11.527  -2.857  1.00  0.00     0.680 A 
HETATM   13  N6  UNL     1     -24.227 -11.026  -2.748  1.00  0.00    -0.175 N 
ATOM     14  H6  UNL     1     -23.815 -10.916  -1.821  1.00  0.00     0.186 HD
HETATM   15  C10 UNL     1     -23.506 -10.663  -3.839  1.00  0.00     0.144 A 
HETATM   16  N7  UNL     1     -22.283 -10.152  -4.033  1.00  0.00    -0.304 N 
HETATM   17  C14 UNL     1     -22.013  -9.961  -5.337  1.00  0.00     0.141 A 
ENDROOT
BRANCH   3  18
HETATM   18  C3  UNL     1     -21.034  -9.348  -8.755  1.00  0.00     0.078 C 
BRANCH  18  19
HETATM   19  C4  UNL     1     -21.828  -8.280  -9.499  1.00  0.00     0.034 C 
BRANCH  19  20
HETATM   20  C5  UNL     1     -21.776  -8.494 -10.997  1.00  0.00     0.230 C 
BRANCH  20  21
HETATM   21  N2  UNL     1     -20.692  -9.418 -11.256  1.00  0.00    -0.079 N 
ATOM     22  H23 UNL     1     -20.428  -9.459 -12.241  1.00  0.00     0.274 HD
ATOM     23  H22 UNL     1     -19.795  -9.095 -10.893  1.00  0.00     0.274 HD
ATOM     24  H21 UNL     1     -20.974 -10.323 -10.880  1.00  0.00     0.274 HD
ENDBRANCH  20  21
ENDBRANCH  19  20
ENDBRANCH  18  19
ENDBRANCH   3  18
BRANCH  16  25
HETATM   25  C11 UNL     1     -21.356  -9.840  -2.965  1.00  0.00     0.227 C 
BRANCH  25  26
HETATM   26  C12 UNL     1     -20.405 -10.936  -2.811  1.00  0.00    -0.064 C 
HETATM   27  C13 UNL     1     -19.596 -11.843  -2.678  1.00  0.00     0.005 C 
BRANCH  27  28
HETATM   28  N8  UNL     1     -18.690 -12.881  -2.508  1.00  0.00    -0.359 N 
ATOM     29  H82 UNL     1     -19.606 -12.592  -2.165  1.00  0.00     0.166 HD
ATOM     30  H81 UNL     1     -18.013 -13.636  -2.394  1.00  0.00     0.166 HD
ENDBRANCH  27  28
ENDBRANCH  25  26
ENDBRANCH  16  25
BRANCH  12  31
HETATM   31  N5  UNL     1     -26.175 -11.879  -1.820  1.00  0.00    -0.234 N 
ATOM     32  H52 UNL     1     -26.329 -11.257  -1.027  1.00  0.00     0.174 HD
ATOM     33  H51 UNL     1     -26.569 -12.819  -1.844  1.00  0.00     0.174 HD
ENDBRANCH  12  31
TORSDOF 8
ENDMDL
