MODEL 1
REMARK VINA RESULT: -8.839050519      0.000      0.000
REMARK  17 active torsions:
REMARK  status: ('A' for Active; 'I' for Inactive)
REMARK    1  A    between atoms: C2_2  and  O1_5 
REMARK    2  A    between atoms: O1_5  and  C5_6 
REMARK    3  A    between atoms: C5_6  and  C6_8 
REMARK    4  A    between atoms: C6_8  and  C7_9 
REMARK    5  A    between atoms: C7_9  and  C8_10 
REMARK    6  A    between atoms: C8_10  and  C9_11 
REMARK    7  A    between atoms: C9_11  and  C10_12 
REMARK    8  A    between atoms: C10_12  and  C11_13 
REMARK       I    between atoms: C11_13  and  N1_15 
REMARK    9  A    between atoms: N1_15  and  C12_17 
REMARK   10  A    between atoms: C12_17  and  C13_18 
REMARK       I    between atoms: C13_18  and  N2_20 
REMARK   11  A    between atoms: N2_20  and  C14_22 
REMARK   12  A    between atoms: C14_22  and  C15_23 
REMARK   13  A    between atoms: C15_23  and  S1_24 
REMARK   14  A    between atoms: S1_24  and  N3_25 
REMARK       I    between atoms: N4_30  and  C16_32 
REMARK   15  A    between atoms: C16_32  and  C17_34 
REMARK       I    between atoms: N5_38  and  C21_39 
REMARK   16  A    between atoms: C21_39  and  O9_41 
REMARK   17  A    between atoms: O9_41  and  C22_42 
ROOT
HETATM    1  C8  UNL     1      17.862  22.017  18.112  1.00  0.00    -0.010 C 
HETATM    2  N4  UNL     1      18.556  23.043  18.242  1.00  0.00    -0.333 N 
ATOM      3  H4  UNL     1      18.945  23.360  17.354  1.00  0.00     0.168 HD
HETATM    4  C16 UNL     1      18.931  23.865  19.305  1.00  0.00     0.244 C 
HETATM    5  O7  UNL     1      18.227  23.954  20.320  1.00  0.00    -0.271 OA
ENDROOT
BRANCH   1   6
HETATM    6  C7  UNL     1      17.748  21.470  16.707  1.00  0.00     0.062 C 
BRANCH   6   7
HETATM    7  C6  UNL     1      17.662  22.671  15.788  1.00  0.00     0.117 C 
BRANCH   7   8
HETATM    8  C5  UNL     1      16.265  23.156  15.652  1.00  0.00     0.259 C 
HETATM    9  O2  UNL     1      16.008  24.371  15.451  1.00  0.00    -0.265 OA
BRANCH   8  10
HETATM   10  O1  UNL     1      15.236  22.247  15.751  1.00  0.00    -0.311 OA
BRANCH  10  11
HETATM   11  C2  UNL     1      14.374  21.915  14.704  1.00  0.00     0.060 C 
HETATM   12  C1  UNL     1      13.823  20.527  14.976  1.00  0.00     0.045 C 
HETATM   13  C3  UNL     1      15.133  21.810  13.383  1.00  0.00     0.045 C 
HETATM   14  C4  UNL     1      13.220  22.859  14.531  1.00  0.00     0.045 C 
ENDBRANCH  10  11
ENDBRANCH   8  10
ENDBRANCH   7   8
ENDBRANCH   6   7
ENDBRANCH   1   6
BRANCH   1  15
HETATM   15  C9  UNL     1      17.195  21.333  19.225  1.00  0.00     0.062 C 
BRANCH  15  16
HETATM   16  C10 UNL     1      15.713  21.469  19.266  1.00  0.00     0.108 C 
BRANCH  16  17
HETATM   17  C11 UNL     1      14.958  20.217  19.049  1.00  0.00     0.218 C 
HETATM   18  O3  UNL     1      15.040  19.496  18.028  1.00  0.00    -0.274 OA
HETATM   19  N1  UNL     1      14.040  19.733  20.053  1.00  0.00    -0.352 N 
ATOM     20  H1  UNL     1      13.937  20.280  20.908  1.00  0.00     0.162 HD
BRANCH  19  21
HETATM   21  C12 UNL     1      13.271  18.543  19.926  1.00  0.00     0.225 C 
BRANCH  21  22
HETATM   22  C13 UNL     1      11.998  18.687  19.194  1.00  0.00     0.235 C 
HETATM   23  O4  UNL     1      10.907  18.611  19.801  1.00  0.00    -0.272 OA
HETATM   24  N2  UNL     1      11.960  18.915  17.780  1.00  0.00    -0.359 N 
ATOM     25  H2  UNL     1      12.827  18.983  17.246  1.00  0.00     0.162 HD
BRANCH  24  26
HETATM   26  C14 UNL     1      10.701  19.046  17.128  1.00  0.00     0.139 C 
BRANCH  26  27
HETATM   27  C15 UNL     1      10.507  18.119  15.987  1.00  0.00     0.182 C 
BRANCH  27  28
HETATM   28  S1  UNL     1      10.396  16.450  16.518  1.00  0.00     0.226 S 
HETATM   29  O5  UNL     1       9.794  15.591  15.468  1.00  0.00    -0.206 OA
HETATM   30  O6  UNL     1      11.721  15.897  16.949  1.00  0.00    -0.206 OA
BRANCH  28  31
HETATM   31  N3  UNL     1       9.393  16.457  17.955  1.00  0.00    -0.328 N 
ATOM     32  H32 UNL     1       9.565  16.993  18.805  1.00  0.00     0.168 HD
ATOM     33  H31 UNL     1       8.615  15.825  17.764  1.00  0.00     0.168 HD
ENDBRANCH  28  31
ENDBRANCH  27  28
ENDBRANCH  26  27
ENDBRANCH  24  26
ENDBRANCH  21  22
ENDBRANCH  19  21
ENDBRANCH  16  17
ENDBRANCH  15  16
ENDBRANCH   1  15
BRANCH   4  34
HETATM   34  C17 UNL     1      20.172  24.602  19.170  1.00  0.00     0.181 C 
HETATM   35  C18 UNL     1      20.494  25.445  20.411  1.00  0.00     0.037 C 
HETATM   36  C19 UNL     1      21.721  26.206  19.908  1.00  0.00     0.022 C 
HETATM   37  C20 UNL     1      21.820  25.897  18.408  1.00  0.00     0.129 C 
HETATM   38  N5  UNL     1      20.387  25.549  18.166  1.00  0.00    -0.315 N 
HETATM   39  C21 UNL     1      19.669  26.166  17.152  1.00  0.00     0.363 C 
HETATM   40  O8  UNL     1      18.460  26.015  16.838  1.00  0.00    -0.238 OA
BRANCH  39  41
HETATM   41  O9  UNL     1      20.296  27.122  16.287  1.00  0.00    -0.298 OA
BRANCH  41  42
HETATM   42  C22 UNL     1      20.285  26.967  14.884  1.00  0.00     0.133 C 
HETATM   43  C23 UNL     1      20.743  28.250  14.202  1.00  0.00     0.032 C 
HETATM   44  C24 UNL     1      22.233  28.280  14.516  1.00  0.00     0.002 C 
HETATM   45  C25 UNL     1      22.623  26.841  14.642  1.00  0.00     0.002 C 
HETATM   46  C26 UNL     1      21.386  26.007  14.515  1.00  0.00     0.032 C 
ENDBRANCH  41  42
ENDBRANCH  39  41
ENDBRANCH   4  34
TORSDOF 17
ENDMDL
MODEL 2
REMARK VINA RESULT: -8.417105616      1.709      1.991
REMARK  17 active torsions:
REMARK  status: ('A' for Active; 'I' for Inactive)
REMARK    1  A    between atoms: C2_2  and  O1_5 
REMARK    2  A    between atoms: O1_5  and  C5_6 
REMARK    3  A    between atoms: C5_6  and  C6_8 
REMARK    4  A    between atoms: C6_8  and  C7_9 
REMARK    5  A    between atoms: C7_9  and  C8_10 
REMARK    6  A    between atoms: C8_10  and  C9_11 
REMARK    7  A    between atoms: C9_11  and  C10_12 
REMARK    8  A    between atoms: C10_12  and  C11_13 
REMARK       I    between atoms: C11_13  and  N1_15 
REMARK    9  A    between atoms: N1_15  and  C12_17 
REMARK   10  A    between atoms: C12_17  and  C13_18 
REMARK       I    between atoms: C13_18  and  N2_20 
REMARK   11  A    between atoms: N2_20  and  C14_22 
REMARK   12  A    between atoms: C14_22  and  C15_23 
REMARK   13  A    between atoms: C15_23  and  S1_24 
REMARK   14  A    between atoms: S1_24  and  N3_25 
REMARK       I    between atoms: N4_30  and  C16_32 
REMARK   15  A    between atoms: C16_32  and  C17_34 
REMARK       I    between atoms: N5_38  and  C21_39 
REMARK   16  A    between atoms: C21_39  and  O9_41 
REMARK   17  A    between atoms: O9_41  and  C22_42 
ROOT
HETATM    1  C8  UNL     1      17.791  21.934  18.149  1.00  0.00    -0.010 C 
HETATM    2  N4  UNL     1      18.510  22.933  18.333  1.00  0.00    -0.333 N 
ATOM      3  H4  UNL     1      18.962  23.246  17.473  1.00  0.00     0.168 HD
HETATM    4  C16 UNL     1      18.850  23.730  19.427  1.00  0.00     0.244 C 
HETATM    5  O7  UNL     1      18.090  23.832  20.400  1.00  0.00    -0.271 OA
ENDROOT
BRANCH   1   6
HETATM    6  C7  UNL     1      17.741  21.407  16.732  1.00  0.00     0.062 C 
BRANCH   6   7
HETATM    7  C6  UNL     1      17.910  22.608  15.825  1.00  0.00     0.117 C 
BRANCH   7   8
HETATM    8  C5  UNL     1      16.610  23.269  15.546  1.00  0.00     0.259 C 
HETATM    9  O2  UNL     1      16.551  24.462  15.153  1.00  0.00    -0.265 OA
BRANCH   8  10
HETATM   10  O1  UNL     1      15.450  22.550  15.726  1.00  0.00    -0.311 OA
BRANCH  10  11
HETATM   11  C2  UNL     1      14.545  22.245  14.707  1.00  0.00     0.060 C 
HETATM   12  C1  UNL     1      13.858  20.942  15.070  1.00  0.00     0.045 C 
HETATM   13  C3  UNL     1      15.272  21.980  13.391  1.00  0.00     0.045 C 
HETATM   14  C4  UNL     1      13.492  23.291  14.482  1.00  0.00     0.045 C 
ENDBRANCH  10  11
ENDBRANCH   8  10
ENDBRANCH   7   8
ENDBRANCH   6   7
ENDBRANCH   1   6
BRANCH   1  15
HETATM   15  C9  UNL     1      17.036  21.261  19.212  1.00  0.00     0.062 C 
BRANCH  15  16
HETATM   16  C10 UNL     1      15.601  21.647  19.322  1.00  0.00     0.108 C 
BRANCH  16  17
HETATM   17  C11 UNL     1      14.660  20.525  19.525  1.00  0.00     0.218 C 
HETATM   18  O3  UNL     1      14.358  20.032  20.636  1.00  0.00    -0.274 OA
HETATM   19  N1  UNL     1      14.006  19.907  18.396  1.00  0.00    -0.352 N 
ATOM     20  H1  UNL     1      14.213  20.272  17.466  1.00  0.00     0.162 HD
BRANCH  19  21
HETATM   21  C12 UNL     1      13.092  18.821  18.497  1.00  0.00     0.225 C 
BRANCH  21  22
HETATM   22  C13 UNL     1      11.864  18.950  17.689  1.00  0.00     0.235 C 
HETATM   23  O4  UNL     1      10.914  19.658  18.091  1.00  0.00    -0.272 OA
HETATM   24  N2  UNL     1      11.712  18.279  16.432  1.00  0.00    -0.359 N 
ATOM     25  H2  UNL     1      12.462  17.692  16.068  1.00  0.00     0.162 HD
BRANCH  24  26
HETATM   26  C14 UNL     1      10.504  18.441  15.696  1.00  0.00     0.139 C 
BRANCH  26  27
HETATM   27  C15 UNL     1      10.681  19.064  14.363  1.00  0.00     0.182 C 
BRANCH  27  28
HETATM   28  S1  UNL     1       9.827  20.593  14.243  1.00  0.00     0.226 S 
HETATM   29  O5  UNL     1      10.700  21.653  13.680  1.00  0.00    -0.206 OA
HETATM   30  O6  UNL     1       8.562  20.482  13.446  1.00  0.00    -0.206 OA
BRANCH  28  31
HETATM   31  N3  UNL     1       9.330  21.008  15.871  1.00  0.00    -0.328 N 
ATOM     32  H32 UNL     1       9.880  21.531  16.552  1.00  0.00     0.168 HD
ATOM     33  H31 UNL     1       8.392  20.624  15.991  1.00  0.00     0.168 HD
ENDBRANCH  28  31
ENDBRANCH  27  28
ENDBRANCH  26  27
ENDBRANCH  24  26
ENDBRANCH  21  22
ENDBRANCH  19  21
ENDBRANCH  16  17
ENDBRANCH  15  16
ENDBRANCH   1  15
BRANCH   4  34
HETATM   34  C17 UNL     1      20.121  24.425  19.374  1.00  0.00     0.181 C 
HETATM   35  C18 UNL     1      20.395  25.246  20.642  1.00  0.00     0.037 C 
HETATM   36  C19 UNL     1      21.677  25.968  20.221  1.00  0.00     0.022 C 
HETATM   37  C20 UNL     1      21.856  25.668  18.727  1.00  0.00     0.129 C 
HETATM   38  N5  UNL     1      20.429  25.371  18.394  1.00  0.00    -0.315 N 
HETATM   39  C21 UNL     1      19.796  26.020  17.346  1.00  0.00     0.363 C 
HETATM   40  O8  UNL     1      18.605  25.914  16.957  1.00  0.00    -0.238 OA
BRANCH  39  41
HETATM   41  O9  UNL     1      20.508  26.961  16.529  1.00  0.00    -0.298 OA
BRANCH  41  42
HETATM   42  C22 UNL     1      20.467  26.893  15.119  1.00  0.00     0.133 C 
HETATM   43  C23 UNL     1      20.604  28.286  14.516  1.00  0.00     0.032 C 
HETATM   44  C24 UNL     1      22.063  28.624  14.785  1.00  0.00     0.002 C 
HETATM   45  C25 UNL     1      22.763  27.302  14.799  1.00  0.00     0.002 C 
HETATM   46  C26 UNL     1      21.733  26.225  14.651  1.00  0.00     0.032 C 
ENDBRANCH  41  42
ENDBRANCH  39  41
ENDBRANCH   4  34
TORSDOF 17
ENDMDL
MODEL 3
REMARK VINA RESULT: -8.360941830      3.889     11.335
REMARK  17 active torsions:
REMARK  status: ('A' for Active; 'I' for Inactive)
REMARK    1  A    between atoms: C2_2  and  O1_5 
REMARK    2  A    between atoms: O1_5  and  C5_6 
REMARK    3  A    between atoms: C5_6  and  C6_8 
REMARK    4  A    between atoms: C6_8  and  C7_9 
REMARK    5  A    between atoms: C7_9  and  C8_10 
REMARK    6  A    between atoms: C8_10  and  C9_11 
REMARK    7  A    between atoms: C9_11  and  C10_12 
REMARK    8  A    between atoms: C10_12  and  C11_13 
REMARK       I    between atoms: C11_13  and  N1_15 
REMARK    9  A    between atoms: N1_15  and  C12_17 
REMARK   10  A    between atoms: C12_17  and  C13_18 
REMARK       I    between atoms: C13_18  and  N2_20 
REMARK   11  A    between atoms: N2_20  and  C14_22 
REMARK   12  A    between atoms: C14_22  and  C15_23 
REMARK   13  A    between atoms: C15_23  and  S1_24 
REMARK   14  A    between atoms: S1_24  and  N3_25 
REMARK       I    between atoms: N4_30  and  C16_32 
REMARK   15  A    between atoms: C16_32  and  C17_34 
REMARK       I    between atoms: N5_38  and  C21_39 
REMARK   16  A    between atoms: C21_39  and  O9_41 
REMARK   17  A    between atoms: O9_41  and  C22_42 
ROOT
HETATM    1  C8  UNL     1      17.306  23.016  15.559  1.00  0.00    -0.010 C 
HETATM    2  N4  UNL     1      16.165  22.545  15.718  1.00  0.00    -0.333 N 
ATOM      3  H4  UNL     1      16.168  21.718  16.315  1.00  0.00     0.168 HD
HETATM    4  C16 UNL     1      14.881  22.872  15.278  1.00  0.00     0.244 C 
HETATM    5  O7  UNL     1      14.591  24.036  14.971  1.00  0.00    -0.271 OA
ENDROOT
BRANCH   1   6
HETATM    6  C7  UNL     1      18.427  22.282  16.261  1.00  0.00     0.062 C 
BRANCH   6   7
HETATM    7  C6  UNL     1      17.994  22.125  17.704  1.00  0.00     0.117 C 
BRANCH   7   8
HETATM    8  C5  UNL     1      18.227  23.366  18.484  1.00  0.00     0.259 C 
HETATM    9  O2  UNL     1      17.280  23.981  19.039  1.00  0.00    -0.265 OA
BRANCH   8  10
HETATM   10  O1  UNL     1      19.512  23.847  18.594  1.00  0.00    -0.311 OA
BRANCH  10  11
HETATM   11  C2  UNL     1      20.278  23.791  19.760  1.00  0.00     0.060 C 
HETATM   12  C1  UNL     1      21.741  23.779  19.356  1.00  0.00     0.045 C 
HETATM   13  C3  UNL     1      20.042  22.479  20.506  1.00  0.00     0.045 C 
HETATM   14  C4  UNL     1      20.054  24.936  20.704  1.00  0.00     0.045 C 
ENDBRANCH  10  11
ENDBRANCH   8  10
ENDBRANCH   7   8
ENDBRANCH   6   7
ENDBRANCH   1   6
BRANCH   1  15
HETATM   15  C9  UNL     1      17.600  24.193  14.734  1.00  0.00     0.062 C 
BRANCH  15  16
HETATM   16  C10 UNL     1      17.916  25.440  15.486  1.00  0.00     0.108 C 
BRANCH  16  17
HETATM   17  C11 UNL     1      19.350  25.660  15.767  1.00  0.00     0.218 C 
HETATM   18  O3  UNL     1      20.295  25.123  15.145  1.00  0.00    -0.274 OA
HETATM   19  N1  UNL     1      19.759  26.552  16.826  1.00  0.00    -0.352 N 
ATOM     20  H1  UNL     1      19.029  27.020  17.364  1.00  0.00     0.162 HD
BRANCH  19  21
HETATM   21  C12 UNL     1      21.114  26.819  17.169  1.00  0.00     0.225 C 
BRANCH  21  22
HETATM   22  C13 UNL     1      21.745  27.933  16.435  1.00  0.00     0.235 C 
HETATM   23  O4  UNL     1      21.059  28.669  15.692  1.00  0.00    -0.272 OA
HETATM   24  N2  UNL     1      23.146  28.211  16.541  1.00  0.00    -0.359 N 
ATOM     25  H2  UNL     1      23.742  27.635  17.136  1.00  0.00     0.162 HD
BRANCH  24  26
HETATM   26  C14 UNL     1      23.699  29.300  15.809  1.00  0.00     0.139 C 
BRANCH  26  27
HETATM   27  C15 UNL     1      24.871  28.941  14.975  1.00  0.00     0.182 C 
BRANCH  27  28
HETATM   28  S1  UNL     1      25.797  27.631  15.688  1.00  0.00     0.226 S 
HETATM   29  O5  UNL     1      26.170  27.939  17.092  1.00  0.00    -0.206 OA
HETATM   30  O6  UNL     1      25.079  26.316  15.616  1.00  0.00    -0.206 OA
BRANCH  28  31
HETATM   31  N3  UNL     1      27.230  27.446  14.699  1.00  0.00    -0.328 N 
ATOM     32  H32 UNL     1      27.580  28.118  14.016  1.00  0.00     0.168 HD
ATOM     33  H31 UNL     1      27.634  26.542  14.945  1.00  0.00     0.168 HD
ENDBRANCH  28  31
ENDBRANCH  27  28
ENDBRANCH  26  27
ENDBRANCH  24  26
ENDBRANCH  21  22
ENDBRANCH  19  21
ENDBRANCH  16  17
ENDBRANCH  15  16
ENDBRANCH   1  15
BRANCH   4  34
HETATM   34  C17 UNL     1      13.912  21.797  15.196  1.00  0.00     0.181 C 
HETATM   35  C18 UNL     1      12.540  22.278  14.704  1.00  0.00     0.037 C 
HETATM   36  C19 UNL     1      11.725  20.996  14.886  1.00  0.00     0.022 C 
HETATM   37  C20 UNL     1      12.634  20.027  15.655  1.00  0.00     0.129 C 
HETATM   38  N5  UNL     1      13.526  21.037  16.303  1.00  0.00    -0.315 N 
HETATM   39  C21 UNL     1      13.735  21.022  17.673  1.00  0.00     0.363 C 
HETATM   40  O8  UNL     1      14.420  21.810  18.375  1.00  0.00    -0.238 OA
BRANCH  39  41
HETATM   41  O9  UNL     1      13.134  20.012  18.496  1.00  0.00    -0.298 OA
BRANCH  41  42
HETATM   42  C22 UNL     1      13.912  19.184  19.333  1.00  0.00     0.133 C 
HETATM   43  C23 UNL     1      13.235  19.010  20.687  1.00  0.00     0.032 C 
HETATM   44  C24 UNL     1      12.049  18.116  20.354  1.00  0.00     0.002 C 
HETATM   45  C25 UNL     1      12.502  17.305  19.182  1.00  0.00     0.002 C 
HETATM   46  C26 UNL     1      13.862  17.784  18.777  1.00  0.00     0.032 C 
ENDBRANCH  41  42
ENDBRANCH  39  41
ENDBRANCH   4  34
TORSDOF 17
ENDMDL
MODEL 4
REMARK VINA RESULT: -8.311578832      1.229      1.431
REMARK  17 active torsions:
REMARK  status: ('A' for Active; 'I' for Inactive)
REMARK    1  A    between atoms: C2_2  and  O1_5 
REMARK    2  A    between atoms: O1_5  and  C5_6 
REMARK    3  A    between atoms: C5_6  and  C6_8 
REMARK    4  A    between atoms: C6_8  and  C7_9 
REMARK    5  A    between atoms: C7_9  and  C8_10 
REMARK    6  A    between atoms: C8_10  and  C9_11 
REMARK    7  A    between atoms: C9_11  and  C10_12 
REMARK    8  A    between atoms: C10_12  and  C11_13 
REMARK       I    between atoms: C11_13  and  N1_15 
REMARK    9  A    between atoms: N1_15  and  C12_17 
REMARK   10  A    between atoms: C12_17  and  C13_18 
REMARK       I    between atoms: C13_18  and  N2_20 
REMARK   11  A    between atoms: N2_20  and  C14_22 
REMARK   12  A    between atoms: C14_22  and  C15_23 
REMARK   13  A    between atoms: C15_23  and  S1_24 
REMARK   14  A    between atoms: S1_24  and  N3_25 
REMARK       I    between atoms: N4_30  and  C16_32 
REMARK   15  A    between atoms: C16_32  and  C17_34 
REMARK       I    between atoms: N5_38  and  C21_39 
REMARK   16  A    between atoms: C21_39  and  O9_41 
REMARK   17  A    between atoms: O9_41  and  C22_42 
ROOT
HETATM    1  C8  UNL     1      17.635  21.944  18.022  1.00  0.00    -0.010 C 
HETATM    2  N4  UNL     1      18.341  22.956  18.187  1.00  0.00    -0.333 N 
ATOM      3  H4  UNL     1      18.722  23.307  17.309  1.00  0.00     0.168 HD
HETATM    4  C16 UNL     1      18.738  23.726  19.280  1.00  0.00     0.244 C 
HETATM    5  O7  UNL     1      18.047  23.778  20.307  1.00  0.00    -0.271 OA
ENDROOT
BRANCH   1   6
HETATM    6  C7  UNL     1      17.497  21.461  16.595  1.00  0.00     0.062 C 
BRANCH   6   7
HETATM    7  C6  UNL     1      16.647  22.488  15.877  1.00  0.00     0.117 C 
BRANCH   7   8
HETATM    8  C5  UNL     1      15.852  21.873  14.785  1.00  0.00     0.259 C 
HETATM    9  O2  UNL     1      16.061  22.160  13.578  1.00  0.00    -0.265 OA
BRANCH   8  10
HETATM   10  O1  UNL     1      14.866  20.969  15.112  1.00  0.00    -0.311 OA
BRANCH  10  11
HETATM   11  C2  UNL     1      13.508  21.153  14.845  1.00  0.00     0.060 C 
HETATM   12  C1  UNL     1      12.722  20.531  15.985  1.00  0.00     0.045 C 
HETATM   13  C3  UNL     1      13.090  20.394  13.588  1.00  0.00     0.045 C 
HETATM   14  C4  UNL     1      13.093  22.589  14.709  1.00  0.00     0.045 C 
ENDBRANCH  10  11
ENDBRANCH   8  10
ENDBRANCH   7   8
ENDBRANCH   6   7
ENDBRANCH   1   6
BRANCH   1  15
HETATM   15  C9  UNL     1      16.974  21.218  19.112  1.00  0.00     0.062 C 
BRANCH  15  16
HETATM   16  C10 UNL     1      15.515  21.481  19.265  1.00  0.00     0.108 C 
BRANCH  16  17
HETATM   17  C11 UNL     1      14.748  20.405  19.928  1.00  0.00     0.218 C 
HETATM   18  O3  UNL     1      14.592  20.291  21.166  1.00  0.00    -0.274 OA
HETATM   19  N1  UNL     1      14.103  19.378  19.146  1.00  0.00    -0.352 N 
ATOM     20  H1  UNL     1      14.195  19.424  18.130  1.00  0.00     0.162 HD
BRANCH  19  21
HETATM   21  C12 UNL     1      13.350  18.305  19.699  1.00  0.00     0.225 C 
BRANCH  21  22
HETATM   22  C13 UNL     1      11.988  18.141  19.155  1.00  0.00     0.235 C 
HETATM   23  O4  UNL     1      11.011  18.668  19.729  1.00  0.00    -0.272 OA
HETATM   24  N2  UNL     1      11.735  17.381  17.967  1.00  0.00    -0.359 N 
ATOM     25  H2  UNL     1      12.504  16.934  17.467  1.00  0.00     0.162 HD
BRANCH  24  26
HETATM   26  C14 UNL     1      10.399  17.258  17.489  1.00  0.00     0.139 C 
BRANCH  26  27
HETATM   27  C15 UNL     1      10.245  17.512  16.037  1.00  0.00     0.182 C 
BRANCH  27  28
HETATM   28  S1  UNL     1      10.681  16.104  15.083  1.00  0.00     0.226 S 
HETATM   29  O5  UNL     1      11.426  15.112  15.899  1.00  0.00    -0.206 OA
HETATM   30  O6  UNL     1       9.491  15.460  14.436  1.00  0.00    -0.206 OA
BRANCH  28  31
HETATM   31  N3  UNL     1      11.679  16.691  13.768  1.00  0.00    -0.328 N 
ATOM     32  H32 UNL     1      11.985  17.654  13.629  1.00  0.00     0.168 HD
ATOM     33  H31 UNL     1      11.885  15.882  13.182  1.00  0.00     0.168 HD
ENDBRANCH  28  31
ENDBRANCH  27  28
ENDBRANCH  26  27
ENDBRANCH  24  26
ENDBRANCH  21  22
ENDBRANCH  19  21
ENDBRANCH  16  17
ENDBRANCH  15  16
ENDBRANCH   1  15
BRANCH   4  34
HETATM   34  C17 UNL     1      19.985  24.456  19.162  1.00  0.00     0.181 C 
HETATM   35  C18 UNL     1      20.305  25.282  20.415  1.00  0.00     0.037 C 
HETATM   36  C19 UNL     1      21.542  26.040  19.929  1.00  0.00     0.022 C 
HETATM   37  C20 UNL     1      21.648  25.748  18.426  1.00  0.00     0.129 C 
HETATM   38  N5  UNL     1      20.214  25.412  18.170  1.00  0.00    -0.315 N 
HETATM   39  C21 UNL     1      19.507  26.046  17.159  1.00  0.00     0.363 C 
HETATM   40  O8  UNL     1      18.300  25.908  16.835  1.00  0.00    -0.238 OA
BRANCH  39  41
HETATM   41  O9  UNL     1      20.147  27.008  16.309  1.00  0.00    -0.298 OA
BRANCH  41  42
HETATM   42  C22 UNL     1      20.126  26.880  14.903  1.00  0.00     0.133 C 
HETATM   43  C23 UNL     1      20.563  28.182  14.243  1.00  0.00     0.032 C 
HETATM   44  C24 UNL     1      22.055  28.223  14.545  1.00  0.00     0.002 C 
HETATM   45  C25 UNL     1      22.463  26.787  14.639  1.00  0.00     0.002 C 
HETATM   46  C26 UNL     1      21.235  25.941  14.506  1.00  0.00     0.032 C 
ENDBRANCH  41  42
ENDBRANCH  39  41
ENDBRANCH   4  34
TORSDOF 17
ENDMDL
MODEL 5
REMARK VINA RESULT: -8.193361195      3.742     10.698
REMARK  17 active torsions:
REMARK  status: ('A' for Active; 'I' for Inactive)
REMARK    1  A    between atoms: C2_2  and  O1_5 
REMARK    2  A    between atoms: O1_5  and  C5_6 
REMARK    3  A    between atoms: C5_6  and  C6_8 
REMARK    4  A    between atoms: C6_8  and  C7_9 
REMARK    5  A    between atoms: C7_9  and  C8_10 
REMARK    6  A    between atoms: C8_10  and  C9_11 
REMARK    7  A    between atoms: C9_11  and  C10_12 
REMARK    8  A    between atoms: C10_12  and  C11_13 
REMARK       I    between atoms: C11_13  and  N1_15 
REMARK    9  A    between atoms: N1_15  and  C12_17 
REMARK   10  A    between atoms: C12_17  and  C13_18 
REMARK       I    between atoms: C13_18  and  N2_20 
REMARK   11  A    between atoms: N2_20  and  C14_22 
REMARK   12  A    between atoms: C14_22  and  C15_23 
REMARK   13  A    between atoms: C15_23  and  S1_24 
REMARK   14  A    between atoms: S1_24  and  N3_25 
REMARK       I    between atoms: N4_30  and  C16_32 
REMARK   15  A    between atoms: C16_32  and  C17_34 
REMARK       I    between atoms: N5_38  and  C21_39 
REMARK   16  A    between atoms: C21_39  and  O9_41 
REMARK   17  A    between atoms: O9_41  and  C22_42 
ROOT
HETATM    1  C8  UNL     1      18.137  23.980  16.853  1.00  0.00    -0.010 C 
HETATM    2  N4  UNL     1      17.292  23.279  16.265  1.00  0.00    -0.333 N 
ATOM      3  H4  UNL     1      16.603  23.842  15.767  1.00  0.00     0.168 HD
HETATM    4  C16 UNL     1      17.057  21.911  16.123  1.00  0.00     0.244 C 
HETATM    5  O7  UNL     1      17.982  21.093  16.221  1.00  0.00    -0.271 OA
ENDROOT
BRANCH   1   6
HETATM    6  C7  UNL     1      17.967  25.476  16.710  1.00  0.00     0.062 C 
BRANCH   6   7
HETATM    7  C6  UNL     1      19.081  25.947  15.798  1.00  0.00     0.117 C 
BRANCH   7   8
HETATM    8  C5  UNL     1      20.011  26.866  16.500  1.00  0.00     0.259 C 
HETATM    9  O2  UNL     1      20.348  26.673  17.696  1.00  0.00    -0.265 OA
BRANCH   8  10
HETATM   10  O1  UNL     1      20.509  27.953  15.816  1.00  0.00    -0.311 OA
BRANCH  10  11
HETATM   11  C2  UNL     1      21.649  27.923  15.010  1.00  0.00     0.060 C 
HETATM   12  C1  UNL     1      22.604  28.988  15.516  1.00  0.00     0.045 C 
HETATM   13  C3  UNL     1      21.313  28.314  13.573  1.00  0.00     0.045 C 
HETATM   14  C4  UNL     1      22.366  26.605  15.002  1.00  0.00     0.045 C 
ENDBRANCH  10  11
ENDBRANCH   8  10
ENDBRANCH   7   8
ENDBRANCH   6   7
ENDBRANCH   1   6
BRANCH   1  15
HETATM   15  C9  UNL     1      19.234  23.437  17.661  1.00  0.00     0.062 C 
BRANCH  15  16
HETATM   16  C10 UNL     1      18.992  23.402  19.130  1.00  0.00     0.108 C 
BRANCH  16  17
HETATM   17  C11 UNL     1      20.074  23.972  19.961  1.00  0.00     0.218 C 
HETATM   18  O3  UNL     1      21.095  23.350  20.337  1.00  0.00    -0.274 OA
HETATM   19  N1  UNL     1      20.010  25.343  20.406  1.00  0.00    -0.352 N 
ATOM     20  H1  UNL     1      19.201  25.898  20.125  1.00  0.00     0.162 HD
BRANCH  19  21
HETATM   21  C12 UNL     1      21.001  25.971  21.210  1.00  0.00     0.225 C 
BRANCH  21  22
HETATM   22  C13 UNL     1      22.073  26.665  20.469  1.00  0.00     0.235 C 
HETATM   23  O4  UNL     1      22.404  27.829  20.780  1.00  0.00    -0.272 OA
HETATM   24  N2  UNL     1      22.764  26.042  19.380  1.00  0.00    -0.359 N 
ATOM     25  H2  UNL     1      22.524  25.093  19.093  1.00  0.00     0.162 HD
BRANCH  24  26
HETATM   26  C14 UNL     1      23.789  26.761  18.701  1.00  0.00     0.139 C 
BRANCH  26  27
HETATM   27  C15 UNL     1      24.932  25.925  18.264  1.00  0.00     0.182 C 
BRANCH  27  28
HETATM   28  S1  UNL     1      25.310  24.677  19.440  1.00  0.00     0.226 S 
HETATM   29  O5  UNL     1      25.354  25.232  20.816  1.00  0.00    -0.206 OA
HETATM   30  O6  UNL     1      24.358  23.521  19.373  1.00  0.00    -0.206 OA
BRANCH  28  31
HETATM   31  N3  UNL     1      26.875  24.033  18.987  1.00  0.00    -0.328 N 
ATOM     32  H32 UNL     1      27.627  24.547  18.530  1.00  0.00     0.168 HD
ATOM     33  H31 UNL     1      26.875  23.053  19.273  1.00  0.00     0.168 HD
ENDBRANCH  28  31
ENDBRANCH  27  28
ENDBRANCH  26  27
ENDBRANCH  24  26
ENDBRANCH  21  22
ENDBRANCH  19  21
ENDBRANCH  16  17
ENDBRANCH  15  16
ENDBRANCH   1  15
BRANCH   4  34
HETATM   34  C17 UNL     1      15.695  21.494  15.857  1.00  0.00     0.181 C 
HETATM   35  C18 UNL     1      14.822  22.638  15.325  1.00  0.00     0.037 C 
HETATM   36  C19 UNL     1      13.456  21.949  15.310  1.00  0.00     0.022 C 
HETATM   37  C20 UNL     1      13.654  20.610  16.032  1.00  0.00     0.129 C 
HETATM   38  N5  UNL     1      14.852  20.980  16.846  1.00  0.00    -0.315 N 
HETATM   39  C21 UNL     1      14.865  20.782  18.218  1.00  0.00     0.363 C 
HETATM   40  O8  UNL     1      15.768  21.065  19.047  1.00  0.00    -0.238 OA
BRANCH  39  41
HETATM   41  O9  UNL     1      13.746  20.180  18.883  1.00  0.00    -0.298 OA
BRANCH  41  42
HETATM   42  C22 UNL     1      13.901  19.046  19.710  1.00  0.00     0.133 C 
HETATM   43  C23 UNL     1      12.641  18.810  20.532  1.00  0.00     0.032 C 
HETATM   44  C24 UNL     1      11.649  18.319  19.487  1.00  0.00     0.002 C 
HETATM   45  C25 UNL     1      12.490  17.642  18.452  1.00  0.00     0.002 C 
HETATM   46  C26 UNL     1      13.929  17.827  18.825  1.00  0.00     0.032 C 
ENDBRANCH  41  42
ENDBRANCH  39  41
ENDBRANCH   4  34
TORSDOF 17
ENDMDL
