MODEL 1
REMARK VINA RESULT: -8.871532183      0.000      0.000
REMARK  15 active torsions:
REMARK  status: ('A' for Active; 'I' for Inactive)
REMARK    1  A    between atoms: O1_2  and  C2_3 
REMARK    2  A    between atoms: C2_3  and  C3_5 
REMARK    3  A    between atoms: N1_8  and  C6_9 
REMARK       I    between atoms: N2_12  and  C9_13 
REMARK    4  A    between atoms: C9_13  and  C10_15 
REMARK    5  A    between atoms: C10_15  and  C11_16 
REMARK    6  A    between atoms: C11_16  and  C12_17 
REMARK    7  A    between atoms: C12_17  and  C13_18 
REMARK    8  A    between atoms: C13_18  and  N3_19 
REMARK       I    between atoms: N6_24  and  C15_26 
REMARK    9  A    between atoms: C15_26  and  C16_28 
REMARK   10  A    between atoms: C16_28  and  C17_29 
REMARK   11  A    between atoms: C17_29  and  N7_30 
REMARK   12  A    between atoms: C17_29  and  C18_34 
REMARK   13  A    between atoms: C18_34  and  C19_35 
REMARK   14  A    between atoms: C19_35  and  C20_36 
REMARK   15  A    between atoms: C20_36  and  N8_37 
ROOT
HETATM    1  C10 UNL     1      11.370  19.319  17.120  1.00  0.00     0.080 C 
HETATM    2  N6  UNL     1      10.981  20.426  16.611  1.00  0.00    -0.326 N 
ATOM      3  H6  UNL     1      11.154  21.253  17.183  1.00  0.00     0.168 HD
HETATM    4  C15 UNL     1      10.355  20.670  15.387  1.00  0.00     0.224 C 
HETATM    5  O4  UNL     1       9.181  20.303  15.175  1.00  0.00    -0.273 OA
ENDROOT
BRANCH   1   6
HETATM    6  C9  UNL     1      12.018  19.251  18.424  1.00  0.00     0.266 C 
HETATM    7  N2  UNL     1      13.375  19.499  18.684  1.00  0.00    -0.343 N 
HETATM    8  C8  UNL     1      14.234  19.890  17.555  1.00  0.00     0.129 C 
HETATM    9  C25 UNL     1      14.051  19.410  19.950  1.00  0.00     0.085 C 
HETATM   10  C7  UNL     1      15.616  20.239  18.130  1.00  0.00     0.055 C 
HETATM   11  C6  UNL     1      15.427  21.294  19.174  1.00  0.00     0.226 C 
HETATM   12  C27 UNL     1      14.635  20.786  20.330  1.00  0.00     0.060 C 
HETATM   13  C26 UNL     1      13.182  18.899  21.056  1.00  0.00     0.032 C 
HETATM   14  O3  UNL     1      11.262  18.937  19.380  1.00  0.00    -0.266 OA
BRANCH  11  15
HETATM   15  N1  UNL     1      16.693  21.876  19.557  1.00  0.00     0.093 N 
HETATM   16  C5  UNL     1      17.771  21.263  18.847  1.00  0.00     0.273 C 
HETATM   17  C4  UNL     1      19.055  21.589  19.611  1.00  0.00     0.045 C 
HETATM   18  C3  UNL     1      19.145  23.036  19.954  1.00  0.00     0.089 C 
HETATM   19  C29 UNL     1      18.073  23.896  19.353  1.00  0.00     0.045 C 
HETATM   20  C28 UNL     1      16.716  23.289  19.353  1.00  0.00     0.273 C 
BRANCH  18  21
HETATM   21  C2  UNL     1      20.450  23.558  19.456  1.00  0.00     0.262 C 
HETATM   22  O2  UNL     1      21.527  23.148  19.951  1.00  0.00    -0.265 OA
BRANCH  21  23
HETATM   23  O1  UNL     1      20.526  24.501  18.442  1.00  0.00    -0.326 OA
HETATM   24  C1  UNL     1      21.385  25.607  18.623  1.00  0.00     0.213 C 
ENDBRANCH  21  23
ENDBRANCH  18  21
ENDBRANCH  11  15
ENDBRANCH   1   6
BRANCH   1  25
HETATM   25  C11 UNL     1      11.142  18.078  16.327  1.00  0.00     0.064 C 
BRANCH  25  26
HETATM   26  C12 UNL     1      10.274  17.059  16.990  1.00  0.00     0.026 C 
BRANCH  26  27
HETATM   27  C13 UNL     1      10.990  15.824  17.450  1.00  0.00     0.122 C 
BRANCH  27  28
HETATM   28  N3  UNL     1      10.112  14.752  17.792  1.00  0.00    -0.367 N 
HETATM   29  C14 UNL     1      10.066  13.688  17.086  1.00  0.00     0.196 C 
HETATM   30  N4  UNL     1      10.887  13.552  15.946  1.00  0.00    -0.067 NA
HETATM   31  N5  UNL     1       9.192  12.642  17.446  1.00  0.00    -0.067 NA
ATOM     32  H3  UNL     1       9.513  14.836  18.613  1.00  0.00     0.161 HD
ENDBRANCH  27  28
ENDBRANCH  26  27
ENDBRANCH  25  26
ENDBRANCH   1  25
BRANCH   4  33
HETATM   33  C16 UNL     1      11.067  21.382  14.287  1.00  0.00     0.135 C 
BRANCH  33  34
HETATM   34  C17 UNL     1      12.465  20.831  14.054  1.00  0.00     0.192 C 
BRANCH  34  35
HETATM   35  N7  UNL     1      12.577  20.109  12.832  1.00  0.00    -0.075 N 
ATOM     36  H73 UNL     1      11.886  19.361  12.784  1.00  0.00     0.274 HD
ATOM     37  H72 UNL     1      12.262  20.675  12.043  1.00  0.00     0.274 HD
ATOM     38  H71 UNL     1      13.518  19.749  12.670  1.00  0.00     0.274 HD
ENDBRANCH  34  35
BRANCH  34  39
HETATM   39  C18 UNL     1      13.518  21.870  14.292  1.00  0.00     0.035 C 
BRANCH  39  40
HETATM   40  C19 UNL     1      14.894  21.420  13.855  1.00  0.00     0.032 C 
BRANCH  40  41
HETATM   41  C20 UNL     1      15.862  22.530  14.192  1.00  0.00     0.272 C 
BRANCH  41  42
HETATM   42  N8  UNL     1      16.186  22.600  15.595  1.00  0.00     0.092 N 
HETATM   43  C21 UNL     1      17.573  22.188  15.729  1.00  0.00     0.298 C 
HETATM   44  C22 UNL     1      18.521  23.341  15.787  1.00  0.00     0.198 C 
HETATM   45  O5  UNL     1      18.116  24.399  14.976  1.00  0.00    -0.388 OA
HETATM   46  C23 UNL     1      16.904  24.937  15.421  1.00  0.00     0.198 C 
HETATM   47  C24 UNL     1      16.045  23.937  16.140  1.00  0.00     0.298 C 
ENDBRANCH  41  42
ENDBRANCH  40  41
ENDBRANCH  39  40
ENDBRANCH  34  39
ENDBRANCH  33  34
ENDBRANCH   4  33
TORSDOF 15
ENDMDL
MODEL 2
REMARK VINA RESULT: -8.780080597      1.789      2.305
REMARK  15 active torsions:
REMARK  status: ('A' for Active; 'I' for Inactive)
REMARK    1  A    between atoms: O1_2  and  C2_3 
REMARK    2  A    between atoms: C2_3  and  C3_5 
REMARK    3  A    between atoms: N1_8  and  C6_9 
REMARK       I    between atoms: N2_12  and  C9_13 
REMARK    4  A    between atoms: C9_13  and  C10_15 
REMARK    5  A    between atoms: C10_15  and  C11_16 
REMARK    6  A    between atoms: C11_16  and  C12_17 
REMARK    7  A    between atoms: C12_17  and  C13_18 
REMARK    8  A    between atoms: C13_18  and  N3_19 
REMARK       I    between atoms: N6_24  and  C15_26 
REMARK    9  A    between atoms: C15_26  and  C16_28 
REMARK   10  A    between atoms: C16_28  and  C17_29 
REMARK   11  A    between atoms: C17_29  and  N7_30 
REMARK   12  A    between atoms: C17_29  and  C18_34 
REMARK   13  A    between atoms: C18_34  and  C19_35 
REMARK   14  A    between atoms: C19_35  and  C20_36 
REMARK   15  A    between atoms: C20_36  and  N8_37 
ROOT
HETATM    1  C10 UNL     1      11.456  19.731  16.812  1.00  0.00     0.080 C 
HETATM    2  N6  UNL     1      11.744  20.731  16.069  1.00  0.00    -0.326 N 
ATOM      3  H6  UNL     1      12.437  21.374  16.454  1.00  0.00     0.168 HD
HETATM    4  C15 UNL     1      11.252  21.074  14.808  1.00  0.00     0.224 C 
HETATM    5  O4  UNL     1      10.074  21.458  14.655  1.00  0.00    -0.273 OA
ENDROOT
BRANCH   1   6
HETATM    6  C9  UNL     1      12.079  19.528  18.114  1.00  0.00     0.266 C 
HETATM    7  N2  UNL     1      13.437  19.721  18.417  1.00  0.00    -0.343 N 
HETATM    8  C8  UNL     1      14.323  20.197  17.343  1.00  0.00     0.129 C 
HETATM    9  C25 UNL     1      14.088  19.500  19.679  1.00  0.00     0.085 C 
HETATM   10  C7  UNL     1      15.701  20.461  17.969  1.00  0.00     0.055 C 
HETATM   11  C6  UNL     1      15.515  21.417  19.104  1.00  0.00     0.226 C 
HETATM   12  C27 UNL     1      14.693  20.821  20.195  1.00  0.00     0.060 C 
HETATM   13  C26 UNL     1      13.190  18.906  20.719  1.00  0.00     0.032 C 
HETATM   14  O3  UNL     1      11.301  19.142  19.025  1.00  0.00    -0.266 OA
BRANCH  11  15
HETATM   15  N1  UNL     1      16.786  21.934  19.559  1.00  0.00     0.093 N 
HETATM   16  C5  UNL     1      17.866  21.346  18.830  1.00  0.00     0.273 C 
HETATM   17  C4  UNL     1      19.137  21.578  19.645  1.00  0.00     0.045 C 
HETATM   18  C3  UNL     1      19.257  22.992  20.100  1.00  0.00     0.089 C 
HETATM   19  C29 UNL     1      18.223  23.924  19.542  1.00  0.00     0.045 C 
HETATM   20  C28 UNL     1      16.851  23.357  19.464  1.00  0.00     0.273 C 
BRANCH  18  21
HETATM   21  C2  UNL     1      20.586  23.514  19.673  1.00  0.00     0.262 C 
HETATM   22  O2  UNL     1      20.684  24.244  18.658  1.00  0.00    -0.265 OA
BRANCH  21  23
HETATM   23  O1  UNL     1      21.750  23.219  20.368  1.00  0.00    -0.326 OA
HETATM   24  C1  UNL     1      22.987  23.507  19.750  1.00  0.00     0.213 C 
ENDBRANCH  21  23
ENDBRANCH  18  21
ENDBRANCH  11  15
ENDBRANCH   1   6
BRANCH   1  25
HETATM   25  C11 UNL     1      10.449  18.759  16.299  1.00  0.00     0.064 C 
BRANCH  25  26
HETATM   26  C12 UNL     1      11.012  17.449  15.852  1.00  0.00     0.026 C 
BRANCH  26  27
HETATM   27  C13 UNL     1      10.784  17.126  14.405  1.00  0.00     0.122 C 
BRANCH  27  28
HETATM   28  N3  UNL     1       9.685  17.831  13.831  1.00  0.00    -0.367 N 
HETATM   29  C14 UNL     1       9.745  18.286  12.638  1.00  0.00     0.196 C 
HETATM   30  N4  UNL     1      10.908  18.101  11.862  1.00  0.00    -0.067 NA
HETATM   31  N5  UNL     1       8.644  18.978  12.093  1.00  0.00    -0.067 NA
ATOM     32  H3  UNL     1       8.837  17.973  14.380  1.00  0.00     0.161 HD
ENDBRANCH  27  28
ENDBRANCH  26  27
ENDBRANCH  25  26
ENDBRANCH   1  25
BRANCH   4  33
HETATM   33  C16 UNL     1      12.118  20.994  13.597  1.00  0.00     0.135 C 
BRANCH  33  34
HETATM   34  C17 UNL     1      13.443  20.304  13.879  1.00  0.00     0.192 C 
BRANCH  34  35
HETATM   35  N7  UNL     1      13.487  18.972  13.377  1.00  0.00    -0.075 N 
ATOM     36  H73 UNL     1      13.346  18.294  14.126  1.00  0.00     0.274 HD
ATOM     37  H72 UNL     1      12.664  18.767  12.811  1.00  0.00     0.274 HD
ATOM     38  H71 UNL     1      14.345  18.773  12.861  1.00  0.00     0.274 HD
ENDBRANCH  34  35
BRANCH  34  39
HETATM   39  C18 UNL     1      14.609  21.172  13.518  1.00  0.00     0.035 C 
BRANCH  39  40
HETATM   40  C19 UNL     1      14.720  22.397  14.396  1.00  0.00     0.032 C 
BRANCH  40  41
HETATM   41  C20 UNL     1      16.182  22.776  14.463  1.00  0.00     0.272 C 
BRANCH  41  42
HETATM   42  N8  UNL     1      16.661  22.967  15.809  1.00  0.00     0.092 N 
HETATM   43  C21 UNL     1      18.084  22.674  15.798  1.00  0.00     0.298 C 
HETATM   44  C22 UNL     1      18.930  23.899  15.670  1.00  0.00     0.198 C 
HETATM   45  O5  UNL     1      18.345  24.863  14.854  1.00  0.00    -0.388 OA
HETATM   46  C23 UNL     1      17.152  25.336  15.411  1.00  0.00     0.198 C 
HETATM   47  C24 UNL     1      16.471  24.324  16.287  1.00  0.00     0.298 C 
ENDBRANCH  41  42
ENDBRANCH  40  41
ENDBRANCH  39  40
ENDBRANCH  34  39
ENDBRANCH  33  34
ENDBRANCH   4  33
TORSDOF 15
ENDMDL
MODEL 3
REMARK VINA RESULT: -8.575580028      2.759      5.521
REMARK  15 active torsions:
REMARK  status: ('A' for Active; 'I' for Inactive)
REMARK    1  A    between atoms: O1_2  and  C2_3 
REMARK    2  A    between atoms: C2_3  and  C3_5 
REMARK    3  A    between atoms: N1_8  and  C6_9 
REMARK       I    between atoms: N2_12  and  C9_13 
REMARK    4  A    between atoms: C9_13  and  C10_15 
REMARK    5  A    between atoms: C10_15  and  C11_16 
REMARK    6  A    between atoms: C11_16  and  C12_17 
REMARK    7  A    between atoms: C12_17  and  C13_18 
REMARK    8  A    between atoms: C13_18  and  N3_19 
REMARK       I    between atoms: N6_24  and  C15_26 
REMARK    9  A    between atoms: C15_26  and  C16_28 
REMARK   10  A    between atoms: C16_28  and  C17_29 
REMARK   11  A    between atoms: C17_29  and  N7_30 
REMARK   12  A    between atoms: C17_29  and  C18_34 
REMARK   13  A    between atoms: C18_34  and  C19_35 
REMARK   14  A    between atoms: C19_35  and  C20_36 
REMARK   15  A    between atoms: C20_36  and  N8_37 
ROOT
HETATM    1  C10 UNL     1      13.898  20.382  17.936  1.00  0.00     0.080 C 
HETATM    2  N6  UNL     1      12.819  20.932  17.525  1.00  0.00    -0.326 N 
ATOM      3  H6  UNL     1      12.788  21.949  17.611  1.00  0.00     0.168 HD
HETATM    4  C15 UNL     1      11.676  20.348  16.976  1.00  0.00     0.224 C 
HETATM    5  O4  UNL     1      10.909  19.649  17.669  1.00  0.00    -0.273 OA
ENDROOT
BRANCH   1   6
HETATM    6  C9  UNL     1      15.004  21.158  18.483  1.00  0.00     0.266 C 
HETATM    7  N2  UNL     1      16.084  21.682  17.754  1.00  0.00    -0.343 N 
HETATM    8  C8  UNL     1      16.106  21.461  16.299  1.00  0.00     0.129 C 
HETATM    9  C25 UNL     1      17.204  22.422  18.266  1.00  0.00     0.085 C 
HETATM   10  C7  UNL     1      17.298  22.250  15.734  1.00  0.00     0.055 C 
HETATM   11  C6  UNL     1      17.144  23.677  16.153  1.00  0.00     0.226 C 
HETATM   12  C27 UNL     1      17.237  23.828  17.633  1.00  0.00     0.060 C 
HETATM   13  C26 UNL     1      17.216  22.532  19.759  1.00  0.00     0.032 C 
HETATM   14  O3  UNL     1      14.955  21.355  19.725  1.00  0.00    -0.266 OA
BRANCH  11  15
HETATM   15  N1  UNL     1      18.061  24.530  15.430  1.00  0.00     0.093 N 
HETATM   16  C5  UNL     1      17.613  25.887  15.443  1.00  0.00     0.273 C 
HETATM   17  C4  UNL     1      18.349  26.614  14.318  1.00  0.00     0.045 C 
HETATM   18  C3  UNL     1      19.812  26.335  14.339  1.00  0.00     0.089 C 
HETATM   19  C29 UNL     1      20.290  25.554  15.528  1.00  0.00     0.045 C 
HETATM   20  C28 UNL     1      19.389  24.449  15.948  1.00  0.00     0.273 C 
BRANCH  18  21
HETATM   21  C2  UNL     1      20.540  27.636  14.354  1.00  0.00     0.262 C 
HETATM   22  O2  UNL     1      20.069  28.618  14.978  1.00  0.00    -0.265 OA
BRANCH  21  23
HETATM   23  O1  UNL     1      21.746  27.812  13.693  1.00  0.00    -0.326 OA
HETATM   24  C1  UNL     1      22.764  28.541  14.346  1.00  0.00     0.213 C 
ENDBRANCH  21  23
ENDBRANCH  18  21
ENDBRANCH  11  15
ENDBRANCH   1   6
BRANCH   1  25
HETATM   25  C11 UNL     1      13.996  18.899  17.834  1.00  0.00     0.064 C 
BRANCH  25  26
HETATM   26  C12 UNL     1      13.623  18.157  19.076  1.00  0.00     0.026 C 
BRANCH  26  27
HETATM   27  C13 UNL     1      12.453  17.232  18.931  1.00  0.00     0.122 C 
BRANCH  27  28
HETATM   28  N3  UNL     1      12.413  16.558  17.673  1.00  0.00    -0.367 N 
HETATM   29  C14 UNL     1      11.303  16.193  17.157  1.00  0.00     0.196 C 
HETATM   30  N4  UNL     1      10.087  16.450  17.824  1.00  0.00    -0.067 NA
HETATM   31  N5  UNL     1      11.290  15.529  15.913  1.00  0.00    -0.067 NA
ATOM     32  H3  UNL     1      13.284  16.364  17.180  1.00  0.00     0.161 HD
ENDBRANCH  27  28
ENDBRANCH  26  27
ENDBRANCH  25  26
ENDBRANCH   1  25
BRANCH   4  33
HETATM   33  C16 UNL     1      11.329  20.540  15.538  1.00  0.00     0.135 C 
BRANCH  33  34
HETATM   34  C17 UNL     1       9.827  20.623  15.313  1.00  0.00     0.192 C 
BRANCH  34  35
HETATM   35  N7  UNL     1       9.189  21.550  16.187  1.00  0.00    -0.075 N 
ATOM     36  H73 UNL     1       9.836  21.883  16.902  1.00  0.00     0.274 HD
ATOM     37  H72 UNL     1       9.003  22.433  15.710  1.00  0.00     0.274 HD
ATOM     38  H71 UNL     1       8.339  21.175  16.608  1.00  0.00     0.274 HD
ENDBRANCH  34  35
BRANCH  34  39
HETATM   39  C18 UNL     1       9.490  20.765  13.861  1.00  0.00     0.035 C 
BRANCH  39  40
HETATM   40  C19 UNL     1      10.706  20.676  12.966  1.00  0.00     0.032 C 
BRANCH  40  41
HETATM   41  C20 UNL     1      10.305  19.899  11.733  1.00  0.00     0.272 C 
BRANCH  41  42
HETATM   42  N8  UNL     1      11.373  19.094  11.194  1.00  0.00     0.092 N 
HETATM   43  C21 UNL     1      12.174  18.645  12.321  1.00  0.00     0.298 C 
HETATM   44  C22 UNL     1      11.810  17.271  12.783  1.00  0.00     0.198 C 
HETATM   45  O5  UNL     1      10.445  17.020  12.670  1.00  0.00    -0.388 OA
HETATM   46  C23 UNL     1      10.040  17.042  11.332  1.00  0.00     0.198 C 
HETATM   47  C24 UNL     1      10.894  17.930  10.474  1.00  0.00     0.298 C 
ENDBRANCH  41  42
ENDBRANCH  40  41
ENDBRANCH  39  40
ENDBRANCH  34  39
ENDBRANCH  33  34
ENDBRANCH   4  33
TORSDOF 15
ENDMDL
MODEL 4
REMARK VINA RESULT: -8.543045638      4.093     11.066
REMARK  15 active torsions:
REMARK  status: ('A' for Active; 'I' for Inactive)
REMARK    1  A    between atoms: O1_2  and  C2_3 
REMARK    2  A    between atoms: C2_3  and  C3_5 
REMARK    3  A    between atoms: N1_8  and  C6_9 
REMARK       I    between atoms: N2_12  and  C9_13 
REMARK    4  A    between atoms: C9_13  and  C10_15 
REMARK    5  A    between atoms: C10_15  and  C11_16 
REMARK    6  A    between atoms: C11_16  and  C12_17 
REMARK    7  A    between atoms: C12_17  and  C13_18 
REMARK    8  A    between atoms: C13_18  and  N3_19 
REMARK       I    between atoms: N6_24  and  C15_26 
REMARK    9  A    between atoms: C15_26  and  C16_28 
REMARK   10  A    between atoms: C16_28  and  C17_29 
REMARK   11  A    between atoms: C17_29  and  N7_30 
REMARK   12  A    between atoms: C17_29  and  C18_34 
REMARK   13  A    between atoms: C18_34  and  C19_35 
REMARK   14  A    between atoms: C19_35  and  C20_36 
REMARK   15  A    between atoms: C20_36  and  N8_37 
ROOT
HETATM    1  C10 UNL     1      19.265  25.438  16.464  1.00  0.00     0.080 C 
HETATM    2  N6  UNL     1      19.428  26.062  17.569  1.00  0.00    -0.326 N 
ATOM      3  H6  UNL     1      18.597  26.130  18.157  1.00  0.00     0.168 HD
HETATM    4  C15 UNL     1      20.575  26.664  18.089  1.00  0.00     0.224 C 
HETATM    5  O4  UNL     1      21.053  27.698  17.578  1.00  0.00    -0.273 OA
ENDROOT
BRANCH   1   6
HETATM    6  C9  UNL     1      17.981  24.863  16.081  1.00  0.00     0.266 C 
HETATM    7  N2  UNL     1      17.518  23.582  16.420  1.00  0.00    -0.343 N 
HETATM    8  C8  UNL     1      18.381  22.736  17.260  1.00  0.00     0.129 C 
HETATM    9  C25 UNL     1      16.275  22.974  16.033  1.00  0.00     0.085 C 
HETATM   10  C7  UNL     1      17.587  21.464  17.598  1.00  0.00     0.055 C 
HETATM   11  C6  UNL     1      16.300  21.882  18.236  1.00  0.00     0.226 C 
HETATM   12  C27 UNL     1      15.439  22.645  17.287  1.00  0.00     0.060 C 
HETATM   13  C26 UNL     1      15.471  23.809  15.086  1.00  0.00     0.032 C 
HETATM   14  O3  UNL     1      17.249  25.611  15.382  1.00  0.00    -0.266 OA
BRANCH  11  15
HETATM   15  N1  UNL     1      15.629  20.752  18.837  1.00  0.00     0.093 N 
HETATM   16  C5  UNL     1      14.532  21.181  19.646  1.00  0.00     0.273 C 
HETATM   17  C4  UNL     1      14.180  20.021  20.577  1.00  0.00     0.045 C 
HETATM   18  C3  UNL     1      14.074  18.729  19.842  1.00  0.00     0.089 C 
HETATM   19  C29 UNL     1      14.165  18.843  18.349  1.00  0.00     0.045 C 
HETATM   20  C28 UNL     1      15.178  19.815  17.859  1.00  0.00     0.273 C 
BRANCH  18  21
HETATM   21  C2  UNL     1      12.751  18.118  20.151  1.00  0.00     0.262 C 
HETATM   22  O2  UNL     1      12.686  16.978  20.673  1.00  0.00    -0.265 OA
BRANCH  21  23
HETATM   23  O1  UNL     1      11.557  18.770  19.881  1.00  0.00    -0.326 OA
HETATM   24  C1  UNL     1      10.852  18.414  18.710  1.00  0.00     0.213 C 
ENDBRANCH  21  23
ENDBRANCH  18  21
ENDBRANCH  11  15
ENDBRANCH   1   6
BRANCH   1  25
HETATM   25  C11 UNL     1      20.446  25.309  15.565  1.00  0.00     0.064 C 
BRANCH  25  26
HETATM   26  C12 UNL     1      20.522  26.330  14.477  1.00  0.00     0.026 C 
BRANCH  26  27
HETATM   27  C13 UNL     1      21.827  27.062  14.388  1.00  0.00     0.122 C 
BRANCH  27  28
HETATM   28  N3  UNL     1      22.886  26.427  15.103  1.00  0.00    -0.367 N 
HETATM   29  C14 UNL     1      23.920  27.083  15.466  1.00  0.00     0.196 C 
HETATM   30  N4  UNL     1      24.037  28.456  15.165  1.00  0.00    -0.067 NA
HETATM   31  N5  UNL     1      24.952  26.432  16.174  1.00  0.00    -0.067 NA
ATOM     32  H3  UNL     1      22.815  25.434  15.328  1.00  0.00     0.161 HD
ENDBRANCH  27  28
ENDBRANCH  26  27
ENDBRANCH  25  26
ENDBRANCH   1  25
BRANCH   4  33
HETATM   33  C16 UNL     1      21.272  26.093  19.278  1.00  0.00     0.135 C 
BRANCH  33  34
HETATM   34  C17 UNL     1      21.756  27.171  20.236  1.00  0.00     0.192 C 
BRANCH  34  35
HETATM   35  N7  UNL     1      20.737  28.109  20.570  1.00  0.00    -0.075 N 
ATOM     36  H73 UNL     1      20.908  29.009  20.123  1.00  0.00     0.274 HD
ATOM     37  H72 UNL     1      19.855  27.865  20.120  1.00  0.00     0.274 HD
ATOM     38  H71 UNL     1      20.617  28.217  21.578  1.00  0.00     0.274 HD
ENDBRANCH  34  35
BRANCH  34  39
HETATM   39  C18 UNL     1      22.506  26.588  21.394  1.00  0.00     0.035 C 
BRANCH  39  40
HETATM   40  C19 UNL     1      22.946  25.163  21.149  1.00  0.00     0.032 C 
BRANCH  40  41
HETATM   41  C20 UNL     1      24.458  25.152  21.127  1.00  0.00     0.272 C 
BRANCH  41  42
HETATM   42  N8  UNL     1      25.016  23.843  20.902  1.00  0.00     0.092 N 
HETATM   43  C21 UNL     1      24.697  23.478  19.532  1.00  0.00     0.298 C 
HETATM   44  C22 UNL     1      25.812  23.760  18.579  1.00  0.00     0.198 C 
HETATM   45  O5  UNL     1      26.516  24.914  18.915  1.00  0.00    -0.388 OA
HETATM   46  C23 UNL     1      27.157  24.768  20.149  1.00  0.00     0.198 C 
HETATM   47  C24 UNL     1      26.457  23.808  21.066  1.00  0.00     0.298 C 
ENDBRANCH  41  42
ENDBRANCH  40  41
ENDBRANCH  39  40
ENDBRANCH  34  39
ENDBRANCH  33  34
ENDBRANCH   4  33
TORSDOF 15
ENDMDL
MODEL 5
REMARK VINA RESULT: -8.535790543      1.304      1.854
REMARK  15 active torsions:
REMARK  status: ('A' for Active; 'I' for Inactive)
REMARK    1  A    between atoms: O1_2  and  C2_3 
REMARK    2  A    between atoms: C2_3  and  C3_5 
REMARK    3  A    between atoms: N1_8  and  C6_9 
REMARK       I    between atoms: N2_12  and  C9_13 
REMARK    4  A    between atoms: C9_13  and  C10_15 
REMARK    5  A    between atoms: C10_15  and  C11_16 
REMARK    6  A    between atoms: C11_16  and  C12_17 
REMARK    7  A    between atoms: C12_17  and  C13_18 
REMARK    8  A    between atoms: C13_18  and  N3_19 
REMARK       I    between atoms: N6_24  and  C15_26 
REMARK    9  A    between atoms: C15_26  and  C16_28 
REMARK   10  A    between atoms: C16_28  and  C17_29 
REMARK   11  A    between atoms: C17_29  and  N7_30 
REMARK   12  A    between atoms: C17_29  and  C18_34 
REMARK   13  A    between atoms: C18_34  and  C19_35 
REMARK   14  A    between atoms: C19_35  and  C20_36 
REMARK   15  A    between atoms: C20_36  and  N8_37 
ROOT
HETATM    1  C10 UNL     1      11.321  19.168  17.315  1.00  0.00     0.080 C 
HETATM    2  N6  UNL     1      10.812  20.208  16.772  1.00  0.00    -0.326 N 
ATOM      3  H6  UNL     1      10.926  21.074  17.300  1.00  0.00     0.168 HD
HETATM    4  C15 UNL     1      10.123  20.335  15.564  1.00  0.00     0.224 C 
HETATM    5  O4  UNL     1       8.982  19.853  15.415  1.00  0.00    -0.273 OA
ENDROOT
BRANCH   1   6
HETATM    6  C9  UNL     1      12.017  19.222  18.594  1.00  0.00     0.266 C 
HETATM    7  N2  UNL     1      13.375  19.525  18.781  1.00  0.00    -0.343 N 
HETATM    8  C8  UNL     1      14.181  19.846  17.592  1.00  0.00     0.129 C 
HETATM    9  C25 UNL     1      14.098  19.557  20.023  1.00  0.00     0.085 C 
HETATM   10  C7  UNL     1      15.572  20.276  18.083  1.00  0.00     0.055 C 
HETATM   11  C6  UNL     1      15.390  21.406  19.046  1.00  0.00     0.226 C 
HETATM   12  C27 UNL     1      14.656  20.973  20.269  1.00  0.00     0.060 C 
HETATM   13  C26 UNL     1      13.285  19.114  21.199  1.00  0.00     0.032 C 
HETATM   14  O3  UNL     1      11.306  18.967  19.600  1.00  0.00    -0.266 OA
BRANCH  11  15
HETATM   15  N1  UNL     1      16.653  22.050  19.333  1.00  0.00     0.093 N 
HETATM   16  C5  UNL     1      17.734  21.351  18.713  1.00  0.00     0.273 C 
HETATM   17  C4  UNL     1      19.017  21.797  19.413  1.00  0.00     0.045 C 
HETATM   18  C3  UNL     1      19.094  23.279  19.542  1.00  0.00     0.089 C 
HETATM   19  C29 UNL     1      18.010  24.032  18.829  1.00  0.00     0.045 C 
HETATM   20  C28 UNL     1      16.660  23.419  18.926  1.00  0.00     0.273 C 
BRANCH  18  21
HETATM   21  C2  UNL     1      20.391  23.735  18.965  1.00  0.00     0.262 C 
HETATM   22  O2  UNL     1      20.408  24.546  18.007  1.00  0.00    -0.265 OA
BRANCH  21  23
HETATM   23  O1  UNL     1      21.610  23.292  19.454  1.00  0.00    -0.326 OA
HETATM   24  C1  UNL     1      22.221  24.031  20.492  1.00  0.00     0.213 C 
ENDBRANCH  21  23
ENDBRANCH  18  21
ENDBRANCH  11  15
ENDBRANCH   1   6
BRANCH   1  25
HETATM   25  C11 UNL     1      11.183  17.875  16.586  1.00  0.00     0.064 C 
BRANCH  25  26
HETATM   26  C12 UNL     1      10.674  16.739  17.413  1.00  0.00     0.026 C 
BRANCH  26  27
HETATM   27  C13 UNL     1       9.583  15.933  16.775  1.00  0.00     0.122 C 
BRANCH  27  28
HETATM   28  N3  UNL     1       8.473  15.692  17.638  1.00  0.00    -0.367 N 
HETATM   29  C14 UNL     1       8.222  14.518  18.075  1.00  0.00     0.196 C 
HETATM   30  N4  UNL     1       9.042  13.430  17.710  1.00  0.00    -0.067 NA
HETATM   31  N5  UNL     1       7.120  14.306  18.929  1.00  0.00    -0.067 NA
ATOM     32  H3  UNL     1       7.871  16.469  17.910  1.00  0.00     0.161 HD
ENDBRANCH  27  28
ENDBRANCH  26  27
ENDBRANCH  25  26
ENDBRANCH   1  25
BRANCH   4  33
HETATM   33  C16 UNL     1      10.727  21.056  14.407  1.00  0.00     0.135 C 
BRANCH  33  34
HETATM   34  C17 UNL     1      10.955  20.142  13.213  1.00  0.00     0.192 C 
BRANCH  34  35
HETATM   35  N7  UNL     1       9.888  20.192  12.270  1.00  0.00    -0.075 N 
ATOM     36  H73 UNL     1       9.152  19.529  12.515  1.00  0.00     0.274 HD
ATOM     37  H72 UNL     1       9.363  21.062  12.358  1.00  0.00     0.274 HD
ATOM     38  H71 UNL     1      10.203  20.049  11.310  1.00  0.00     0.274 HD
ENDBRANCH  34  35
BRANCH  34  39
HETATM   39  C18 UNL     1      12.331  20.304  12.644  1.00  0.00     0.035 C 
BRANCH  39  40
HETATM   40  C19 UNL     1      13.391  19.618  13.474  1.00  0.00     0.032 C 
BRANCH  40  41
HETATM   41  C20 UNL     1      14.039  20.671  14.343  1.00  0.00     0.272 C 
BRANCH  41  42
HETATM   42  N8  UNL     1      14.255  21.921  13.659  1.00  0.00     0.092 N 
HETATM   43  C21 UNL     1      13.708  22.967  14.507  1.00  0.00     0.298 C 
HETATM   44  C22 UNL     1      14.743  23.628  15.358  1.00  0.00     0.198 C 
HETATM   45  O5  UNL     1      15.723  22.738  15.786  1.00  0.00    -0.388 OA
HETATM   46  C23 UNL     1      16.451  22.234  14.703  1.00  0.00     0.198 C 
HETATM   47  C24 UNL     1      15.660  22.201  13.427  1.00  0.00     0.298 C 
ENDBRANCH  41  42
ENDBRANCH  40  41
ENDBRANCH  39  40
ENDBRANCH  34  39
ENDBRANCH  33  34
ENDBRANCH   4  33
TORSDOF 15
ENDMDL
