MODEL 1
REMARK VINA RESULT: -9.183008537      0.000      0.000
REMARK  13 active torsions:
REMARK  status: ('A' for Active; 'I' for Inactive)
REMARK    1  A    between atoms: C2_2  and  C3_3 
REMARK    2  A    between atoms: C3_3  and  C5_5 
REMARK    3  A    between atoms: C8_8  and  C9_9 
REMARK       I    between atoms: C9_9  and  N1_11 
REMARK    4  A    between atoms: C10_13  and  C11_14 
REMARK    5  A    between atoms: C10_13  and  C22_30 
REMARK    6  A    between atoms: C11_14  and  C12_15 
REMARK    7  A    between atoms: C12_15  and  C13_16 
REMARK       I    between atoms: C13_16  and  N2_18 
REMARK    8  A    between atoms: C17_22  and  C18_23 
REMARK       I    between atoms: C18_23  and  N3_25 
REMARK       I    between atoms: C22_30  and  N4_32 
REMARK    9  A    between atoms: N4_32  and  C23_34 
REMARK   10  A    between atoms: C23_34  and  C24_35 
REMARK   11  A    between atoms: C23_34  and  C27_40 
REMARK   12  A    between atoms: C24_35  and  C25_36 
REMARK   13  A    between atoms: C25_36  and  C26_37 
ROOT
HETATM    1  C9  UNL     1      19.339  26.591  14.679  1.00  0.00     0.251 C 
HETATM    2  O1  UNL     1      18.284  26.812  14.051  1.00  0.00    -0.270 OA
HETATM    3  N1  UNL     1      19.245  26.079  15.987  1.00  0.00    -0.324 N 
ATOM      4  H1  UNL     1      19.633  26.662  16.729  1.00  0.00     0.169 HD
HETATM    5  C10 UNL     1      18.724  24.955  16.354  1.00  0.00     0.080 C 
ENDROOT
BRANCH   5   6
HETATM    6  C11 UNL     1      18.142  24.041  15.369  1.00  0.00     0.072 C 
BRANCH   6   7
HETATM    7  C12 UNL     1      18.306  22.594  15.781  1.00  0.00     0.109 C 
BRANCH   7   8
HETATM    8  C13 UNL     1      17.004  21.954  15.677  1.00  0.00     0.220 C 
HETATM    9  O2  UNL     1      16.421  21.918  14.531  1.00  0.00    -0.273 OA
HETATM   10  N2  UNL     1      16.356  21.360  16.785  1.00  0.00    -0.339 N 
HETATM   11  C14 UNL     1      16.868  21.313  18.145  1.00  0.00     0.127 C 
HETATM   12  C17 UNL     1      15.065  20.703  16.731  1.00  0.00     0.179 C 
HETATM   13  C15 UNL     1      15.549  21.472  18.919  1.00  0.00     0.022 C 
HETATM   14  C16 UNL     1      14.713  20.439  18.201  1.00  0.00     0.037 C 
BRANCH  12  15
HETATM   15  C18 UNL     1      14.068  21.725  16.237  1.00  0.00     0.243 C 
HETATM   16  O3  UNL     1      13.989  22.854  16.756  1.00  0.00    -0.271 OA
HETATM   17  N3  UNL     1      13.236  21.320  15.155  1.00  0.00    -0.341 N 
HETATM   18  C19 UNL     1      13.217  20.068  14.445  1.00  0.00     0.137 C 
HETATM   19  C21 UNL     1      12.215  22.221  14.589  1.00  0.00     0.200 C 
HETATM   20  C20 UNL     1      11.826  19.478  14.555  1.00  0.00     0.095 C 
HETATM   21  S1  UNL     1      10.822  21.016  14.548  1.00  0.00    -0.148 SA
ENDBRANCH  12  15
ENDBRANCH   7   8
ENDBRANCH   6   7
ENDBRANCH   5   6
BRANCH   5  22
HETATM   22  C22 UNL     1      18.734  24.651  17.772  1.00  0.00     0.264 C 
HETATM   23  O4  UNL     1      17.610  24.686  18.397  1.00  0.00    -0.266 OA
HETATM   24  N4  UNL     1      19.877  24.323  18.512  1.00  0.00    -0.343 N 
ATOM     25  H4  UNL     1      20.774  24.290  18.030  1.00  0.00     0.163 HD
BRANCH  24  26
HETATM   26  C23 UNL     1      19.845  24.027  19.941  1.00  0.00     0.174 C 
BRANCH  26  27
HETATM   27  C24 UNL     1      20.331  25.222  20.675  1.00  0.00     0.045 C 
BRANCH  27  28
HETATM   28  C25 UNL     1      21.115  26.223  19.908  1.00  0.00     0.116 C 
BRANCH  28  29
HETATM   29  C26 UNL     1      21.741  27.295  20.690  1.00  0.00     0.172 C 
HETATM   30  O5  UNL     1      23.024  27.428  20.750  1.00  0.00    -0.648 OA
HETATM   31  O6  UNL     1      21.044  28.235  21.412  1.00  0.00    -0.648 OA
ENDBRANCH  28  29
ENDBRANCH  27  28
ENDBRANCH  26  27
BRANCH  26  32
HETATM   32  C27 UNL     1      20.547  22.767  20.232  1.00  0.00     0.254 C 
HETATM   33  N5  UNL     1      19.987  21.478  20.084  1.00  0.00    -0.060 NA
HETATM   34  O7  UNL     1      21.756  22.874  20.651  1.00  0.00    -0.275 OA
ENDBRANCH  26  32
ENDBRANCH  24  26
ENDBRANCH   5  22
BRANCH   1  35
HETATM   35  C8  UNL     1      20.695  26.867  14.071  1.00  0.00     0.214 C 
HETATM   36  C7  UNL     1      20.878  28.383  13.980  1.00  0.00     0.044 C 
HETATM   37  C6  UNL     1      21.917  28.557  15.112  1.00  0.00     0.035 C 
HETATM   38  C5  UNL     1      22.727  27.289  14.784  1.00  0.00     0.126 C 
HETATM   39  O8  UNL     1      21.700  26.362  14.875  1.00  0.00    -0.371 OA
BRANCH  38  40
HETATM   40  C3  UNL     1      23.816  27.053  15.778  1.00  0.00     0.010 C 
HETATM   41  C4  UNL     1      23.357  27.305  17.195  1.00  0.00     0.012 C 
BRANCH  40  42
HETATM   42  C2  UNL     1      25.119  27.708  15.461  1.00  0.00     0.002 C 
HETATM   43  C1  UNL     1      26.233  26.736  15.782  1.00  0.00     0.005 C 
ENDBRANCH  40  42
ENDBRANCH  38  40
ENDBRANCH   1  35
TORSDOF 13
ENDMDL
MODEL 2
REMARK VINA RESULT: -8.661510588      3.617     10.954
REMARK  13 active torsions:
REMARK  status: ('A' for Active; 'I' for Inactive)
REMARK    1  A    between atoms: C2_2  and  C3_3 
REMARK    2  A    between atoms: C3_3  and  C5_5 
REMARK    3  A    between atoms: C8_8  and  C9_9 
REMARK       I    between atoms: C9_9  and  N1_11 
REMARK    4  A    between atoms: C10_13  and  C11_14 
REMARK    5  A    between atoms: C10_13  and  C22_30 
REMARK    6  A    between atoms: C11_14  and  C12_15 
REMARK    7  A    between atoms: C12_15  and  C13_16 
REMARK       I    between atoms: C13_16  and  N2_18 
REMARK    8  A    between atoms: C17_22  and  C18_23 
REMARK       I    between atoms: C18_23  and  N3_25 
REMARK       I    between atoms: C22_30  and  N4_32 
REMARK    9  A    between atoms: N4_32  and  C23_34 
REMARK   10  A    between atoms: C23_34  and  C24_35 
REMARK   11  A    between atoms: C23_34  and  C27_40 
REMARK   12  A    between atoms: C24_35  and  C25_36 
REMARK   13  A    between atoms: C25_36  and  C26_37 
ROOT
HETATM    1  C9  UNL     1      13.979  19.715  19.894  1.00  0.00     0.251 C 
HETATM    2  O1  UNL     1      14.523  20.243  20.885  1.00  0.00    -0.270 OA
HETATM    3  N1  UNL     1      13.896  20.458  18.702  1.00  0.00    -0.324 N 
ATOM      4  H1  UNL     1      12.956  20.657  18.358  1.00  0.00     0.169 HD
HETATM    5  C10 UNL     1      14.874  20.918  17.993  1.00  0.00     0.080 C 
ENDROOT
BRANCH   5   6
HETATM    6  C11 UNL     1      16.264  20.687  18.394  1.00  0.00     0.072 C 
BRANCH   6   7
HETATM    7  C12 UNL     1      17.211  20.783  17.217  1.00  0.00     0.109 C 
BRANCH   7   8
HETATM    8  C13 UNL     1      18.211  21.790  17.535  1.00  0.00     0.220 C 
HETATM    9  O2  UNL     1      18.928  21.640  18.591  1.00  0.00    -0.273 OA
HETATM   10  N2  UNL     1      18.432  22.926  16.721  1.00  0.00    -0.339 N 
HETATM   11  C14 UNL     1      17.713  23.252  15.501  1.00  0.00     0.127 C 
HETATM   12  C17 UNL     1      19.421  23.952  16.989  1.00  0.00     0.179 C 
HETATM   13  C15 UNL     1      17.662  24.783  15.637  1.00  0.00     0.022 C 
HETATM   14  C16 UNL     1      19.112  25.052  15.965  1.00  0.00     0.037 C 
BRANCH  12  15
HETATM   15  C18 UNL     1      19.096  24.537  18.345  1.00  0.00     0.243 C 
HETATM   16  O3  UNL     1      17.945  24.920  18.625  1.00  0.00    -0.271 OA
HETATM   17  N3  UNL     1      20.177  24.620  19.268  1.00  0.00    -0.341 N 
HETATM   18  C19 UNL     1      21.546  24.211  19.101  1.00  0.00     0.137 C 
HETATM   19  C21 UNL     1      19.994  25.183  20.619  1.00  0.00     0.200 C 
HETATM   20  C20 UNL     1      22.437  25.413  19.334  1.00  0.00     0.095 C 
HETATM   21  S1  UNL     1      21.468  26.287  20.627  1.00  0.00    -0.148 SA
ENDBRANCH  12  15
ENDBRANCH   7   8
ENDBRANCH   6   7
ENDBRANCH   5   6
BRANCH   5  22
HETATM   22  C22 UNL     1      14.534  21.671  16.802  1.00  0.00     0.264 C 
HETATM   23  O4  UNL     1      14.662  22.950  16.849  1.00  0.00    -0.266 OA
HETATM   24  N4  UNL     1      14.075  21.110  15.603  1.00  0.00    -0.343 N 
ATOM     25  H4  UNL     1      13.970  20.097  15.551  1.00  0.00     0.163 HD
BRANCH  24  26
HETATM   26  C23 UNL     1      13.739  21.905  14.426  1.00  0.00     0.174 C 
BRANCH  26  27
HETATM   27  C24 UNL     1      12.264  22.058  14.374  1.00  0.00     0.045 C 
BRANCH  27  28
HETATM   28  C25 UNL     1      11.441  20.960  14.942  1.00  0.00     0.116 C 
BRANCH  28  29
HETATM   29  C26 UNL     1      10.007  21.000  14.640  1.00  0.00     0.172 C 
HETATM   30  O5  UNL     1       9.539  21.712  13.668  1.00  0.00    -0.648 OA
HETATM   31  O6  UNL     1       9.048  20.303  15.338  1.00  0.00    -0.648 OA
ENDBRANCH  28  29
ENDBRANCH  27  28
ENDBRANCH  26  27
BRANCH  26  32
HETATM   32  C27 UNL     1      14.368  21.348  13.218  1.00  0.00     0.254 C 
HETATM   33  N5  UNL     1      15.588  21.795  12.664  1.00  0.00    -0.060 NA
HETATM   34  O7  UNL     1      13.742  20.384  12.645  1.00  0.00    -0.275 OA
ENDBRANCH  26  32
ENDBRANCH  24  26
ENDBRANCH   5  22
BRANCH   1  35
HETATM   35  C8  UNL     1      13.411  18.317  19.954  1.00  0.00     0.214 C 
HETATM   36  C7  UNL     1      12.014  18.394  20.572  1.00  0.00     0.044 C 
HETATM   37  C6  UNL     1      11.183  18.127  19.297  1.00  0.00     0.035 C 
HETATM   38  C5  UNL     1      12.115  17.047  18.719  1.00  0.00     0.126 C 
HETATM   39  O8  UNL     1      13.287  17.788  18.682  1.00  0.00    -0.371 OA
BRANCH  38  40
HETATM   40  C3  UNL     1      11.669  16.594  17.368  1.00  0.00     0.010 C 
HETATM   41  C4  UNL     1      11.031  17.709  16.575  1.00  0.00     0.012 C 
BRANCH  40  42
HETATM   42  C2  UNL     1      10.869  15.334  17.352  1.00  0.00     0.002 C 
HETATM   43  C1  UNL     1       9.423  15.689  17.082  1.00  0.00     0.005 C 
ENDBRANCH  40  42
ENDBRANCH  38  40
ENDBRANCH   1  35
TORSDOF 13
ENDMDL
MODEL 3
REMARK VINA RESULT: -8.547160741      1.653      2.345
REMARK  13 active torsions:
REMARK  status: ('A' for Active; 'I' for Inactive)
REMARK    1  A    between atoms: C2_2  and  C3_3 
REMARK    2  A    between atoms: C3_3  and  C5_5 
REMARK    3  A    between atoms: C8_8  and  C9_9 
REMARK       I    between atoms: C9_9  and  N1_11 
REMARK    4  A    between atoms: C10_13  and  C11_14 
REMARK    5  A    between atoms: C10_13  and  C22_30 
REMARK    6  A    between atoms: C11_14  and  C12_15 
REMARK    7  A    between atoms: C12_15  and  C13_16 
REMARK       I    between atoms: C13_16  and  N2_18 
REMARK    8  A    between atoms: C17_22  and  C18_23 
REMARK       I    between atoms: C18_23  and  N3_25 
REMARK       I    between atoms: C22_30  and  N4_32 
REMARK    9  A    between atoms: N4_32  and  C23_34 
REMARK   10  A    between atoms: C23_34  and  C24_35 
REMARK   11  A    between atoms: C23_34  and  C27_40 
REMARK   12  A    between atoms: C24_35  and  C25_36 
REMARK   13  A    between atoms: C25_36  and  C26_37 
ROOT
HETATM    1  C9  UNL     1      18.238  25.531  16.673  1.00  0.00     0.251 C 
HETATM    2  O1  UNL     1      17.016  25.726  16.826  1.00  0.00    -0.270 OA
HETATM    3  N1  UNL     1      19.041  25.374  17.818  1.00  0.00    -0.324 N 
ATOM      4  H1  UNL     1      19.779  26.066  17.951  1.00  0.00     0.169 HD
HETATM    5  C10 UNL     1      18.949  24.454  18.721  1.00  0.00     0.080 C 
ENDROOT
BRANCH   5   6
HETATM    6  C11 UNL     1      17.927  23.409  18.625  1.00  0.00     0.072 C 
BRANCH   6   7
HETATM    7  C12 UNL     1      18.366  22.276  17.723  1.00  0.00     0.109 C 
BRANCH   7   8
HETATM    8  C13 UNL     1      17.183  21.764  17.048  1.00  0.00     0.220 C 
HETATM    9  O2  UNL     1      17.065  21.945  15.781  1.00  0.00    -0.273 OA
HETATM   10  N2  UNL     1      16.159  21.066  17.731  1.00  0.00    -0.339 N 
HETATM   11  C14 UNL     1      16.130  20.778  19.155  1.00  0.00     0.127 C 
HETATM   12  C17 UNL     1      14.968  20.530  17.103  1.00  0.00     0.179 C 
HETATM   13  C15 UNL     1      14.621  20.925  19.413  1.00  0.00     0.022 C 
HETATM   14  C16 UNL     1      14.090  20.080  18.279  1.00  0.00     0.037 C 
BRANCH  12  15
HETATM   15  C18 UNL     1      14.245  21.691  16.460  1.00  0.00     0.243 C 
HETATM   16  O3  UNL     1      14.264  22.827  16.969  1.00  0.00    -0.271 OA
HETATM   17  N3  UNL     1      13.550  21.406  15.250  1.00  0.00    -0.341 N 
HETATM   18  C19 UNL     1      13.446  20.161  14.535  1.00  0.00     0.137 C 
HETATM   19  C21 UNL     1      12.796  22.449  14.531  1.00  0.00     0.200 C 
HETATM   20  C20 UNL     1      11.980  19.804  14.405  1.00  0.00     0.095 C 
HETATM   21  S1  UNL     1      11.253  21.484  14.246  1.00  0.00    -0.148 SA
ENDBRANCH  12  15
ENDBRANCH   7   8
ENDBRANCH   6   7
ENDBRANCH   5   6
BRANCH   5  22
HETATM   22  C22 UNL     1      19.889  24.510  19.824  1.00  0.00     0.264 C 
HETATM   23  O4  UNL     1      19.456  24.192  20.992  1.00  0.00    -0.266 OA
HETATM   24  N4  UNL     1      21.233  24.886  19.711  1.00  0.00    -0.343 N 
ATOM     25  H4  UNL     1      21.591  25.140  18.791  1.00  0.00     0.163 HD
BRANCH  24  26
HETATM   26  C23 UNL     1      22.147  24.934  20.848  1.00  0.00     0.174 C 
BRANCH  26  27
HETATM   27  C24 UNL     1      22.433  26.357  21.156  1.00  0.00     0.045 C 
BRANCH  27  28
HETATM   28  C25 UNL     1      21.685  27.386  20.391  1.00  0.00     0.116 C 
BRANCH  28  29
HETATM   29  C26 UNL     1      21.922  27.420  18.944  1.00  0.00     0.172 C 
HETATM   30  O5  UNL     1      23.091  27.193  18.444  1.00  0.00    -0.648 OA
HETATM   31  O6  UNL     1      20.951  27.685  18.006  1.00  0.00    -0.648 OA
ENDBRANCH  28  29
ENDBRANCH  27  28
ENDBRANCH  26  27
BRANCH  26  32
HETATM   32  C27 UNL     1      23.322  24.080  20.615  1.00  0.00     0.254 C 
HETATM   33  N5  UNL     1      24.490  24.079  21.409  1.00  0.00    -0.060 NA
HETATM   34  O7  UNL     1      23.255  23.285  19.608  1.00  0.00    -0.275 OA
ENDBRANCH  26  32
ENDBRANCH  24  26
ENDBRANCH   5  22
BRANCH   1  35
HETATM   35  C8  UNL     1      18.863  25.469  15.298  1.00  0.00     0.214 C 
HETATM   36  C7  UNL     1      18.161  26.495  14.407  1.00  0.00     0.044 C 
HETATM   37  C6  UNL     1      19.299  27.538  14.318  1.00  0.00     0.035 C 
HETATM   38  C5  UNL     1      20.445  26.517  14.195  1.00  0.00     0.126 C 
HETATM   39  O8  UNL     1      20.204  25.800  15.358  1.00  0.00    -0.371 OA
BRANCH  38  40
HETATM   40  C3  UNL     1      21.782  27.181  14.187  1.00  0.00     0.010 C 
HETATM   41  C4  UNL     1      22.790  26.443  15.035  1.00  0.00     0.012 C 
BRANCH  40  42
HETATM   42  C2  UNL     1      21.763  28.651  14.448  1.00  0.00     0.002 C 
HETATM   43  C1  UNL     1      22.967  29.001  15.295  1.00  0.00     0.005 C 
ENDBRANCH  40  42
ENDBRANCH  38  40
ENDBRANCH   1  35
TORSDOF 13
ENDMDL
MODEL 4
REMARK VINA RESULT: -8.542472957      1.729      2.371
REMARK  13 active torsions:
REMARK  status: ('A' for Active; 'I' for Inactive)
REMARK    1  A    between atoms: C2_2  and  C3_3 
REMARK    2  A    between atoms: C3_3  and  C5_5 
REMARK    3  A    between atoms: C8_8  and  C9_9 
REMARK       I    between atoms: C9_9  and  N1_11 
REMARK    4  A    between atoms: C10_13  and  C11_14 
REMARK    5  A    between atoms: C10_13  and  C22_30 
REMARK    6  A    between atoms: C11_14  and  C12_15 
REMARK    7  A    between atoms: C12_15  and  C13_16 
REMARK       I    between atoms: C13_16  and  N2_18 
REMARK    8  A    between atoms: C17_22  and  C18_23 
REMARK       I    between atoms: C18_23  and  N3_25 
REMARK       I    between atoms: C22_30  and  N4_32 
REMARK    9  A    between atoms: N4_32  and  C23_34 
REMARK   10  A    between atoms: C23_34  and  C24_35 
REMARK   11  A    between atoms: C23_34  and  C27_40 
REMARK   12  A    between atoms: C24_35  and  C25_36 
REMARK   13  A    between atoms: C25_36  and  C26_37 
ROOT
HETATM    1  C9  UNL     1      18.354  25.585  16.652  1.00  0.00     0.251 C 
HETATM    2  O1  UNL     1      17.122  25.747  16.768  1.00  0.00    -0.270 OA
HETATM    3  N1  UNL     1      19.129  25.482  17.822  1.00  0.00    -0.324 N 
ATOM      4  H1  UNL     1      19.842  26.200  17.956  1.00  0.00     0.169 HD
HETATM    5  C10 UNL     1      19.040  24.584  18.746  1.00  0.00     0.080 C 
ENDROOT
BRANCH   5   6
HETATM    6  C11 UNL     1      18.053  23.506  18.652  1.00  0.00     0.072 C 
BRANCH   6   7
HETATM    7  C12 UNL     1      18.503  22.414  17.704  1.00  0.00     0.109 C 
BRANCH   7   8
HETATM    8  C13 UNL     1      17.320  21.891  17.039  1.00  0.00     0.220 C 
HETATM    9  O2  UNL     1      17.191  22.069  15.772  1.00  0.00    -0.273 OA
HETATM   10  N2  UNL     1      16.308  21.184  17.730  1.00  0.00    -0.339 N 
HETATM   11  C14 UNL     1      16.292  20.897  19.155  1.00  0.00     0.127 C 
HETATM   12  C17 UNL     1      15.117  20.635  17.113  1.00  0.00     0.179 C 
HETATM   13  C15 UNL     1      14.784  21.031  19.424  1.00  0.00     0.022 C 
HETATM   14  C16 UNL     1      14.252  20.179  18.296  1.00  0.00     0.037 C 
BRANCH  12  15
HETATM   15  C18 UNL     1      14.378  21.789  16.473  1.00  0.00     0.243 C 
HETATM   16  O3  UNL     1      14.395  22.927  16.977  1.00  0.00    -0.271 OA
HETATM   17  N3  UNL     1      13.671  21.494  15.273  1.00  0.00    -0.341 N 
HETATM   18  C19 UNL     1      13.567  20.246  14.564  1.00  0.00     0.137 C 
HETATM   19  C21 UNL     1      12.901  22.529  14.559  1.00  0.00     0.200 C 
HETATM   20  C20 UNL     1      12.102  19.878  14.454  1.00  0.00     0.095 C 
HETATM   21  S1  UNL     1      11.362  21.552  14.296  1.00  0.00    -0.148 SA
ENDBRANCH  12  15
ENDBRANCH   7   8
ENDBRANCH   6   7
ENDBRANCH   5   6
BRANCH   5  22
HETATM   22  C22 UNL     1      19.947  24.697  19.872  1.00  0.00     0.264 C 
HETATM   23  O4  UNL     1      19.477  24.452  21.043  1.00  0.00    -0.266 OA
HETATM   24  N4  UNL     1      21.298  25.055  19.778  1.00  0.00    -0.343 N 
ATOM     25  H4  UNL     1      21.686  25.250  18.855  1.00  0.00     0.163 HD
BRANCH  24  26
HETATM   26  C23 UNL     1      22.178  25.162  20.937  1.00  0.00     0.174 C 
BRANCH  26  27
HETATM   27  C24 UNL     1      22.318  26.598  21.285  1.00  0.00     0.045 C 
BRANCH  27  28
HETATM   28  C25 UNL     1      21.454  27.126  22.371  1.00  0.00     0.116 C 
BRANCH  28  29
HETATM   29  C26 UNL     1      22.048  27.167  23.711  1.00  0.00     0.172 C 
HETATM   30  O5  UNL     1      23.321  27.301  23.883  1.00  0.00    -0.648 OA
HETATM   31  O6  UNL     1      21.329  27.073  24.880  1.00  0.00    -0.648 OA
ENDBRANCH  28  29
ENDBRANCH  27  28
ENDBRANCH  26  27
BRANCH  26  32
HETATM   32  C27 UNL     1      23.436  24.432  20.712  1.00  0.00     0.254 C 
HETATM   33  N5  UNL     1      23.641  23.468  19.700  1.00  0.00    -0.060 NA
HETATM   34  O7  UNL     1      24.405  24.710  21.509  1.00  0.00    -0.275 OA
ENDBRANCH  26  32
ENDBRANCH  24  26
ENDBRANCH   5  22
BRANCH   1  35
HETATM   35  C8  UNL     1      19.017  25.506  15.297  1.00  0.00     0.214 C 
HETATM   36  C7  UNL     1      18.434  26.611  14.414  1.00  0.00     0.044 C 
HETATM   37  C6  UNL     1      19.657  27.557  14.391  1.00  0.00     0.035 C 
HETATM   38  C5  UNL     1      20.717  26.447  14.275  1.00  0.00     0.126 C 
HETATM   39  O8  UNL     1      20.378  25.723  15.409  1.00  0.00    -0.371 OA
BRANCH  38  40
HETATM   40  C3  UNL     1      22.104  26.997  14.328  1.00  0.00     0.010 C 
HETATM   41  C4  UNL     1      22.821  26.613  15.600  1.00  0.00     0.012 C 
BRANCH  40  42
HETATM   42  C2  UNL     1      22.224  28.449  14.004  1.00  0.00     0.002 C 
HETATM   43  C1  UNL     1      22.958  29.132  15.139  1.00  0.00     0.005 C 
ENDBRANCH  40  42
ENDBRANCH  38  40
ENDBRANCH   1  35
TORSDOF 13
ENDMDL
MODEL 5
REMARK VINA RESULT: -8.530435332      3.736      7.417
REMARK  13 active torsions:
REMARK  status: ('A' for Active; 'I' for Inactive)
REMARK    1  A    between atoms: C2_2  and  C3_3 
REMARK    2  A    between atoms: C3_3  and  C5_5 
REMARK    3  A    between atoms: C8_8  and  C9_9 
REMARK       I    between atoms: C9_9  and  N1_11 
REMARK    4  A    between atoms: C10_13  and  C11_14 
REMARK    5  A    between atoms: C10_13  and  C22_30 
REMARK    6  A    between atoms: C11_14  and  C12_15 
REMARK    7  A    between atoms: C12_15  and  C13_16 
REMARK       I    between atoms: C13_16  and  N2_18 
REMARK    8  A    between atoms: C17_22  and  C18_23 
REMARK       I    between atoms: C18_23  and  N3_25 
REMARK       I    between atoms: C22_30  and  N4_32 
REMARK    9  A    between atoms: N4_32  and  C23_34 
REMARK   10  A    between atoms: C23_34  and  C24_35 
REMARK   11  A    between atoms: C23_34  and  C27_40 
REMARK   12  A    between atoms: C24_35  and  C25_36 
REMARK   13  A    between atoms: C25_36  and  C26_37 
ROOT
HETATM    1  C9  UNL     1      17.040  23.350  15.911  1.00  0.00     0.251 C 
HETATM    2  O1  UNL     1      16.644  24.179  15.067  1.00  0.00    -0.270 OA
HETATM    3  N1  UNL     1      16.081  22.580  16.595  1.00  0.00    -0.324 N 
ATOM      4  H1  UNL     1      16.048  22.695  17.608  1.00  0.00     0.169 HD
HETATM    5  C10 UNL     1      15.236  21.745  16.086  1.00  0.00     0.080 C 
ENDROOT
BRANCH   5   6
HETATM    6  C11 UNL     1      15.200  21.501  14.642  1.00  0.00     0.072 C 
BRANCH   6   7
HETATM    7  C12 UNL     1      13.858  21.866  14.045  1.00  0.00     0.109 C 
BRANCH   7   8
HETATM    8  C13 UNL     1      13.137  20.629  13.788  1.00  0.00     0.220 C 
HETATM    9  O2  UNL     1      13.808  19.550  13.590  1.00  0.00    -0.273 OA
HETATM   10  N2  UNL     1      11.725  20.564  13.756  1.00  0.00    -0.339 N 
HETATM   11  C14 UNL     1      10.817  21.681  13.954  1.00  0.00     0.127 C 
HETATM   12  C17 UNL     1      10.960  19.356  13.514  1.00  0.00     0.179 C 
HETATM   13  C15 UNL     1       9.712  21.292  12.958  1.00  0.00     0.022 C 
HETATM   14  C16 UNL     1       9.515  19.848  13.357  1.00  0.00     0.037 C 
BRANCH  12  15
HETATM   15  C18 UNL     1      11.376  18.834  12.158  1.00  0.00     0.243 C 
HETATM   16  O3  UNL     1      11.492  19.594  11.179  1.00  0.00    -0.271 OA
HETATM   17  N3  UNL     1      11.622  17.434  12.073  1.00  0.00    -0.341 N 
HETATM   18  C19 UNL     1      11.546  16.435  13.106  1.00  0.00     0.137 C 
HETATM   19  C21 UNL     1      12.022  16.798  10.804  1.00  0.00     0.200 C 
HETATM   20  C20 UNL     1      10.555  15.374  12.673  1.00  0.00     0.095 C 
HETATM   21  S1  UNL     1      10.849  15.379  10.860  1.00  0.00    -0.148 SA
ENDBRANCH  12  15
ENDBRANCH   7   8
ENDBRANCH   6   7
ENDBRANCH   5   6
BRANCH   5  22
HETATM   22  C22 UNL     1      14.332  21.076  17.000  1.00  0.00     0.264 C 
HETATM   23  O4  UNL     1      13.962  21.719  18.050  1.00  0.00    -0.266 OA
HETATM   24  N4  UNL     1      13.832  19.779  16.825  1.00  0.00    -0.343 N 
ATOM     25  H4  UNL     1      14.115  19.257  15.996  1.00  0.00     0.163 HD
BRANCH  24  26
HETATM   26  C23 UNL     1      12.925  19.138  17.772  1.00  0.00     0.174 C 
BRANCH  26  27
HETATM   27  C24 UNL     1      13.577  17.905  18.279  1.00  0.00     0.045 C 
BRANCH  27  28
HETATM   28  C25 UNL     1      13.502  17.642  19.739  1.00  0.00     0.116 C 
BRANCH  28  29
HETATM   29  C26 UNL     1      12.910  18.703  20.560  1.00  0.00     0.172 C 
HETATM   30  O5  UNL     1      13.643  19.519  21.243  1.00  0.00    -0.648 OA
HETATM   31  O6  UNL     1      11.558  18.929  20.678  1.00  0.00    -0.648 OA
ENDBRANCH  28  29
ENDBRANCH  27  28
ENDBRANCH  26  27
BRANCH  26  32
HETATM   32  C27 UNL     1      11.588  18.961  17.183  1.00  0.00     0.254 C 
HETATM   33  N5  UNL     1      10.552  19.920  17.228  1.00  0.00    -0.060 NA
HETATM   34  O7  UNL     1      11.374  17.842  16.589  1.00  0.00    -0.275 OA
ENDBRANCH  26  32
ENDBRANCH  24  26
ENDBRANCH   5  22
BRANCH   1  35
HETATM   35  C8  UNL     1      18.509  23.167  16.211  1.00  0.00     0.214 C 
HETATM   36  C7  UNL     1      19.214  24.505  15.983  1.00  0.00     0.044 C 
HETATM   37  C6  UNL     1      19.483  24.878  17.459  1.00  0.00     0.035 C 
HETATM   38  C5  UNL     1      19.856  23.457  17.920  1.00  0.00     0.126 C 
HETATM   39  O8  UNL     1      18.694  22.806  17.533  1.00  0.00    -0.371 OA
BRANCH  38  40
HETATM   40  C3  UNL     1      20.096  23.396  19.392  1.00  0.00     0.010 C 
HETATM   41  C4  UNL     1      19.650  22.082  19.987  1.00  0.00     0.012 C 
BRANCH  40  42
HETATM   42  C2  UNL     1      19.616  24.580  20.164  1.00  0.00     0.002 C 
HETATM   43  C1  UNL     1      18.263  24.248  20.756  1.00  0.00     0.005 C 
ENDBRANCH  40  42
ENDBRANCH  38  40
ENDBRANCH   1  35
TORSDOF 13
ENDMDL
