MODEL 1
REMARK VINA RESULT: -8.751519825      0.000      0.000
REMARK  14 active torsions:
REMARK  status: ('A' for Active; 'I' for Inactive)
REMARK    1  A    between atoms: C2_2  and  C3_3 
REMARK    2  A    between atoms: C3_3  and  N1_4 
REMARK       I    between atoms: N1_4  and  C4_6 
REMARK    3  A    between atoms: C4_6  and  C5_8 
REMARK    4  A    between atoms: C5_8  and  C6_9 
REMARK    5  A    between atoms: C5_8  and  N2_12 
REMARK    6  A    between atoms: C6_9  and  S1_10 
REMARK       I    between atoms: N2_12  and  C8_14 
REMARK       I    between atoms: C8_14  and  N3_15 
REMARK       I    between atoms: C8_14  and  N10_42 
REMARK    7  A    between atoms: N3_15  and  C9_17 
REMARK    8  A    between atoms: C10_22  and  C11_23 
REMARK    9  A    between atoms: C11_23  and  C12_24 
REMARK   10  A    between atoms: C12_24  and  S2_25 
REMARK   11  A    between atoms: S2_25  and  C13_26 
REMARK   12  A    between atoms: C13_26  and  C14_27 
REMARK   13  A    between atoms: C14_27  and  C15_28 
REMARK   14  A    between atoms: C16_33  and  N8_34 
REMARK       I    between atoms: N8_34  and  C17_36 
ROOT
HETATM    1  C9  UNL     1      16.959  22.536  19.590  1.00  0.00     0.180 A 
HETATM    2  N4  UNL     1      17.533  23.559  20.231  1.00  0.00    -0.279 N 
ATOM      3  H4  UNL     1      16.983  24.368  20.521  1.00  0.00     0.189 HD
HETATM    4  N5  UNL     1      18.779  23.503  20.472  1.00  0.00    -0.296 N 
ATOM      5  H5  UNL     1      19.237  24.273  20.961  1.00  0.00     0.187 HD
HETATM    6  C10 UNL     1      19.486  22.450  20.091  1.00  0.00     0.070 A 
HETATM    7  S3  UNL     1      18.285  21.489  19.346  1.00  0.00    -0.037 SA
ENDROOT
BRANCH   1   8
HETATM    8  N3  UNL     1      15.697  22.403  19.251  1.00  0.00    -0.169 N 
HETATM    9  C8  UNL     1      15.202  21.178  18.765  1.00  0.00     0.685 C 
HETATM   10  N2  UNL     1      14.984  21.027  17.518  1.00  0.00    -0.212 N 
HETATM   11  N10 UNL     1      14.943  20.114  19.654  1.00  0.00    -0.151 N 
ATOM     12  H2  UNL     1      14.624  20.135  17.177  1.00  0.00     0.178 HD
HETATM   13  C19 UNL     1      15.141  20.128  21.097  1.00  0.00     0.151 C 
HETATM   14  C22 UNL     1      14.441  18.805  19.367  1.00  0.00     0.238 C 
HETATM   15  C20 UNL     1      13.914  19.356  21.568  1.00  0.00     0.030 C 
HETATM   16  C21 UNL     1      13.900  18.186  20.597  1.00  0.00     0.105 C 
HETATM   17  O3  UNL     1      14.492  18.320  18.192  1.00  0.00    -0.273 OA
ATOM     18  H3  UNL     1      15.066  23.200  19.341  1.00  0.00     0.186 HD
BRANCH  10  19
HETATM   19  C5  UNL     1      15.242  22.111  16.562  1.00  0.00     0.200 C 
BRANCH  19  20
HETATM   20  C4  UNL     1      14.043  22.312  15.728  1.00  0.00     0.242 C 
HETATM   21  N1  UNL     1      13.191  21.271  15.311  1.00  0.00    -0.356 N 
ATOM     22  H1  UNL     1      13.395  20.311  15.589  1.00  0.00     0.162 HD
HETATM   23  O1  UNL     1      13.773  23.514  15.367  1.00  0.00    -0.271 OA
BRANCH  21  24
HETATM   24  C3  UNL     1      12.032  21.545  14.497  1.00  0.00     0.149 C 
BRANCH  24  25
HETATM   25  C2  UNL     1      10.833  20.846  15.027  1.00  0.00    -0.018 C 
HETATM   26  C1  UNL     1       9.624  21.251  14.669  1.00  0.00     0.008 C 
ENDBRANCH  24  25
ENDBRANCH  21  24
ENDBRANCH  19  20
BRANCH  19  27
HETATM   27  C6  UNL     1      16.477  21.795  15.761  1.00  0.00     0.108 C 
BRANCH  27  28
HETATM   28  S1  UNL     1      17.621  23.142  15.578  1.00  0.00    -0.171 SA
HETATM   29  C7  UNL     1      17.144  24.562  16.614  1.00  0.00     0.089 C 
ENDBRANCH  27  28
ENDBRANCH  19  27
ENDBRANCH  10  19
ENDBRANCH   1   8
BRANCH   6  30
HETATM   30  C11 UNL     1      20.963  22.211  20.288  1.00  0.00     0.076 C 
BRANCH  30  31
HETATM   31  C12 UNL     1      21.701  23.387  19.699  1.00  0.00     0.080 C 
BRANCH  31  32
HETATM   32  S2  UNL     1      22.635  24.156  21.072  1.00  0.00    -0.168 SA
BRANCH  32  33
HETATM   33  C13 UNL     1      21.592  25.448  21.790  1.00  0.00     0.081 C 
BRANCH  33  34
HETATM   34  C14 UNL     1      22.088  26.817  21.375  1.00  0.00     0.088 C 
BRANCH  34  35
HETATM   35  C15 UNL     1      21.988  26.994  19.904  1.00  0.00     0.113 A 
HETATM   36  N6  UNL     1      23.028  27.387  19.150  1.00  0.00    -0.274 N 
HETATM   37  N7  UNL     1      22.626  27.450  17.888  1.00  0.00    -0.130 N 
ATOM     38  H6  UNL     1      23.966  27.599  19.490  1.00  0.00     0.189 HD
HETATM   39  C16 UNL     1      21.332  27.106  17.787  1.00  0.00     0.700 A 
ATOM     40  H7  UNL     1      23.216  27.723  17.103  1.00  0.00     0.205 HD
HETATM   41  N9  UNL     1      20.965  26.825  19.073  1.00  0.00    -0.178 N 
ATOM     42  H9  UNL     1      20.031  26.527  19.356  1.00  0.00     0.185 HD
BRANCH  39  43
HETATM   43  N8  UNL     1      20.577  27.042  16.743  1.00  0.00    -0.159 N 
HETATM   44  C17 UNL     1      21.038  27.651  15.536  1.00  0.00     0.232 C 
HETATM   45  C18 UNL     1      22.126  27.057  14.717  1.00  0.00     0.118 C 
HETATM   46  O2  UNL     1      20.515  28.725  15.141  1.00  0.00    -0.273 OA
ATOM     47  H8  UNL     1      19.674  26.569  16.779  1.00  0.00     0.187 HD
ENDBRANCH  39  43
ENDBRANCH  34  35
ENDBRANCH  33  34
ENDBRANCH  32  33
ENDBRANCH  31  32
ENDBRANCH  30  31
ENDBRANCH   6  30
TORSDOF 14
ENDMDL
MODEL 2
REMARK VINA RESULT: -8.642531339      2.960      9.561
REMARK  14 active torsions:
REMARK  status: ('A' for Active; 'I' for Inactive)
REMARK    1  A    between atoms: C2_2  and  C3_3 
REMARK    2  A    between atoms: C3_3  and  N1_4 
REMARK       I    between atoms: N1_4  and  C4_6 
REMARK    3  A    between atoms: C4_6  and  C5_8 
REMARK    4  A    between atoms: C5_8  and  C6_9 
REMARK    5  A    between atoms: C5_8  and  N2_12 
REMARK    6  A    between atoms: C6_9  and  S1_10 
REMARK       I    between atoms: N2_12  and  C8_14 
REMARK       I    between atoms: C8_14  and  N3_15 
REMARK       I    between atoms: C8_14  and  N10_42 
REMARK    7  A    between atoms: N3_15  and  C9_17 
REMARK    8  A    between atoms: C10_22  and  C11_23 
REMARK    9  A    between atoms: C11_23  and  C12_24 
REMARK   10  A    between atoms: C12_24  and  S2_25 
REMARK   11  A    between atoms: S2_25  and  C13_26 
REMARK   12  A    between atoms: C13_26  and  C14_27 
REMARK   13  A    between atoms: C14_27  and  C15_28 
REMARK   14  A    between atoms: C16_33  and  N8_34 
REMARK       I    between atoms: N8_34  and  C17_36 
ROOT
HETATM    1  C9  UNL     1      15.273  22.701  18.267  1.00  0.00     0.180 A 
HETATM    2  N4  UNL     1      16.079  22.765  19.332  1.00  0.00    -0.279 N 
ATOM      3  H4  UNL     1      16.783  23.498  19.409  1.00  0.00     0.189 HD
HETATM    4  N5  UNL     1      15.949  21.893  20.245  1.00  0.00    -0.296 N 
ATOM      5  H5  UNL     1      16.553  21.924  21.067  1.00  0.00     0.187 HD
HETATM    6  C10 UNL     1      15.033  20.942  20.136  1.00  0.00     0.070 A 
HETATM    7  S3  UNL     1      14.320  21.332  18.632  1.00  0.00    -0.037 SA
ENDROOT
BRANCH   1   8
HETATM    8  N3  UNL     1      15.248  23.500  17.225  1.00  0.00    -0.169 N 
HETATM    9  C8  UNL     1      15.660  23.052  15.956  1.00  0.00     0.685 C 
HETATM   10  N2  UNL     1      16.802  23.389  15.498  1.00  0.00    -0.212 N 
HETATM   11  N10 UNL     1      14.813  22.228  15.185  1.00  0.00    -0.151 N 
ATOM     12  H2  UNL     1      17.089  23.059  14.577  1.00  0.00     0.178 HD
HETATM   13  C19 UNL     1      13.489  21.756  15.565  1.00  0.00     0.151 C 
HETATM   14  C22 UNL     1      15.039  21.675  13.885  1.00  0.00     0.238 C 
HETATM   15  C20 UNL     1      12.745  21.872  14.240  1.00  0.00     0.030 C 
HETATM   16  C21 UNL     1      13.753  21.272  13.273  1.00  0.00     0.105 C 
HETATM   17  O3  UNL     1      16.211  21.579  13.400  1.00  0.00    -0.273 OA
ATOM     18  H3  UNL     1      14.926  24.462  17.338  1.00  0.00     0.186 HD
BRANCH  10  19
HETATM   19  C5  UNL     1      17.711  24.243  16.272  1.00  0.00     0.200 C 
BRANCH  19  20
HETATM   20  C4  UNL     1      18.120  25.389  15.439  1.00  0.00     0.242 C 
HETATM   21  N1  UNL     1      19.455  25.809  15.280  1.00  0.00    -0.356 N 
ATOM     22  H1  UNL     1      20.202  25.308  15.760  1.00  0.00     0.162 HD
HETATM   23  O1  UNL     1      17.192  26.032  14.829  1.00  0.00    -0.271 OA
BRANCH  21  24
HETATM   24  C3  UNL     1      19.779  26.940  14.445  1.00  0.00     0.149 C 
BRANCH  24  25
HETATM   25  C2  UNL     1      20.932  27.695  14.998  1.00  0.00    -0.018 C 
HETATM   26  C1  UNL     1      22.166  27.269  14.773  1.00  0.00     0.008 C 
ENDBRANCH  24  25
ENDBRANCH  21  24
ENDBRANCH  19  20
BRANCH  19  27
HETATM   27  C6  UNL     1      18.872  23.425  16.768  1.00  0.00     0.108 C 
BRANCH  27  28
HETATM   28  S1  UNL     1      19.481  23.878  18.375  1.00  0.00    -0.171 SA
HETATM   29  C7  UNL     1      19.717  22.414  19.432  1.00  0.00     0.089 C 
ENDBRANCH  27  28
ENDBRANCH  19  27
ENDBRANCH  10  19
ENDBRANCH   1   8
BRANCH   6  30
HETATM   30  C11 UNL     1      14.736  19.830  21.112  1.00  0.00     0.076 C 
BRANCH  30  31
HETATM   31  C12 UNL     1      14.263  18.638  20.320  1.00  0.00     0.080 C 
BRANCH  31  32
HETATM   32  S2  UNL     1      12.687  18.100  21.081  1.00  0.00    -0.168 SA
BRANCH  32  33
HETATM   33  C13 UNL     1      11.475  17.903  19.753  1.00  0.00     0.081 C 
BRANCH  33  34
HETATM   34  C14 UNL     1      12.064  17.092  18.618  1.00  0.00     0.088 C 
BRANCH  34  35
HETATM   35  C15 UNL     1      11.387  17.408  17.334  1.00  0.00     0.113 A 
HETATM   36  N6  UNL     1      10.138  16.999  17.054  1.00  0.00    -0.274 N 
HETATM   37  N7  UNL     1       9.819  17.436  15.844  1.00  0.00    -0.130 N 
ATOM     38  H6  UNL     1       9.539  16.447  17.668  1.00  0.00     0.189 HD
HETATM   39  C16 UNL     1      10.836  18.132  15.310  1.00  0.00     0.700 A 
ATOM     40  H7  UNL     1       8.926  17.268  15.383  1.00  0.00     0.205 HD
HETATM   41  N9  UNL     1      11.803  18.094  16.274  1.00  0.00    -0.178 N 
ATOM     42  H9  UNL     1      12.720  18.533  16.191  1.00  0.00     0.185 HD
BRANCH  39  43
HETATM   43  N8  UNL     1      10.920  18.714  14.162  1.00  0.00    -0.159 N 
HETATM   44  C17 UNL     1       9.821  19.515  13.726  1.00  0.00     0.232 C 
HETATM   45  C18 UNL     1       9.530  20.847  14.318  1.00  0.00     0.118 C 
HETATM   46  O2  UNL     1       9.065  19.093  12.813  1.00  0.00    -0.273 OA
ATOM     47  H8  UNL     1      11.751  18.604  13.581  1.00  0.00     0.187 HD
ENDBRANCH  39  43
ENDBRANCH  34  35
ENDBRANCH  33  34
ENDBRANCH  32  33
ENDBRANCH  31  32
ENDBRANCH  30  31
ENDBRANCH   6  30
TORSDOF 14
ENDMDL
MODEL 3
REMARK VINA RESULT: -8.635004724      2.296     10.066
REMARK  14 active torsions:
REMARK  status: ('A' for Active; 'I' for Inactive)
REMARK    1  A    between atoms: C2_2  and  C3_3 
REMARK    2  A    between atoms: C3_3  and  N1_4 
REMARK       I    between atoms: N1_4  and  C4_6 
REMARK    3  A    between atoms: C4_6  and  C5_8 
REMARK    4  A    between atoms: C5_8  and  C6_9 
REMARK    5  A    between atoms: C5_8  and  N2_12 
REMARK    6  A    between atoms: C6_9  and  S1_10 
REMARK       I    between atoms: N2_12  and  C8_14 
REMARK       I    between atoms: C8_14  and  N3_15 
REMARK       I    between atoms: C8_14  and  N10_42 
REMARK    7  A    between atoms: N3_15  and  C9_17 
REMARK    8  A    between atoms: C10_22  and  C11_23 
REMARK    9  A    between atoms: C11_23  and  C12_24 
REMARK   10  A    between atoms: C12_24  and  S2_25 
REMARK   11  A    between atoms: S2_25  and  C13_26 
REMARK   12  A    between atoms: C13_26  and  C14_27 
REMARK   13  A    between atoms: C14_27  and  C15_28 
REMARK   14  A    between atoms: C16_33  and  N8_34 
REMARK       I    between atoms: N8_34  and  C17_36 
ROOT
HETATM    1  C9  UNL     1      18.247  25.034  17.130  1.00  0.00     0.180 A 
HETATM    2  N4  UNL     1      16.923  24.951  17.295  1.00  0.00    -0.279 N 
ATOM      3  H4  UNL     1      16.417  25.666  17.818  1.00  0.00     0.189 HD
HETATM    4  N5  UNL     1      16.308  23.963  16.789  1.00  0.00    -0.296 N 
ATOM      5  H5  UNL     1      15.297  23.881  16.902  1.00  0.00     0.187 HD
HETATM    6  C10 UNL     1      16.973  23.037  16.113  1.00  0.00     0.070 A 
HETATM    7  S3  UNL     1      18.573  23.630  16.216  1.00  0.00    -0.037 SA
ENDROOT
BRANCH   1   8
HETATM    8  N3  UNL     1      19.058  25.968  17.571  1.00  0.00    -0.169 N 
HETATM    9  C8  UNL     1      20.402  26.017  17.156  1.00  0.00     0.685 C 
HETATM   10  N2  UNL     1      21.327  25.614  17.936  1.00  0.00    -0.212 N 
HETATM   11  N10 UNL     1      20.733  26.512  15.877  1.00  0.00    -0.151 N 
ATOM     12  H2  UNL     1      22.298  25.656  17.625  1.00  0.00     0.178 HD
HETATM   13  C19 UNL     1      19.798  27.004  14.874  1.00  0.00     0.151 C 
HETATM   14  C22 UNL     1      22.022  26.647  15.272  1.00  0.00     0.238 C 
HETATM   15  C20 UNL     1      20.567  28.196  14.317  1.00  0.00     0.030 C 
HETATM   16  C21 UNL     1      21.959  27.606  14.147  1.00  0.00     0.105 C 
HETATM   17  O3  UNL     1      23.028  25.998  15.703  1.00  0.00    -0.273 OA
ATOM     18  H3  UNL     1      18.709  26.669  18.225  1.00  0.00     0.186 HD
BRANCH  10  19
HETATM   19  C5  UNL     1      21.022  25.092  19.274  1.00  0.00     0.200 C 
BRANCH  19  20
HETATM   20  C4  UNL     1      21.814  25.834  20.272  1.00  0.00     0.242 C 
HETATM   21  N1  UNL     1      21.627  25.724  21.664  1.00  0.00    -0.356 N 
ATOM     22  H1  UNL     1      20.907  25.101  22.028  1.00  0.00     0.162 HD
HETATM   23  O1  UNL     1      22.722  26.625  19.830  1.00  0.00    -0.271 OA
BRANCH  21  24
HETATM   24  C3  UNL     1      22.443  26.482  22.581  1.00  0.00     0.149 C 
BRANCH  24  25
HETATM   25  C2  UNL     1      21.608  27.124  23.628  1.00  0.00    -0.018 C 
HETATM   26  C1  UNL     1      22.036  27.159  24.881  1.00  0.00     0.008 C 
ENDBRANCH  24  25
ENDBRANCH  21  24
ENDBRANCH  19  20
BRANCH  19  27
HETATM   27  C6  UNL     1      21.269  23.607  19.304  1.00  0.00     0.108 C 
BRANCH  27  28
HETATM   28  S1  UNL     1      19.973  22.643  20.046  1.00  0.00    -0.171 SA
HETATM   29  C7  UNL     1      18.583  23.695  20.572  1.00  0.00     0.089 C 
ENDBRANCH  27  28
ENDBRANCH  19  27
ENDBRANCH  10  19
ENDBRANCH   1   8
BRANCH   6  30
HETATM   30  C11 UNL     1      16.416  21.803  15.447  1.00  0.00     0.076 C 
BRANCH  30  31
HETATM   31  C12 UNL     1      16.108  22.154  14.014  1.00  0.00     0.080 C 
BRANCH  31  32
HETATM   32  S2  UNL     1      14.801  20.997  13.463  1.00  0.00    -0.168 SA
BRANCH  32  33
HETATM   33  C13 UNL     1      13.204  21.791  13.764  1.00  0.00     0.081 C 
BRANCH  33  34
HETATM   34  C14 UNL     1      12.316  20.892  14.599  1.00  0.00     0.088 C 
BRANCH  34  35
HETATM   35  C15 UNL     1      12.920  20.642  15.933  1.00  0.00     0.113 A 
HETATM   36  N6  UNL     1      13.154  19.404  16.400  1.00  0.00    -0.274 N 
HETATM   37  N7  UNL     1      13.694  19.511  17.606  1.00  0.00    -0.130 N 
ATOM     38  H6  UNL     1      12.950  18.532  15.911  1.00  0.00     0.189 HD
HETATM   39  C16 UNL     1      13.827  20.801  17.952  1.00  0.00     0.700 A 
ATOM     40  H7  UNL     1      13.972  18.722  18.190  1.00  0.00     0.205 HD
HETATM   41  N9  UNL     1      13.331  21.482  16.876  1.00  0.00    -0.178 N 
ATOM     42  H9  UNL     1      13.282  22.499  16.807  1.00  0.00     0.185 HD
BRANCH  39  43
HETATM   43  N8  UNL     1      14.303  21.318  19.033  1.00  0.00    -0.159 N 
HETATM   44  C17 UNL     1      15.407  20.668  19.665  1.00  0.00     0.232 C 
HETATM   45  C18 UNL     1      16.781  20.717  19.102  1.00  0.00     0.118 C 
HETATM   46  O2  UNL     1      15.225  20.029  20.734  1.00  0.00    -0.273 OA
ATOM     47  H8  UNL     1      13.902  22.169  19.426  1.00  0.00     0.187 HD
ENDBRANCH  39  43
ENDBRANCH  34  35
ENDBRANCH  33  34
ENDBRANCH  32  33
ENDBRANCH  31  32
ENDBRANCH  30  31
ENDBRANCH   6  30
TORSDOF 14
ENDMDL
MODEL 4
REMARK VINA RESULT: -8.607975335      2.636     10.804
REMARK  14 active torsions:
REMARK  status: ('A' for Active; 'I' for Inactive)
REMARK    1  A    between atoms: C2_2  and  C3_3 
REMARK    2  A    between atoms: C3_3  and  N1_4 
REMARK       I    between atoms: N1_4  and  C4_6 
REMARK    3  A    between atoms: C4_6  and  C5_8 
REMARK    4  A    between atoms: C5_8  and  C6_9 
REMARK    5  A    between atoms: C5_8  and  N2_12 
REMARK    6  A    between atoms: C6_9  and  S1_10 
REMARK       I    between atoms: N2_12  and  C8_14 
REMARK       I    between atoms: C8_14  and  N3_15 
REMARK       I    between atoms: C8_14  and  N10_42 
REMARK    7  A    between atoms: N3_15  and  C9_17 
REMARK    8  A    between atoms: C10_22  and  C11_23 
REMARK    9  A    between atoms: C11_23  and  C12_24 
REMARK   10  A    between atoms: C12_24  and  S2_25 
REMARK   11  A    between atoms: S2_25  and  C13_26 
REMARK   12  A    between atoms: C13_26  and  C14_27 
REMARK   13  A    between atoms: C14_27  and  C15_28 
REMARK   14  A    between atoms: C16_33  and  N8_34 
REMARK       I    between atoms: N8_34  and  C17_36 
ROOT
HETATM    1  C9  UNL     1      18.559  24.647  17.109  1.00  0.00     0.180 A 
HETATM    2  N4  UNL     1      19.164  23.516  16.731  1.00  0.00    -0.279 N 
ATOM      3  H4  UNL     1      20.180  23.432  16.763  1.00  0.00     0.189 HD
HETATM    4  N5  UNL     1      18.446  22.547  16.332  1.00  0.00    -0.296 N 
ATOM      5  H5  UNL     1      18.887  21.675  16.040  1.00  0.00     0.187 HD
HETATM    6  C10 UNL     1      17.128  22.665  16.293  1.00  0.00     0.070 A 
HETATM    7  S3  UNL     1      16.914  24.261  16.866  1.00  0.00    -0.037 SA
ENDROOT
BRANCH   1   8
HETATM    8  N3  UNL     1      19.117  25.751  17.549  1.00  0.00    -0.169 N 
HETATM    9  C8  UNL     1      20.469  26.037  17.281  1.00  0.00     0.685 C 
HETATM   10  N2  UNL     1      21.348  25.880  18.193  1.00  0.00    -0.212 N 
HETATM   11  N10 UNL     1      20.859  26.499  16.006  1.00  0.00    -0.151 N 
ATOM     12  H2  UNL     1      22.325  26.092  17.988  1.00  0.00     0.178 HD
HETATM   13  C19 UNL     1      19.981  26.725  14.867  1.00  0.00     0.151 C 
HETATM   14  C22 UNL     1      22.165  26.846  15.537  1.00  0.00     0.238 C 
HETATM   15  C20 UNL     1      20.575  28.005  14.290  1.00  0.00     0.030 C 
HETATM   16  C21 UNL     1      22.063  27.693  14.329  1.00  0.00     0.105 C 
HETATM   17  O3  UNL     1      23.213  26.440  16.134  1.00  0.00    -0.273 OA
ATOM     18  H3  UNL     1      18.562  26.412  18.093  1.00  0.00     0.186 HD
BRANCH  10  19
HETATM   19  C5  UNL     1      20.982  25.401  19.531  1.00  0.00     0.200 C 
BRANCH  19  20
HETATM   20  C4  UNL     1      21.655  26.237  20.542  1.00  0.00     0.242 C 
HETATM   21  N1  UNL     1      21.598  25.993  21.928  1.00  0.00    -0.356 N 
ATOM     22  H1  UNL     1      21.065  25.197  22.279  1.00  0.00     0.162 HD
HETATM   23  O1  UNL     1      22.328  27.244  20.118  1.00  0.00    -0.271 OA
BRANCH  21  24
HETATM   24  C3  UNL     1      22.285  26.855  22.859  1.00  0.00     0.149 C 
BRANCH  24  25
HETATM   25  C2  UNL     1      21.524  26.980  24.128  1.00  0.00    -0.018 C 
HETATM   26  C1  UNL     1      22.168  27.220  25.260  1.00  0.00     0.008 C 
ENDBRANCH  24  25
ENDBRANCH  21  24
ENDBRANCH  19  20
BRANCH  19  27
HETATM   27  C6  UNL     1      21.315  23.938  19.651  1.00  0.00     0.108 C 
BRANCH  27  28
HETATM   28  S1  UNL     1      20.012  22.920  20.304  1.00  0.00    -0.171 SA
HETATM   29  C7  UNL     1      18.556  23.916  20.755  1.00  0.00     0.089 C 
ENDBRANCH  27  28
ENDBRANCH  19  27
ENDBRANCH  10  19
ENDBRANCH   1   8
BRANCH   6  30
HETATM   30  C11 UNL     1      16.122  21.630  15.850  1.00  0.00     0.076 C 
BRANCH  30  31
HETATM   31  C12 UNL     1      15.150  22.304  14.916  1.00  0.00     0.080 C 
BRANCH  31  32
HETATM   32  S2  UNL     1      15.041  21.247  13.426  1.00  0.00    -0.168 SA
BRANCH  32  33
HETATM   33  C13 UNL     1      13.818  19.956  13.758  1.00  0.00     0.081 C 
BRANCH  33  34
HETATM   34  C14 UNL     1      12.508  20.571  14.204  1.00  0.00     0.088 C 
BRANCH  34  35
HETATM   35  C15 UNL     1      12.238  20.266  15.632  1.00  0.00     0.113 A 
HETATM   36  N6  UNL     1      11.049  20.504  16.210  1.00  0.00    -0.274 N 
HETATM   37  N7  UNL     1      11.122  20.127  17.479  1.00  0.00    -0.130 N 
ATOM     38  H6  UNL     1      10.231  20.906  15.752  1.00  0.00     0.189 HD
HETATM   39  C16 UNL     1      12.341  19.640  17.758  1.00  0.00     0.700 A 
ATOM     40  H7  UNL     1      10.357  20.197  18.150  1.00  0.00     0.205 HD
HETATM   41  N9  UNL     1      13.015  19.742  16.575  1.00  0.00    -0.178 N 
ATOM     42  H9  UNL     1      13.984  19.455  16.433  1.00  0.00     0.185 HD
BRANCH  39  43
HETATM   43  N8  UNL     1      12.807  19.175  18.868  1.00  0.00    -0.159 N 
HETATM   44  C17 UNL     1      12.011  18.240  19.598  1.00  0.00     0.232 C 
HETATM   45  C18 UNL     1      11.833  16.835  19.149  1.00  0.00     0.118 C 
HETATM   46  O2  UNL     1      11.437  18.603  20.657  1.00  0.00    -0.273 OA
ATOM     47  H8  UNL     1      13.720  19.469  19.215  1.00  0.00     0.187 HD
ENDBRANCH  39  43
ENDBRANCH  34  35
ENDBRANCH  33  34
ENDBRANCH  32  33
ENDBRANCH  31  32
ENDBRANCH  30  31
ENDBRANCH   6  30
TORSDOF 14
ENDMDL
MODEL 5
REMARK VINA RESULT: -8.569321256      2.013      2.456
REMARK  14 active torsions:
REMARK  status: ('A' for Active; 'I' for Inactive)
REMARK    1  A    between atoms: C2_2  and  C3_3 
REMARK    2  A    between atoms: C3_3  and  N1_4 
REMARK       I    between atoms: N1_4  and  C4_6 
REMARK    3  A    between atoms: C4_6  and  C5_8 
REMARK    4  A    between atoms: C5_8  and  C6_9 
REMARK    5  A    between atoms: C5_8  and  N2_12 
REMARK    6  A    between atoms: C6_9  and  S1_10 
REMARK       I    between atoms: N2_12  and  C8_14 
REMARK       I    between atoms: C8_14  and  N3_15 
REMARK       I    between atoms: C8_14  and  N10_42 
REMARK    7  A    between atoms: N3_15  and  C9_17 
REMARK    8  A    between atoms: C10_22  and  C11_23 
REMARK    9  A    between atoms: C11_23  and  C12_24 
REMARK   10  A    between atoms: C12_24  and  S2_25 
REMARK   11  A    between atoms: S2_25  and  C13_26 
REMARK   12  A    between atoms: C13_26  and  C14_27 
REMARK   13  A    between atoms: C14_27  and  C15_28 
REMARK   14  A    between atoms: C16_33  and  N8_34 
REMARK       I    between atoms: N8_34  and  C17_36 
ROOT
HETATM    1  C9  UNL     1      14.970  22.397  18.604  1.00  0.00     0.180 A 
HETATM    2  N4  UNL     1      15.079  23.729  18.548  1.00  0.00    -0.279 N 
ATOM      3  H4  UNL     1      14.262  24.311  18.364  1.00  0.00     0.189 HD
HETATM    4  N5  UNL     1      16.221  24.253  18.728  1.00  0.00    -0.296 N 
ATOM      5  H5  UNL     1      16.326  25.268  18.691  1.00  0.00     0.187 HD
HETATM    6  C10 UNL     1      17.277  23.489  18.964  1.00  0.00     0.070 A 
HETATM    7  S3  UNL     1      16.580  21.929  18.925  1.00  0.00    -0.037 SA
ENDROOT
BRANCH   1   8
HETATM    8  N3  UNL     1      13.889  21.669  18.447  1.00  0.00    -0.169 N 
HETATM    9  C8  UNL     1      13.967  20.268  18.336  1.00  0.00     0.685 C 
HETATM   10  N2  UNL     1      13.845  19.709  17.195  1.00  0.00    -0.212 N 
HETATM   11  N10 UNL     1      14.180  19.476  19.483  1.00  0.00    -0.151 N 
ATOM     12  H2  UNL     1      13.902  18.693  17.127  1.00  0.00     0.178 HD
HETATM   13  C19 UNL     1      14.342  19.959  20.847  1.00  0.00     0.151 C 
HETATM   14  C22 UNL     1      14.287  18.052  19.584  1.00  0.00     0.238 C 
HETATM   15  C20 UNL     1      13.557  18.908  21.625  1.00  0.00     0.030 C 
HETATM   16  C21 UNL     1      14.052  17.623  20.981  1.00  0.00     0.105 C 
HETATM   17  O3  UNL     1      14.549  17.334  18.568  1.00  0.00    -0.273 OA
ATOM     18  H3  UNL     1      12.977  22.126  18.404  1.00  0.00     0.186 HD
BRANCH  10  19
HETATM   19  C5  UNL     1      13.623  20.501  15.979  1.00  0.00     0.200 C 
BRANCH  19  20
HETATM   20  C4  UNL     1      12.600  19.834  15.152  1.00  0.00     0.242 C 
HETATM   21  N1  UNL     1      12.897  18.962  14.086  1.00  0.00    -0.356 N 
ATOM     22  H1  UNL     1      13.869  18.764  13.852  1.00  0.00     0.162 HD
HETATM   23  O1  UNL     1      11.371  20.075  15.431  1.00  0.00    -0.271 OA
BRANCH  21  24
HETATM   24  C3  UNL     1      11.841  18.344  13.322  1.00  0.00     0.149 C 
BRANCH  24  25
HETATM   25  C2  UNL     1      12.398  17.472  12.256  1.00  0.00    -0.018 C 
HETATM   26  C1  UNL     1      12.798  16.245  12.552  1.00  0.00     0.008 C 
ENDBRANCH  24  25
ENDBRANCH  21  24
ENDBRANCH  19  20
BRANCH  19  27
HETATM   27  C6  UNL     1      14.931  20.700  15.261  1.00  0.00     0.108 C 
BRANCH  27  28
HETATM   28  S1  UNL     1      15.334  22.390  14.886  1.00  0.00    -0.171 SA
HETATM   29  C7  UNL     1      17.082  22.750  15.247  1.00  0.00     0.089 C 
ENDBRANCH  27  28
ENDBRANCH  19  27
ENDBRANCH  10  19
ENDBRANCH   1   8
BRANCH   6  30
HETATM   30  C11 UNL     1      18.701  23.932  19.199  1.00  0.00     0.076 C 
BRANCH  30  31
HETATM   31  C12 UNL     1      19.577  22.707  19.140  1.00  0.00     0.080 C 
BRANCH  31  32
HETATM   32  S2  UNL     1      20.788  22.867  20.503  1.00  0.00    -0.168 SA
BRANCH  32  33
HETATM   33  C13 UNL     1      22.430  23.035  19.763  1.00  0.00     0.081 C 
BRANCH  33  34
HETATM   34  C14 UNL     1      22.937  24.453  19.919  1.00  0.00     0.088 C 
BRANCH  34  35
HETATM   35  C15 UNL     1      22.106  25.402  19.134  1.00  0.00     0.113 A 
HETATM   36  N6  UNL     1      21.638  26.551  19.650  1.00  0.00    -0.274 N 
HETATM   37  N7  UNL     1      20.939  27.174  18.711  1.00  0.00    -0.130 N 
ATOM     38  H6  UNL     1      21.794  26.887  20.601  1.00  0.00     0.189 HD
HETATM   39  C16 UNL     1      20.932  26.458  17.575  1.00  0.00     0.700 A 
ATOM     40  H7  UNL     1      20.471  28.071  18.835  1.00  0.00     0.205 HD
HETATM   41  N9  UNL     1      21.676  25.353  17.878  1.00  0.00    -0.178 N 
ATOM     42  H9  UNL     1      21.874  24.593  17.227  1.00  0.00     0.185 HD
BRANCH  39  43
HETATM   43  N8  UNL     1      20.370  26.718  16.444  1.00  0.00    -0.159 N 
HETATM   44  C17 UNL     1      21.055  27.570  15.526  1.00  0.00     0.232 C 
HETATM   45  C18 UNL     1      22.248  27.115  14.765  1.00  0.00     0.118 C 
HETATM   46  O2  UNL     1      20.648  28.747  15.345  1.00  0.00    -0.273 OA
ATOM     47  H8  UNL     1      19.458  26.323  16.212  1.00  0.00     0.187 HD
ENDBRANCH  39  43
ENDBRANCH  34  35
ENDBRANCH  33  34
ENDBRANCH  32  33
ENDBRANCH  31  32
ENDBRANCH  30  31
ENDBRANCH   6  30
TORSDOF 14
ENDMDL
