MODEL 1
REMARK VINA RESULT: -8.982505391      0.000      0.000
REMARK  12 active torsions:
REMARK  status: ('A' for Active; 'I' for Inactive)
REMARK    1  A    between atoms: S1_2  and  C2_3 
REMARK    2  A    between atoms: C2_3  and  C3_4 
REMARK    3  A    between atoms: C3_4  and  C4_5 
REMARK    4  A    between atoms: C4_5  and  N1_6 
REMARK    5  A    between atoms: C4_5  and  C16_23 
REMARK       I    between atoms: N1_6  and  C5_8 
REMARK    6  A    between atoms: C5_8  and  C6_10 
REMARK       I    between atoms: N2_14  and  C10_15 
REMARK    7  A    between atoms: C10_15  and  C11_17 
REMARK    8  A    between atoms: C11_17  and  C12_19 
REMARK       I    between atoms: C16_23  and  N3_25 
REMARK    9  A    between atoms: N3_25  and  C17_27 
REMARK   10  A    between atoms: C17_27  and  C19_29 
REMARK       I    between atoms: C19_29  and  N4_31 
REMARK       I    between atoms: N4_31  and  C20_33 
REMARK   11  A    between atoms: C20_33  and  C21_35 
REMARK   12  A    between atoms: C21_35  and  N5_36 
REMARK       I    between atoms: N5_36  and  C22_38 
ROOT
HETATM    1  C4  UNL     1      16.312  22.153  17.919  1.00  0.00     0.081 C 
ENDROOT
BRANCH   1   2
HETATM    2  C3  UNL     1      15.214  22.940  17.307  1.00  0.00     0.073 C 
BRANCH   2   3
HETATM    3  C2  UNL     1      14.711  22.588  15.968  1.00  0.00     0.080 C 
BRANCH   3   4
HETATM    4  S1  UNL     1      15.849  21.873  14.793  1.00  0.00    -0.173 SA
HETATM    5  C1  UNL     1      15.070  21.360  13.251  1.00  0.00     0.089 C 
ENDBRANCH   3   4
ENDBRANCH   2   3
ENDBRANCH   1   2
BRANCH   1   6
HETATM    6  N1  UNL     1      17.261  22.823  18.699  1.00  0.00    -0.324 N 
HETATM    7  C5  UNL     1      18.569  22.565  19.111  1.00  0.00     0.245 C 
HETATM    8  O1  UNL     1      19.176  21.535  18.864  1.00  0.00    -0.271 OA
ATOM      9  H1  UNL     1      16.913  23.716  19.050  1.00  0.00     0.169 HD
BRANCH   7  10
HETATM   10  C6  UNL     1      19.265  23.644  19.905  1.00  0.00     0.180 C 
HETATM   11  C7  UNL     1      19.898  23.081  21.122  1.00  0.00     0.037 C 
HETATM   12  C8  UNL     1      21.388  23.272  20.860  1.00  0.00     0.022 C 
HETATM   13  C9  UNL     1      21.434  24.492  19.967  1.00  0.00     0.127 C 
HETATM   14  N2  UNL     1      20.215  24.403  19.212  1.00  0.00    -0.332 N 
HETATM   15  C10 UNL     1      20.057  25.093  17.984  1.00  0.00     0.291 C 
HETATM   16  O2  UNL     1      21.128  25.586  17.447  1.00  0.00    -0.264 OA
BRANCH  15  17
HETATM   17  C11 UNL     1      18.844  25.315  17.249  1.00  0.00     0.224 C 
HETATM   18  O3  UNL     1      17.775  25.748  17.756  1.00  0.00    -0.286 OA
BRANCH  17  19
HETATM   19  C12 UNL     1      18.778  25.025  15.786  1.00  0.00     0.019 C 
HETATM   20  C13 UNL     1      17.341  25.242  15.293  1.00  0.00     0.023 C 
HETATM   21  C14 UNL     1      19.149  23.616  15.499  1.00  0.00     0.023 C 
HETATM   22  C15 UNL     1      19.628  25.993  14.988  1.00  0.00     0.023 C 
ENDBRANCH  17  19
ENDBRANCH  15  17
ENDBRANCH   7  10
ENDBRANCH   1   6
BRANCH   1  23
HETATM   23  C16 UNL     1      15.830  20.797  18.371  1.00  0.00     0.264 C 
HETATM   24  O4  UNL     1      16.163  19.719  17.828  1.00  0.00    -0.266 OA
HETATM   25  N3  UNL     1      14.936  20.638  19.475  1.00  0.00    -0.343 N 
ATOM     26  H3  UNL     1      14.637  21.463  19.995  1.00  0.00     0.163 HD
BRANCH  25  27
HETATM   27  C17 UNL     1      14.441  19.325  19.876  1.00  0.00     0.173 C 
HETATM   28  C18 UNL     1      14.249  19.222  21.375  1.00  0.00     0.042 C 
BRANCH  27  29
HETATM   29  C19 UNL     1      13.148  19.148  19.211  1.00  0.00     0.246 C 
HETATM   30  O5  UNL     1      12.091  18.974  19.924  1.00  0.00    -0.271 OA
HETATM   31  N4  UNL     1      12.938  19.152  17.790  1.00  0.00    -0.294 N 
HETATM   32  C20 UNL     1      11.625  18.947  17.266  1.00  0.00     0.252 C 
ATOM     33  H4  UNL     1      13.724  19.302  17.157  1.00  0.00     0.171 HD
HETATM   34  O6  UNL     1      10.684  18.744  18.039  1.00  0.00    -0.270 OA
BRANCH  32  35
HETATM   35  C21 UNL     1      11.366  18.967  15.792  1.00  0.00     0.114 C 
HETATM   36  C24 UNL     1      12.233  19.983  15.111  1.00  0.00     0.041 C 
HETATM   37  C25 UNL     1      11.380  21.152  14.727  1.00  0.00     0.003 C 
HETATM   38  C26 UNL     1       9.949  20.750  14.904  1.00  0.00     0.003 C 
HETATM   39  C27 UNL     1       9.934  19.391  15.524  1.00  0.00     0.041 C 
BRANCH  35  40
HETATM   40  N5  UNL     1      11.635  17.661  15.229  1.00  0.00    -0.343 N 
HETATM   41  C22 UNL     1      10.730  16.580  15.202  1.00  0.00     0.214 C 
HETATM   42  C23 UNL     1      11.073  15.259  14.601  1.00  0.00     0.117 C 
HETATM   43  O7  UNL     1       9.578  16.692  15.690  1.00  0.00    -0.274 OA
ATOM     44  H5  UNL     1      12.557  17.510  14.818  1.00  0.00     0.163 HD
ENDBRANCH  35  40
ENDBRANCH  32  35
ENDBRANCH  27  29
ENDBRANCH  25  27
ENDBRANCH   1  23
TORSDOF 12
ENDMDL
MODEL 2
REMARK VINA RESULT: -8.842150040      2.613     10.407
REMARK  12 active torsions:
REMARK  status: ('A' for Active; 'I' for Inactive)
REMARK    1  A    between atoms: S1_2  and  C2_3 
REMARK    2  A    between atoms: C2_3  and  C3_4 
REMARK    3  A    between atoms: C3_4  and  C4_5 
REMARK    4  A    between atoms: C4_5  and  N1_6 
REMARK    5  A    between atoms: C4_5  and  C16_23 
REMARK       I    between atoms: N1_6  and  C5_8 
REMARK    6  A    between atoms: C5_8  and  C6_10 
REMARK       I    between atoms: N2_14  and  C10_15 
REMARK    7  A    between atoms: C10_15  and  C11_17 
REMARK    8  A    between atoms: C11_17  and  C12_19 
REMARK       I    between atoms: C16_23  and  N3_25 
REMARK    9  A    between atoms: N3_25  and  C17_27 
REMARK   10  A    between atoms: C17_27  and  C19_29 
REMARK       I    between atoms: C19_29  and  N4_31 
REMARK       I    between atoms: N4_31  and  C20_33 
REMARK   11  A    between atoms: C20_33  and  C21_35 
REMARK   12  A    between atoms: C21_35  and  N5_36 
REMARK       I    between atoms: N5_36  and  C22_38 
ROOT
HETATM    1  C4  UNL     1      17.309  23.338  17.260  1.00  0.00     0.081 C 
ENDROOT
BRANCH   1   2
HETATM    2  C3  UNL     1      17.351  23.922  18.623  1.00  0.00     0.073 C 
BRANCH   2   3
HETATM    3  C2  UNL     1      18.455  23.584  19.538  1.00  0.00     0.080 C 
BRANCH   3   4
HETATM    4  S1  UNL     1      19.178  21.956  19.433  1.00  0.00    -0.173 SA
HETATM    5  C1  UNL     1      20.242  21.545  20.828  1.00  0.00     0.089 C 
ENDBRANCH   3   4
ENDBRANCH   2   3
ENDBRANCH   1   2
BRANCH   1   6
HETATM    6  N1  UNL     1      16.062  23.054  16.693  1.00  0.00    -0.324 N 
HETATM    7  C5  UNL     1      15.602  22.217  15.676  1.00  0.00     0.245 C 
HETATM    8  O1  UNL     1      16.325  21.526  14.975  1.00  0.00    -0.271 OA
ATOM      9  H1  UNL     1      15.309  23.587  17.127  1.00  0.00     0.169 HD
BRANCH   7  10
HETATM   10  C6  UNL     1      14.110  22.167  15.449  1.00  0.00     0.180 C 
HETATM   11  C7  UNL     1      13.788  22.342  14.012  1.00  0.00     0.037 C 
HETATM   12  C8  UNL     1      13.198  20.991  13.620  1.00  0.00     0.022 C 
HETATM   13  C9  UNL     1      12.589  20.488  14.910  1.00  0.00     0.127 C 
HETATM   14  N2  UNL     1      13.451  21.028  15.924  1.00  0.00    -0.332 N 
HETATM   15  C10 UNL     1      13.499  20.469  17.226  1.00  0.00     0.291 C 
HETATM   16  O2  UNL     1      12.942  19.310  17.386  1.00  0.00    -0.264 OA
BRANCH  15  17
HETATM   17  C11 UNL     1      14.098  21.030  18.404  1.00  0.00     0.224 C 
HETATM   18  O3  UNL     1      13.883  22.199  18.821  1.00  0.00    -0.286 OA
BRANCH  17  19
HETATM   19  C12 UNL     1      15.053  20.230  19.225  1.00  0.00     0.019 C 
HETATM   20  C13 UNL     1      15.638  21.121  20.329  1.00  0.00     0.023 C 
HETATM   21  C14 UNL     1      16.182  19.726  18.403  1.00  0.00     0.023 C 
HETATM   22  C15 UNL     1      14.352  19.100  19.951  1.00  0.00     0.023 C 
ENDBRANCH  17  19
ENDBRANCH  15  17
ENDBRANCH   7  10
ENDBRANCH   1   6
BRANCH   1  23
HETATM   23  C16 UNL     1      18.390  23.916  16.382  1.00  0.00     0.264 C 
HETATM   24  O4  UNL     1      19.301  23.237  15.855  1.00  0.00    -0.266 OA
HETATM   25  N3  UNL     1      18.461  25.311  16.083  1.00  0.00    -0.343 N 
ATOM     26  H3  UNL     1      17.741  25.935  16.447  1.00  0.00     0.163 HD
BRANCH  25  27
HETATM   27  C17 UNL     1      19.537  25.866  15.268  1.00  0.00     0.173 C 
HETATM   28  C18 UNL     1      19.044  26.952  14.334  1.00  0.00     0.042 C 
BRANCH  27  29
HETATM   29  C19 UNL     1      20.511  26.439  16.201  1.00  0.00     0.246 C 
HETATM   30  O5  UNL     1      20.728  27.707  16.184  1.00  0.00    -0.271 OA
HETATM   31  N4  UNL     1      21.271  25.697  17.167  1.00  0.00    -0.294 N 
HETATM   32  C20 UNL     1      22.208  26.375  18.006  1.00  0.00     0.252 C 
ATOM     33  H4  UNL     1      21.143  24.688  17.253  1.00  0.00     0.171 HD
HETATM   34  O6  UNL     1      22.372  27.591  17.879  1.00  0.00    -0.270 OA
BRANCH  32  35
HETATM   35  C21 UNL     1      23.000  25.636  19.039  1.00  0.00     0.114 C 
HETATM   36  C24 UNL     1      22.199  24.513  19.625  1.00  0.00     0.041 C 
HETATM   37  C25 UNL     1      21.781  24.901  21.009  1.00  0.00     0.003 C 
HETATM   38  C26 UNL     1      22.552  26.126  21.391  1.00  0.00     0.003 C 
HETATM   39  C27 UNL     1      23.334  26.561  20.194  1.00  0.00     0.041 C 
BRANCH  35  40
HETATM   40  N5  UNL     1      24.203  25.097  18.440  1.00  0.00    -0.343 N 
HETATM   41  C22 UNL     1      25.172  24.322  19.109  1.00  0.00     0.214 C 
HETATM   42  C23 UNL     1      26.390  23.794  18.428  1.00  0.00     0.117 C 
HETATM   43  O7  UNL     1      25.044  24.039  20.326  1.00  0.00    -0.274 OA
ATOM     44  H5  UNL     1      24.363  25.295  17.452  1.00  0.00     0.163 HD
ENDBRANCH  35  40
ENDBRANCH  32  35
ENDBRANCH  27  29
ENDBRANCH  25  27
ENDBRANCH   1  23
TORSDOF 12
ENDMDL
MODEL 3
REMARK VINA RESULT: -8.821702860      2.112      9.147
REMARK  12 active torsions:
REMARK  status: ('A' for Active; 'I' for Inactive)
REMARK    1  A    between atoms: S1_2  and  C2_3 
REMARK    2  A    between atoms: C2_3  and  C3_4 
REMARK    3  A    between atoms: C3_4  and  C4_5 
REMARK    4  A    between atoms: C4_5  and  N1_6 
REMARK    5  A    between atoms: C4_5  and  C16_23 
REMARK       I    between atoms: N1_6  and  C5_8 
REMARK    6  A    between atoms: C5_8  and  C6_10 
REMARK       I    between atoms: N2_14  and  C10_15 
REMARK    7  A    between atoms: C10_15  and  C11_17 
REMARK    8  A    between atoms: C11_17  and  C12_19 
REMARK       I    between atoms: C16_23  and  N3_25 
REMARK    9  A    between atoms: N3_25  and  C17_27 
REMARK   10  A    between atoms: C17_27  and  C19_29 
REMARK       I    between atoms: C19_29  and  N4_31 
REMARK       I    between atoms: N4_31  and  C20_33 
REMARK   11  A    between atoms: C20_33  and  C21_35 
REMARK   12  A    between atoms: C21_35  and  N5_36 
REMARK       I    between atoms: N5_36  and  C22_38 
ROOT
HETATM    1  C4  UNL     1      16.928  20.360  18.461  1.00  0.00     0.081 C 
ENDROOT
BRANCH   1   2
HETATM    2  C3  UNL     1      17.142  21.393  19.504  1.00  0.00     0.073 C 
BRANCH   2   3
HETATM    3  C2  UNL     1      18.274  22.330  19.394  1.00  0.00     0.080 C 
BRANCH   3   4
HETATM    4  S1  UNL     1      17.947  24.079  19.527  1.00  0.00    -0.173 SA
HETATM    5  C1  UNL     1      16.502  24.618  18.596  1.00  0.00     0.089 C 
ENDBRANCH   3   4
ENDBRANCH   2   3
ENDBRANCH   1   2
BRANCH   1   6
HETATM    6  N1  UNL     1      15.814  19.520  18.572  1.00  0.00    -0.324 N 
HETATM    7  C5  UNL     1      14.538  19.632  19.125  1.00  0.00     0.245 C 
HETATM    8  O1  UNL     1      14.139  20.609  19.740  1.00  0.00    -0.271 OA
ATOM      9  H1  UNL     1      15.973  18.608  18.146  1.00  0.00     0.169 HD
BRANCH   7  10
HETATM   10  C6  UNL     1      13.601  18.464  18.934  1.00  0.00     0.180 C 
HETATM   11  C7  UNL     1      13.594  17.590  20.132  1.00  0.00     0.037 C 
HETATM   12  C8  UNL     1      12.177  17.750  20.672  1.00  0.00     0.022 C 
HETATM   13  C9  UNL     1      11.363  18.057  19.434  1.00  0.00     0.127 C 
HETATM   14  N2  UNL     1      12.280  18.781  18.599  1.00  0.00    -0.332 N 
HETATM   15  C10 UNL     1      11.821  19.613  17.547  1.00  0.00     0.291 C 
HETATM   16  O2  UNL     1      10.556  19.898  17.536  1.00  0.00    -0.264 OA
BRANCH  15  17
HETATM   17  C11 UNL     1      12.589  20.189  16.480  1.00  0.00     0.224 C 
HETATM   18  O3  UNL     1      13.560  20.973  16.647  1.00  0.00    -0.286 OA
BRANCH  17  19
HETATM   19  C12 UNL     1      12.260  19.883  15.056  1.00  0.00     0.019 C 
HETATM   20  C13 UNL     1      11.479  21.061  14.456  1.00  0.00     0.023 C 
HETATM   21  C14 UNL     1      11.408  18.672  14.947  1.00  0.00     0.023 C 
HETATM   22  C15 UNL     1      13.510  19.757  14.210  1.00  0.00     0.023 C 
ENDBRANCH  17  19
ENDBRANCH  15  17
ENDBRANCH   7  10
ENDBRANCH   1   6
BRANCH   1  23
HETATM   23  C16 UNL     1      17.319  20.869  17.097  1.00  0.00     0.264 C 
HETATM   24  O4  UNL     1      18.429  20.648  16.560  1.00  0.00    -0.266 OA
HETATM   25  N3  UNL     1      16.436  21.660  16.298  1.00  0.00    -0.343 N 
ATOM     26  H3  UNL     1      15.499  21.864  16.646  1.00  0.00     0.163 HD
BRANCH  25  27
HETATM   27  C17 UNL     1      16.842  22.184  14.998  1.00  0.00     0.173 C 
HETATM   28  C18 UNL     1      15.688  22.234  14.018  1.00  0.00     0.042 C 
BRANCH  27  29
HETATM   29  C19 UNL     1      17.334  23.544  15.233  1.00  0.00     0.246 C 
HETATM   30  O5  UNL     1      16.507  24.529  15.191  1.00  0.00    -0.271 OA
HETATM   31  N4  UNL     1      18.697  23.895  15.518  1.00  0.00    -0.294 N 
HETATM   32  C20 UNL     1      19.052  25.266  15.707  1.00  0.00     0.252 C 
ATOM     33  H4  UNL     1      19.410  23.168  15.585  1.00  0.00     0.171 HD
HETATM   34  O6  UNL     1      18.187  26.141  15.602  1.00  0.00    -0.270 OA
BRANCH  32  35
HETATM   35  C21 UNL     1      20.458  25.667  16.027  1.00  0.00     0.114 C 
HETATM   36  C24 UNL     1      20.514  27.086  16.507  1.00  0.00     0.041 C 
HETATM   37  C25 UNL     1      21.098  27.931  15.418  1.00  0.00     0.003 C 
HETATM   38  C26 UNL     1      21.667  27.011  14.383  1.00  0.00     0.003 C 
HETATM   39  C27 UNL     1      21.309  25.614  14.772  1.00  0.00     0.041 C 
BRANCH  35  40
HETATM   40  N5  UNL     1      20.993  24.798  17.055  1.00  0.00    -0.343 N 
HETATM   41  C22 UNL     1      21.245  25.173  18.391  1.00  0.00     0.214 C 
HETATM   42  C23 UNL     1      21.795  24.223  19.401  1.00  0.00     0.117 C 
HETATM   43  O7  UNL     1      21.010  26.341  18.789  1.00  0.00    -0.274 OA
ATOM     44  H5  UNL     1      21.204  23.836  16.791  1.00  0.00     0.163 HD
ENDBRANCH  35  40
ENDBRANCH  32  35
ENDBRANCH  27  29
ENDBRANCH  25  27
ENDBRANCH   1  23
TORSDOF 12
ENDMDL
MODEL 4
REMARK VINA RESULT: -8.665279654      3.371     10.367
REMARK  12 active torsions:
REMARK  status: ('A' for Active; 'I' for Inactive)
REMARK    1  A    between atoms: S1_2  and  C2_3 
REMARK    2  A    between atoms: C2_3  and  C3_4 
REMARK    3  A    between atoms: C3_4  and  C4_5 
REMARK    4  A    between atoms: C4_5  and  N1_6 
REMARK    5  A    between atoms: C4_5  and  C16_23 
REMARK       I    between atoms: N1_6  and  C5_8 
REMARK    6  A    between atoms: C5_8  and  C6_10 
REMARK       I    between atoms: N2_14  and  C10_15 
REMARK    7  A    between atoms: C10_15  and  C11_17 
REMARK    8  A    between atoms: C11_17  and  C12_19 
REMARK       I    between atoms: C16_23  and  N3_25 
REMARK    9  A    between atoms: N3_25  and  C17_27 
REMARK   10  A    between atoms: C17_27  and  C19_29 
REMARK       I    between atoms: C19_29  and  N4_31 
REMARK       I    between atoms: N4_31  and  C20_33 
REMARK   11  A    between atoms: C20_33  and  C21_35 
REMARK   12  A    between atoms: C21_35  and  N5_36 
REMARK       I    between atoms: N5_36  and  C22_38 
ROOT
HETATM    1  C4  UNL     1      19.083  23.486  17.653  1.00  0.00     0.081 C 
ENDROOT
BRANCH   1   2
HETATM    2  C3  UNL     1      19.716  23.613  16.317  1.00  0.00     0.073 C 
BRANCH   2   3
HETATM    3  C2  UNL     1      19.661  24.895  15.592  1.00  0.00     0.080 C 
BRANCH   3   4
HETATM    4  S1  UNL     1      18.070  25.664  15.344  1.00  0.00    -0.173 SA
HETATM    5  C1  UNL     1      17.959  26.622  13.822  1.00  0.00     0.089 C 
ENDBRANCH   3   4
ENDBRANCH   2   3
ENDBRANCH   1   2
BRANCH   1   6
HETATM    6  N1  UNL     1      17.960  22.662  17.784  1.00  0.00    -0.324 N 
HETATM    7  C5  UNL     1      17.639  21.356  17.413  1.00  0.00     0.245 C 
HETATM    8  O1  UNL     1      18.376  20.623  16.772  1.00  0.00    -0.271 OA
ATOM      9  H1  UNL     1      17.193  23.128  18.268  1.00  0.00     0.169 HD
BRANCH   7  10
HETATM   10  C6  UNL     1      16.292  20.830  17.848  1.00  0.00     0.180 C 
HETATM   11  C7  UNL     1      16.337  20.365  19.256  1.00  0.00     0.037 C 
HETATM   12  C8  UNL     1      15.416  21.345  19.975  1.00  0.00     0.022 C 
HETATM   13  C9  UNL     1      14.433  21.754  18.902  1.00  0.00     0.127 C 
HETATM   14  N2  UNL     1      15.210  21.702  17.695  1.00  0.00    -0.332 N 
HETATM   15  C10 UNL     1      14.810  22.404  16.529  1.00  0.00     0.291 C 
HETATM   16  O2  UNL     1      13.876  23.290  16.671  1.00  0.00    -0.264 OA
BRANCH  15  17
HETATM   17  C11 UNL     1      15.319  22.256  15.195  1.00  0.00     0.224 C 
HETATM   18  O3  UNL     1      16.430  22.704  14.805  1.00  0.00    -0.286 OA
BRANCH  17  19
HETATM   19  C12 UNL     1      14.523  21.543  14.153  1.00  0.00     0.019 C 
HETATM   20  C13 UNL     1      13.293  22.387  13.793  1.00  0.00     0.023 C 
HETATM   21  C14 UNL     1      14.042  20.228  14.648  1.00  0.00     0.023 C 
HETATM   22  C15 UNL     1      15.301  21.395  12.862  1.00  0.00     0.023 C 
ENDBRANCH  17  19
ENDBRANCH  15  17
ENDBRANCH   7  10
ENDBRANCH   1   6
BRANCH   1  23
HETATM   23  C16 UNL     1      20.116  23.485  18.751  1.00  0.00     0.264 C 
HETATM   24  O4  UNL     1      19.912  23.040  19.904  1.00  0.00    -0.266 OA
HETATM   25  N3  UNL     1      21.433  24.005  18.556  1.00  0.00    -0.343 N 
ATOM     26  H3  UNL     1      21.696  24.362  17.638  1.00  0.00     0.163 HD
BRANCH  25  27
HETATM   27  C17 UNL     1      22.410  24.040  19.640  1.00  0.00     0.173 C 
HETATM   28  C18 UNL     1      23.281  22.800  19.662  1.00  0.00     0.042 C 
BRANCH  27  29
HETATM   29  C19 UNL     1      23.252  25.215  19.403  1.00  0.00     0.246 C 
HETATM   30  O5  UNL     1      23.898  25.736  20.387  1.00  0.00    -0.271 OA
HETATM   31  N4  UNL     1      23.435  25.863  18.135  1.00  0.00    -0.294 N 
HETATM   32  C20 UNL     1      24.270  27.019  18.042  1.00  0.00     0.252 C 
ATOM     33  H4  UNL     1      22.970  25.499  17.302  1.00  0.00     0.171 HD
HETATM   34  O6  UNL     1      24.811  27.465  19.058  1.00  0.00    -0.270 OA
BRANCH  32  35
HETATM   35  C21 UNL     1      24.501  27.706  16.732  1.00  0.00     0.114 C 
HETATM   36  C24 UNL     1      25.063  26.753  15.721  1.00  0.00     0.041 C 
HETATM   37  C25 UNL     1      26.513  27.073  15.524  1.00  0.00     0.003 C 
HETATM   38  C26 UNL     1      26.783  28.388  16.185  1.00  0.00     0.003 C 
HETATM   39  C27 UNL     1      25.537  28.801  16.898  1.00  0.00     0.041 C 
BRANCH  35  40
HETATM   40  N5  UNL     1      23.252  28.242  16.234  1.00  0.00    -0.343 N 
HETATM   41  C22 UNL     1      22.332  27.549  15.420  1.00  0.00     0.214 C 
HETATM   42  C23 UNL     1      21.059  28.163  14.944  1.00  0.00     0.117 C 
HETATM   43  O7  UNL     1      22.553  26.367  15.059  1.00  0.00    -0.274 OA
ATOM     44  H5  UNL     1      23.017  29.200  16.493  1.00  0.00     0.163 HD
ENDBRANCH  35  40
ENDBRANCH  32  35
ENDBRANCH  27  29
ENDBRANCH  25  27
ENDBRANCH   1  23
TORSDOF 12
ENDMDL
MODEL 5
REMARK VINA RESULT: -8.659571206      2.227      4.587
REMARK  12 active torsions:
REMARK  status: ('A' for Active; 'I' for Inactive)
REMARK    1  A    between atoms: S1_2  and  C2_3 
REMARK    2  A    between atoms: C2_3  and  C3_4 
REMARK    3  A    between atoms: C3_4  and  C4_5 
REMARK    4  A    between atoms: C4_5  and  N1_6 
REMARK    5  A    between atoms: C4_5  and  C16_23 
REMARK       I    between atoms: N1_6  and  C5_8 
REMARK    6  A    between atoms: C5_8  and  C6_10 
REMARK       I    between atoms: N2_14  and  C10_15 
REMARK    7  A    between atoms: C10_15  and  C11_17 
REMARK    8  A    between atoms: C11_17  and  C12_19 
REMARK       I    between atoms: C16_23  and  N3_25 
REMARK    9  A    between atoms: N3_25  and  C17_27 
REMARK   10  A    between atoms: C17_27  and  C19_29 
REMARK       I    between atoms: C19_29  and  N4_31 
REMARK       I    between atoms: N4_31  and  C20_33 
REMARK   11  A    between atoms: C20_33  and  C21_35 
REMARK   12  A    between atoms: C21_35  and  N5_36 
REMARK       I    between atoms: N5_36  and  C22_38 
ROOT
HETATM    1  C4  UNL     1      18.325  22.928  15.585  1.00  0.00     0.081 C 
ENDROOT
BRANCH   1   2
HETATM    2  C3  UNL     1      16.937  23.368  15.301  1.00  0.00     0.073 C 
BRANCH   2   3
HETATM    3  C2  UNL     1      15.813  22.435  15.491  1.00  0.00     0.080 C 
BRANCH   3   4
HETATM    4  S1  UNL     1      14.528  22.875  16.648  1.00  0.00    -0.173 SA
HETATM    5  C1  UNL     1      15.123  23.810  18.069  1.00  0.00     0.089 C 
ENDBRANCH   3   4
ENDBRANCH   2   3
ENDBRANCH   1   2
BRANCH   1   6
HETATM    6  N1  UNL     1      19.353  23.875  15.519  1.00  0.00    -0.324 N 
HETATM    7  C5  UNL     1      19.429  25.265  15.619  1.00  0.00     0.245 C 
HETATM    8  O1  UNL     1      18.462  25.998  15.752  1.00  0.00    -0.271 OA
ATOM      9  H1  UNL     1      20.265  23.447  15.360  1.00  0.00     0.169 HD
BRANCH   7  10
HETATM   10  C6  UNL     1      20.806  25.883  15.569  1.00  0.00     0.180 C 
HETATM   11  C7  UNL     1      21.059  26.503  14.245  1.00  0.00     0.037 C 
HETATM   12  C8  UNL     1      21.156  27.989  14.570  1.00  0.00     0.022 C 
HETATM   13  C9  UNL     1      21.667  28.005  15.993  1.00  0.00     0.127 C 
HETATM   14  N2  UNL     1      21.100  26.817  16.568  1.00  0.00    -0.332 N 
HETATM   15  C10 UNL     1      20.973  26.665  17.972  1.00  0.00     0.291 C 
HETATM   16  O2  UNL     1      21.142  27.728  18.694  1.00  0.00    -0.264 OA
BRANCH  15  17
HETATM   17  C11 UNL     1      20.674  25.467  18.704  1.00  0.00     0.224 C 
HETATM   18  O3  UNL     1      19.577  24.852  18.643  1.00  0.00    -0.286 OA
BRANCH  17  19
HETATM   19  C12 UNL     1      21.686  24.866  19.622  1.00  0.00     0.019 C 
HETATM   20  C13 UNL     1      21.767  23.355  19.363  1.00  0.00     0.023 C 
HETATM   21  C14 UNL     1      21.309  25.063  21.045  1.00  0.00     0.023 C 
HETATM   22  C15 UNL     1      23.077  25.397  19.342  1.00  0.00     0.023 C 
ENDBRANCH  17  19
ENDBRANCH  15  17
ENDBRANCH   7  10
ENDBRANCH   1   6
BRANCH   1  23
HETATM   23  C16 UNL     1      18.360  21.896  16.684  1.00  0.00     0.264 C 
HETATM   24  O4  UNL     1      18.385  20.661  16.483  1.00  0.00    -0.266 OA
HETATM   25  N3  UNL     1      18.363  22.259  18.067  1.00  0.00    -0.343 N 
ATOM     26  H3  UNL     1      18.374  23.246  18.322  1.00  0.00     0.163 HD
BRANCH  25  27
HETATM   27  C17 UNL     1      18.352  21.251  19.122  1.00  0.00     0.173 C 
HETATM   28  C18 UNL     1      19.098  21.712  20.358  1.00  0.00     0.042 C 
BRANCH  27  29
HETATM   29  C19 UNL     1      16.946  21.024  19.465  1.00  0.00     0.246 C 
HETATM   30  O5  UNL     1      16.435  21.641  20.472  1.00  0.00    -0.271 OA
HETATM   31  N4  UNL     1      16.051  20.150  18.759  1.00  0.00    -0.294 N 
HETATM   32  C20 UNL     1      14.703  20.000  19.210  1.00  0.00     0.252 C 
ATOM     33  H4  UNL     1      16.376  19.639  17.938  1.00  0.00     0.171 HD
HETATM   34  O6  UNL     1      14.325  20.607  20.216  1.00  0.00    -0.270 OA
BRANCH  32  35
HETATM   35  C21 UNL     1      13.737  19.116  18.485  1.00  0.00     0.114 C 
HETATM   36  C24 UNL     1      12.328  19.404  18.909  1.00  0.00     0.041 C 
HETATM   37  C25 UNL     1      11.859  18.283  19.784  1.00  0.00     0.003 C 
HETATM   38  C26 UNL     1      12.855  17.171  19.674  1.00  0.00     0.003 C 
HETATM   39  C27 UNL     1      13.995  17.664  18.845  1.00  0.00     0.041 C 
BRANCH  35  40
HETATM   40  N5  UNL     1      13.855  19.327  17.058  1.00  0.00    -0.343 N 
HETATM   41  C22 UNL     1      12.804  19.714  16.200  1.00  0.00     0.214 C 
HETATM   42  C23 UNL     1      12.997  19.918  14.735  1.00  0.00     0.117 C 
HETATM   43  O7  UNL     1      11.646  19.906  16.645  1.00  0.00    -0.274 OA
ATOM     44  H5  UNL     1      14.773  19.185  16.638  1.00  0.00     0.163 HD
ENDBRANCH  35  40
ENDBRANCH  32  35
ENDBRANCH  27  29
ENDBRANCH  25  27
ENDBRANCH   1  23
TORSDOF 12
ENDMDL
