MODEL 1
REMARK VINA RESULT: -6.108743747      0.000      0.000
REMARK  5 active torsions:
REMARK  status: ('A' for Active; 'I' for Inactive)
REMARK    1  A    between atoms: C2_2  and  O1_5 
REMARK    2  A    between atoms: O1_5  and  C5_6 
REMARK       I    between atoms: C5_6  and  N1_8 
REMARK    3  A    between atoms: N3_12  and  C7_13 
REMARK    4  A    between atoms: C8_19  and  N6_20 
REMARK    5  A    between atoms: C9_23  and  N7_24 
ROOT
HETATM    1  C5  UNL     1      24.421  19.627  53.826  1.00  0.00     0.391 C 
HETATM    2  O2  UNL     1      25.115  19.272  54.782  1.00  0.00    -0.236 OA
HETATM    3  N1  UNL     1      24.837  19.409  52.468  1.00  0.00    -0.130 N 
HETATM    4  N2  UNL     1      25.940  18.837  52.039  1.00  0.00    -0.114 N 
ATOM      5  H2  UNL     1      26.676  18.458  52.636  1.00  0.00     0.206 HD
HETATM    6  C6  UNL     1      25.953  18.826  50.691  1.00  0.00     0.746 A 
HETATM    7  N3  UNL     1      26.645  18.465  49.574  1.00  0.00     0.048 N 
HETATM    8  C9  UNL     1      25.946  18.823  48.467  1.00  0.00     0.714 A 
HETATM    9  N8  UNL     1      24.826  19.403  48.919  1.00  0.00    -0.106 N 
ATOM     10  H8  UNL     1      24.085  19.784  48.331  1.00  0.00     0.207 HD
HETATM   11  N9  UNL     1      24.826  19.407  50.242  1.00  0.00    -0.013 N 
HETATM   12  C10 UNL     1      24.153  19.758  51.360  1.00  0.00     0.387 A 
HETATM   13  O4  UNL     1      23.035  20.336  51.383  1.00  0.00    -0.242 OA
ENDROOT
BRANCH   7  14
HETATM   14  C7  UNL     1      27.896  17.818  49.574  1.00  0.00     0.214 A 
HETATM   15  N4  UNL     1      28.126  16.506  49.465  1.00  0.00    -0.220 N 
HETATM   16  O3  UNL     1      29.423  16.295  49.507  1.00  0.00    -0.153 OA
ATOM     17  H4  UNL     1      27.411  15.784  49.366  1.00  0.00     0.198 HD
HETATM   18  N5  UNL     1      30.069  17.419  49.641  1.00  0.00    -0.222 N 
HETATM   19  C8  UNL     1      29.128  18.412  49.687  1.00  0.00     0.169 A 
ATOM     20  H5  UNL     1      31.081  17.536  49.701  1.00  0.00     0.198 HD
BRANCH  19  21
HETATM   21  N6  UNL     1      29.390  19.649  49.813  1.00  0.00    -0.381 N 
ATOM     22  H62 UNL     1      29.288  20.341  49.071  1.00  0.00     0.157 HD
ATOM     23  H61 UNL     1      29.730  20.135  50.643  1.00  0.00     0.157 HD
ENDBRANCH  19  21
ENDBRANCH   7  14
BRANCH   8  24
HETATM   24  N7  UNL     1      26.300  18.635  47.221  1.00  0.00    -0.232 N 
ATOM     25  H72 UNL     1      27.158  18.948  46.764  1.00  0.00     0.174 HD
ATOM     26  H71 UNL     1      25.770  18.144  46.501  1.00  0.00     0.174 HD
ENDBRANCH   8  24
BRANCH   1  27
HETATM   27  O1  UNL     1      23.214  20.252  54.091  1.00  0.00    -0.292 OA
BRANCH  27  28
HETATM   28  C2  UNL     1      23.184  21.416  54.860  1.00  0.00     0.061 C 
HETATM   29  C1  UNL     1      24.409  22.277  54.688  1.00  0.00     0.046 C 
HETATM   30  C3  UNL     1      21.949  22.211  54.413  1.00  0.00     0.046 C 
HETATM   31  C4  UNL     1      23.003  21.155  56.334  1.00  0.00     0.046 C 
ENDBRANCH  27  28
ENDBRANCH   1  27
TORSDOF 5
ENDMDL
MODEL 2
REMARK VINA RESULT: -6.050918388      1.696      3.009
REMARK  5 active torsions:
REMARK  status: ('A' for Active; 'I' for Inactive)
REMARK    1  A    between atoms: C2_2  and  O1_5 
REMARK    2  A    between atoms: O1_5  and  C5_6 
REMARK       I    between atoms: C5_6  and  N1_8 
REMARK    3  A    between atoms: N3_12  and  C7_13 
REMARK    4  A    between atoms: C8_19  and  N6_20 
REMARK    5  A    between atoms: C9_23  and  N7_24 
ROOT
HETATM    1  C5  UNL     1      24.027  20.268  52.378  1.00  0.00     0.391 C 
HETATM    2  O2  UNL     1      22.956  20.442  51.791  1.00  0.00    -0.236 OA
HETATM    3  N1  UNL     1      25.150  19.645  51.734  1.00  0.00    -0.130 N 
HETATM    4  N2  UNL     1      25.229  19.187  50.504  1.00  0.00    -0.114 N 
ATOM      5  H2  UNL     1      24.475  19.214  49.818  1.00  0.00     0.206 HD
HETATM    6  C6  UNL     1      26.457  18.677  50.285  1.00  0.00     0.746 A 
HETATM    7  N3  UNL     1      27.281  18.070  49.386  1.00  0.00     0.048 N 
HETATM    8  C9  UNL     1      28.492  17.841  49.955  1.00  0.00     0.714 A 
HETATM    9  N8  UNL     1      28.397  18.313  51.206  1.00  0.00    -0.106 N 
ATOM     10  H8  UNL     1      29.145  18.291  51.900  1.00  0.00     0.207 HD
HETATM   11  N9  UNL     1      27.188  18.811  51.407  1.00  0.00    -0.013 N 
HETATM   12  C10 UNL     1      26.358  19.412  52.287  1.00  0.00     0.387 A 
HETATM   13  O4  UNL     1      26.654  19.722  53.471  1.00  0.00    -0.242 OA
ENDROOT
BRANCH   7  14
HETATM   14  C7  UNL     1      26.926  17.734  48.066  1.00  0.00     0.214 A 
HETATM   15  N4  UNL     1      26.198  16.686  47.668  1.00  0.00    -0.220 N 
HETATM   16  O3  UNL     1      26.085  16.717  46.358  1.00  0.00    -0.153 OA
ATOM     17  H4  UNL     1      25.795  15.976  48.281  1.00  0.00     0.198 HD
HETATM   18  N5  UNL     1      26.712  17.748  45.865  1.00  0.00    -0.222 N 
HETATM   19  C8  UNL     1      27.260  18.419  46.924  1.00  0.00     0.169 A 
ATOM     20  H5  UNL     1      26.782  18.004  44.881  1.00  0.00     0.198 HD
BRANCH  19  21
HETATM   21  N6  UNL     1      27.948  19.483  46.827  1.00  0.00    -0.381 N 
ATOM     22  H62 UNL     1      27.774  20.337  47.357  1.00  0.00     0.157 HD
ATOM     23  H61 UNL     1      28.756  19.653  46.227  1.00  0.00     0.157 HD
ENDBRANCH  19  21
ENDBRANCH   7  14
BRANCH   8  24
HETATM   24  N7  UNL     1      29.530  17.277  49.392  1.00  0.00    -0.232 N 
ATOM     25  H72 UNL     1      29.636  17.004  48.415  1.00  0.00     0.174 HD
ATOM     26  H71 UNL     1      30.407  17.019  49.846  1.00  0.00     0.174 HD
ENDBRANCH   8  24
BRANCH   1  27
HETATM   27  O1  UNL     1      24.128  20.692  53.693  1.00  0.00    -0.292 OA
BRANCH  27  28
HETATM   28  C2  UNL     1      23.341  20.100  54.680  1.00  0.00     0.061 C 
HETATM   29  C1  UNL     1      23.619  18.630  54.863  1.00  0.00     0.046 C 
HETATM   30  C3  UNL     1      23.650  20.832  55.993  1.00  0.00     0.046 C 
HETATM   31  C4  UNL     1      21.861  20.266  54.446  1.00  0.00     0.046 C 
ENDBRANCH  27  28
ENDBRANCH   1  27
TORSDOF 5
ENDMDL
MODEL 3
REMARK VINA RESULT: -6.025707829      0.920      1.100
REMARK  5 active torsions:
REMARK  status: ('A' for Active; 'I' for Inactive)
REMARK    1  A    between atoms: C2_2  and  O1_5 
REMARK    2  A    between atoms: O1_5  and  C5_6 
REMARK       I    between atoms: C5_6  and  N1_8 
REMARK    3  A    between atoms: N3_12  and  C7_13 
REMARK    4  A    between atoms: C8_19  and  N6_20 
REMARK    5  A    between atoms: C9_23  and  N7_24 
ROOT
HETATM    1  C5  UNL     1      24.344  20.315  53.909  1.00  0.00     0.391 C 
HETATM    2  O2  UNL     1      25.040  20.179  54.919  1.00  0.00    -0.236 OA
HETATM    3  N1  UNL     1      24.781  19.853  52.621  1.00  0.00    -0.130 N 
HETATM    4  N2  UNL     1      25.909  19.251  52.314  1.00  0.00    -0.114 N 
ATOM      5  H2  UNL     1      26.652  19.024  52.975  1.00  0.00     0.206 HD
HETATM    6  C6  UNL     1      25.936  18.980  50.994  1.00  0.00     0.746 A 
HETATM    7  N3  UNL     1      26.652  18.436  49.971  1.00  0.00     0.048 N 
HETATM    8  C9  UNL     1      25.953  18.545  48.813  1.00  0.00     0.714 A 
HETATM    9  N8  UNL     1      24.807  19.159  49.140  1.00  0.00    -0.106 N 
ATOM     10  H8  UNL     1      24.058  19.390  48.488  1.00  0.00     0.207 HD
HETATM   11  N9  UNL     1      24.793  19.419  50.437  1.00  0.00    -0.013 N 
HETATM   12  C10 UNL     1      24.097  19.955  51.464  1.00  0.00     0.387 A 
HETATM   13  O4  UNL     1      22.957  20.483  51.371  1.00  0.00    -0.242 OA
ENDROOT
BRANCH   7  14
HETATM   14  C7  UNL     1      27.926  17.850  50.100  1.00  0.00     0.214 A 
HETATM   15  N4  UNL     1      28.204  16.557  50.301  1.00  0.00    -0.220 N 
HETATM   16  O3  UNL     1      29.508  16.406  50.367  1.00  0.00    -0.153 OA
ATOM     17  H4  UNL     1      27.515  15.810  50.389  1.00  0.00     0.198 HD
HETATM   18  N5  UNL     1      30.114  17.551  50.219  1.00  0.00    -0.222 N 
HETATM   19  C8  UNL     1      29.137  18.494  50.046  1.00  0.00     0.169 A 
ATOM     20  H5  UNL     1      31.121  17.712  50.230  1.00  0.00     0.198 HD
BRANCH  19  21
HETATM   21  N6  UNL     1      29.354  19.734  49.870  1.00  0.00    -0.381 N 
ATOM     22  H62 UNL     1      29.906  20.123  49.106  1.00  0.00     0.157 HD
ATOM     23  H61 UNL     1      29.025  20.513  50.440  1.00  0.00     0.157 HD
ENDBRANCH  19  21
ENDBRANCH   7  14
BRANCH   8  24
HETATM   24  N7  UNL     1      26.326  18.133  47.628  1.00  0.00    -0.232 N 
ATOM     25  H72 UNL     1      25.931  18.397  46.725  1.00  0.00     0.174 HD
ATOM     26  H71 UNL     1      27.078  17.477  47.418  1.00  0.00     0.174 HD
ENDBRANCH   8  24
BRANCH   1  27
HETATM   27  O1  UNL     1      23.112  20.933  54.045  1.00  0.00    -0.292 OA
BRANCH  27  28
HETATM   28  C2  UNL     1      22.153  20.400  54.906  1.00  0.00     0.061 C 
HETATM   29  C1  UNL     1      22.071  21.120  56.227  1.00  0.00     0.046 C 
HETATM   30  C3  UNL     1      20.800  20.515  54.191  1.00  0.00     0.046 C 
HETATM   31  C4  UNL     1      22.353  18.932  55.189  1.00  0.00     0.046 C 
ENDBRANCH  27  28
ENDBRANCH   1  27
TORSDOF 5
ENDMDL
MODEL 4
REMARK VINA RESULT: -5.876908325      4.514      8.250
REMARK  5 active torsions:
REMARK  status: ('A' for Active; 'I' for Inactive)
REMARK    1  A    between atoms: C2_2  and  O1_5 
REMARK    2  A    between atoms: O1_5  and  C5_6 
REMARK       I    between atoms: C5_6  and  N1_8 
REMARK    3  A    between atoms: N3_12  and  C7_13 
REMARK    4  A    between atoms: C8_19  and  N6_20 
REMARK    5  A    between atoms: C9_23  and  N7_24 
ROOT
HETATM    1  C5  UNL     1      25.147  19.421  54.553  1.00  0.00     0.391 C 
HETATM    2  O2  UNL     1      24.419  18.428  54.485  1.00  0.00    -0.236 OA
HETATM    3  N1  UNL     1      24.614  20.735  54.789  1.00  0.00    -0.130 N 
HETATM    4  N2  UNL     1      23.358  21.082  54.962  1.00  0.00    -0.114 N 
ATOM      5  H2  UNL     1      22.565  20.440  54.951  1.00  0.00     0.206 HD
HETATM    6  C6  UNL     1      23.276  22.413  55.157  1.00  0.00     0.746 A 
HETATM    7  N3  UNL     1      22.446  23.468  55.387  1.00  0.00     0.048 N 
HETATM    8  C9  UNL     1      23.171  24.612  55.476  1.00  0.00     0.714 A 
HETATM    9  N8  UNL     1      24.448  24.243  55.299  1.00  0.00    -0.106 N 
ATOM     10  H8  UNL     1      25.248  24.875  55.308  1.00  0.00     0.207 HD
HETATM   11  N9  UNL     1      24.514  22.935  55.109  1.00  0.00    -0.013 N 
HETATM   12  C10 UNL     1      25.323  21.878  54.880  1.00  0.00     0.387 A 
HETATM   13  O4  UNL     1      26.576  21.933  54.765  1.00  0.00    -0.242 OA
ENDROOT
BRANCH   7  14
HETATM   14  C7  UNL     1      21.046  23.381  55.513  1.00  0.00     0.214 A 
HETATM   15  N4  UNL     1      20.339  23.332  56.647  1.00  0.00    -0.220 N 
HETATM   16  O3  UNL     1      19.060  23.254  56.349  1.00  0.00    -0.153 OA
ATOM     17  H4  UNL     1      20.728  23.353  57.590  1.00  0.00     0.198 HD
HETATM   18  N5  UNL     1      18.887  23.247  55.058  1.00  0.00    -0.222 N 
HETATM   19  C8  UNL     1      20.130  23.327  54.492  1.00  0.00     0.169 A 
ATOM     20  H5  UNL     1      17.996  23.193  54.564  1.00  0.00     0.198 HD
BRANCH  19  21
HETATM   21  N6  UNL     1      20.354  23.346  53.242  1.00  0.00    -0.381 N 
ATOM     22  H62 UNL     1      20.987  23.996  52.776  1.00  0.00     0.157 HD
ATOM     23  H61 UNL     1      19.956  22.739  52.525  1.00  0.00     0.157 HD
ENDBRANCH  19  21
ENDBRANCH   7  14
BRANCH   8  24
HETATM   24  N7  UNL     1      22.713  25.818  55.691  1.00  0.00    -0.232 N 
ATOM     25  H72 UNL     1      22.043  26.339  55.124  1.00  0.00     0.174 HD
ATOM     26  H71 UNL     1      22.955  26.436  56.466  1.00  0.00     0.174 HD
ENDBRANCH   8  24
BRANCH   1  27
HETATM   27  O1  UNL     1      26.511  19.244  54.393  1.00  0.00    -0.292 OA
BRANCH  27  28
HETATM   28  C2  UNL     1      27.028  18.882  53.149  1.00  0.00     0.061 C 
HETATM   29  C1  UNL     1      26.099  19.194  52.003  1.00  0.00     0.046 C 
HETATM   30  C3  UNL     1      28.331  19.672  52.962  1.00  0.00     0.046 C 
HETATM   31  C4  UNL     1      27.405  17.425  53.058  1.00  0.00     0.046 C 
ENDBRANCH  27  28
ENDBRANCH   1  27
TORSDOF 5
ENDMDL
MODEL 5
REMARK VINA RESULT: -5.778490830      0.679      1.228
REMARK  5 active torsions:
REMARK  status: ('A' for Active; 'I' for Inactive)
REMARK    1  A    between atoms: C2_2  and  O1_5 
REMARK    2  A    between atoms: O1_5  and  C5_6 
REMARK       I    between atoms: C5_6  and  N1_8 
REMARK    3  A    between atoms: N3_12  and  C7_13 
REMARK    4  A    between atoms: C8_19  and  N6_20 
REMARK    5  A    between atoms: C9_23  and  N7_24 
ROOT
HETATM    1  C5  UNL     1      24.493  19.666  53.528  1.00  0.00     0.391 C 
HETATM    2  O2  UNL     1      25.233  19.472  54.495  1.00  0.00    -0.236 OA
HETATM    3  N1  UNL     1      24.942  19.461  52.178  1.00  0.00    -0.130 N 
HETATM    4  N2  UNL     1      26.125  19.062  51.769  1.00  0.00    -0.114 N 
ATOM      5  H2  UNL     1      26.912  18.836  52.377  1.00  0.00     0.206 HD
HETATM    6  C6  UNL     1      26.143  18.995  50.422  1.00  0.00     0.746 A 
HETATM    7  N3  UNL     1      26.887  18.706  49.319  1.00  0.00     0.048 N 
HETATM    8  C9  UNL     1      26.141  18.896  48.200  1.00  0.00     0.714 A 
HETATM    9  N8  UNL     1      24.939  19.301  48.633  1.00  0.00    -0.106 N 
ATOM     10  H8  UNL     1      24.146  19.529  48.033  1.00  0.00     0.207 HD
HETATM   11  N9  UNL     1      24.936  19.362  49.955  1.00  0.00    -0.013 N 
HETATM   12  C10 UNL     1      24.212  19.645  51.060  1.00  0.00     0.387 A 
HETATM   13  O4  UNL     1      23.013  20.030  51.064  1.00  0.00    -0.242 OA
ENDROOT
BRANCH   7  14
HETATM   14  C7  UNL     1      28.228  18.276  49.340  1.00  0.00     0.214 A 
HETATM   15  N4  UNL     1      29.312  19.025  49.564  1.00  0.00    -0.220 N 
HETATM   16  O3  UNL     1      30.380  18.260  49.501  1.00  0.00    -0.153 OA
ATOM     17  H4  UNL     1      29.312  20.028  49.753  1.00  0.00     0.198 HD
HETATM   18  N5  UNL     1      30.048  17.026  49.242  1.00  0.00    -0.222 N 
HETATM   19  C8  UNL     1      28.685  16.998  49.133  1.00  0.00     0.169 A 
ATOM     20  H5  UNL     1      30.683  16.234  49.139  1.00  0.00     0.198 HD
BRANCH  19  21
HETATM   21  N6  UNL     1      28.001  15.957  48.884  1.00  0.00    -0.381 N 
ATOM     22  H62 UNL     1      27.797  15.608  47.948  1.00  0.00     0.157 HD
ATOM     23  H61 UNL     1      27.562  15.322  49.551  1.00  0.00     0.157 HD
ENDBRANCH  19  21
ENDBRANCH   7  14
BRANCH   8  24
HETATM   24  N7  UNL     1      26.524  18.716  46.962  1.00  0.00    -0.232 N 
ATOM     25  H72 UNL     1      27.049  17.929  46.581  1.00  0.00     0.174 HD
ATOM     26  H71 UNL     1      26.357  19.341  46.173  1.00  0.00     0.174 HD
ENDBRANCH   8  24
BRANCH   1  27
HETATM   27  O1  UNL     1      23.198  20.094  53.772  1.00  0.00    -0.292 OA
BRANCH  27  28
HETATM   28  C2  UNL     1      22.969  21.179  54.618  1.00  0.00     0.061 C 
HETATM   29  C1  UNL     1      24.089  22.187  54.612  1.00  0.00     0.046 C 
HETATM   30  C3  UNL     1      21.683  21.860  54.128  1.00  0.00     0.046 C 
HETATM   31  C4  UNL     1      22.711  20.779  56.049  1.00  0.00     0.046 C 
ENDBRANCH  27  28
ENDBRANCH   1  27
TORSDOF 5
ENDMDL
