MODEL 1
REMARK VINA RESULT: -7.385572192      0.000      0.000
REMARK  3 active torsions:
REMARK  status: ('A' for Active; 'I' for Inactive)
REMARK    1  A    between atoms: C2_3  and  O1_4 
REMARK    2  A    between atoms: N2_9  and  O2_10 
REMARK    3  A    between atoms: C8_15  and  N3_16 
ROOT
HETATM    1  C1  UNL     1      30.094  17.577  50.625  1.00  0.00     0.161 C 
HETATM    2  N1  UNL     1      28.703  18.033  50.405  1.00  0.00    -0.296 N 
HETATM    3  C2  UNL     1      27.993  18.490  51.486  1.00  0.00     0.158 A 
HETATM    4  C3  UNL     1      26.714  18.912  51.299  1.00  0.00     0.062 A 
HETATM    5  C4  UNL     1      25.963  19.372  52.377  1.00  0.00     0.080 A 
HETATM    6  C5  UNL     1      24.647  19.790  52.150  1.00  0.00     0.096 A 
HETATM    7  N2  UNL     1      24.122  19.743  50.898  1.00  0.00    -0.187 N 
HETATM    8  C6  UNL     1      24.830  19.304  49.858  1.00  0.00     0.285 A 
HETATM    9  O3  UNL     1      24.321  19.266  48.700  1.00  0.00    -0.265 OA
HETATM   10  C7  UNL     1      26.124  18.883  50.017  1.00  0.00     0.090 A 
HETATM   11  C8  UNL     1      26.858  18.422  48.950  1.00  0.00     0.187 A 
HETATM   12  C9  UNL     1      28.152  18.006  49.203  1.00  0.00     0.283 A 
HETATM   13  O6  UNL     1      28.839  17.580  48.240  1.00  0.00    -0.265 OA
HETATM   14  C10 UNL     1      23.810  20.288  53.247  1.00  0.00     0.242 A 
HETATM   15  O7  UNL     1      24.392  20.303  54.508  1.00  0.00    -0.298 OA
HETATM   16  C11 UNL     1      25.680  19.896  54.734  1.00  0.00     0.365 A 
HETATM   17  O8  UNL     1      26.155  19.939  55.889  1.00  0.00    -0.238 OA
HETATM   18  N4  UNL     1      26.522  19.409  53.663  1.00  0.00    -0.300 N 
ATOM     19  H4  UNL     1      27.480  19.106  53.835  1.00  0.00     0.171 HD
ENDROOT
BRANCH  11  20
HETATM   20  N3  UNL     1      26.348  18.352  47.611  1.00  0.00    -0.109 N 
HETATM   21  O4  UNL     1      26.441  19.331  46.861  1.00  0.00    -0.532 OA
HETATM   22  O5  UNL     1      25.789  17.203  47.117  1.00  0.00    -0.532 OA
ENDBRANCH  11  20
BRANCH   3  23
HETATM   23  O1  UNL     1      28.656  18.478  52.686  1.00  0.00    -0.345 OA
ATOM     24  H1  UNL     1      29.077  19.292  52.936  1.00  0.00     0.219 HD
ENDBRANCH   3  23
BRANCH   7  25
HETATM   25  O2  UNL     1      22.827  20.158  50.708  1.00  0.00    -0.280 OA
ATOM     26  H2  UNL     1      22.545  20.390  49.831  1.00  0.00     0.245 HD
ENDBRANCH   7  25
TORSDOF 3
ENDMDL
MODEL 2
REMARK VINA RESULT: -7.056422708      1.440      3.857
REMARK  3 active torsions:
REMARK  status: ('A' for Active; 'I' for Inactive)
REMARK    1  A    between atoms: C2_3  and  O1_4 
REMARK    2  A    between atoms: N2_9  and  O2_10 
REMARK    3  A    between atoms: C8_15  and  N3_16 
ROOT
HETATM    1  C1  UNL     1      23.011  19.811  49.014  1.00  0.00     0.161 C 
HETATM    2  N1  UNL     1      24.218  19.514  49.818  1.00  0.00    -0.296 N 
HETATM    3  C2  UNL     1      24.197  19.821  51.154  1.00  0.00     0.158 A 
HETATM    4  C3  UNL     1      25.299  19.553  51.905  1.00  0.00     0.062 A 
HETATM    5  C4  UNL     1      25.313  19.862  53.262  1.00  0.00     0.080 A 
HETATM    6  C5  UNL     1      26.467  19.582  54.004  1.00  0.00     0.096 A 
HETATM    7  N2  UNL     1      27.547  19.019  53.400  1.00  0.00    -0.187 N 
HETATM    8  C6  UNL     1      27.545  18.719  52.102  1.00  0.00     0.285 A 
HETATM    9  O3  UNL     1      28.562  18.197  51.559  1.00  0.00    -0.265 OA
HETATM   10  C7  UNL     1      26.445  18.969  51.324  1.00  0.00     0.090 A 
HETATM   11  C8  UNL     1      26.439  18.669  49.983  1.00  0.00     0.187 A 
HETATM   12  C9  UNL     1      25.290  18.965  49.272  1.00  0.00     0.283 A 
HETATM   13  O6  UNL     1      25.266  18.699  48.043  1.00  0.00    -0.265 OA
HETATM   14  C10 UNL     1      26.538  19.882  55.437  1.00  0.00     0.242 A 
HETATM   15  O7  UNL     1      25.412  20.469  56.001  1.00  0.00    -0.298 OA
HETATM   16  C11 UNL     1      24.281  20.743  55.279  1.00  0.00     0.365 A 
HETATM   17  O8  UNL     1      23.294  21.264  55.841  1.00  0.00    -0.238 OA
HETATM   18  N4  UNL     1      24.191  20.447  53.867  1.00  0.00    -0.300 N 
ATOM     19  H4  UNL     1      23.347  20.654  53.333  1.00  0.00     0.171 HD
ENDROOT
BRANCH  11  20
HETATM   20  N3  UNL     1      27.553  18.075  49.300  1.00  0.00    -0.109 N 
HETATM   21  O4  UNL     1      27.636  16.846  49.206  1.00  0.00    -0.532 OA
HETATM   22  O5  UNL     1      28.520  18.843  48.707  1.00  0.00    -0.532 OA
ENDBRANCH  11  20
BRANCH   3  23
HETATM   23  O1  UNL     1      23.038  20.385  51.620  1.00  0.00    -0.345 OA
ATOM     24  H1  UNL     1      22.905  20.342  52.560  1.00  0.00     0.219 HD
ENDBRANCH   3  23
BRANCH   7  25
HETATM   25  O2  UNL     1      28.664  18.758  54.154  1.00  0.00    -0.280 OA
ATOM     26  H2  UNL     1      29.446  18.441  53.717  1.00  0.00     0.245 HD
ENDBRANCH   7  25
TORSDOF 3
ENDMDL
MODEL 3
REMARK VINA RESULT: -6.837783035      1.369      5.338
REMARK  3 active torsions:
REMARK  status: ('A' for Active; 'I' for Inactive)
REMARK    1  A    between atoms: C2_3  and  O1_4 
REMARK    2  A    between atoms: N2_9  and  O2_10 
REMARK    3  A    between atoms: C8_15  and  N3_16 
ROOT
HETATM    1  C1  UNL     1      28.185  18.944  54.876  1.00  0.00     0.161 C 
HETATM    2  N1  UNL     1      27.006  19.241  54.031  1.00  0.00    -0.296 N 
HETATM    3  C2  UNL     1      27.077  18.942  52.695  1.00  0.00     0.158 A 
HETATM    4  C3  UNL     1      26.001  19.209  51.906  1.00  0.00     0.062 A 
HETATM    5  C4  UNL     1      26.044  18.925  50.544  1.00  0.00     0.080 A 
HETATM    6  C5  UNL     1      24.923  19.223  49.759  1.00  0.00     0.096 A 
HETATM    7  N2  UNL     1      23.820  19.777  50.327  1.00  0.00    -0.187 N 
HETATM    8  C6  UNL     1      23.768  20.053  51.630  1.00  0.00     0.285 A 
HETATM    9  O3  UNL     1      22.731  20.572  52.138  1.00  0.00    -0.265 OA
HETATM   10  C7  UNL     1      24.832  19.785  52.449  1.00  0.00     0.090 A 
HETATM   11  C8  UNL     1      24.788  20.074  53.791  1.00  0.00     0.187 A 
HETATM   12  C9  UNL     1      25.912  19.780  54.542  1.00  0.00     0.283 A 
HETATM   13  O6  UNL     1      25.891  20.038  55.772  1.00  0.00    -0.265 OA
HETATM   14  C10 UNL     1      24.909  18.942  48.320  1.00  0.00     0.242 A 
HETATM   15  O7  UNL     1      26.067  18.388  47.789  1.00  0.00    -0.298 OA
HETATM   16  C11 UNL     1      27.165  18.095  48.553  1.00  0.00     0.365 A 
HETATM   17  O8  UNL     1      28.176  17.587  48.023  1.00  0.00    -0.238 OA
HETATM   18  N4  UNL     1      27.193  18.357  49.975  1.00  0.00    -0.300 N 
ATOM     19  H4  UNL     1      28.013  18.138  50.540  1.00  0.00     0.171 HD
ENDROOT
BRANCH  11  20
HETATM   20  N3  UNL     1      23.648  20.660  54.437  1.00  0.00    -0.109 N 
HETATM   21  O4  UNL     1      22.764  19.936  54.909  1.00  0.00    -0.532 OA
HETATM   22  O5  UNL     1      23.527  22.016  54.584  1.00  0.00    -0.532 OA
ENDBRANCH  11  20
BRANCH   3  23
HETATM   23  O1  UNL     1      28.254  18.386  52.267  1.00  0.00    -0.345 OA
ATOM     24  H1  UNL     1      28.577  18.693  51.427  1.00  0.00     0.219 HD
ENDBRANCH   3  23
BRANCH   7  25
HETATM   25  O2  UNL     1      22.738  20.058  49.532  1.00  0.00    -0.280 OA
ATOM     26  H2  UNL     1      21.865  19.928  49.884  1.00  0.00     0.245 HD
ENDBRANCH   7  25
TORSDOF 3
ENDMDL
MODEL 4
REMARK VINA RESULT: -6.779405044      1.839      4.429
REMARK  3 active torsions:
REMARK  status: ('A' for Active; 'I' for Inactive)
REMARK    1  A    between atoms: C2_3  and  O1_4 
REMARK    2  A    between atoms: N2_9  and  O2_10 
REMARK    3  A    between atoms: C8_15  and  N3_16 
ROOT
HETATM    1  C1  UNL     1      24.734  19.050  48.725  1.00  0.00     0.161 C 
HETATM    2  N1  UNL     1      25.216  19.143  50.122  1.00  0.00    -0.296 N 
HETATM    3  C2  UNL     1      24.380  19.692  51.060  1.00  0.00     0.158 A 
HETATM    4  C3  UNL     1      24.810  19.784  52.347  1.00  0.00     0.062 A 
HETATM    5  C4  UNL     1      23.989  20.345  53.321  1.00  0.00     0.080 A 
HETATM    6  C5  UNL     1      24.467  20.433  54.634  1.00  0.00     0.096 A 
HETATM    7  N2  UNL     1      25.709  19.976  54.941  1.00  0.00    -0.187 N 
HETATM    8  C6  UNL     1      26.504  19.437  54.017  1.00  0.00     0.285 A 
HETATM    9  O3  UNL     1      27.659  19.020  54.323  1.00  0.00    -0.265 OA
HETATM   10  C7  UNL     1      26.092  19.323  52.715  1.00  0.00     0.090 A 
HETATM   11  C8  UNL     1      26.909  18.775  51.756  1.00  0.00     0.187 A 
HETATM   12  C9  UNL     1      26.418  18.709  50.465  1.00  0.00     0.283 A 
HETATM   13  O6  UNL     1      27.151  18.213  49.573  1.00  0.00    -0.265 OA
HETATM   14  C10 UNL     1      23.645  21.010  55.702  1.00  0.00     0.242 A 
HETATM   15  O7  UNL     1      22.389  21.474  55.332  1.00  0.00    -0.298 OA
HETATM   16  C11 UNL     1      21.918  21.389  54.049  1.00  0.00     0.365 A 
HETATM   17  O8  UNL     1      20.775  21.814  53.774  1.00  0.00    -0.238 OA
HETATM   18  N4  UNL     1      22.711  20.815  52.985  1.00  0.00    -0.300 N 
ATOM     19  H4  UNL     1      22.357  20.755  52.030  1.00  0.00     0.171 HD
ENDROOT
BRANCH  11  20
HETATM   20  N3  UNL     1      28.229  18.280  52.029  1.00  0.00    -0.109 N 
HETATM   21  O4  UNL     1      28.391  17.098  52.351  1.00  0.00    -0.532 OA
HETATM   22  O5  UNL     1      29.333  19.080  51.904  1.00  0.00    -0.532 OA
ENDBRANCH  11  20
BRANCH   3  23
HETATM   23  O1  UNL     1      23.157  20.109  50.601  1.00  0.00    -0.345 OA
ATOM     24  H1  UNL     1      23.091  21.029  50.372  1.00  0.00     0.219 HD
ENDBRANCH   3  23
BRANCH   7  25
HETATM   25  O2  UNL     1      26.149  20.077  56.237  1.00  0.00    -0.280 OA
ATOM     26  H2  UNL     1      26.503  19.305  56.661  1.00  0.00     0.245 HD
ENDBRANCH   7  25
TORSDOF 3
ENDMDL
MODEL 5
REMARK VINA RESULT: -6.772507182      1.099      1.117
REMARK  3 active torsions:
REMARK  status: ('A' for Active; 'I' for Inactive)
REMARK    1  A    between atoms: C2_3  and  O1_4 
REMARK    2  A    between atoms: N2_9  and  O2_10 
REMARK    3  A    between atoms: C8_15  and  N3_16 
ROOT
HETATM    1  C1  UNL     1      29.978  17.863  52.427  1.00  0.00     0.161 C 
HETATM    2  N1  UNL     1      28.676  18.232  51.827  1.00  0.00    -0.296 N 
HETATM    3  C2  UNL     1      27.717  18.772  52.644  1.00  0.00     0.158 A 
HETATM    4  C3  UNL     1      26.516  19.117  52.107  1.00  0.00     0.062 A 
HETATM    5  C4  UNL     1      25.518  19.659  52.912  1.00  0.00     0.080 A 
HETATM    6  C5  UNL     1      24.290  19.993  52.328  1.00  0.00     0.096 A 
HETATM    7  N2  UNL     1      24.088  19.789  51.000  1.00  0.00    -0.187 N 
HETATM    8  C6  UNL     1      25.035  19.270  50.220  1.00  0.00     0.285 A 
HETATM    9  O3  UNL     1      24.825  19.085  48.985  1.00  0.00    -0.265 OA
HETATM   10  C7  UNL     1      26.258  18.924  50.733  1.00  0.00     0.090 A 
HETATM   11  C8  UNL     1      27.237  18.383  49.935  1.00  0.00     0.187 A 
HETATM   12  C9  UNL     1      28.436  18.052  50.538  1.00  0.00     0.283 A 
HETATM   13  O6  UNL     1      29.344  17.553  49.825  1.00  0.00    -0.265 OA
HETATM   14  C10 UNL     1      23.204  20.571  53.125  1.00  0.00     0.242 A 
HETATM   15  O7  UNL     1      23.460  20.747  54.480  1.00  0.00    -0.298 OA
HETATM   16  C11 UNL     1      24.660  20.422  55.054  1.00  0.00     0.365 A 
HETATM   17  O8  UNL     1      24.837  20.610  56.277  1.00  0.00    -0.238 OA
HETATM   18  N4  UNL     1      25.745  19.859  54.281  1.00  0.00    -0.300 N 
ATOM     19  H4  UNL     1      26.636  19.617  54.713  1.00  0.00     0.171 HD
ENDROOT
BRANCH  11  20
HETATM   20  N3  UNL     1      27.071  18.146  48.529  1.00  0.00    -0.109 N 
HETATM   21  O4  UNL     1      27.360  19.030  47.715  1.00  0.00    -0.532 OA
HETATM   22  O5  UNL     1      26.633  16.938  48.053  1.00  0.00    -0.532 OA
ENDBRANCH  11  20
BRANCH   3  23
HETATM   23  O1  UNL     1      28.067  18.919  53.962  1.00  0.00    -0.345 OA
ATOM     24  H1  UNL     1      27.362  19.155  54.554  1.00  0.00     0.219 HD
ENDBRANCH   3  23
BRANCH   7  25
HETATM   25  O2  UNL     1      22.873  20.125  50.457  1.00  0.00    -0.280 OA
ATOM     26  H2  UNL     1      22.158  19.503  50.516  1.00  0.00     0.245 HD
ENDBRANCH   7  25
TORSDOF 3
ENDMDL
