MODEL 1
REMARK VINA RESULT: -8.044103804      0.000      0.000
REMARK  3 active torsions:
REMARK  status: ('A' for Active; 'I' for Inactive)
REMARK    1  A    between atoms: O1_2  and  C2_3 
REMARK    2  A    between atoms: C2_3  and  O2_4 
REMARK    3  A    between atoms: N8_29  and  O4_30 
ROOT
HETATM    1  C2  UNL     1      27.464  17.862  47.798  1.00  0.00     0.311 C 
HETATM    2  C4  UNL     1      26.555  18.421  48.919  1.00  0.00     0.111 A 
HETATM    3  N1  UNL     1      26.696  18.570  50.141  1.00  0.00    -0.337 N 
ATOM      4  H1  UNL     1      27.564  18.284  50.593  1.00  0.00     0.167 HD
HETATM    5  C5  UNL     1      25.634  19.145  50.923  1.00  0.00     0.151 A 
HETATM    6  N2  UNL     1      25.742  19.315  52.194  1.00  0.00    -0.332 N 
ATOM      7  H2  UNL     1      26.603  19.036  52.663  1.00  0.00     0.168 HD
HETATM    8  C6  UNL     1      24.696  19.881  52.955  1.00  0.00     0.147 A 
HETATM    9  C7  UNL     1      23.523  20.265  52.345  1.00  0.00     0.141 A 
HETATM   10  N3  UNL     1      22.561  20.797  53.114  1.00  0.00    -0.330 N 
ATOM     11  H3  UNL     1      21.688  21.085  52.673  1.00  0.00     0.168 HD
HETATM   12  C8  UNL     1      22.695  20.967  54.440  1.00  0.00     0.081 A 
HETATM   13  C9  UNL     1      21.599  21.565  55.264  1.00  0.00     0.089 C 
HETATM   14  N4  UNL     1      23.851  20.584  55.016  1.00  0.00    -0.311 N 
ATOM     15  H4  UNL     1      23.954  20.712  56.023  1.00  0.00     0.170 HD
HETATM   16  C10 UNL     1      24.875  20.041  54.335  1.00  0.00     0.277 A 
HETATM   17  O3  UNL     1      25.951  19.688  54.894  1.00  0.00    -0.266 OA
HETATM   18  N5  UNL     1      23.385  20.085  50.945  1.00  0.00    -0.324 N 
ATOM     19  H5  UNL     1      22.519  20.367  50.485  1.00  0.00     0.169 HD
HETATM   20  C11 UNL     1      24.443  19.511  50.167  1.00  0.00     0.149 A 
HETATM   21  N6  UNL     1      24.344  19.329  48.903  1.00  0.00    -0.349 N 
ATOM     22  H6  UNL     1      23.482  19.618  48.440  1.00  0.00     0.163 HD
HETATM   23  C12 UNL     1      25.350  18.758  48.123  1.00  0.00     0.248 A 
HETATM   24  N7  UNL     1      26.000  19.559  47.109  1.00  0.00    -0.102 NA
HETATM   25  N8  UNL     1      26.969  18.656  46.667  1.00  0.00    -0.039 NA
ENDROOT
BRANCH   1  26
HETATM   26  O1  UNL     1      27.091  16.565  47.727  1.00  0.00    -0.340 OA
HETATM   27  C1  UNL     1      27.925  15.532  47.653  1.00  0.00     0.207 C 
ENDBRANCH   1  26
BRANCH   1  28
HETATM   28  O2  UNL     1      28.698  18.223  48.178  1.00  0.00    -0.340 OA
HETATM   29  C3  UNL     1      29.599  18.834  47.420  1.00  0.00     0.207 C 
ENDBRANCH   1  28
BRANCH  25  30
HETATM   30  O4  UNL     1      26.521  17.904  45.655  1.00  0.00    -0.292 OA
ATOM     31  H4  UNL     1      26.195  18.418  44.926  1.00  0.00     0.239 HD
ENDBRANCH  25  30
TORSDOF 3
ENDMDL
MODEL 2
REMARK VINA RESULT: -7.019089271      2.567      8.213
REMARK  3 active torsions:
REMARK  status: ('A' for Active; 'I' for Inactive)
REMARK    1  A    between atoms: O1_2  and  C2_3 
REMARK    2  A    between atoms: C2_3  and  O2_4 
REMARK    3  A    between atoms: N8_29  and  O4_30 
ROOT
HETATM    1  C2  UNL     1      21.186  21.935  55.438  1.00  0.00     0.311 C 
HETATM    2  C4  UNL     1      22.202  21.318  54.448  1.00  0.00     0.111 A 
HETATM    3  N1  UNL     1      22.171  21.065  53.235  1.00  0.00    -0.337 N 
ATOM      4  H1  UNL     1      21.332  21.269  52.694  1.00  0.00     0.167 HD
HETATM    5  C5  UNL     1      23.317  20.483  52.592  1.00  0.00     0.151 A 
HETATM    6  N2  UNL     1      23.324  20.206  51.335  1.00  0.00    -0.332 N 
ATOM      7  H2  UNL     1      22.494  20.404  50.777  1.00  0.00     0.168 HD
HETATM    8  C6  UNL     1      24.454  19.635  50.710  1.00  0.00     0.147 A 
HETATM    9  C7  UNL     1      25.586  19.358  51.441  1.00  0.00     0.141 A 
HETATM   10  N3  UNL     1      26.632  18.815  50.798  1.00  0.00    -0.330 N 
ATOM     11  H3  UNL     1      27.475  18.606  51.331  1.00  0.00     0.168 HD
HETATM   12  C8  UNL     1      26.616  18.536  49.484  1.00  0.00     0.081 A 
HETATM   13  C9  UNL     1      27.803  17.931  48.803  1.00  0.00     0.089 C 
HETATM   14  N4  UNL     1      25.498  18.815  48.787  1.00  0.00    -0.311 N 
ATOM     15  H4  UNL     1      25.485  18.602  47.790  1.00  0.00     0.170 HD
HETATM   16  C10 UNL     1      24.398  19.358  49.337  1.00  0.00     0.277 A 
HETATM   17  O3  UNL     1      23.358  19.612  48.667  1.00  0.00    -0.266 OA
HETATM   18  N5  UNL     1      25.599  19.655  52.828  1.00  0.00    -0.324 N 
ATOM     19  H5  UNL     1      26.434  19.453  53.377  1.00  0.00     0.169 HD
HETATM   20  C11 UNL     1      24.455  20.235  53.469  1.00  0.00     0.149 A 
HETATM   21  N6  UNL     1      24.435  20.507  54.720  1.00  0.00    -0.349 N 
ATOM     22  H6  UNL     1      25.272  20.312  55.270  1.00  0.00     0.163 HD
HETATM   23  C12 UNL     1      23.331  21.055  55.374  1.00  0.00     0.248 A 
HETATM   24  N7  UNL     1      23.432  22.381  55.944  1.00  0.00    -0.102 NA
HETATM   25  N8  UNL     1      22.119  22.560  56.384  1.00  0.00    -0.039 NA
ENDROOT
BRANCH   1  26
HETATM   26  O1  UNL     1      20.571  20.849  55.955  1.00  0.00    -0.340 OA
HETATM   27  C1  UNL     1      19.438  20.322  55.501  1.00  0.00     0.207 C 
ENDBRANCH   1  26
BRANCH   1  28
HETATM   28  O2  UNL     1      20.526  22.837  54.698  1.00  0.00    -0.340 OA
HETATM   29  C3  UNL     1      20.735  24.146  54.695  1.00  0.00     0.207 C 
ENDBRANCH   1  28
BRANCH  25  30
HETATM   30  O4  UNL     1      21.957  22.132  57.642  1.00  0.00    -0.292 OA
ATOM     31  H4  UNL     1      21.780  21.200  57.698  1.00  0.00     0.239 HD
ENDBRANCH  25  30
TORSDOF 3
ENDMDL
MODEL 3
REMARK VINA RESULT: -7.001043448      2.328      7.856
REMARK  3 active torsions:
REMARK  status: ('A' for Active; 'I' for Inactive)
REMARK    1  A    between atoms: O1_2  and  C2_3 
REMARK    2  A    between atoms: C2_3  and  O2_4 
REMARK    3  A    between atoms: N8_29  and  O4_30 
ROOT
HETATM    1  C2  UNL     1      21.574  21.348  54.511  1.00  0.00     0.311 C 
HETATM    2  C4  UNL     1      22.745  20.772  53.679  1.00  0.00     0.111 A 
HETATM    3  N1  UNL     1      22.888  20.493  52.480  1.00  0.00    -0.337 N 
ATOM      4  H1  UNL     1      22.117  20.636  51.828  1.00  0.00     0.167 HD
HETATM    5  C5  UNL     1      24.140  19.967  52.008  1.00  0.00     0.151 A 
HETATM    6  N2  UNL     1      24.327  19.665  50.771  1.00  0.00    -0.332 N 
ATOM      7  H2  UNL     1      23.568  19.802  50.105  1.00  0.00     0.168 HD
HETATM    8  C6  UNL     1      25.560  19.150  50.314  1.00  0.00     0.147 A 
HETATM    9  C7  UNL     1      26.600  18.955  51.194  1.00  0.00     0.141 A 
HETATM   10  N3  UNL     1      27.749  18.463  50.708  1.00  0.00    -0.330 N 
ATOM     11  H3  UNL     1      28.526  18.315  51.352  1.00  0.00     0.168 HD
HETATM   12  C8  UNL     1      27.923  18.156  49.412  1.00  0.00     0.081 A 
HETATM   13  C9  UNL     1      29.221  17.608  48.908  1.00  0.00     0.089 C 
HETATM   14  N4  UNL     1      26.892  18.353  48.568  1.00  0.00    -0.311 N 
ATOM     15  H4  UNL     1      27.022  18.120  47.583  1.00  0.00     0.170 HD
HETATM   16  C10 UNL     1      25.701  18.842  48.955  1.00  0.00     0.277 A 
HETATM   17  O3  UNL     1      24.745  19.020  48.148  1.00  0.00    -0.266 OA
HETATM   18  N5  UNL     1      26.413  19.281  52.562  1.00  0.00    -0.324 N 
ATOM     19  H5  UNL     1      27.179  19.141  53.221  1.00  0.00     0.169 HD
HETATM   20  C11 UNL     1      25.164  19.805  53.032  1.00  0.00     0.149 A 
HETATM   21  N6  UNL     1      24.964  20.101  54.262  1.00  0.00    -0.349 N 
ATOM     22  H6  UNL     1      25.731  19.968  54.921  1.00  0.00     0.163 HD
HETATM   23  C12 UNL     1      23.755  20.596  54.751  1.00  0.00     0.248 A 
HETATM   24  N7  UNL     1      23.706  21.936  55.291  1.00  0.00    -0.102 NA
HETATM   25  N8  UNL     1      22.338  22.046  55.552  1.00  0.00    -0.039 NA
ENDROOT
BRANCH   1  26
HETATM   26  O1  UNL     1      20.958  20.238  54.974  1.00  0.00    -0.340 OA
HETATM   27  C1  UNL     1      19.645  20.097  55.124  1.00  0.00     0.207 C 
ENDBRANCH   1  26
BRANCH   1  28
HETATM   28  O2  UNL     1      20.968  22.194  53.666  1.00  0.00    -0.340 OA
HETATM   29  C3  UNL     1      20.650  23.456  53.921  1.00  0.00     0.207 C 
ENDBRANCH   1  28
BRANCH  25  30
HETATM   30  O4  UNL     1      22.036  21.635  56.789  1.00  0.00    -0.292 OA
ATOM     31  H4  UNL     1      21.379  20.949  56.804  1.00  0.00     0.239 HD
ENDBRANCH  25  30
TORSDOF 3
ENDMDL
MODEL 4
REMARK VINA RESULT: -6.283990750      3.693      9.196
REMARK  3 active torsions:
REMARK  status: ('A' for Active; 'I' for Inactive)
REMARK    1  A    between atoms: O1_2  and  C2_3 
REMARK    2  A    between atoms: C2_3  and  O2_4 
REMARK    3  A    between atoms: N8_29  and  O4_30 
ROOT
HETATM    1  C2  UNL     1      20.429  23.279  57.234  1.00  0.00     0.311 C 
HETATM    2  C4  UNL     1      21.281  22.580  56.147  1.00  0.00     0.111 A 
HETATM    3  N1  UNL     1      22.462  22.209  56.091  1.00  0.00    -0.337 N 
ATOM      4  H1  UNL     1      23.082  22.361  56.886  1.00  0.00     0.167 HD
HETATM    5  C5  UNL     1      22.958  21.564  54.906  1.00  0.00     0.151 A 
HETATM    6  N2  UNL     1      24.177  21.163  54.810  1.00  0.00    -0.332 N 
ATOM      7  H2  UNL     1      24.812  21.307  55.595  1.00  0.00     0.168 HD
HETATM    8  C6  UNL     1      24.658  20.530  53.643  1.00  0.00     0.147 A 
HETATM    9  C7  UNL     1      23.821  20.326  52.570  1.00  0.00     0.141 A 
HETATM   10  N3  UNL     1      24.328  19.720  51.485  1.00  0.00    -0.330 N 
ATOM     11  H3  UNL     1      23.717  19.564  50.684  1.00  0.00     0.168 HD
HETATM   12  C8  UNL     1      25.605  19.309  51.407  1.00  0.00     0.081 A 
HETATM   13  C9  UNL     1      26.133  18.636  50.180  1.00  0.00     0.089 C 
HETATM   14  N4  UNL     1      26.407  19.519  52.469  1.00  0.00    -0.311 N 
ATOM     15  H4  UNL     1      27.377  19.208  52.411  1.00  0.00     0.170 HD
HETATM   16  C10 UNL     1      25.996  20.117  53.601  1.00  0.00     0.277 A 
HETATM   17  O3  UNL     1      26.763  20.305  54.586  1.00  0.00    -0.266 OA
HETATM   18  N5  UNL     1      22.474  20.761  52.655  1.00  0.00    -0.324 N 
ATOM     19  H5  UNL     1      21.847  20.613  51.864  1.00  0.00     0.169 HD
HETATM   20  C11 UNL     1      21.980  21.404  53.837  1.00  0.00     0.149 A 
HETATM   21  N6  UNL     1      20.771  21.814  53.941  1.00  0.00    -0.349 N 
ATOM     22  H6  UNL     1      20.141  21.660  53.153  1.00  0.00     0.163 HD
HETATM   23  C12 UNL     1      20.267  22.457  55.071  1.00  0.00     0.248 A 
HETATM   24  N7  UNL     1      19.230  21.816  55.848  1.00  0.00    -0.102 NA
HETATM   25  N8  UNL     1      19.111  22.728  56.899  1.00  0.00    -0.039 NA
ENDROOT
BRANCH   1  26
HETATM   26  O1  UNL     1      20.544  24.586  56.913  1.00  0.00    -0.340 OA
HETATM   27  C1  UNL     1      21.225  25.490  57.611  1.00  0.00     0.207 C 
ENDBRANCH   1  26
BRANCH   1  28
HETATM   28  O2  UNL     1      20.914  22.788  58.383  1.00  0.00    -0.340 OA
HETATM   29  C3  UNL     1      20.199  22.252  59.364  1.00  0.00     0.207 C 
ENDBRANCH   1  28
BRANCH  25  30
HETATM   30  O4  UNL     1      18.200  23.671  56.634  1.00  0.00    -0.292 OA
ATOM     31  H4  UNL     1      17.372  23.316  56.333  1.00  0.00     0.239 HD
ENDBRANCH  25  30
TORSDOF 3
ENDMDL
MODEL 5
REMARK VINA RESULT: -6.217918198      1.375      1.477
REMARK  3 active torsions:
REMARK  status: ('A' for Active; 'I' for Inactive)
REMARK    1  A    between atoms: O1_2  and  C2_3 
REMARK    2  A    between atoms: C2_3  and  O2_4 
REMARK    3  A    between atoms: N8_29  and  O4_30 
ROOT
HETATM    1  C2  UNL     1      28.676  17.510  49.377  1.00  0.00     0.311 C 
HETATM    2  C4  UNL     1      27.494  18.160  50.134  1.00  0.00     0.111 A 
HETATM    3  N1  UNL     1      27.303  18.473  51.318  1.00  0.00    -0.337 N 
ATOM      4  H1  UNL     1      28.026  18.294  52.015  1.00  0.00     0.167 HD
HETATM    5  C5  UNL     1      26.063  19.087  51.710  1.00  0.00     0.151 A 
HETATM    6  N2  UNL     1      25.828  19.426  52.928  1.00  0.00    -0.332 N 
ATOM      7  H2  UNL     1      26.539  19.255  53.639  1.00  0.00     0.168 HD
HETATM    8  C6  UNL     1      24.608  20.029  53.306  1.00  0.00     0.147 A 
HETATM    9  C7  UNL     1      23.633  20.269  52.365  1.00  0.00     0.141 A 
HETATM   10  N3  UNL     1      22.492  20.844  52.777  1.00  0.00    -0.330 N 
ATOM     11  H3  UNL     1      21.762  21.026  52.088  1.00  0.00     0.168 HD
HETATM   12  C8  UNL     1      22.269  21.191  54.055  1.00  0.00     0.081 A 
HETATM   13  C9  UNL     1      20.983  21.831  54.475  1.00  0.00     0.089 C 
HETATM   14  N4  UNL     1      23.237  20.947  54.959  1.00  0.00    -0.311 N 
ATOM     15  H4  UNL     1      23.068  21.210  55.930  1.00  0.00     0.170 HD
HETATM   16  C10 UNL     1      24.414  20.376  54.649  1.00  0.00     0.277 A 
HETATM   17  O3  UNL     1      25.309  20.155  55.511  1.00  0.00    -0.266 OA
HETATM   18  N5  UNL     1      23.872  19.901  51.016  1.00  0.00    -0.324 N 
ATOM     19  H5  UNL     1      23.155  20.076  50.313  1.00  0.00     0.169 HD
HETATM   20  C11 UNL     1      25.109  19.288  50.627  1.00  0.00     0.149 A 
HETATM   21  N6  UNL     1      25.350  18.940  49.419  1.00  0.00    -0.349 N 
ATOM     22  H6  UNL     1      24.636  19.120  48.713  1.00  0.00     0.163 HD
HETATM   23  C12 UNL     1      26.536  18.327  49.014  1.00  0.00     0.248 A 
HETATM   24  N7  UNL     1      27.417  19.022  48.102  1.00  0.00    -0.102 NA
HETATM   25  N8  UNL     1      28.484  18.123  48.057  1.00  0.00    -0.039 NA
ENDROOT
BRANCH   1  26
HETATM   26  O1  UNL     1      28.358  16.196  49.392  1.00  0.00    -0.340 OA
HETATM   27  C1  UNL     1      29.173  15.215  49.765  1.00  0.00     0.207 C 
ENDBRANCH   1  26
BRANCH   1  28
HETATM   28  O2  UNL     1      29.759  17.982  50.009  1.00  0.00    -0.340 OA
HETATM   29  C3  UNL     1      30.752  18.661  49.452  1.00  0.00     0.207 C 
ENDBRANCH   1  28
BRANCH  25  30
HETATM   30  O4  UNL     1      28.332  17.224  47.078  1.00  0.00    -0.292 OA
ATOM     31  H4  UNL     1      28.357  16.327  47.388  1.00  0.00     0.239 HD
ENDBRANCH  25  30
TORSDOF 3
ENDMDL
