MODEL 1
REMARK VINA RESULT: -9.407139238      0.000      0.000
REMARK  11 active torsions:
REMARK  status: ('A' for Active; 'I' for Inactive)
REMARK    1  A    between atoms: C2_2  and  C3_3 
REMARK    2  A    between atoms: C2_2  and  C17_28 
REMARK    3  A    between atoms: C3_3  and  C4_4 
REMARK    4  A    between atoms: C4_4  and  C5_5 
REMARK    5  A    between atoms: C5_5  and  C7_7 
REMARK    6  A    between atoms: C7_7  and  O1_8 
REMARK    7  A    between atoms: C7_7  and  C8_10 
REMARK    8  A    between atoms: C8_10  and  N1_11 
REMARK    9  A    between atoms: N1_11  and  C9_14 
REMARK   10  A    between atoms: C9_14  and  C10_15 
REMARK   11  A    between atoms: C12_18  and  C13_19 
ROOT
HETATM    1  N1  UNL     1      55.853 -37.215   6.921  1.00  0.00    -0.068 N 
ATOM      2  H11 UNL     1      56.097 -36.226   6.979  1.00  0.00     0.277 HD
ATOM      3  H12 UNL     1      56.250 -37.535   7.804  1.00  0.00     0.277 HD
ENDROOT
BRANCH   1   4
HETATM    4  C8  UNL     1      56.507 -37.843   5.803  1.00  0.00     0.264 C 
BRANCH   4   5
HETATM    5  C7  UNL     1      57.585 -36.975   5.273  1.00  0.00     0.147 C 
BRANCH   5   6
HETATM    6  C5  UNL     1      57.211 -36.198   4.020  1.00  0.00     0.012 C 
HETATM    7  C6  UNL     1      58.351 -35.254   3.637  1.00  0.00     0.012 C 
BRANCH   6   8
HETATM    8  C4  UNL     1      57.123 -37.211   2.910  1.00  0.00     0.011 C 
BRANCH   8   9
HETATM    9  C3  UNL     1      56.166 -36.918   1.829  1.00  0.00     0.034 C 
BRANCH   9  10
HETATM   10  C2  UNL     1      56.767 -36.882   0.493  1.00  0.00    -0.086 C 
HETATM   11  C1  UNL     1      57.981 -37.335   0.268  1.00  0.00     0.014 C 
BRANCH  10  12
HETATM   12  C17 UNL     1      55.983 -36.302  -0.661  1.00  0.00     0.005 C 
HETATM   13  C18 UNL     1      54.539 -36.198  -0.273  1.00  0.00     0.014 C 
HETATM   14  C19 UNL     1      56.491 -34.934  -1.044  1.00  0.00     0.014 C 
ENDBRANCH  10  12
ENDBRANCH   9  10
ENDBRANCH   8   9
ENDBRANCH   6   8
ENDBRANCH   5   6
BRANCH   5  15
HETATM   15  O1  UNL     1      57.973 -36.061   6.292  1.00  0.00    -0.394 OA
ATOM     16  H1  UNL     1      57.646 -36.369   7.129  1.00  0.00     0.210 HD
ENDBRANCH   5  15
ENDBRANCH   4   5
ENDBRANCH   1   4
BRANCH   1  17
HETATM   17  C9  UNL     1      54.435 -37.393   6.903  1.00  0.00     0.291 C 
BRANCH  17  18
HETATM   18  C10 UNL     1      53.765 -36.182   6.368  1.00  0.00     0.059 A 
HETATM   19  C11 UNL     1      52.950 -35.286   7.025  1.00  0.00     0.171 A 
HETATM   20  O2  UNL     1      52.569 -34.361   6.172  1.00  0.00    -0.302 OA
HETATM   21  C12 UNL     1      53.085 -34.597   4.990  1.00  0.00     0.176 A 
HETATM   22  N3  UNL     1      53.821 -35.709   5.089  1.00  0.00    -0.335 N 
ATOM     23  H3  UNL     1      54.344 -36.137   4.326  1.00  0.00     0.168 HD
BRANCH  21  24
HETATM   24  C13 UNL     1      52.917 -33.823   3.760  1.00  0.00     0.108 A 
HETATM   25  C14 UNL     1      53.779 -33.775   2.685  1.00  0.00     0.070 A 
HETATM   26  C15 UNL     1      53.256 -32.939   1.736  1.00  0.00     0.075 A 
HETATM   27  C16 UNL     1      53.872 -32.606   0.415  1.00  0.00     0.079 C 
HETATM   28  O3  UNL     1      52.126 -32.509   2.234  1.00  0.00    -0.242 OA
HETATM   29  N2  UNL     1      51.891 -33.000   3.413  1.00  0.00    -0.257 N 
ATOM     30  H2  UNL     1      51.071 -32.802   3.986  1.00  0.00     0.195 HD
ENDBRANCH  21  24
ENDBRANCH  17  18
ENDBRANCH   1  17
TORSDOF 11
ENDMDL
MODEL 2
REMARK VINA RESULT: -8.978470194      1.829      5.321
REMARK  11 active torsions:
REMARK  status: ('A' for Active; 'I' for Inactive)
REMARK    1  A    between atoms: C2_2  and  C3_3 
REMARK    2  A    between atoms: C2_2  and  C17_28 
REMARK    3  A    between atoms: C3_3  and  C4_4 
REMARK    4  A    between atoms: C4_4  and  C5_5 
REMARK    5  A    between atoms: C5_5  and  C7_7 
REMARK    6  A    between atoms: C7_7  and  O1_8 
REMARK    7  A    between atoms: C7_7  and  C8_10 
REMARK    8  A    between atoms: C8_10  and  N1_11 
REMARK    9  A    between atoms: N1_11  and  C9_14 
REMARK   10  A    between atoms: C9_14  and  C10_15 
REMARK   11  A    between atoms: C12_18  and  C13_19 
ROOT
HETATM    1  N1  UNL     1      54.585 -33.902  -1.171  1.00  0.00    -0.068 N 
ATOM      2  H11 UNL     1      53.857 -34.520  -0.815  1.00  0.00     0.277 HD
ATOM      3  H12 UNL     1      54.287 -33.837  -2.144  1.00  0.00     0.277 HD
ENDROOT
BRANCH   1   4
HETATM    4  C8  UNL     1      55.882 -34.519  -1.069  1.00  0.00     0.264 C 
BRANCH   4   5
HETATM    5  C7  UNL     1      55.749 -35.982  -0.864  1.00  0.00     0.147 C 
BRANCH   5   6
HETATM    6  C5  UNL     1      57.060 -36.701  -0.585  1.00  0.00     0.012 C 
HETATM    7  C6  UNL     1      58.213 -35.697  -0.594  1.00  0.00     0.012 C 
BRANCH   6   8
HETATM    8  C4  UNL     1      56.965 -37.209   0.829  1.00  0.00     0.011 C 
BRANCH   8   9
HETATM    9  C3  UNL     1      57.601 -36.380   1.868  1.00  0.00     0.034 C 
BRANCH   9  10
HETATM   10  C2  UNL     1      57.208 -36.731   3.235  1.00  0.00    -0.086 C 
HETATM   11  C1  UNL     1      56.584 -37.856   3.509  1.00  0.00     0.014 C 
BRANCH  10  12
HETATM   12  C17 UNL     1      57.516 -35.778   4.367  1.00  0.00     0.005 C 
HETATM   13  C18 UNL     1      57.691 -36.559   5.634  1.00  0.00     0.014 C 
HETATM   14  C19 UNL     1      58.771 -34.986   4.098  1.00  0.00     0.014 C 
ENDBRANCH  10  12
ENDBRANCH   9  10
ENDBRANCH   8   9
ENDBRANCH   6   8
ENDBRANCH   5   6
BRANCH   5  15
HETATM   15  O1  UNL     1      54.852 -36.208   0.216  1.00  0.00    -0.394 OA
ATOM     16  H1  UNL     1      54.803 -35.425   0.752  1.00  0.00     0.210 HD
ENDBRANCH   5  15
ENDBRANCH   4   5
ENDBRANCH   1   4
BRANCH   1  17
HETATM   17  C9  UNL     1      54.531 -32.624  -0.533  1.00  0.00     0.291 C 
BRANCH  17  18
HETATM   18  C10 UNL     1      53.787 -32.714   0.748  1.00  0.00     0.059 A 
HETATM   19  C11 UNL     1      52.699 -31.980   1.168  1.00  0.00     0.171 A 
HETATM   20  O2  UNL     1      52.359 -32.382   2.372  1.00  0.00    -0.302 OA
HETATM   21  C12 UNL     1      53.161 -33.340   2.771  1.00  0.00     0.176 A 
HETATM   22  N3  UNL     1      54.043 -33.558   1.790  1.00  0.00    -0.335 N 
ATOM     23  H3  UNL     1      54.792 -34.249   1.817  1.00  0.00     0.168 HD
BRANCH  21  24
HETATM   24  C13 UNL     1      53.139 -34.066   4.040  1.00  0.00     0.108 A 
HETATM   25  C14 UNL     1      53.838 -35.213   4.353  1.00  0.00     0.070 A 
HETATM   26  C15 UNL     1      53.546 -35.570   5.642  1.00  0.00     0.075 A 
HETATM   27  C16 UNL     1      54.092 -36.754   6.376  1.00  0.00     0.079 C 
HETATM   28  O3  UNL     1      52.706 -34.666   6.074  1.00  0.00    -0.242 OA
HETATM   29  N2  UNL     1      52.442 -33.771   5.170  1.00  0.00    -0.257 N 
ATOM     30  H2  UNL     1      51.814 -32.976   5.289  1.00  0.00     0.195 HD
ENDBRANCH  21  24
ENDBRANCH  17  18
ENDBRANCH   1  17
TORSDOF 11
ENDMDL
MODEL 3
REMARK VINA RESULT: -8.922610557      2.058      5.240
REMARK  11 active torsions:
REMARK  status: ('A' for Active; 'I' for Inactive)
REMARK    1  A    between atoms: C2_2  and  C3_3 
REMARK    2  A    between atoms: C2_2  and  C17_28 
REMARK    3  A    between atoms: C3_3  and  C4_4 
REMARK    4  A    between atoms: C4_4  and  C5_5 
REMARK    5  A    between atoms: C5_5  and  C7_7 
REMARK    6  A    between atoms: C7_7  and  O1_8 
REMARK    7  A    between atoms: C7_7  and  C8_10 
REMARK    8  A    between atoms: C8_10  and  N1_11 
REMARK    9  A    between atoms: N1_11  and  C9_14 
REMARK   10  A    between atoms: C9_14  and  C10_15 
REMARK   11  A    between atoms: C12_18  and  C13_19 
ROOT
HETATM    1  N1  UNL     1      54.428 -34.485  -0.419  1.00  0.00    -0.068 N 
ATOM      2  H11 UNL     1      54.361 -35.129   0.369  1.00  0.00     0.277 HD
ATOM      3  H12 UNL     1      53.639 -34.817  -0.973  1.00  0.00     0.277 HD
ENDROOT
BRANCH   1   4
HETATM    4  C8  UNL     1      55.668 -34.664  -1.127  1.00  0.00     0.264 C 
BRANCH   4   5
HETATM    5  C7  UNL     1      56.715 -35.197  -0.222  1.00  0.00     0.147 C 
BRANCH   5   6
HETATM    6  C5  UNL     1      56.992 -36.683  -0.385  1.00  0.00     0.012 C 
HETATM    7  C6  UNL     1      58.326 -36.886  -1.103  1.00  0.00     0.012 C 
BRANCH   6   8
HETATM    8  C4  UNL     1      57.185 -37.228   1.006  1.00  0.00     0.011 C 
BRANCH   8   9
HETATM    9  C3  UNL     1      56.553 -36.469   2.100  1.00  0.00     0.034 C 
BRANCH   9  10
HETATM   10  C2  UNL     1      55.513 -37.211   2.818  1.00  0.00    -0.086 C 
HETATM   11  C1  UNL     1      54.249 -37.152   2.460  1.00  0.00     0.014 C 
BRANCH  10  12
HETATM   12  C17 UNL     1      55.892 -38.063   4.007  1.00  0.00     0.005 C 
HETATM   13  C18 UNL     1      56.604 -37.213   5.015  1.00  0.00     0.014 C 
HETATM   14  C19 UNL     1      54.679 -38.683   4.654  1.00  0.00     0.014 C 
ENDBRANCH  10  12
ENDBRANCH   9  10
ENDBRANCH   8   9
ENDBRANCH   6   8
ENDBRANCH   5   6
BRANCH   5  15
HETATM   15  O1  UNL     1      57.918 -34.470  -0.443  1.00  0.00    -0.394 OA
ATOM     16  H1  UNL     1      57.866 -33.635   0.007  1.00  0.00     0.210 HD
ENDBRANCH   5  15
ENDBRANCH   4   5
ENDBRANCH   1   4
BRANCH   1  17
HETATM   17  C9  UNL     1      54.223 -33.135   0.004  1.00  0.00     0.291 C 
BRANCH  17  18
HETATM   18  C10 UNL     1      53.445 -33.097   1.266  1.00  0.00     0.059 A 
HETATM   19  C11 UNL     1      52.325 -32.352   1.567  1.00  0.00     0.171 A 
HETATM   20  O2  UNL     1      51.959 -32.622   2.800  1.00  0.00    -0.302 OA
HETATM   21  C12 UNL     1      52.774 -33.502   3.331  1.00  0.00     0.176 A 
HETATM   22  N3  UNL     1      53.691 -33.806   2.406  1.00  0.00    -0.335 N 
ATOM     23  H3  UNL     1      54.457 -34.467   2.534  1.00  0.00     0.168 HD
BRANCH  21  24
HETATM   24  C13 UNL     1      52.733 -34.076   4.675  1.00  0.00     0.108 A 
HETATM   25  C14 UNL     1      53.474 -35.139   5.148  1.00  0.00     0.070 A 
HETATM   26  C15 UNL     1      53.144 -35.359   6.458  1.00  0.00     0.075 A 
HETATM   27  C16 UNL     1      53.716 -36.418   7.347  1.00  0.00     0.079 C 
HETATM   28  O3  UNL     1      52.242 -34.458   6.748  1.00  0.00    -0.242 OA
HETATM   29  N2  UNL     1      51.974 -33.690   5.735  1.00  0.00    -0.257 N 
ATOM     30  H2  UNL     1      51.302 -32.922   5.735  1.00  0.00     0.195 HD
ENDBRANCH  21  24
ENDBRANCH  17  18
ENDBRANCH   1  17
TORSDOF 11
ENDMDL
MODEL 4
REMARK VINA RESULT: -8.901970012      2.008      5.242
REMARK  11 active torsions:
REMARK  status: ('A' for Active; 'I' for Inactive)
REMARK    1  A    between atoms: C2_2  and  C3_3 
REMARK    2  A    between atoms: C2_2  and  C17_28 
REMARK    3  A    between atoms: C3_3  and  C4_4 
REMARK    4  A    between atoms: C4_4  and  C5_5 
REMARK    5  A    between atoms: C5_5  and  C7_7 
REMARK    6  A    between atoms: C7_7  and  O1_8 
REMARK    7  A    between atoms: C7_7  and  C8_10 
REMARK    8  A    between atoms: C8_10  and  N1_11 
REMARK    9  A    between atoms: N1_11  and  C9_14 
REMARK   10  A    between atoms: C9_14  and  C10_15 
REMARK   11  A    between atoms: C12_18  and  C13_19 
ROOT
HETATM    1  N1  UNL     1      54.618 -34.404  -0.861  1.00  0.00    -0.068 N 
ATOM      2  H11 UNL     1      53.845 -34.928  -0.451  1.00  0.00     0.277 HD
ATOM      3  H12 UNL     1      54.359 -34.467  -1.845  1.00  0.00     0.277 HD
ENDROOT
BRANCH   1   4
HETATM    4  C8  UNL     1      55.875 -35.061  -0.615  1.00  0.00     0.264 C 
BRANCH   4   5
HETATM    5  C7  UNL     1      55.657 -36.393  -0.001  1.00  0.00     0.147 C 
BRANCH   5   6
HETATM    6  C5  UNL     1      56.933 -37.140   0.356  1.00  0.00     0.012 C 
HETATM    7  C6  UNL     1      58.095 -36.610  -0.486  1.00  0.00     0.012 C 
BRANCH   6   8
HETATM    8  C4  UNL     1      57.251 -36.768   1.780  1.00  0.00     0.011 C 
BRANCH   8   9
HETATM    9  C3  UNL     1      57.485 -37.884   2.713  1.00  0.00     0.034 C 
BRANCH   9  10
HETATM   10  C2  UNL     1      56.814 -37.731   4.007  1.00  0.00    -0.086 C 
HETATM   11  C1  UNL     1      57.103 -36.741   4.823  1.00  0.00     0.014 C 
BRANCH  10  12
HETATM   12  C17 UNL     1      55.767 -38.736   4.426  1.00  0.00     0.005 C 
HETATM   13  C18 UNL     1      55.849 -38.944   5.908  1.00  0.00     0.014 C 
HETATM   14  C19 UNL     1      54.377 -38.271   4.069  1.00  0.00     0.014 C 
ENDBRANCH  10  12
ENDBRANCH   9  10
ENDBRANCH   8   9
ENDBRANCH   6   8
ENDBRANCH   5   6
BRANCH   5  15
HETATM   15  O1  UNL     1      54.869 -36.227   1.172  1.00  0.00    -0.394 OA
ATOM     16  H1  UNL     1      54.036 -35.835   0.936  1.00  0.00     0.210 HD
ENDBRANCH   5  15
ENDBRANCH   4   5
ENDBRANCH   1   4
BRANCH   1  17
HETATM   17  C9  UNL     1      54.609 -33.046  -0.415  1.00  0.00     0.291 C 
BRANCH  17  18
HETATM   18  C10 UNL     1      53.802 -32.910   0.822  1.00  0.00     0.059 A 
HETATM   19  C11 UNL     1      52.767 -32.038   1.086  1.00  0.00     0.171 A 
HETATM   20  O2  UNL     1      52.335 -32.256   2.308  1.00  0.00    -0.302 OA
HETATM   21  C12 UNL     1      53.026 -33.221   2.866  1.00  0.00     0.176 A 
HETATM   22  N3  UNL     1      53.930 -33.635   1.972  1.00  0.00    -0.335 N 
ATOM     23  H3  UNL     1      54.610 -34.378   2.125  1.00  0.00     0.168 HD
BRANCH  21  24
HETATM   24  C13 UNL     1      52.878 -33.777   4.211  1.00  0.00     0.108 A 
HETATM   25  C14 UNL     1      53.541 -34.864   4.737  1.00  0.00     0.070 A 
HETATM   26  C15 UNL     1      53.123 -35.055   6.026  1.00  0.00     0.075 A 
HETATM   27  C16 UNL     1      53.592 -36.127   6.959  1.00  0.00     0.079 C 
HETATM   28  O3  UNL     1      52.244 -34.114   6.252  1.00  0.00    -0.242 OA
HETATM   29  N2  UNL     1      52.072 -33.347   5.218  1.00  0.00    -0.257 N 
ATOM     30  H2  UNL     1      51.435 -32.551   5.170  1.00  0.00     0.195 HD
ENDBRANCH  21  24
ENDBRANCH  17  18
ENDBRANCH   1  17
TORSDOF 11
ENDMDL
MODEL 5
REMARK VINA RESULT: -8.811238745      1.888      5.248
REMARK  11 active torsions:
REMARK  status: ('A' for Active; 'I' for Inactive)
REMARK    1  A    between atoms: C2_2  and  C3_3 
REMARK    2  A    between atoms: C2_2  and  C17_28 
REMARK    3  A    between atoms: C3_3  and  C4_4 
REMARK    4  A    between atoms: C4_4  and  C5_5 
REMARK    5  A    between atoms: C5_5  and  C7_7 
REMARK    6  A    between atoms: C7_7  and  O1_8 
REMARK    7  A    between atoms: C7_7  and  C8_10 
REMARK    8  A    between atoms: C8_10  and  N1_11 
REMARK    9  A    between atoms: N1_11  and  C9_14 
REMARK   10  A    between atoms: C9_14  and  C10_15 
REMARK   11  A    between atoms: C12_18  and  C13_19 
ROOT
HETATM    1  N1  UNL     1      53.690 -34.324   0.063  1.00  0.00    -0.068 N 
ATOM      2  H11 UNL     1      53.282 -35.158   0.487  1.00  0.00     0.277 HD
ATOM      3  H12 UNL     1      52.991 -34.146  -0.658  1.00  0.00     0.277 HD
ENDROOT
BRANCH   1   4
HETATM    4  C8  UNL     1      54.972 -34.618  -0.522  1.00  0.00     0.264 C 
BRANCH   4   5
HETATM    5  C7  UNL     1      55.202 -36.082  -0.569  1.00  0.00     0.147 C 
BRANCH   5   6
HETATM    6  C5  UNL     1      56.661 -36.487  -0.705  1.00  0.00     0.012 C 
HETATM    7  C6  UNL     1      57.535 -35.239  -0.831  1.00  0.00     0.012 C 
BRANCH   6   8
HETATM    8  C4  UNL     1      57.041 -37.127   0.604  1.00  0.00     0.011 C 
BRANCH   8   9
HETATM    9  C3  UNL     1      57.608 -36.234   1.630  1.00  0.00     0.034 C 
BRANCH   9  10
HETATM   10  C2  UNL     1      57.492 -36.748   2.998  1.00  0.00    -0.086 C 
HETATM   11  C1  UNL     1      57.262 -38.020   3.242  1.00  0.00     0.014 C 
BRANCH  10  12
HETATM   12  C17 UNL     1      57.630 -35.798   4.164  1.00  0.00     0.005 C 
HETATM   13  C18 UNL     1      57.810 -36.588   5.425  1.00  0.00     0.014 C 
HETATM   14  C19 UNL     1      58.808 -34.872   3.989  1.00  0.00     0.014 C 
ENDBRANCH  10  12
ENDBRANCH   9  10
ENDBRANCH   8   9
ENDBRANCH   6   8
ENDBRANCH   5   6
BRANCH   5  15
HETATM   15  O1  UNL     1      54.663 -36.664   0.612  1.00  0.00    -0.394 OA
ATOM     16  H1  UNL     1      55.049 -37.522   0.742  1.00  0.00     0.210 HD
ENDBRANCH   5  15
ENDBRANCH   4   5
ENDBRANCH   1   4
BRANCH   1  17
HETATM   17  C9  UNL     1      53.745 -33.247   1.001  1.00  0.00     0.291 C 
BRANCH  17  18
HETATM   18  C10 UNL     1      53.490 -33.741   2.376  1.00  0.00     0.059 A 
HETATM   19  C11 UNL     1      52.701 -33.185   3.360  1.00  0.00     0.171 A 
HETATM   20  O2  UNL     1      52.761 -33.949   4.429  1.00  0.00    -0.302 OA
HETATM   21  C12 UNL     1      53.546 -34.976   4.206  1.00  0.00     0.176 A 
HETATM   22  N3  UNL     1      54.002 -34.867   2.954  1.00  0.00    -0.335 N 
ATOM     23  H3  UNL     1      54.635 -35.524   2.500  1.00  0.00     0.168 HD
BRANCH  21  24
HETATM   24  C13 UNL     1      53.891 -36.064   5.121  1.00  0.00     0.108 A 
HETATM   25  C14 UNL     1      54.294 -37.338   4.781  1.00  0.00     0.070 A 
HETATM   26  C15 UNL     1      54.526 -38.048   5.928  1.00  0.00     0.075 A 
HETATM   27  C16 UNL     1      54.979 -39.472   6.009  1.00  0.00     0.079 C 
HETATM   28  O3  UNL     1      54.268 -37.223   6.909  1.00  0.00    -0.242 OA
HETATM   29  N2  UNL     1      53.894 -36.055   6.481  1.00  0.00    -0.257 N 
ATOM     30  H2  UNL     1      53.643 -35.260   7.069  1.00  0.00     0.195 HD
ENDBRANCH  21  24
ENDBRANCH  17  18
ENDBRANCH   1  17
TORSDOF 11
ENDMDL
