MODEL 1
REMARK VINA RESULT: -8.220975692      0.000      0.000
REMARK  11 active torsions:
REMARK  status: ('A' for Active; 'I' for Inactive)
REMARK    1  A    between atoms: O1_2  and  C2_3 
REMARK    2  A    between atoms: C4_5  and  N1_6 
REMARK    3  A    between atoms: N1_6  and  C5_8 
REMARK    4  A    between atoms: C5_8  and  C6_9 
REMARK    5  A    between atoms: C6_9  and  C7_10 
REMARK    6  A    between atoms: C7_10  and  C8_11 
REMARK    7  A    between atoms: C8_11  and  N2_13 
REMARK       I    between atoms: N2_13  and  C10_15 
REMARK    8  A    between atoms: C10_15  and  C11_17 
REMARK    9  A    between atoms: C14_20  and  N3_21 
REMARK   10  A    between atoms: N3_21  and  O3_23 
REMARK   11  A    between atoms: C15_25  and  O4_26 
ROOT
HETATM    1  C2  UNL     1      54.183 -37.284   4.120  1.00  0.00     0.073 A 
HETATM    2  C3  UNL     1      54.134 -36.884   2.771  1.00  0.00     0.068 A 
HETATM    3  C4  UNL     1      53.805 -35.590   2.430  1.00  0.00     0.062 A 
HETATM    4  C14 UNL     1      53.536 -34.747   3.499  1.00  0.00     0.114 A 
HETATM    5  C15 UNL     1      53.570 -35.088   4.823  1.00  0.00     0.101 A 
HETATM    6  C17 UNL     1      53.902 -36.392   5.134  1.00  0.00     0.076 A 
ENDROOT
BRANCH   3   7
HETATM    7  N1  UNL     1      53.668 -35.116   1.134  1.00  0.00    -0.388 N 
ATOM      8  H1  UNL     1      52.702 -35.157   0.812  1.00  0.00     0.159 HD
BRANCH   7   9
HETATM    9  C5  UNL     1      54.533 -34.588   0.146  1.00  0.00     0.120 C 
BRANCH   9  10
HETATM   10  C6  UNL     1      55.280 -35.452  -0.760  1.00  0.00     0.022 C 
BRANCH  10  11
HETATM   11  C7  UNL     1      56.076 -36.528  -0.121  1.00  0.00     0.026 C 
BRANCH  11  12
HETATM   12  C8  UNL     1      57.490 -36.376   0.220  1.00  0.00     0.080 C 
HETATM   13  C9  UNL     1      58.405 -35.569  -0.620  1.00  0.00     0.032 C 
BRANCH  12  14
HETATM   14  N2  UNL     1      57.536 -35.760   1.574  1.00  0.00    -0.357 N 
HETATM   15  C10 UNL     1      57.522 -36.497   2.760  1.00  0.00     0.221 C 
HETATM   16  O2  UNL     1      57.469 -37.767   2.786  1.00  0.00    -0.273 OA
ATOM     17  H2  UNL     1      57.581 -34.743   1.639  1.00  0.00     0.162 HD
BRANCH  15  18
HETATM   18  C11 UNL     1      57.571 -35.770   4.064  1.00  0.00     0.070 C 
HETATM   19  C12 UNL     1      57.668 -36.715   5.229  1.00  0.00     0.019 C 
HETATM   20  C13 UNL     1      58.806 -34.855   4.009  1.00  0.00     0.019 C 
ENDBRANCH  15  18
ENDBRANCH  12  14
ENDBRANCH  11  12
ENDBRANCH  10  11
ENDBRANCH   9  10
ENDBRANCH   7   9
ENDBRANCH   3   7
BRANCH   4  21
HETATM   21  N3  UNL     1      53.197 -33.388   3.200  1.00  0.00    -0.264 N 
ATOM     22  H3  UNL     1      53.893 -32.682   2.962  1.00  0.00     0.194 HD
BRANCH  21  23
HETATM   23  O3  UNL     1      51.954 -33.142   3.256  1.00  0.00    -0.289 OA
ATOM     24  H3  UNL     1      51.745 -32.277   3.588  1.00  0.00     0.244 HD
ENDBRANCH  21  23
ENDBRANCH   4  21
BRANCH   1  25
HETATM   25  O1  UNL     1      54.511 -38.589   4.446  1.00  0.00    -0.356 OA
HETATM   26  C1  UNL     1      54.744 -39.021   5.742  1.00  0.00     0.210 C 
ENDBRANCH   1  25
BRANCH   5  27
HETATM   27  O4  UNL     1      53.277 -34.147   5.830  1.00  0.00    -0.353 OA
HETATM   28  C16 UNL     1      52.335 -34.498   6.809  1.00  0.00     0.210 C 
ENDBRANCH   5  27
TORSDOF 11
ENDMDL
MODEL 2
REMARK VINA RESULT: -8.062747840      1.900      3.096
REMARK  11 active torsions:
REMARK  status: ('A' for Active; 'I' for Inactive)
REMARK    1  A    between atoms: O1_2  and  C2_3 
REMARK    2  A    between atoms: C4_5  and  N1_6 
REMARK    3  A    between atoms: N1_6  and  C5_8 
REMARK    4  A    between atoms: C5_8  and  C6_9 
REMARK    5  A    between atoms: C6_9  and  C7_10 
REMARK    6  A    between atoms: C7_10  and  C8_11 
REMARK    7  A    between atoms: C8_11  and  N2_13 
REMARK       I    between atoms: N2_13  and  C10_15 
REMARK    8  A    between atoms: C10_15  and  C11_17 
REMARK    9  A    between atoms: C14_20  and  N3_21 
REMARK   10  A    between atoms: N3_21  and  O3_23 
REMARK   11  A    between atoms: C15_25  and  O4_26 
ROOT
HETATM    1  C2  UNL     1      54.282 -37.169   4.078  1.00  0.00     0.073 A 
HETATM    2  C3  UNL     1      54.221 -36.761   2.732  1.00  0.00     0.068 A 
HETATM    3  C4  UNL     1      53.832 -35.482   2.400  1.00  0.00     0.062 A 
HETATM    4  C14 UNL     1      53.518 -34.660   3.473  1.00  0.00     0.114 A 
HETATM    5  C15 UNL     1      53.561 -35.010   4.795  1.00  0.00     0.101 A 
HETATM    6  C17 UNL     1      53.954 -36.299   5.098  1.00  0.00     0.076 A 
ENDROOT
BRANCH   3   7
HETATM    7  N1  UNL     1      53.679 -35.004   1.106  1.00  0.00    -0.388 N 
ATOM      8  H1  UNL     1      52.704 -34.803   0.886  1.00  0.00     0.159 HD
BRANCH   7   9
HETATM    9  C5  UNL     1      54.536 -34.725   0.016  1.00  0.00     0.120 C 
BRANCH   9  10
HETATM   10  C6  UNL     1      55.298 -35.775  -0.650  1.00  0.00     0.022 C 
BRANCH  10  11
HETATM   11  C7  UNL     1      56.679 -35.416  -1.056  1.00  0.00     0.026 C 
BRANCH  11  12
HETATM   12  C8  UNL     1      57.867 -35.924  -0.371  1.00  0.00     0.080 C 
HETATM   13  C9  UNL     1      58.093 -37.377  -0.192  1.00  0.00     0.032 C 
BRANCH  12  14
HETATM   14  N2  UNL     1      59.043 -35.424  -1.134  1.00  0.00    -0.357 N 
HETATM   15  C10 UNL     1      59.755 -34.273  -0.790  1.00  0.00     0.221 C 
HETATM   16  O2  UNL     1      59.459 -33.548   0.212  1.00  0.00    -0.273 OA
ATOM     17  H2  UNL     1      59.345 -35.951  -1.953  1.00  0.00     0.162 HD
BRANCH  15  18
HETATM   18  C11 UNL     1      60.920 -33.865  -1.632  1.00  0.00     0.070 C 
HETATM   19  C12 UNL     1      62.085 -33.414  -0.795  1.00  0.00     0.019 C 
HETATM   20  C13 UNL     1      61.304 -35.094  -2.471  1.00  0.00     0.019 C 
ENDBRANCH  15  18
ENDBRANCH  12  14
ENDBRANCH  11  12
ENDBRANCH  10  11
ENDBRANCH   9  10
ENDBRANCH   7   9
ENDBRANCH   3   7
BRANCH   4  21
HETATM   21  N3  UNL     1      53.115 -33.318   3.182  1.00  0.00    -0.264 N 
ATOM     22  H3  UNL     1      53.778 -32.575   2.960  1.00  0.00     0.194 HD
BRANCH  21  23
HETATM   23  O3  UNL     1      51.861 -33.133   3.226  1.00  0.00    -0.289 OA
ATOM     24  H3  UNL     1      51.405 -33.709   3.829  1.00  0.00     0.244 HD
ENDBRANCH  21  23
ENDBRANCH   4  21
BRANCH   1  25
HETATM   25  O1  UNL     1      54.671 -38.458   4.396  1.00  0.00    -0.356 OA
HETATM   26  C1  UNL     1      54.702 -38.955   5.690  1.00  0.00     0.210 C 
ENDBRANCH   1  25
BRANCH   5  27
HETATM   27  O4  UNL     1      53.218 -34.093   5.807  1.00  0.00    -0.353 OA
HETATM   28  C16 UNL     1      52.532 -34.574   6.932  1.00  0.00     0.210 C 
ENDBRANCH   5  27
TORSDOF 11
ENDMDL
MODEL 3
REMARK VINA RESULT: -8.015081416      2.337      3.548
REMARK  11 active torsions:
REMARK  status: ('A' for Active; 'I' for Inactive)
REMARK    1  A    between atoms: O1_2  and  C2_3 
REMARK    2  A    between atoms: C4_5  and  N1_6 
REMARK    3  A    between atoms: N1_6  and  C5_8 
REMARK    4  A    between atoms: C5_8  and  C6_9 
REMARK    5  A    between atoms: C6_9  and  C7_10 
REMARK    6  A    between atoms: C7_10  and  C8_11 
REMARK    7  A    between atoms: C8_11  and  N2_13 
REMARK       I    between atoms: N2_13  and  C10_15 
REMARK    8  A    between atoms: C10_15  and  C11_17 
REMARK    9  A    between atoms: C14_20  and  N3_21 
REMARK   10  A    between atoms: N3_21  and  O3_23 
REMARK   11  A    between atoms: C15_25  and  O4_26 
ROOT
HETATM    1  C2  UNL     1      54.514 -37.554   4.579  1.00  0.00     0.073 A 
HETATM    2  C3  UNL     1      55.226 -37.350   3.381  1.00  0.00     0.068 A 
HETATM    3  C4  UNL     1      55.303 -36.097   2.812  1.00  0.00     0.062 A 
HETATM    4  C14 UNL     1      54.641 -35.091   3.501  1.00  0.00     0.114 A 
HETATM    5  C15 UNL     1      53.937 -35.239   4.665  1.00  0.00     0.101 A 
HETATM    6  C17 UNL     1      53.877 -36.506   5.212  1.00  0.00     0.076 A 
ENDROOT
BRANCH   3   7
HETATM    7  N1  UNL     1      55.923 -35.806   1.605  1.00  0.00    -0.388 N 
ATOM      8  H1  UNL     1      56.171 -34.819   1.532  1.00  0.00     0.159 HD
BRANCH   7   9
HETATM    9  C5  UNL     1      56.299 -36.533   0.452  1.00  0.00     0.120 C 
BRANCH   9  10
HETATM   10  C6  UNL     1      57.635 -37.098   0.302  1.00  0.00     0.022 C 
BRANCH  10  11
HETATM   11  C7  UNL     1      58.309 -36.833  -0.992  1.00  0.00     0.026 C 
BRANCH  11  12
HETATM   12  C8  UNL     1      59.071 -35.613  -1.257  1.00  0.00     0.080 C 
HETATM   13  C9  UNL     1      60.227 -35.610  -2.184  1.00  0.00     0.032 C 
BRANCH  12  14
HETATM   14  N2  UNL     1      58.109 -34.622  -1.810  1.00  0.00    -0.357 N 
HETATM   15  C10 UNL     1      58.100 -33.272  -1.455  1.00  0.00     0.221 C 
HETATM   16  O2  UNL     1      58.920 -32.768  -0.624  1.00  0.00    -0.273 OA
ATOM     17  H2  UNL     1      57.417 -34.947  -2.485  1.00  0.00     0.162 HD
BRANCH  15  18
HETATM   18  C11 UNL     1      57.084 -32.368  -2.074  1.00  0.00     0.070 C 
HETATM   19  C12 UNL     1      55.687 -32.895  -1.901  1.00  0.00     0.019 C 
HETATM   20  C13 UNL     1      57.234 -31.003  -1.383  1.00  0.00     0.019 C 
ENDBRANCH  15  18
ENDBRANCH  12  14
ENDBRANCH  11  12
ENDBRANCH  10  11
ENDBRANCH   9  10
ENDBRANCH   7   9
ENDBRANCH   3   7
BRANCH   4  21
HETATM   21  N3  UNL     1      54.697 -33.769   2.955  1.00  0.00    -0.264 N 
ATOM     22  H3  UNL     1      55.162 -32.993   3.427  1.00  0.00     0.194 HD
BRANCH  21  23
HETATM   23  O3  UNL     1      54.119 -33.648   1.832  1.00  0.00    -0.289 OA
ATOM     24  H3  UNL     1      53.194 -33.866   1.848  1.00  0.00     0.244 HD
ENDBRANCH  21  23
ENDBRANCH   4  21
BRANCH   1  25
HETATM   25  O1  UNL     1      54.442 -38.818   5.137  1.00  0.00    -0.356 OA
HETATM   26  C1  UNL     1      55.462 -39.387   5.885  1.00  0.00     0.210 C 
ENDBRANCH   1  25
BRANCH   5  27
HETATM   27  O4  UNL     1      53.301 -34.145   5.281  1.00  0.00    -0.353 OA
HETATM   28  C16 UNL     1      52.592 -34.375   6.470  1.00  0.00     0.210 C 
ENDBRANCH   5  27
TORSDOF 11
ENDMDL
MODEL 4
REMARK VINA RESULT: -7.937750794      2.372      3.597
REMARK  11 active torsions:
REMARK  status: ('A' for Active; 'I' for Inactive)
REMARK    1  A    between atoms: O1_2  and  C2_3 
REMARK    2  A    between atoms: C4_5  and  N1_6 
REMARK    3  A    between atoms: N1_6  and  C5_8 
REMARK    4  A    between atoms: C5_8  and  C6_9 
REMARK    5  A    between atoms: C6_9  and  C7_10 
REMARK    6  A    between atoms: C7_10  and  C8_11 
REMARK    7  A    between atoms: C8_11  and  N2_13 
REMARK       I    between atoms: N2_13  and  C10_15 
REMARK    8  A    between atoms: C10_15  and  C11_17 
REMARK    9  A    between atoms: C14_20  and  N3_21 
REMARK   10  A    between atoms: N3_21  and  O3_23 
REMARK   11  A    between atoms: C15_25  and  O4_26 
ROOT
HETATM    1  C2  UNL     1      54.366 -37.368   4.060  1.00  0.00     0.073 A 
HETATM    2  C3  UNL     1      54.834 -37.033   2.774  1.00  0.00     0.068 A 
HETATM    3  C4  UNL     1      54.824 -35.725   2.340  1.00  0.00     0.062 A 
HETATM    4  C14 UNL     1      54.332 -34.802   3.251  1.00  0.00     0.114 A 
HETATM    5  C15 UNL     1      53.867 -35.078   4.507  1.00  0.00     0.101 A 
HETATM    6  C17 UNL     1      53.888 -36.397   4.915  1.00  0.00     0.076 A 
ENDROOT
BRANCH   3   7
HETATM    7  N1  UNL     1      55.203 -35.302   1.074  1.00  0.00    -0.388 N 
ATOM      8  H1  UNL     1      55.557 -34.346   1.081  1.00  0.00     0.159 HD
BRANCH   7   9
HETATM    9  C5  UNL     1      55.221 -35.864  -0.225  1.00  0.00     0.120 C 
BRANCH   9  10
HETATM   10  C6  UNL     1      56.446 -36.386  -0.818  1.00  0.00     0.022 C 
BRANCH  10  11
HETATM   11  C7  UNL     1      57.705 -36.036  -0.118  1.00  0.00     0.026 C 
BRANCH  11  12
HETATM   12  C8  UNL     1      58.749 -35.210  -0.723  1.00  0.00     0.080 C 
HETATM   13  C9  UNL     1      59.636 -35.741  -1.784  1.00  0.00     0.032 C 
BRANCH  12  14
HETATM   14  N2  UNL     1      58.065 -34.032  -1.322  1.00  0.00    -0.357 N 
HETATM   15  C10 UNL     1      58.454 -32.711  -1.090  1.00  0.00     0.221 C 
HETATM   16  O2  UNL     1      59.433 -32.398  -0.342  1.00  0.00    -0.273 OA
ATOM     17  H2  UNL     1      57.268 -34.199  -1.937  1.00  0.00     0.162 HD
BRANCH  15  18
HETATM   18  C11 UNL     1      57.690 -31.607  -1.745  1.00  0.00     0.070 C 
HETATM   19  C12 UNL     1      58.564 -30.780  -2.646  1.00  0.00     0.019 C 
HETATM   20  C13 UNL     1      56.564 -32.274  -2.552  1.00  0.00     0.019 C 
ENDBRANCH  15  18
ENDBRANCH  12  14
ENDBRANCH  11  12
ENDBRANCH  10  11
ENDBRANCH   9  10
ENDBRANCH   7   9
ENDBRANCH   3   7
BRANCH   4  21
HETATM   21  N3  UNL     1      54.309 -33.427   2.851  1.00  0.00    -0.264 N 
ATOM     22  H3  UNL     1      55.152 -32.904   2.614  1.00  0.00     0.194 HD
BRANCH  21  23
HETATM   23  O3  UNL     1      53.148 -32.918   2.818  1.00  0.00    -0.289 OA
ATOM     24  H3  UNL     1      53.012 -32.222   3.451  1.00  0.00     0.244 HD
ENDBRANCH  21  23
ENDBRANCH   4  21
BRANCH   1  25
HETATM   25  O1  UNL     1      54.378 -38.687   4.481  1.00  0.00    -0.356 OA
HETATM   26  C1  UNL     1      54.836 -39.092   5.725  1.00  0.00     0.210 C 
ENDBRANCH   1  25
BRANCH   5  27
HETATM   27  O4  UNL     1      53.388 -34.058   5.352  1.00  0.00    -0.353 OA
HETATM   28  C16 UNL     1      52.487 -34.411   6.369  1.00  0.00     0.210 C 
ENDBRANCH   5  27
TORSDOF 11
ENDMDL
MODEL 5
REMARK VINA RESULT: -7.906748567      1.851      2.761
REMARK  11 active torsions:
REMARK  status: ('A' for Active; 'I' for Inactive)
REMARK    1  A    between atoms: O1_2  and  C2_3 
REMARK    2  A    between atoms: C4_5  and  N1_6 
REMARK    3  A    between atoms: N1_6  and  C5_8 
REMARK    4  A    between atoms: C5_8  and  C6_9 
REMARK    5  A    between atoms: C6_9  and  C7_10 
REMARK    6  A    between atoms: C7_10  and  C8_11 
REMARK    7  A    between atoms: C8_11  and  N2_13 
REMARK       I    between atoms: N2_13  and  C10_15 
REMARK    8  A    between atoms: C10_15  and  C11_17 
REMARK    9  A    between atoms: C14_20  and  N3_21 
REMARK   10  A    between atoms: N3_21  and  O3_23 
REMARK   11  A    between atoms: C15_25  and  O4_26 
ROOT
HETATM    1  C2  UNL     1      54.348 -37.639   4.774  1.00  0.00     0.073 A 
HETATM    2  C3  UNL     1      54.444 -37.092   3.480  1.00  0.00     0.068 A 
HETATM    3  C4  UNL     1      54.121 -35.774   3.246  1.00  0.00     0.062 A 
HETATM    4  C14 UNL     1      53.708 -35.058   4.360  1.00  0.00     0.114 A 
HETATM    5  C15 UNL     1      53.598 -35.543   5.635  1.00  0.00     0.101 A 
HETATM    6  C17 UNL     1      53.929 -36.868   5.839  1.00  0.00     0.076 A 
ENDROOT
BRANCH   3   7
HETATM    7  N1  UNL     1      54.121 -35.161   2.001  1.00  0.00    -0.388 N 
ATOM      8  H1  UNL     1      55.065 -35.042   1.634  1.00  0.00     0.159 HD
BRANCH   7   9
HETATM    9  C5  UNL     1      53.141 -34.659   1.113  1.00  0.00     0.120 C 
BRANCH   9  10
HETATM   10  C6  UNL     1      53.159 -33.276   0.651  1.00  0.00     0.022 C 
BRANCH  10  11
HETATM   11  C7  UNL     1      54.413 -32.828  -0.003  1.00  0.00     0.026 C 
BRANCH  11  12
HETATM   12  C8  UNL     1      55.008 -33.522  -1.144  1.00  0.00     0.080 C 
HETATM   13  C9  UNL     1      55.431 -32.788  -2.359  1.00  0.00     0.032 C 
BRANCH  12  14
HETATM   14  N2  UNL     1      56.230 -34.201  -0.638  1.00  0.00    -0.357 N 
HETATM   15  C10 UNL     1      56.349 -35.588  -0.515  1.00  0.00     0.221 C 
HETATM   16  O2  UNL     1      55.418 -36.394  -0.828  1.00  0.00    -0.273 OA
ATOM     17  H2  UNL     1      57.025 -33.624  -0.365  1.00  0.00     0.162 HD
BRANCH  15  18
HETATM   18  C11 UNL     1      57.627 -36.160   0.008  1.00  0.00     0.070 C 
HETATM   19  C12 UNL     1      57.382 -37.207   1.059  1.00  0.00     0.019 C 
HETATM   20  C13 UNL     1      58.359 -36.769  -1.198  1.00  0.00     0.019 C 
ENDBRANCH  15  18
ENDBRANCH  12  14
ENDBRANCH  11  12
ENDBRANCH  10  11
ENDBRANCH   9  10
ENDBRANCH   7   9
ENDBRANCH   3   7
BRANCH   4  21
HETATM   21  N3  UNL     1      53.368 -33.680   4.172  1.00  0.00    -0.264 N 
ATOM     22  H3  UNL     1      54.067 -32.947   4.055  1.00  0.00     0.194 HD
BRANCH  21  23
HETATM   23  O3  UNL     1      52.120 -33.452   4.163  1.00  0.00    -0.289 OA
ATOM     24  H3  UNL     1      51.808 -33.036   3.367  1.00  0.00     0.244 HD
ENDBRANCH  21  23
ENDBRANCH   4  21
BRANCH   1  25
HETATM   25  O1  UNL     1      54.673 -38.966   4.994  1.00  0.00    -0.356 OA
HETATM   26  C1  UNL     1      55.020 -39.477   6.234  1.00  0.00     0.210 C 
ENDBRANCH   1  25
BRANCH   5  27
HETATM   27  O4  UNL     1      53.166 -34.724   6.696  1.00  0.00    -0.353 OA
HETATM   28  C16 UNL     1      51.937 -35.022   7.303  1.00  0.00     0.210 C 
ENDBRANCH   5  27
TORSDOF 11
ENDMDL
