MODEL 1
REMARK VINA RESULT: -7.355585485      0.000      0.000
REMARK  12 active torsions:
REMARK  status: ('A' for Active; 'I' for Inactive)
REMARK    1  A    between atoms: C2_2  and  O1_3 
REMARK    2  A    between atoms: O1_3  and  C3_4 
REMARK    3  A    between atoms: C3_4  and  C4_6 
REMARK    4  A    between atoms: C5_7  and  O3_8 
REMARK    5  A    between atoms: N1_11  and  C7_12 
REMARK    6  A    between atoms: C7_12  and  C9_14 
REMARK    7  A    between atoms: C9_14  and  C10_15 
REMARK    8  A    between atoms: C13_18  and  N2_19 
REMARK    9  A    between atoms: N2_19  and  C14_21 
REMARK   10  A    between atoms: C14_21  and  C15_22 
REMARK   11  A    between atoms: C15_22  and  S1_23 
REMARK   12  A    between atoms: S1_23  and  C16_24 
ROOT
HETATM    1  C4  UNL     1      53.224 -34.817   4.920  1.00  0.00     0.117 A 
HETATM    2  C5  UNL     1      53.272 -35.372   6.232  1.00  0.00     0.101 A 
HETATM    3  C6  UNL     1      54.046 -36.480   6.207  1.00  0.00     0.130 A 
HETATM    4  N1  UNL     1      54.482 -36.648   4.963  1.00  0.00    -0.336 N 
HETATM    5  C13 UNL     1      53.991 -35.639   4.147  1.00  0.00     0.123 A 
ENDROOT
BRANCH   5   6
HETATM    6  N2  UNL     1      54.302 -35.562   2.778  1.00  0.00    -0.374 N 
ATOM      7  H2  UNL     1      55.267 -35.280   2.609  1.00  0.00     0.161 HD
BRANCH   6   8
HETATM    8  C14 UNL     1      53.589 -35.783   1.591  1.00  0.00     0.131 C 
BRANCH   8   9
HETATM    9  C15 UNL     1      54.276 -35.085   0.381  1.00  0.00     0.093 C 
BRANCH   9  10
HETATM   10  S1  UNL     1      55.279 -36.256  -0.539  1.00  0.00    -0.168 SA
BRANCH  10  11
HETATM   11  C16 UNL     1      56.942 -35.639  -0.851  1.00  0.00     0.069 C 
HETATM   12  C17 UNL     1      57.948 -36.771  -1.004  1.00  0.00     0.016 C 
ENDBRANCH  10  11
ENDBRANCH   9  10
ENDBRANCH   8   9
ENDBRANCH   6   8
ENDBRANCH   5   6
BRANCH   1  13
HETATM   13  C3  UNL     1      52.469 -33.622   4.621  1.00  0.00     0.299 C 
HETATM   14  O2  UNL     1      52.133 -32.749   5.387  1.00  0.00    -0.259 OA
BRANCH  13  15
HETATM   15  O1  UNL     1      52.060 -33.415   3.281  1.00  0.00    -0.318 OA
BRANCH  15  16
HETATM   16  C2  UNL     1      51.787 -32.064   2.862  1.00  0.00     0.174 C 
HETATM   17  C1  UNL     1      52.783 -31.708   1.812  1.00  0.00     0.034 C 
ENDBRANCH  15  16
ENDBRANCH  13  15
ENDBRANCH   1  13
BRANCH   4  18
HETATM   18  C7  UNL     1      55.349 -37.741   4.529  1.00  0.00     0.087 C 
HETATM   19  C8  UNL     1      54.822 -39.005   5.181  1.00  0.00     0.033 C 
BRANCH  18  20
HETATM   20  C9  UNL     1      56.746 -37.510   5.026  1.00  0.00     0.029 C 
BRANCH  20  21
HETATM   21  C10 UNL     1      57.684 -37.121   3.901  1.00  0.00    -0.021 C 
HETATM   22  C11 UNL     1      57.140 -37.578   2.583  1.00  0.00     0.009 C 
HETATM   23  C12 UNL     1      57.761 -35.611   3.894  1.00  0.00     0.009 C 
ENDBRANCH  20  21
ENDBRANCH  18  20
ENDBRANCH   4  18
BRANCH   2  24
HETATM   24  O3  UNL     1      52.635 -34.863   7.348  1.00  0.00    -0.358 OA
ATOM     25  H3  UNL     1      51.695 -34.794   7.467  1.00  0.00     0.217 HD
ENDBRANCH   2  24
TORSDOF 12
ENDMDL
MODEL 2
REMARK VINA RESULT: -7.304166480      1.792      4.599
REMARK  12 active torsions:
REMARK  status: ('A' for Active; 'I' for Inactive)
REMARK    1  A    between atoms: C2_2  and  O1_3 
REMARK    2  A    between atoms: O1_3  and  C3_4 
REMARK    3  A    between atoms: C3_4  and  C4_6 
REMARK    4  A    between atoms: C5_7  and  O3_8 
REMARK    5  A    between atoms: N1_11  and  C7_12 
REMARK    6  A    between atoms: C7_12  and  C9_14 
REMARK    7  A    between atoms: C9_14  and  C10_15 
REMARK    8  A    between atoms: C13_18  and  N2_19 
REMARK    9  A    between atoms: N2_19  and  C14_21 
REMARK   10  A    between atoms: C14_21  and  C15_22 
REMARK   11  A    between atoms: C15_22  and  S1_23 
REMARK   12  A    between atoms: S1_23  and  C16_24 
ROOT
HETATM    1  C4  UNL     1      53.749 -35.910   6.161  1.00  0.00     0.117 A 
HETATM    2  C5  UNL     1      52.593 -35.133   6.465  1.00  0.00     0.101 A 
HETATM    3  C6  UNL     1      52.333 -34.315   5.421  1.00  0.00     0.130 A 
HETATM    4  N1  UNL     1      53.253 -34.535   4.488  1.00  0.00    -0.336 N 
HETATM    5  C13 UNL     1      54.140 -35.513   4.916  1.00  0.00     0.123 A 
ENDROOT
BRANCH   5   6
HETATM    6  N2  UNL     1      55.213 -35.954   4.121  1.00  0.00    -0.374 N 
ATOM      7  H2  UNL     1      54.947 -36.703   3.482  1.00  0.00     0.161 HD
BRANCH   6   8
HETATM    8  C14 UNL     1      56.565 -35.602   4.007  1.00  0.00     0.131 C 
BRANCH   8   9
HETATM    9  C15 UNL     1      57.453 -36.851   3.734  1.00  0.00     0.093 C 
BRANCH   9  10
HETATM   10  S1  UNL     1      57.148 -37.497   2.087  1.00  0.00    -0.168 SA
BRANCH  10  11
HETATM   11  C16 UNL     1      57.661 -36.352   0.795  1.00  0.00     0.069 C 
HETATM   12  C17 UNL     1      58.024 -37.077  -0.495  1.00  0.00     0.016 C 
ENDBRANCH  10  11
ENDBRANCH   9  10
ENDBRANCH   8   9
ENDBRANCH   6   8
ENDBRANCH   5   6
BRANCH   1  13
HETATM   13  C3  UNL     1      54.283 -36.882   7.086  1.00  0.00     0.299 C 
HETATM   14  O2  UNL     1      53.970 -37.053   8.241  1.00  0.00    -0.259 OA
BRANCH  13  15
HETATM   15  O1  UNL     1      55.294 -37.756   6.618  1.00  0.00    -0.318 OA
BRANCH  15  16
HETATM   16  C2  UNL     1      54.946 -39.139   6.414  1.00  0.00     0.174 C 
HETATM   17  C1  UNL     1      54.843 -39.365   4.944  1.00  0.00     0.034 C 
ENDBRANCH  15  16
ENDBRANCH  13  15
ENDBRANCH   1  13
BRANCH   4  18
HETATM   18  C7  UNL     1      53.314 -33.841   3.204  1.00  0.00     0.087 C 
HETATM   19  C8  UNL     1      52.231 -32.779   3.227  1.00  0.00     0.033 C 
BRANCH  18  20
HETATM   20  C9  UNL     1      53.001 -34.799   2.092  1.00  0.00     0.029 C 
BRANCH  20  21
HETATM   21  C10 UNL     1      54.154 -34.924   1.118  1.00  0.00    -0.021 C 
HETATM   22  C11 UNL     1      54.026 -36.181   0.313  1.00  0.00     0.009 C 
HETATM   23  C12 UNL     1      54.070 -33.741   0.181  1.00  0.00     0.009 C 
ENDBRANCH  20  21
ENDBRANCH  18  20
ENDBRANCH   4  18
BRANCH   2  24
HETATM   24  O3  UNL     1      51.857 -35.202   7.633  1.00  0.00    -0.358 OA
ATOM     25  H3  UNL     1      50.961 -34.906   7.743  1.00  0.00     0.217 HD
ENDBRANCH   2  24
TORSDOF 12
ENDMDL
MODEL 3
REMARK VINA RESULT: -7.294654721      1.929      4.954
REMARK  12 active torsions:
REMARK  status: ('A' for Active; 'I' for Inactive)
REMARK    1  A    between atoms: C2_2  and  O1_3 
REMARK    2  A    between atoms: O1_3  and  C3_4 
REMARK    3  A    between atoms: C3_4  and  C4_6 
REMARK    4  A    between atoms: C5_7  and  O3_8 
REMARK    5  A    between atoms: N1_11  and  C7_12 
REMARK    6  A    between atoms: C7_12  and  C9_14 
REMARK    7  A    between atoms: C9_14  and  C10_15 
REMARK    8  A    between atoms: C13_18  and  N2_19 
REMARK    9  A    between atoms: N2_19  and  C14_21 
REMARK   10  A    between atoms: C14_21  and  C15_22 
REMARK   11  A    between atoms: C15_22  and  S1_23 
REMARK   12  A    between atoms: S1_23  and  C16_24 
ROOT
HETATM    1  C4  UNL     1      53.148 -33.954   3.373  1.00  0.00     0.117 A 
HETATM    2  C5  UNL     1      52.296 -33.329   2.417  1.00  0.00     0.101 A 
HETATM    3  C6  UNL     1      52.875 -33.412   1.199  1.00  0.00     0.130 A 
HETATM    4  N1  UNL     1      54.032 -34.049   1.337  1.00  0.00    -0.336 N 
HETATM    5  C13 UNL     1      54.229 -34.395   2.666  1.00  0.00     0.123 A 
ENDROOT
BRANCH   5   6
HETATM    6  N2  UNL     1      55.371 -35.091   3.100  1.00  0.00    -0.374 N 
ATOM      7  H2  UNL     1      55.562 -35.921   2.540  1.00  0.00     0.161 HD
BRANCH   6   8
HETATM    8  C14 UNL     1      56.307 -34.906   4.128  1.00  0.00     0.131 C 
BRANCH   8   9
HETATM    9  C15 UNL     1      57.240 -36.143   4.272  1.00  0.00     0.093 C 
BRANCH   9  10
HETATM   10  S1  UNL     1      56.776 -37.123   5.704  1.00  0.00    -0.168 SA
BRANCH  10  11
HETATM   11  C16 UNL     1      55.863 -38.608   5.252  1.00  0.00     0.069 C 
HETATM   12  C17 UNL     1      54.620 -38.285   4.434  1.00  0.00     0.016 C 
ENDBRANCH  10  11
ENDBRANCH   9  10
ENDBRANCH   8   9
ENDBRANCH   6   8
ENDBRANCH   5   6
BRANCH   1  13
HETATM   13  C3  UNL     1      52.806 -34.026   4.774  1.00  0.00     0.299 C 
HETATM   14  O2  UNL     1      52.295 -33.168   5.455  1.00  0.00    -0.259 OA
BRANCH  13  15
HETATM   15  O1  UNL     1      53.086 -35.231   5.464  1.00  0.00    -0.318 OA
BRANCH  15  16
HETATM   16  C2  UNL     1      52.794 -35.283   6.873  1.00  0.00     0.174 C 
HETATM   17  C1  UNL     1      53.586 -36.404   7.456  1.00  0.00     0.034 C 
ENDBRANCH  15  16
ENDBRANCH  13  15
ENDBRANCH   1  13
BRANCH   4  18
HETATM   18  C7  UNL     1      54.956 -34.336   0.242  1.00  0.00     0.087 C 
HETATM   19  C8  UNL     1      54.644 -33.348  -0.867  1.00  0.00     0.033 C 
BRANCH  18  20
HETATM   20  C9  UNL     1      54.708 -35.719  -0.284  1.00  0.00     0.029 C 
BRANCH  20  21
HETATM   21  C10 UNL     1      56.003 -36.460  -0.547  1.00  0.00    -0.021 C 
HETATM   22  C11 UNL     1      57.049 -35.520  -1.063  1.00  0.00     0.009 C 
HETATM   23  C12 UNL     1      56.468 -37.019   0.778  1.00  0.00     0.009 C 
ENDBRANCH  20  21
ENDBRANCH  18  20
ENDBRANCH   4  18
BRANCH   2  24
HETATM   24  O3  UNL     1      51.077 -32.735   2.688  1.00  0.00    -0.358 OA
ATOM     25  H3  UNL     1      50.540 -32.261   2.064  1.00  0.00     0.217 HD
ENDBRANCH   2  24
TORSDOF 12
ENDMDL
MODEL 4
REMARK VINA RESULT: -7.199338534      1.037      1.169
REMARK  12 active torsions:
REMARK  status: ('A' for Active; 'I' for Inactive)
REMARK    1  A    between atoms: C2_2  and  O1_3 
REMARK    2  A    between atoms: O1_3  and  C3_4 
REMARK    3  A    between atoms: C3_4  and  C4_6 
REMARK    4  A    between atoms: C5_7  and  O3_8 
REMARK    5  A    between atoms: N1_11  and  C7_12 
REMARK    6  A    between atoms: C7_12  and  C9_14 
REMARK    7  A    between atoms: C9_14  and  C10_15 
REMARK    8  A    between atoms: C13_18  and  N2_19 
REMARK    9  A    between atoms: N2_19  and  C14_21 
REMARK   10  A    between atoms: C14_21  and  C15_22 
REMARK   11  A    between atoms: C15_22  and  S1_23 
REMARK   12  A    between atoms: S1_23  and  C16_24 
ROOT
HETATM    1  C4  UNL     1      53.068 -34.316   3.870  1.00  0.00     0.117 A 
HETATM    2  C5  UNL     1      52.864 -34.681   5.232  1.00  0.00     0.101 A 
HETATM    3  C6  UNL     1      53.614 -35.772   5.507  1.00  0.00     0.130 A 
HETATM    4  N1  UNL     1      54.270 -36.107   4.402  1.00  0.00    -0.336 N 
HETATM    5  C13 UNL     1      53.954 -35.229   3.376  1.00  0.00     0.123 A 
ENDROOT
BRANCH   5   6
HETATM    6  N2  UNL     1      54.514 -35.342   2.091  1.00  0.00    -0.374 N 
ATOM      7  H2  UNL     1      55.456 -34.954   2.038  1.00  0.00     0.161 HD
BRANCH   6   8
HETATM    8  C14 UNL     1      54.075 -35.864   0.866  1.00  0.00     0.131 C 
BRANCH   8   9
HETATM    9  C15 UNL     1      55.259 -36.458   0.048  1.00  0.00     0.093 C 
BRANCH   9  10
HETATM   10  S1  UNL     1      56.118 -35.164  -0.853  1.00  0.00    -0.168 SA
BRANCH  10  11
HETATM   11  C16 UNL     1      57.860 -35.545  -1.109  1.00  0.00     0.069 C 
HETATM   12  C17 UNL     1      58.172 -37.005  -0.806  1.00  0.00     0.016 C 
ENDBRANCH  10  11
ENDBRANCH   9  10
ENDBRANCH   8   9
ENDBRANCH   6   8
ENDBRANCH   5   6
BRANCH   1  13
HETATM   13  C3  UNL     1      52.400 -33.185   3.271  1.00  0.00     0.299 C 
HETATM   14  O2  UNL     1      51.877 -32.252   3.835  1.00  0.00    -0.259 OA
BRANCH  13  15
HETATM   15  O1  UNL     1      52.330 -33.128   1.857  1.00  0.00    -0.318 OA
BRANCH  15  16
HETATM   16  C2  UNL     1      52.766 -31.916   1.211  1.00  0.00     0.174 C 
HETATM   17  C1  UNL     1      53.888 -32.274   0.295  1.00  0.00     0.034 C 
ENDBRANCH  15  16
ENDBRANCH  13  15
ENDBRANCH   1  13
BRANCH   4  18
HETATM   18  C7  UNL     1      55.187 -37.240   4.295  1.00  0.00     0.087 C 
HETATM   19  C8  UNL     1      54.534 -38.404   5.016  1.00  0.00     0.033 C 
BRANCH  18  20
HETATM   20  C9  UNL     1      56.474 -36.921   4.997  1.00  0.00     0.029 C 
BRANCH  20  21
HETATM   21  C10 UNL     1      57.654 -36.954   4.047  1.00  0.00    -0.021 C 
HETATM   22  C11 UNL     1      57.290 -37.669   2.782  1.00  0.00     0.009 C 
HETATM   23  C12 UNL     1      57.989 -35.519   3.710  1.00  0.00     0.009 C 
ENDBRANCH  20  21
ENDBRANCH  18  20
ENDBRANCH   4  18
BRANCH   2  24
HETATM   24  O3  UNL     1      52.038 -34.028   6.128  1.00  0.00    -0.358 OA
ATOM     25  H3  UNL     1      51.126 -34.235   6.295  1.00  0.00     0.217 HD
ENDBRANCH   2  24
TORSDOF 12
ENDMDL
MODEL 5
REMARK VINA RESULT: -6.977325888      2.632      5.713
REMARK  12 active torsions:
REMARK  status: ('A' for Active; 'I' for Inactive)
REMARK    1  A    between atoms: C2_2  and  O1_3 
REMARK    2  A    between atoms: O1_3  and  C3_4 
REMARK    3  A    between atoms: C3_4  and  C4_6 
REMARK    4  A    between atoms: C5_7  and  O3_8 
REMARK    5  A    between atoms: N1_11  and  C7_12 
REMARK    6  A    between atoms: C7_12  and  C9_14 
REMARK    7  A    between atoms: C9_14  and  C10_15 
REMARK    8  A    between atoms: C13_18  and  N2_19 
REMARK    9  A    between atoms: N2_19  and  C14_21 
REMARK   10  A    between atoms: C14_21  and  C15_22 
REMARK   11  A    between atoms: C15_22  and  S1_23 
REMARK   12  A    between atoms: S1_23  and  C16_24 
ROOT
HETATM    1  C4  UNL     1      55.427 -36.905   2.495  1.00  0.00     0.117 A 
HETATM    2  C5  UNL     1      56.788 -37.295   2.652  1.00  0.00     0.101 A 
HETATM    3  C6  UNL     1      57.428 -37.124   1.473  1.00  0.00     0.130 A 
HETATM    4  N1  UNL     1      56.550 -36.653   0.595  1.00  0.00    -0.336 N 
HETATM    5  C13 UNL     1      55.308 -36.507   1.195  1.00  0.00     0.123 A 
ENDROOT
BRANCH   5   6
HETATM    6  N2  UNL     1      54.189 -36.014   0.500  1.00  0.00    -0.374 N 
ATOM      7  H2  UNL     1      53.966 -36.568  -0.327  1.00  0.00     0.161 HD
BRANCH   6   8
HETATM    8  C14 UNL     1      53.311 -34.936   0.681  1.00  0.00     0.131 C 
BRANCH   8   9
HETATM    9  C15 UNL     1      54.020 -33.578   0.405  1.00  0.00     0.093 C 
BRANCH   9  10
HETATM   10  S1  UNL     1      53.209 -32.248   1.298  1.00  0.00    -0.168 SA
BRANCH  10  11
HETATM   11  C16 UNL     1      51.966 -32.854   2.452  1.00  0.00     0.069 C 
HETATM   12  C17 UNL     1      51.190 -31.716   3.101  1.00  0.00     0.016 C 
ENDBRANCH  10  11
ENDBRANCH   9  10
ENDBRANCH   8   9
ENDBRANCH   6   8
ENDBRANCH   5   6
BRANCH   1  13
HETATM   13  C3  UNL     1      54.479 -36.974   3.583  1.00  0.00     0.299 C 
HETATM   14  O2  UNL     1      53.785 -36.084   4.016  1.00  0.00    -0.259 OA
BRANCH  13  15
HETATM   15  O1  UNL     1      54.318 -38.217   4.243  1.00  0.00    -0.318 OA
BRANCH  15  16
HETATM   16  C2  UNL     1      54.552 -38.259   5.664  1.00  0.00     0.174 C 
HETATM   17  C1  UNL     1      55.219 -39.557   5.971  1.00  0.00     0.034 C 
ENDBRANCH  15  16
ENDBRANCH  13  15
ENDBRANCH   1  13
BRANCH   4  18
HETATM   18  C7  UNL     1      56.859 -36.338  -0.798  1.00  0.00     0.087 C 
HETATM   19  C8  UNL     1      58.078 -37.159  -1.174  1.00  0.00     0.033 C 
BRANCH  18  20
HETATM   20  C9  UNL     1      57.218 -34.887  -0.925  1.00  0.00     0.029 C 
BRANCH  20  21
HETATM   21  C10 UNL     1      58.642 -34.701  -1.406  1.00  0.00    -0.021 C 
HETATM   22  C11 UNL     1      58.689 -33.725  -2.542  1.00  0.00     0.009 C 
HETATM   23  C12 UNL     1      59.428 -34.131  -0.248  1.00  0.00     0.009 C 
ENDBRANCH  20  21
ENDBRANCH  18  20
ENDBRANCH   4  18
BRANCH   2  24
HETATM   24  O3  UNL     1      57.364 -37.769   3.816  1.00  0.00    -0.358 OA
ATOM     25  H3  UNL     1      58.088 -38.382   3.867  1.00  0.00     0.217 HD
ENDBRANCH   2  24
TORSDOF 12
ENDMDL
