MODEL 1
REMARK VINA RESULT: -8.132217931      0.000      0.000
REMARK  10 active torsions:
REMARK  status: ('A' for Active; 'I' for Inactive)
REMARK    1  A    between atoms: C2_2  and  C3_3 
REMARK    2  A    between atoms: C3_3  and  S1_4 
REMARK    3  A    between atoms: S1_4  and  C4_5 
REMARK    4  A    between atoms: C5_10  and  C6_11 
REMARK    5  A    between atoms: C7_14  and  C8_15 
REMARK    6  A    between atoms: C8_15  and  C10_17 
REMARK    7  A    between atoms: C10_17  and  C11_18 
REMARK    8  A    between atoms: C13_20  and  C14_21 
REMARK    9  A    between atoms: C14_21  and  C15_22 
REMARK   10  A    between atoms: C15_22  and  C16_23 
ROOT
HETATM    1  C6  UNL     1      56.365 -35.856   0.846  1.00  0.00     0.160 A 
HETATM    2  N3  UNL     1      56.185 -36.442   2.052  1.00  0.00    -0.337 N 
ATOM      3  H3  UNL     1      56.864 -37.048   2.511  1.00  0.00     0.167 HD
HETATM    4  C7  UNL     1      54.953 -36.103   2.574  1.00  0.00     0.058 A 
HETATM    5  C13 UNL     1      54.391 -35.283   1.651  1.00  0.00     0.038 A 
HETATM    6  N4  UNL     1      55.258 -35.150   0.620  1.00  0.00    -0.340 N 
ATOM      7  H4  UNL     1      55.088 -34.588  -0.214  1.00  0.00     0.167 HD
ENDROOT
BRANCH   1   8
HETATM    8  C5  UNL     1      57.454 -35.987  -0.112  1.00  0.00     0.209 A 
HETATM    9  N2  UNL     1      57.757 -37.146  -0.749  1.00  0.00    -0.274 N 
HETATM   10  N1  UNL     1      58.782 -36.977  -1.530  1.00  0.00    -0.272 N 
ATOM     11  H2  UNL     1      57.252 -38.024  -0.631  1.00  0.00     0.189 HD
HETATM   12  C4  UNL     1      59.155 -35.713  -1.407  1.00  0.00     0.203 A 
ATOM     13  H1  UNL     1      59.215 -37.684  -2.124  1.00  0.00     0.189 HD
HETATM   14  O3  UNL     1      58.320 -35.094  -0.524  1.00  0.00    -0.264 OA
BRANCH  12  15
HETATM   15  S1  UNL     1      60.534 -35.008  -2.268  1.00  0.00    -0.085 SA
BRANCH  15  16
HETATM   16  C3  UNL     1      60.561 -33.228  -2.340  1.00  0.00     0.082 C 
BRANCH  16  17
HETATM   17  C2  UNL     1      60.950 -32.729  -0.945  1.00  0.00     0.006 C 
HETATM   18  C1  UNL     1      62.453 -32.721  -0.869  1.00  0.00     0.006 C 
ENDBRANCH  16  17
ENDBRANCH  15  16
ENDBRANCH  12  15
ENDBRANCH   1   8
BRANCH   4  19
HETATM   19  C8  UNL     1      54.335 -36.736   3.713  1.00  0.00    -0.055 C 
HETATM   20  C9  UNL     1      54.456 -38.180   3.993  1.00  0.00     0.046 C 
BRANCH  19  21
HETATM   21  C10 UNL     1      53.874 -35.886   4.853  1.00  0.00     0.036 C 
BRANCH  21  22
HETATM   22  C11 UNL     1      54.170 -36.529   6.228  1.00  0.00    -0.000 C 
HETATM   23  C12 UNL     1      53.217 -35.839   7.191  1.00  0.00     0.005 C 
ENDBRANCH  21  22
ENDBRANCH  19  21
ENDBRANCH   4  19
BRANCH   5  24
HETATM   24  C14 UNL     1      53.130 -34.578   1.713  1.00  0.00     0.070 C 
BRANCH  24  25
HETATM   25  C15 UNL     1      53.291 -33.153   2.291  1.00  0.00     0.119 C 
BRANCH  25  26
HETATM   26  C16 UNL     1      53.238 -32.228   1.120  1.00  0.00     0.172 C 
HETATM   27  O1  UNL     1      52.319 -31.416   0.904  1.00  0.00    -0.648 OA
HETATM   28  O2  UNL     1      54.317 -32.290   0.198  1.00  0.00    -0.648 OA
ENDBRANCH  25  26
ENDBRANCH  24  25
ENDBRANCH   5  24
TORSDOF 10
ENDMDL
MODEL 2
REMARK VINA RESULT: -8.119133216      0.589      1.293
REMARK  10 active torsions:
REMARK  status: ('A' for Active; 'I' for Inactive)
REMARK    1  A    between atoms: C2_2  and  C3_3 
REMARK    2  A    between atoms: C3_3  and  S1_4 
REMARK    3  A    between atoms: S1_4  and  C4_5 
REMARK    4  A    between atoms: C5_10  and  C6_11 
REMARK    5  A    between atoms: C7_14  and  C8_15 
REMARK    6  A    between atoms: C8_15  and  C10_17 
REMARK    7  A    between atoms: C10_17  and  C11_18 
REMARK    8  A    between atoms: C13_20  and  C14_21 
REMARK    9  A    between atoms: C14_21  and  C15_22 
REMARK   10  A    between atoms: C15_22  and  C16_23 
ROOT
HETATM    1  C6  UNL     1      56.429 -35.780   0.985  1.00  0.00     0.160 A 
HETATM    2  N3  UNL     1      56.327 -36.312   2.223  1.00  0.00    -0.337 N 
ATOM      3  H3  UNL     1      57.055 -36.859   2.683  1.00  0.00     0.167 HD
HETATM    4  C7  UNL     1      55.100 -36.011   2.779  1.00  0.00     0.058 A 
HETATM    5  C13 UNL     1      54.460 -35.268   1.842  1.00  0.00     0.038 A 
HETATM    6  N4  UNL     1      55.278 -35.143   0.770  1.00  0.00    -0.340 N 
ATOM      7  H4  UNL     1      55.047 -34.633  -0.082  1.00  0.00     0.167 HD
ENDROOT
BRANCH   1   8
HETATM    8  C5  UNL     1      57.486 -35.902  -0.010  1.00  0.00     0.209 A 
HETATM    9  N2  UNL     1      57.761 -37.054  -0.673  1.00  0.00    -0.274 N 
HETATM   10  N1  UNL     1      58.761 -36.880  -1.484  1.00  0.00    -0.272 N 
ATOM     11  H2  UNL     1      57.254 -37.931  -0.552  1.00  0.00     0.189 HD
HETATM   12  C4  UNL     1      59.146 -35.620  -1.356  1.00  0.00     0.203 A 
ATOM     13  H1  UNL     1      59.170 -37.580  -2.102  1.00  0.00     0.189 HD
HETATM   14  O3  UNL     1      58.344 -35.009  -0.437  1.00  0.00    -0.264 OA
BRANCH  12  15
HETATM   15  S1  UNL     1      60.500 -34.911  -2.251  1.00  0.00    -0.085 SA
BRANCH  15  16
HETATM   16  C3  UNL     1      60.534 -33.131  -2.301  1.00  0.00     0.082 C 
BRANCH  16  17
HETATM   17  C2  UNL     1      60.962 -32.651  -0.911  1.00  0.00     0.006 C 
HETATM   18  C1  UNL     1      62.467 -32.664  -0.869  1.00  0.00     0.006 C 
ENDBRANCH  16  17
ENDBRANCH  15  16
ENDBRANCH  12  15
ENDBRANCH   1   8
BRANCH   4  19
HETATM   19  C8  UNL     1      54.561 -36.616   3.971  1.00  0.00    -0.055 C 
HETATM   20  C9  UNL     1      53.867 -35.846   5.021  1.00  0.00     0.046 C 
BRANCH  19  21
HETATM   21  C10 UNL     1      54.352 -38.097   4.002  1.00  0.00     0.036 C 
BRANCH  21  22
HETATM   22  C11 UNL     1      55.517 -38.845   4.689  1.00  0.00    -0.000 C 
HETATM   23  C12 UNL     1      54.908 -39.428   5.955  1.00  0.00     0.005 C 
ENDBRANCH  21  22
ENDBRANCH  19  21
ENDBRANCH   4  19
BRANCH   5  24
HETATM   24  C14 UNL     1      53.167 -34.626   1.921  1.00  0.00     0.070 C 
BRANCH  24  25
HETATM   25  C15 UNL     1      53.272 -33.174   2.445  1.00  0.00     0.119 C 
BRANCH  25  26
HETATM   26  C16 UNL     1      53.184 -32.297   1.239  1.00  0.00     0.172 C 
HETATM   27  O1  UNL     1      52.236 -31.529   0.995  1.00  0.00    -0.648 OA
HETATM   28  O2  UNL     1      54.264 -32.356   0.317  1.00  0.00    -0.648 OA
ENDBRANCH  25  26
ENDBRANCH  24  25
ENDBRANCH   5  24
TORSDOF 10
ENDMDL
MODEL 3
REMARK VINA RESULT: -7.941417812      1.172      1.783
REMARK  10 active torsions:
REMARK  status: ('A' for Active; 'I' for Inactive)
REMARK    1  A    between atoms: C2_2  and  C3_3 
REMARK    2  A    between atoms: C3_3  and  S1_4 
REMARK    3  A    between atoms: S1_4  and  C4_5 
REMARK    4  A    between atoms: C5_10  and  C6_11 
REMARK    5  A    between atoms: C7_14  and  C8_15 
REMARK    6  A    between atoms: C8_15  and  C10_17 
REMARK    7  A    between atoms: C10_17  and  C11_18 
REMARK    8  A    between atoms: C13_20  and  C14_21 
REMARK    9  A    between atoms: C14_21  and  C15_22 
REMARK   10  A    between atoms: C15_22  and  C16_23 
ROOT
HETATM    1  C6  UNL     1      56.492 -36.083   0.721  1.00  0.00     0.160 A 
HETATM    2  N3  UNL     1      56.473 -36.380   2.040  1.00  0.00    -0.337 N 
ATOM      3  H3  UNL     1      57.299 -36.586   2.602  1.00  0.00     0.167 HD
HETATM    4  C7  UNL     1      55.178 -36.365   2.520  1.00  0.00     0.058 A 
HETATM    5  C13 UNL     1      54.409 -36.039   1.452  1.00  0.00     0.038 A 
HETATM    6  N4  UNL     1      55.220 -35.876   0.380  1.00  0.00    -0.340 N 
ATOM      7  H4  UNL     1      54.903 -35.629  -0.557  1.00  0.00     0.167 HD
ENDROOT
BRANCH   1   8
HETATM    8  C5  UNL     1      57.598 -36.065  -0.225  1.00  0.00     0.209 A 
HETATM    9  N2  UNL     1      58.026 -37.162  -0.899  1.00  0.00    -0.274 N 
HETATM   10  N1  UNL     1      59.036 -36.861  -1.659  1.00  0.00    -0.272 N 
ATOM     11  H2  UNL     1      57.613 -38.092  -0.820  1.00  0.00     0.189 HD
HETATM   12  C4  UNL     1      59.276 -35.571  -1.485  1.00  0.00     0.203 A 
ATOM     13  H1  UNL     1      59.546 -37.496  -2.271  1.00  0.00     0.189 HD
HETATM   14  O3  UNL     1      58.372 -35.074  -0.593  1.00  0.00    -0.264 OA
BRANCH  12  15
HETATM   15  S1  UNL     1      60.583 -34.696  -2.301  1.00  0.00    -0.085 SA
BRANCH  15  16
HETATM   16  C3  UNL     1      61.770 -33.918  -1.224  1.00  0.00     0.082 C 
BRANCH  16  17
HETATM   17  C2  UNL     1      61.176 -32.572  -0.799  1.00  0.00     0.006 C 
HETATM   18  C1  UNL     1      60.434 -32.009  -1.982  1.00  0.00     0.006 C 
ENDBRANCH  16  17
ENDBRANCH  15  16
ENDBRANCH  12  15
ENDBRANCH   1   8
BRANCH   4  19
HETATM   19  C8  UNL     1      54.768 -36.870   3.807  1.00  0.00    -0.055 C 
HETATM   20  C9  UNL     1      54.225 -36.008   4.873  1.00  0.00     0.046 C 
BRANCH  19  21
HETATM   21  C10 UNL     1      54.522 -38.337   3.964  1.00  0.00     0.036 C 
BRANCH  21  22
HETATM   22  C11 UNL     1      55.658 -39.048   4.734  1.00  0.00    -0.000 C 
HETATM   23  C12 UNL     1      55.024 -39.484   6.045  1.00  0.00     0.005 C 
ENDBRANCH  21  22
ENDBRANCH  19  21
ENDBRANCH   4  19
BRANCH   5  24
HETATM   24  C14 UNL     1      52.982 -35.814   1.398  1.00  0.00     0.070 C 
BRANCH  24  25
HETATM   25  C15 UNL     1      52.638 -34.344   1.060  1.00  0.00     0.119 C 
BRANCH  25  26
HETATM   26  C16 UNL     1      52.854 -33.573   2.321  1.00  0.00     0.172 C 
HETATM   27  O1  UNL     1      51.990 -33.408   3.202  1.00  0.00    -0.648 OA
HETATM   28  O2  UNL     1      54.137 -32.993   2.512  1.00  0.00    -0.648 OA
ENDBRANCH  25  26
ENDBRANCH  24  25
ENDBRANCH   5  24
TORSDOF 10
ENDMDL
MODEL 4
REMARK VINA RESULT: -7.914560806      2.484      3.801
REMARK  10 active torsions:
REMARK  status: ('A' for Active; 'I' for Inactive)
REMARK    1  A    between atoms: C2_2  and  C3_3 
REMARK    2  A    between atoms: C3_3  and  S1_4 
REMARK    3  A    between atoms: S1_4  and  C4_5 
REMARK    4  A    between atoms: C5_10  and  C6_11 
REMARK    5  A    between atoms: C7_14  and  C8_15 
REMARK    6  A    between atoms: C8_15  and  C10_17 
REMARK    7  A    between atoms: C10_17  and  C11_18 
REMARK    8  A    between atoms: C13_20  and  C14_21 
REMARK    9  A    between atoms: C14_21  and  C15_22 
REMARK   10  A    between atoms: C15_22  and  C16_23 
ROOT
HETATM    1  C6  UNL     1      56.176 -36.208   1.555  1.00  0.00     0.160 A 
HETATM    2  N3  UNL     1      55.273 -35.271   1.925  1.00  0.00    -0.337 N 
ATOM      3  H3  UNL     1      55.122 -34.387   1.441  1.00  0.00     0.167 HD
HETATM    4  C7  UNL     1      54.585 -35.681   3.050  1.00  0.00     0.058 A 
HETATM    5  C13 UNL     1      55.090 -36.903   3.348  1.00  0.00     0.038 A 
HETATM    6  N4  UNL     1      56.047 -37.199   2.437  1.00  0.00    -0.340 N 
ATOM      7  H4  UNL     1      56.593 -38.060   2.426  1.00  0.00     0.167 HD
ENDROOT
BRANCH   1   8
HETATM    8  C5  UNL     1      57.178 -36.187   0.500  1.00  0.00     0.209 A 
HETATM    9  N2  UNL     1      57.541 -37.284  -0.212  1.00  0.00    -0.274 N 
HETATM   10  N1  UNL     1      58.465 -36.979  -1.073  1.00  0.00    -0.272 N 
ATOM     11  H2  UNL     1      57.144 -38.215  -0.089  1.00  0.00     0.189 HD
HETATM   12  C4  UNL     1      58.714 -35.687  -0.928  1.00  0.00     0.203 A 
ATOM     13  H1  UNL     1      58.913 -37.613  -1.733  1.00  0.00     0.189 HD
HETATM   14  O3  UNL     1      57.904 -35.192   0.052  1.00  0.00    -0.264 OA
BRANCH  12  15
HETATM   15  S1  UNL     1      59.925 -34.807  -1.876  1.00  0.00    -0.085 SA
BRANCH  15  16
HETATM   16  C3  UNL     1      60.942 -33.672  -0.953  1.00  0.00     0.082 C 
BRANCH  16  17
HETATM   17  C2  UNL     1      60.029 -32.539  -0.475  1.00  0.00     0.006 C 
HETATM   18  C1  UNL     1      59.252 -32.048  -1.667  1.00  0.00     0.006 C 
ENDBRANCH  16  17
ENDBRANCH  15  16
ENDBRANCH  12  15
ENDBRANCH   1   8
BRANCH   4  19
HETATM   19  C8  UNL     1      53.735 -34.836   3.851  1.00  0.00    -0.055 C 
HETATM   20  C9  UNL     1      52.886 -33.774   3.277  1.00  0.00     0.046 C 
BRANCH  19  21
HETATM   21  C10 UNL     1      53.396 -35.261   5.244  1.00  0.00     0.036 C 
BRANCH  21  22
HETATM   22  C11 UNL     1      52.603 -34.181   6.016  1.00  0.00    -0.000 C 
HETATM   23  C12 UNL     1      51.784 -34.957   7.035  1.00  0.00     0.005 C 
ENDBRANCH  21  22
ENDBRANCH  19  21
ENDBRANCH   4  19
BRANCH   5  24
HETATM   24  C14 UNL     1      54.686 -37.821   4.389  1.00  0.00     0.070 C 
BRANCH  24  25
HETATM   25  C15 UNL     1      55.901 -38.486   5.080  1.00  0.00     0.119 C 
BRANCH  25  26
HETATM   26  C16 UNL     1      56.380 -37.505   6.098  1.00  0.00     0.172 C 
HETATM   27  O1  UNL     1      55.736 -37.167   7.109  1.00  0.00    -0.648 OA
HETATM   28  O2  UNL     1      57.661 -36.926   5.886  1.00  0.00    -0.648 OA
ENDBRANCH  25  26
ENDBRANCH  24  25
ENDBRANCH   5  24
TORSDOF 10
ENDMDL
MODEL 5
REMARK VINA RESULT: -7.872892798      2.256      3.974
REMARK  10 active torsions:
REMARK  status: ('A' for Active; 'I' for Inactive)
REMARK    1  A    between atoms: C2_2  and  C3_3 
REMARK    2  A    between atoms: C3_3  and  S1_4 
REMARK    3  A    between atoms: S1_4  and  C4_5 
REMARK    4  A    between atoms: C5_10  and  C6_11 
REMARK    5  A    between atoms: C7_14  and  C8_15 
REMARK    6  A    between atoms: C8_15  and  C10_17 
REMARK    7  A    between atoms: C10_17  and  C11_18 
REMARK    8  A    between atoms: C13_20  and  C14_21 
REMARK    9  A    between atoms: C14_21  and  C15_22 
REMARK   10  A    between atoms: C15_22  and  C16_23 
ROOT
HETATM    1  C6  UNL     1      56.364 -36.183   0.953  1.00  0.00     0.160 A 
HETATM    2  N3  UNL     1      55.325 -35.343   1.161  1.00  0.00    -0.337 N 
ATOM      3  H3  UNL     1      55.103 -34.537   0.577  1.00  0.00     0.167 HD
HETATM    4  C7  UNL     1      54.607 -35.730   2.275  1.00  0.00     0.058 A 
HETATM    5  C13 UNL     1      55.236 -36.840   2.734  1.00  0.00     0.038 A 
HETATM    6  N4  UNL     1      56.291 -37.093   1.924  1.00  0.00    -0.340 N 
ATOM      7  H4  UNL     1      56.940 -37.872   2.040  1.00  0.00     0.167 HD
ENDROOT
BRANCH   1   8
HETATM    8  C5  UNL     1      57.437 -36.131  -0.031  1.00  0.00     0.209 A 
HETATM    9  N2  UNL     1      57.878 -37.216  -0.716  1.00  0.00    -0.274 N 
HETATM   10  N1  UNL     1      58.851 -36.883  -1.511  1.00  0.00    -0.272 N 
ATOM     11  H2  UNL     1      57.500 -38.158  -0.622  1.00  0.00     0.189 HD
HETATM   12  C4  UNL     1      59.053 -35.585  -1.348  1.00  0.00     0.203 A 
ATOM     13  H1  UNL     1      59.361 -37.503  -2.139  1.00  0.00     0.189 HD
HETATM   14  O3  UNL     1      58.164 -35.115  -0.426  1.00  0.00    -0.264 OA
BRANCH  12  15
HETATM   15  S1  UNL     1      60.301 -34.669  -2.209  1.00  0.00    -0.085 SA
BRANCH  15  16
HETATM   16  C3  UNL     1      60.163 -32.896  -2.099  1.00  0.00     0.082 C 
BRANCH  16  17
HETATM   17  C2  UNL     1      60.854 -32.472  -0.800  1.00  0.00     0.006 C 
HETATM   18  C1  UNL     1      62.215 -33.117  -0.778  1.00  0.00     0.006 C 
ENDBRANCH  16  17
ENDBRANCH  15  16
ENDBRANCH  12  15
ENDBRANCH   1   8
BRANCH   4  19
HETATM   19  C8  UNL     1      53.597 -34.932   2.925  1.00  0.00    -0.055 C 
HETATM   20  C9  UNL     1      53.645 -34.587   4.358  1.00  0.00     0.046 C 
BRANCH  19  21
HETATM   21  C10 UNL     1      52.671 -34.110   2.085  1.00  0.00     0.036 C 
BRANCH  21  22
HETATM   22  C11 UNL     1      52.967 -32.596   2.187  1.00  0.00    -0.000 C 
HETATM   23  C12 UNL     1      53.503 -32.214   0.817  1.00  0.00     0.005 C 
ENDBRANCH  21  22
ENDBRANCH  19  21
ENDBRANCH   4  19
BRANCH   5  24
HETATM   24  C14 UNL     1      54.869 -37.699   3.837  1.00  0.00     0.070 C 
BRANCH  24  25
HETATM   25  C15 UNL     1      56.108 -38.216   4.606  1.00  0.00     0.119 C 
BRANCH  25  26
HETATM   26  C16 UNL     1      56.330 -37.249   5.722  1.00  0.00     0.172 C 
HETATM   27  O1  UNL     1      55.428 -36.793   6.449  1.00  0.00    -0.648 OA
HETATM   28  O2  UNL     1      57.667 -36.830   5.958  1.00  0.00    -0.648 OA
ENDBRANCH  25  26
ENDBRANCH  24  25
ENDBRANCH   5  24
TORSDOF 10
ENDMDL
