MODEL 1
REMARK VINA RESULT: -9.272053457      0.000      0.000
REMARK  10 active torsions:
REMARK  status: ('A' for Active; 'I' for Inactive)
REMARK    1  A    between atoms: O1_2  and  C2_3 
REMARK    2  A    between atoms: C2_3  and  C3_4 
REMARK    3  A    between atoms: C3_4  and  C4_5 
REMARK    4  A    between atoms: C3_4  and  N1_9 
REMARK    5  A    between atoms: C4_5  and  C5_6 
REMARK    6  A    between atoms: N1_9  and  C8_11 
REMARK    7  A    between atoms: C14_17  and  N2_18 
REMARK    8  A    between atoms: N2_18  and  C15_20 
REMARK    9  A    between atoms: C15_20  and  C16_21 
REMARK   10  A    between atoms: C16_21  and  C17_22 
ROOT
HETATM    1  C8  UNL     1      55.397 -36.845   1.609  1.00  0.00     0.061 A 
HETATM    2  C9  UNL     1      56.662 -37.200   1.224  1.00  0.00    -0.033 A 
HETATM    3  C10 UNL     1      57.594 -37.958   2.117  1.00  0.00     0.050 C 
HETATM    4  C11 UNL     1      57.116 -36.861  -0.025  1.00  0.00     0.009 A 
HETATM    5  C12 UNL     1      56.296 -36.166  -0.886  1.00  0.00     0.003 A 
HETATM    6  C13 UNL     1      55.022 -35.807  -0.503  1.00  0.00     0.031 A 
HETATM    7  C14 UNL     1      54.547 -36.147   0.766  1.00  0.00     0.055 A 
ENDROOT
BRANCH   7   8
HETATM    8  N2  UNL     1      53.227 -35.799   1.148  1.00  0.00    -0.388 N 
ATOM      9  H2  UNL     1      52.653 -36.511   1.600  1.00  0.00     0.159 HD
BRANCH   8  10
HETATM   10  C15 UNL     1      52.663 -34.519   0.936  1.00  0.00     0.126 C 
BRANCH  10  11
HETATM   11  C16 UNL     1      53.333 -33.368   1.604  1.00  0.00     0.081 C 
BRANCH  11  12
HETATM   12  C17 UNL     1      52.333 -32.586   2.414  1.00  0.00     0.060 A 
HETATM   13  N3  UNL     1      51.609 -31.531   1.965  1.00  0.00    -0.244 N 
HETATM   14  O2  UNL     1      50.858 -31.117   2.935  1.00  0.00    -0.157 OA
ATOM     15  H3  UNL     1      51.648 -31.132   1.027  1.00  0.00     0.196 HD
HETATM   16  N4  UNL     1      51.021 -31.818   4.013  1.00  0.00    -0.244 N 
HETATM   17  C18 UNL     1      51.953 -32.767   3.722  1.00  0.00     0.055 A 
ATOM     18  H4  UNL     1      50.544 -31.685   4.904  1.00  0.00     0.196 HD
HETATM   19  C19 UNL     1      52.459 -33.795   4.650  1.00  0.00     0.072 C 
ENDBRANCH  11  12
ENDBRANCH  10  11
ENDBRANCH   8  10
ENDBRANCH   7   8
BRANCH   1  20
HETATM   20  N1  UNL     1      54.990 -37.222   2.914  1.00  0.00    -0.381 N 
ATOM     21  H1  UNL     1      54.311 -37.980   2.993  1.00  0.00     0.160 HD
BRANCH  20  22
HETATM   22  C3  UNL     1      55.454 -36.624   4.130  1.00  0.00     0.106 C 
BRANCH  22  23
HETATM   23  C2  UNL     1      55.710 -35.136   4.044  1.00  0.00     0.192 C 
BRANCH  23  24
HETATM   24  O1  UNL     1      57.062 -34.863   3.841  1.00  0.00    -0.394 OA
HETATM   25  C1  UNL     1      57.842 -35.606   4.725  1.00  0.00     0.201 C 
ENDBRANCH  23  24
ENDBRANCH  22  23
BRANCH  22  26
HETATM   26  C4  UNL     1      54.461 -36.842   5.252  1.00  0.00     0.031 C 
BRANCH  26  27
HETATM   27  C5  UNL     1      55.026 -37.506   6.460  1.00  0.00    -0.021 C 
HETATM   28  C6  UNL     1      54.916 -39.022   6.235  1.00  0.00     0.009 C 
HETATM   29  C7  UNL     1      54.185 -37.199   7.691  1.00  0.00     0.009 C 
ENDBRANCH  26  27
ENDBRANCH  22  26
ENDBRANCH  20  22
ENDBRANCH   1  20
TORSDOF 10
ENDMDL
MODEL 2
REMARK VINA RESULT: -9.098559588      1.726      4.764
REMARK  10 active torsions:
REMARK  status: ('A' for Active; 'I' for Inactive)
REMARK    1  A    between atoms: O1_2  and  C2_3 
REMARK    2  A    between atoms: C2_3  and  C3_4 
REMARK    3  A    between atoms: C3_4  and  C4_5 
REMARK    4  A    between atoms: C3_4  and  N1_9 
REMARK    5  A    between atoms: C4_5  and  C5_6 
REMARK    6  A    between atoms: N1_9  and  C8_11 
REMARK    7  A    between atoms: C14_17  and  N2_18 
REMARK    8  A    between atoms: N2_18  and  C15_20 
REMARK    9  A    between atoms: C15_20  and  C16_21 
REMARK   10  A    between atoms: C16_21  and  C17_22 
ROOT
HETATM    1  C8  UNL     1      54.400 -36.727   4.448  1.00  0.00     0.061 A 
HETATM    2  C9  UNL     1      54.596 -37.778   5.303  1.00  0.00    -0.033 A 
HETATM    3  C10 UNL     1      55.159 -39.090   4.853  1.00  0.00     0.050 C 
HETATM    4  C11 UNL     1      54.276 -37.647   6.631  1.00  0.00     0.009 A 
HETATM    5  C12 UNL     1      53.758 -36.458   7.096  1.00  0.00     0.003 A 
HETATM    6  C13 UNL     1      53.559 -35.398   6.239  1.00  0.00     0.031 A 
HETATM    7  C14 UNL     1      53.882 -35.518   4.884  1.00  0.00     0.055 A 
ENDROOT
BRANCH   7   8
HETATM    8  N2  UNL     1      53.701 -34.417   4.010  1.00  0.00    -0.388 N 
ATOM      9  H2  UNL     1      54.418 -34.236   3.307  1.00  0.00     0.159 HD
BRANCH   8  10
HETATM   10  C15 UNL     1      52.580 -33.556   4.060  1.00  0.00     0.126 C 
BRANCH  10  11
HETATM   11  C16 UNL     1      51.921 -33.230   2.764  1.00  0.00     0.081 C 
BRANCH  11  12
HETATM   12  C17 UNL     1      52.911 -33.352   1.636  1.00  0.00     0.060 A 
HETATM   13  N3  UNL     1      53.795 -32.394   1.257  1.00  0.00    -0.244 N 
HETATM   14  O2  UNL     1      54.479 -32.853   0.259  1.00  0.00    -0.157 OA
ATOM     15  H3  UNL     1      53.901 -31.475   1.684  1.00  0.00     0.196 HD
HETATM   16  N4  UNL     1      54.123 -34.055  -0.068  1.00  0.00    -0.244 N 
HETATM   17  C18 UNL     1      53.126 -34.411   0.788  1.00  0.00     0.055 A 
ATOM     18  H4  UNL     1      54.514 -34.624  -0.819  1.00  0.00     0.196 HD
HETATM   19  C19 UNL     1      52.411 -35.701   0.793  1.00  0.00     0.072 C 
ENDBRANCH  11  12
ENDBRANCH  10  11
ENDBRANCH   8  10
ENDBRANCH   7   8
BRANCH   1  20
HETATM   20  N1  UNL     1      54.748 -36.928   3.088  1.00  0.00    -0.381 N 
ATOM     21  H1  UNL     1      54.143 -37.535   2.534  1.00  0.00     0.160 HD
BRANCH  20  22
HETATM   22  C3  UNL     1      55.879 -36.346   2.429  1.00  0.00     0.106 C 
BRANCH  22  23
HETATM   23  C2  UNL     1      57.150 -36.339   3.248  1.00  0.00     0.192 C 
BRANCH  23  24
HETATM   24  O1  UNL     1      57.450 -35.060   3.712  1.00  0.00    -0.394 OA
HETATM   25  C1  UNL     1      58.788 -34.985   4.092  1.00  0.00     0.201 C 
ENDBRANCH  23  24
ENDBRANCH  22  23
BRANCH  22  26
HETATM   26  C4  UNL     1      56.184 -37.073   1.137  1.00  0.00     0.031 C 
BRANCH  26  27
HETATM   27  C5  UNL     1      57.228 -36.427   0.292  1.00  0.00    -0.021 C 
HETATM   28  C6  UNL     1      56.532 -35.933  -0.986  1.00  0.00     0.009 C 
HETATM   29  C7  UNL     1      58.268 -37.442  -0.157  1.00  0.00     0.009 C 
ENDBRANCH  26  27
ENDBRANCH  22  26
ENDBRANCH  20  22
ENDBRANCH   1  20
TORSDOF 10
ENDMDL
MODEL 3
REMARK VINA RESULT: -9.020520407      2.415      5.518
REMARK  10 active torsions:
REMARK  status: ('A' for Active; 'I' for Inactive)
REMARK    1  A    between atoms: O1_2  and  C2_3 
REMARK    2  A    between atoms: C2_3  and  C3_4 
REMARK    3  A    between atoms: C3_4  and  C4_5 
REMARK    4  A    between atoms: C3_4  and  N1_9 
REMARK    5  A    between atoms: C4_5  and  C5_6 
REMARK    6  A    between atoms: N1_9  and  C8_11 
REMARK    7  A    between atoms: C14_17  and  N2_18 
REMARK    8  A    between atoms: N2_18  and  C15_20 
REMARK    9  A    between atoms: C15_20  and  C16_21 
REMARK   10  A    between atoms: C16_21  and  C17_22 
ROOT
HETATM    1  C8  UNL     1      53.824 -35.409   1.912  1.00  0.00     0.061 A 
HETATM    2  C9  UNL     1      52.830 -35.588   0.988  1.00  0.00    -0.033 A 
HETATM    3  C10 UNL     1      52.796 -36.760   0.056  1.00  0.00     0.050 C 
HETATM    4  C11 UNL     1      51.812 -34.673   0.894  1.00  0.00     0.009 A 
HETATM    5  C12 UNL     1      51.795 -33.579   1.730  1.00  0.00     0.003 A 
HETATM    6  C13 UNL     1      52.793 -33.395   2.662  1.00  0.00     0.031 A 
HETATM    7  C14 UNL     1      53.835 -34.320   2.769  1.00  0.00     0.055 A 
ENDROOT
BRANCH   7   8
HETATM    8  N2  UNL     1      54.846 -34.142   3.747  1.00  0.00    -0.388 N 
ATOM      9  H2  UNL     1      55.614 -33.505   3.536  1.00  0.00     0.159 HD
BRANCH   8  10
HETATM   10  C15 UNL     1      54.848 -34.801   4.999  1.00  0.00     0.126 C 
BRANCH  10  11
HETATM   11  C16 UNL     1      53.588 -35.485   5.403  1.00  0.00     0.081 C 
BRANCH  11  12
HETATM   12  C17 UNL     1      53.852 -36.418   6.555  1.00  0.00     0.060 A 
HETATM   13  N3  UNL     1      53.514 -36.187   7.848  1.00  0.00    -0.244 N 
HETATM   14  O2  UNL     1      53.897 -37.205   8.550  1.00  0.00    -0.157 OA
ATOM     15  H3  UNL     1      53.041 -35.358   8.205  1.00  0.00     0.196 HD
HETATM   16  N4  UNL     1      54.472 -38.112   7.825  1.00  0.00    -0.244 N 
HETATM   17  C18 UNL     1      54.462 -37.649   6.545  1.00  0.00     0.055 A 
ATOM     18  H4  UNL     1      54.856 -38.999   8.150  1.00  0.00     0.196 HD
HETATM   19  C19 UNL     1      55.012 -38.349   5.368  1.00  0.00     0.072 C 
ENDBRANCH  11  12
ENDBRANCH  10  11
ENDBRANCH   8  10
ENDBRANCH   7   8
BRANCH   1  20
HETATM   20  N1  UNL     1      54.849 -36.388   1.956  1.00  0.00    -0.381 N 
ATOM     21  H1  UNL     1      54.599 -37.312   2.309  1.00  0.00     0.160 HD
BRANCH  20  22
HETATM   22  C3  UNL     1      56.206 -36.184   1.545  1.00  0.00     0.106 C 
BRANCH  22  23
HETATM   23  C2  UNL     1      57.228 -36.329   2.650  1.00  0.00     0.192 C 
BRANCH  23  24
HETATM   24  O1  UNL     1      57.899 -35.130   2.883  1.00  0.00    -0.394 OA
HETATM   25  C1  UNL     1      58.479 -35.140   4.149  1.00  0.00     0.201 C 
ENDBRANCH  23  24
ENDBRANCH  22  23
BRANCH  22  26
HETATM   26  C4  UNL     1      56.590 -37.156   0.450  1.00  0.00     0.031 C 
BRANCH  26  27
HETATM   27  C5  UNL     1      56.815 -36.531  -0.884  1.00  0.00    -0.021 C 
HETATM   28  C6  UNL     1      58.334 -36.481  -1.109  1.00  0.00     0.009 C 
HETATM   29  C7  UNL     1      56.336 -35.087  -0.895  1.00  0.00     0.009 C 
ENDBRANCH  26  27
ENDBRANCH  22  26
ENDBRANCH  20  22
ENDBRANCH   1  20
TORSDOF 10
ENDMDL
MODEL 4
REMARK VINA RESULT: -9.014493866      1.191      1.883
REMARK  10 active torsions:
REMARK  status: ('A' for Active; 'I' for Inactive)
REMARK    1  A    between atoms: O1_2  and  C2_3 
REMARK    2  A    between atoms: C2_3  and  C3_4 
REMARK    3  A    between atoms: C3_4  and  C4_5 
REMARK    4  A    between atoms: C3_4  and  N1_9 
REMARK    5  A    between atoms: C4_5  and  C5_6 
REMARK    6  A    between atoms: N1_9  and  C8_11 
REMARK    7  A    between atoms: C14_17  and  N2_18 
REMARK    8  A    between atoms: N2_18  and  C15_20 
REMARK    9  A    between atoms: C15_20  and  C16_21 
REMARK   10  A    between atoms: C16_21  and  C17_22 
ROOT
HETATM    1  C8  UNL     1      56.048 -36.783   1.140  1.00  0.00     0.061 A 
HETATM    2  C9  UNL     1      56.962 -36.719   0.124  1.00  0.00    -0.033 A 
HETATM    3  C10 UNL     1      58.257 -37.470   0.155  1.00  0.00     0.050 C 
HETATM    4  C11 UNL     1      56.704 -35.945  -0.979  1.00  0.00     0.009 A 
HETATM    5  C12 UNL     1      55.526 -35.236  -1.057  1.00  0.00     0.003 A 
HETATM    6  C13 UNL     1      54.602 -35.299  -0.037  1.00  0.00     0.031 A 
HETATM    7  C14 UNL     1      54.851 -36.085   1.091  1.00  0.00     0.055 A 
ENDROOT
BRANCH   7   8
HETATM    8  N2  UNL     1      53.888 -36.168   2.127  1.00  0.00    -0.388 N 
ATOM      9  H2  UNL     1      53.892 -36.995   2.724  1.00  0.00     0.159 HD
BRANCH   8  10
HETATM   10  C15 UNL     1      52.921 -35.165   2.378  1.00  0.00     0.126 C 
BRANCH  10  11
HETATM   11  C16 UNL     1      53.376 -33.964   3.132  1.00  0.00     0.081 C 
BRANCH  11  12
HETATM   12  C17 UNL     1      52.450 -32.807   2.867  1.00  0.00     0.060 A 
HETATM   13  N3  UNL     1      51.407 -32.437   3.652  1.00  0.00    -0.244 N 
HETATM   14  O2  UNL     1      50.844 -31.405   3.111  1.00  0.00    -0.157 OA
ATOM     15  H3  UNL     1      51.116 -32.893   4.516  1.00  0.00     0.196 HD
HETATM   16  N4  UNL     1      51.431 -31.045   2.013  1.00  0.00    -0.244 N 
HETATM   17  C18 UNL     1      52.462 -31.914   1.822  1.00  0.00     0.055 A 
ATOM     18  H4  UNL     1      51.172 -30.264   1.411  1.00  0.00     0.196 HD
HETATM   19  C19 UNL     1      53.413 -31.893   0.695  1.00  0.00     0.072 C 
ENDBRANCH  11  12
ENDBRANCH  10  11
ENDBRANCH   8  10
ENDBRANCH   7   8
BRANCH   1  20
HETATM   20  N1  UNL     1      56.375 -37.599   2.253  1.00  0.00    -0.381 N 
ATOM     21  H1  UNL     1      56.105 -38.582   2.210  1.00  0.00     0.160 HD
BRANCH  20  22
HETATM   22  C3  UNL     1      57.055 -37.153   3.433  1.00  0.00     0.106 C 
BRANCH  22  23
HETATM   23  C2  UNL     1      56.984 -35.662   3.676  1.00  0.00     0.192 C 
BRANCH  23  24
HETATM   24  O1  UNL     1      58.206 -35.045   3.417  1.00  0.00    -0.394 OA
HETATM   25  C1  UNL     1      59.060 -35.189   4.508  1.00  0.00     0.201 C 
ENDBRANCH  23  24
ENDBRANCH  22  23
BRANCH  22  26
HETATM   26  C4  UNL     1      56.498 -37.834   4.666  1.00  0.00     0.031 C 
BRANCH  26  27
HETATM   27  C5  UNL     1      55.044 -38.151   4.597  1.00  0.00    -0.021 C 
HETATM   28  C6  UNL     1      54.331 -37.222   5.591  1.00  0.00     0.009 C 
HETATM   29  C7  UNL     1      54.775 -39.570   5.076  1.00  0.00     0.009 C 
ENDBRANCH  26  27
ENDBRANCH  22  26
ENDBRANCH  20  22
ENDBRANCH   1  20
TORSDOF 10
ENDMDL
MODEL 5
REMARK VINA RESULT: -8.995847390      1.317      4.420
REMARK  10 active torsions:
REMARK  status: ('A' for Active; 'I' for Inactive)
REMARK    1  A    between atoms: O1_2  and  C2_3 
REMARK    2  A    between atoms: C2_3  and  C3_4 
REMARK    3  A    between atoms: C3_4  and  C4_5 
REMARK    4  A    between atoms: C3_4  and  N1_9 
REMARK    5  A    between atoms: C4_5  and  C5_6 
REMARK    6  A    between atoms: N1_9  and  C8_11 
REMARK    7  A    between atoms: C14_17  and  N2_18 
REMARK    8  A    between atoms: N2_18  and  C15_20 
REMARK    9  A    between atoms: C15_20  and  C16_21 
REMARK   10  A    between atoms: C16_21  and  C17_22 
ROOT
HETATM    1  C8  UNL     1      54.365 -36.344   4.793  1.00  0.00     0.061 A 
HETATM    2  C9  UNL     1      54.277 -36.755   6.095  1.00  0.00    -0.033 A 
HETATM    3  C10 UNL     1      55.009 -37.954   6.614  1.00  0.00     0.050 C 
HETATM    4  C11 UNL     1      53.497 -36.056   6.981  1.00  0.00     0.009 A 
HETATM    5  C12 UNL     1      52.807 -34.944   6.554  1.00  0.00     0.003 A 
HETATM    6  C13 UNL     1      52.893 -34.526   5.244  1.00  0.00     0.031 A 
HETATM    7  C14 UNL     1      53.685 -35.228   4.332  1.00  0.00     0.055 A 
ENDROOT
BRANCH   7   8
HETATM    8  N2  UNL     1      53.792 -34.781   2.991  1.00  0.00    -0.388 N 
ATOM      9  H2  UNL     1      54.343 -33.943   2.806  1.00  0.00     0.159 HD
BRANCH   8  10
HETATM   10  C15 UNL     1      53.177 -35.435   1.898  1.00  0.00     0.126 C 
BRANCH  10  11
HETATM   11  C16 UNL     1      52.088 -34.698   1.197  1.00  0.00     0.081 C 
BRANCH  11  12
HETATM   12  C17 UNL     1      52.077 -33.257   1.630  1.00  0.00     0.060 A 
HETATM   13  N3  UNL     1      51.229 -32.715   2.540  1.00  0.00    -0.244 N 
HETATM   14  O2  UNL     1      51.516 -31.458   2.658  1.00  0.00    -0.157 OA
ATOM     15  H3  UNL     1      50.494 -33.211   3.044  1.00  0.00     0.196 HD
HETATM   16  N4  UNL     1      52.500 -31.107   1.891  1.00  0.00    -0.244 N 
HETATM   17  C18 UNL     1      52.887 -32.226   1.220  1.00  0.00     0.055 A 
ATOM     18  H4  UNL     1      52.905 -30.175   1.808  1.00  0.00     0.196 HD
HETATM   19  C19 UNL     1      53.979 -32.306   0.231  1.00  0.00     0.072 C 
ENDBRANCH  11  12
ENDBRANCH  10  11
ENDBRANCH   8  10
ENDBRANCH   7   8
BRANCH   1  20
HETATM   20  N1  UNL     1      55.186 -37.112   3.927  1.00  0.00    -0.381 N 
ATOM     21  H1  UNL     1      54.836 -38.026   3.638  1.00  0.00     0.160 HD
BRANCH  20  22
HETATM   22  C3  UNL     1      56.464 -36.707   3.425  1.00  0.00     0.106 C 
BRANCH  22  23
HETATM   23  C2  UNL     1      57.606 -36.871   4.403  1.00  0.00     0.192 C 
BRANCH  23  24
HETATM   24  O1  UNL     1      57.948 -35.657   4.995  1.00  0.00    -0.394 OA
HETATM   25  C1  UNL     1      58.744 -34.906   4.133  1.00  0.00     0.201 C 
ENDBRANCH  23  24
ENDBRANCH  22  23
BRANCH  22  26
HETATM   26  C4  UNL     1      56.827 -37.487   2.179  1.00  0.00     0.031 C 
BRANCH  26  27
HETATM   27  C5  UNL     1      57.213 -36.647   1.011  1.00  0.00    -0.021 C 
HETATM   28  C6  UNL     1      55.929 -36.359   0.217  1.00  0.00     0.009 C 
HETATM   29  C7  UNL     1      58.130 -37.414   0.070  1.00  0.00     0.009 C 
ENDBRANCH  26  27
ENDBRANCH  22  26
ENDBRANCH  20  22
ENDBRANCH   1  20
TORSDOF 10
ENDMDL
