MODEL 1
REMARK VINA RESULT: -8.211168293      0.000      0.000
REMARK  11 active torsions:
REMARK  status: ('A' for Active; 'I' for Inactive)
REMARK    1  A    between atoms: O1_2  and  C2_3 
REMARK    2  A    between atoms: C4_5  and  O2_6 
REMARK    3  A    between atoms: C6_8  and  O3_9 
REMARK    4  A    between atoms: C8_11  and  O4_12 
REMARK    5  A    between atoms: C10_14  and  N1_15 
REMARK    6  A    between atoms: N1_15  and  C11_17 
REMARK    7  A    between atoms: C11_17  and  C12_18 
REMARK    8  A    between atoms: C11_17  and  C16_24 
REMARK    9  A    between atoms: C12_18  and  C13_19 
REMARK   10  A    between atoms: C13_19  and  C14_20 
REMARK   11  A    between atoms: C14_20  and  O5_22 
ROOT
HETATM    1  C2  UNL     1      54.227 -36.892   4.133  1.00  0.00     0.100 A 
HETATM    2  C3  UNL     1      53.585 -36.202   5.138  1.00  0.00     0.079 A 
HETATM    3  C4  UNL     1      53.192 -34.869   4.966  1.00  0.00     0.107 A 
HETATM    4  C6  UNL     1      53.449 -34.229   3.771  1.00  0.00     0.137 A 
HETATM    5  C8  UNL     1      54.090 -34.914   2.762  1.00  0.00     0.133 A 
HETATM    6  C10 UNL     1      54.481 -36.236   2.930  1.00  0.00     0.099 A 
ENDROOT
BRANCH   6   7
HETATM    7  N1  UNL     1      55.131 -36.947   1.897  1.00  0.00    -0.380 N 
ATOM      8  H1  UNL     1      54.543 -37.439   1.225  1.00  0.00     0.160 HD
BRANCH   7   9
HETATM    9  C11 UNL     1      56.566 -37.033   1.717  1.00  0.00     0.085 C 
BRANCH   9  10
HETATM   10  C12 UNL     1      57.316 -36.296   2.796  1.00  0.00     0.028 C 
BRANCH  10  11
HETATM   11  C13 UNL     1      57.744 -37.148   3.949  1.00  0.00     0.033 C 
BRANCH  11  12
HETATM   12  C14 UNL     1      58.570 -36.288   4.902  1.00  0.00     0.114 C 
HETATM   13  C15 UNL     1      58.887 -34.957   4.302  1.00  0.00     0.039 C 
BRANCH  12  14
HETATM   14  O5  UNL     1      57.918 -36.095   6.116  1.00  0.00    -0.396 OA
ATOM     15  H5  UNL     1      58.134 -35.253   6.500  1.00  0.00     0.210 HD
ENDBRANCH  12  14
ENDBRANCH  11  12
ENDBRANCH  10  11
ENDBRANCH   9  10
BRANCH   9  16
HETATM   16  C16 UNL     1      56.989 -36.516   0.374  1.00  0.00    -0.000 C 
HETATM   17  C17 UNL     1      55.871 -36.473  -0.619  1.00  0.00     0.011 C 
HETATM   18  C18 UNL     1      58.142 -37.351  -0.164  1.00  0.00     0.011 C 
ENDBRANCH   9  16
ENDBRANCH   7   9
ENDBRANCH   6   7
BRANCH   1  19
HETATM   19  O1  UNL     1      54.615 -38.219   4.313  1.00  0.00    -0.353 OA
HETATM   20  C1  UNL     1      54.703 -38.728   5.631  1.00  0.00     0.210 C 
ENDBRANCH   1  19
BRANCH   5  21
HETATM   21  O4  UNL     1      54.320 -34.222   1.584  1.00  0.00    -0.351 OA
HETATM   22  C9  UNL     1      53.359 -34.315   0.557  1.00  0.00     0.210 C 
ENDBRANCH   5  21
BRANCH   4  23
HETATM   23  O3  UNL     1      53.079 -32.935   3.574  1.00  0.00    -0.351 OA
HETATM   24  C7  UNL     1      51.854 -32.442   3.150  1.00  0.00     0.210 C 
ENDBRANCH   4  23
BRANCH   3  25
HETATM   25  O2  UNL     1      52.547 -34.175   5.976  1.00  0.00    -0.353 OA
HETATM   26  C5  UNL     1      51.859 -34.835   7.011  1.00  0.00     0.210 C 
ENDBRANCH   3  25
TORSDOF 11
ENDMDL
MODEL 2
REMARK VINA RESULT: -7.678660389      1.742      4.258
REMARK  11 active torsions:
REMARK  status: ('A' for Active; 'I' for Inactive)
REMARK    1  A    between atoms: O1_2  and  C2_3 
REMARK    2  A    between atoms: C4_5  and  O2_6 
REMARK    3  A    between atoms: C6_8  and  O3_9 
REMARK    4  A    between atoms: C8_11  and  O4_12 
REMARK    5  A    between atoms: C10_14  and  N1_15 
REMARK    6  A    between atoms: N1_15  and  C11_17 
REMARK    7  A    between atoms: C11_17  and  C12_18 
REMARK    8  A    between atoms: C11_17  and  C16_24 
REMARK    9  A    between atoms: C12_18  and  C13_19 
REMARK   10  A    between atoms: C13_19  and  C14_20 
REMARK   11  A    between atoms: C14_20  and  O5_22 
ROOT
HETATM    1  C2  UNL     1      53.909 -34.544   3.819  1.00  0.00     0.100 A 
HETATM    2  C3  UNL     1      53.301 -34.636   5.052  1.00  0.00     0.079 A 
HETATM    3  C4  UNL     1      53.677 -35.618   5.976  1.00  0.00     0.107 A 
HETATM    4  C6  UNL     1      54.675 -36.515   5.652  1.00  0.00     0.137 A 
HETATM    5  C8  UNL     1      55.287 -36.429   4.421  1.00  0.00     0.133 A 
HETATM    6  C10 UNL     1      54.915 -35.455   3.503  1.00  0.00     0.099 A 
ENDROOT
BRANCH   6   7
HETATM    7  N1  UNL     1      55.544 -35.355   2.242  1.00  0.00    -0.380 N 
ATOM      8  H1  UNL     1      56.082 -34.510   2.052  1.00  0.00     0.160 HD
BRANCH   7   9
HETATM    9  C11 UNL     1      55.485 -36.358   1.197  1.00  0.00     0.085 C 
BRANCH   9  10
HETATM   10  C12 UNL     1      56.853 -36.705   0.670  1.00  0.00     0.028 C 
BRANCH  10  11
HETATM   11  C13 UNL     1      57.056 -36.401  -0.782  1.00  0.00     0.033 C 
BRANCH  11  12
HETATM   12  C14 UNL     1      58.226 -35.431  -0.911  1.00  0.00     0.114 C 
HETATM   13  C15 UNL     1      57.884 -34.274  -1.792  1.00  0.00     0.039 C 
BRANCH  12  14
HETATM   14  O5  UNL     1      58.634 -34.951   0.330  1.00  0.00    -0.396 OA
ATOM     15  H5  UNL     1      59.562 -35.094   0.474  1.00  0.00     0.210 HD
ENDBRANCH  12  14
ENDBRANCH  11  12
ENDBRANCH  10  11
ENDBRANCH   9  10
BRANCH   9  16
HETATM   16  C16 UNL     1      54.609 -35.923   0.060  1.00  0.00    -0.000 C 
HETATM   17  C17 UNL     1      54.586 -34.439  -0.132  1.00  0.00     0.011 C 
HETATM   18  C18 UNL     1      53.196 -36.451   0.262  1.00  0.00     0.011 C 
ENDBRANCH   9  16
ENDBRANCH   7   9
ENDBRANCH   6   7
BRANCH   1  19
HETATM   19  O1  UNL     1      53.527 -33.562   2.906  1.00  0.00    -0.353 OA
HETATM   20  C1  UNL     1      52.147 -33.328   2.697  1.00  0.00     0.210 C 
ENDBRANCH   1  19
BRANCH   5  21
HETATM   21  O4  UNL     1      56.282 -37.354   4.150  1.00  0.00    -0.351 OA
HETATM   22  C9  UNL     1      57.618 -36.995   4.420  1.00  0.00     0.210 C 
ENDBRANCH   5  21
BRANCH   4  23
HETATM   23  O3  UNL     1      55.062 -37.481   6.528  1.00  0.00    -0.351 OA
HETATM   24  C7  UNL     1      54.734 -38.828   6.529  1.00  0.00     0.210 C 
ENDBRANCH   4  23
BRANCH   3  25
HETATM   25  O2  UNL     1      53.067 -35.710   7.216  1.00  0.00    -0.353 OA
HETATM   26  C5  UNL     1      51.903 -34.983   7.527  1.00  0.00     0.210 C 
ENDBRANCH   3  25
TORSDOF 11
ENDMDL
MODEL 3
REMARK VINA RESULT: -7.674240573      1.495      2.828
REMARK  11 active torsions:
REMARK  status: ('A' for Active; 'I' for Inactive)
REMARK    1  A    between atoms: O1_2  and  C2_3 
REMARK    2  A    between atoms: C4_5  and  O2_6 
REMARK    3  A    between atoms: C6_8  and  O3_9 
REMARK    4  A    between atoms: C8_11  and  O4_12 
REMARK    5  A    between atoms: C10_14  and  N1_15 
REMARK    6  A    between atoms: N1_15  and  C11_17 
REMARK    7  A    between atoms: C11_17  and  C12_18 
REMARK    8  A    between atoms: C11_17  and  C16_24 
REMARK    9  A    between atoms: C12_18  and  C13_19 
REMARK   10  A    between atoms: C13_19  and  C14_20 
REMARK   11  A    between atoms: C14_20  and  O5_22 
ROOT
HETATM    1  C2  UNL     1      54.197 -36.717   4.359  1.00  0.00     0.100 A 
HETATM    2  C3  UNL     1      53.513 -36.051   5.352  1.00  0.00     0.079 A 
HETATM    3  C4  UNL     1      53.035 -34.749   5.157  1.00  0.00     0.107 A 
HETATM    4  C6  UNL     1      53.251 -34.115   3.950  1.00  0.00     0.137 A 
HETATM    5  C8  UNL     1      53.934 -34.776   2.952  1.00  0.00     0.133 A 
HETATM    6  C10 UNL     1      54.409 -36.067   3.144  1.00  0.00     0.099 A 
ENDROOT
BRANCH   6   7
HETATM    7  N1  UNL     1      55.102 -36.754   2.123  1.00  0.00    -0.380 N 
ATOM      8  H1  UNL     1      54.714 -37.643   1.808  1.00  0.00     0.160 HD
BRANCH   7   9
HETATM    9  C11 UNL     1      56.322 -36.297   1.488  1.00  0.00     0.085 C 
BRANCH   9  10
HETATM   10  C12 UNL     1      56.413 -36.746   0.053  1.00  0.00     0.028 C 
BRANCH  10  11
HETATM   11  C13 UNL     1      56.687 -35.647  -0.926  1.00  0.00     0.033 C 
BRANCH  11  12
HETATM   12  C14 UNL     1      58.145 -35.748  -1.366  1.00  0.00     0.114 C 
HETATM   13  C15 UNL     1      59.013 -34.800  -0.605  1.00  0.00     0.039 C 
BRANCH  12  14
HETATM   14  O5  UNL     1      58.640 -37.039  -1.211  1.00  0.00    -0.396 OA
ATOM     15  H5  UNL     1      59.455 -37.161  -1.683  1.00  0.00     0.210 HD
ENDBRANCH  12  14
ENDBRANCH  11  12
ENDBRANCH  10  11
ENDBRANCH   9  10
BRANCH   9  16
HETATM   16  C16 UNL     1      57.541 -36.757   2.231  1.00  0.00    -0.000 C 
HETATM   17  C17 UNL     1      57.411 -38.146   2.774  1.00  0.00     0.011 C 
HETATM   18  C18 UNL     1      57.864 -35.780   3.353  1.00  0.00     0.011 C 
ENDBRANCH   9  16
ENDBRANCH   7   9
ENDBRANCH   6   7
BRANCH   1  19
HETATM   19  O1  UNL     1      54.669 -38.013   4.562  1.00  0.00    -0.353 OA
HETATM   20  C1  UNL     1      54.694 -38.527   5.881  1.00  0.00     0.210 C 
ENDBRANCH   1  19
BRANCH   5  21
HETATM   21  O4  UNL     1      54.120 -34.093   1.762  1.00  0.00    -0.351 OA
HETATM   22  C9  UNL     1      53.281 -34.407   0.674  1.00  0.00     0.210 C 
ENDBRANCH   5  21
BRANCH   4  23
HETATM   23  O3  UNL     1      52.800 -32.851   3.731  1.00  0.00    -0.351 OA
HETATM   24  C7  UNL     1      51.608 -32.449   3.146  1.00  0.00     0.210 C 
ENDBRANCH   4  23
BRANCH   3  25
HETATM   25  O2  UNL     1      52.348 -34.079   6.155  1.00  0.00    -0.353 OA
HETATM   26  C5  UNL     1      51.669 -34.765   7.179  1.00  0.00     0.210 C 
ENDBRANCH   3  25
TORSDOF 11
ENDMDL
MODEL 4
REMARK VINA RESULT: -7.569996573      1.763      4.467
REMARK  11 active torsions:
REMARK  status: ('A' for Active; 'I' for Inactive)
REMARK    1  A    between atoms: O1_2  and  C2_3 
REMARK    2  A    between atoms: C4_5  and  O2_6 
REMARK    3  A    between atoms: C6_8  and  O3_9 
REMARK    4  A    between atoms: C8_11  and  O4_12 
REMARK    5  A    between atoms: C10_14  and  N1_15 
REMARK    6  A    between atoms: N1_15  and  C11_17 
REMARK    7  A    between atoms: C11_17  and  C12_18 
REMARK    8  A    between atoms: C11_17  and  C16_24 
REMARK    9  A    between atoms: C12_18  and  C13_19 
REMARK   10  A    between atoms: C13_19  and  C14_20 
REMARK   11  A    between atoms: C14_20  and  O5_22 
ROOT
HETATM    1  C2  UNL     1      55.524 -36.144   0.514  1.00  0.00     0.100 A 
HETATM    2  C3  UNL     1      55.560 -35.151  -0.441  1.00  0.00     0.079 A 
HETATM    3  C4  UNL     1      54.694 -34.053  -0.379  1.00  0.00     0.107 A 
HETATM    4  C6  UNL     1      53.783 -33.958   0.654  1.00  0.00     0.137 A 
HETATM    5  C8  UNL     1      53.742 -34.947   1.612  1.00  0.00     0.133 A 
HETATM    6  C10 UNL     1      54.601 -36.037   1.552  1.00  0.00     0.099 A 
ENDROOT
BRANCH   6   7
HETATM    7  N1  UNL     1      54.570 -37.050   2.535  1.00  0.00    -0.380 N 
ATOM      8  H1  UNL     1      54.076 -37.913   2.305  1.00  0.00     0.160 HD
BRANCH   7   9
HETATM    9  C11 UNL     1      55.184 -36.963   3.845  1.00  0.00     0.085 C 
BRANCH   9  10
HETATM   10  C12 UNL     1      56.610 -37.450   3.833  1.00  0.00     0.028 C 
BRANCH  10  11
HETATM   11  C13 UNL     1      57.639 -36.364   3.888  1.00  0.00     0.033 C 
BRANCH  11  12
HETATM   12  C14 UNL     1      58.449 -36.534   5.170  1.00  0.00     0.114 C 
HETATM   13  C15 UNL     1      59.708 -35.730   5.133  1.00  0.00     0.039 C 
BRANCH  12  14
HETATM   14  O5  UNL     1      57.713 -36.171   6.294  1.00  0.00    -0.396 OA
ATOM     15  H5  UNL     1      58.072 -36.552   7.087  1.00  0.00     0.210 HD
ENDBRANCH  12  14
ENDBRANCH  11  12
ENDBRANCH  10  11
ENDBRANCH   9  10
BRANCH   9  16
HETATM   16  C16 UNL     1      54.407 -37.726   4.875  1.00  0.00    -0.000 C 
HETATM   17  C17 UNL     1      54.313 -37.014   6.188  1.00  0.00     0.011 C 
HETATM   18  C18 UNL     1      55.017 -39.108   5.067  1.00  0.00     0.011 C 
ENDBRANCH   9  16
ENDBRANCH   7   9
ENDBRANCH   6   7
BRANCH   1  19
HETATM   19  O1  UNL     1      56.391 -37.233   0.444  1.00  0.00    -0.353 OA
HETATM   20  C1  UNL     1      57.763 -36.995   0.187  1.00  0.00     0.210 C 
ENDBRANCH   1  19
BRANCH   5  21
HETATM   21  O4  UNL     1      52.810 -34.798   2.625  1.00  0.00    -0.351 OA
HETATM   22  C9  UNL     1      53.207 -34.139   3.806  1.00  0.00     0.210 C 
ENDBRANCH   5  21
BRANCH   4  23
HETATM   23  O3  UNL     1      52.928 -32.903   0.740  1.00  0.00    -0.351 OA
HETATM   24  C7  UNL     1      53.167 -31.637   1.253  1.00  0.00     0.210 C 
ENDBRANCH   4  23
BRANCH   3  25
HETATM   25  O2  UNL     1      54.730 -33.054  -1.338  1.00  0.00    -0.353 OA
HETATM   26  C5  UNL     1      55.893 -32.777  -2.079  1.00  0.00     0.210 C 
ENDBRANCH   3  25
TORSDOF 11
ENDMDL
MODEL 5
REMARK VINA RESULT: -7.473584844      1.650      4.092
REMARK  11 active torsions:
REMARK  status: ('A' for Active; 'I' for Inactive)
REMARK    1  A    between atoms: O1_2  and  C2_3 
REMARK    2  A    between atoms: C4_5  and  O2_6 
REMARK    3  A    between atoms: C6_8  and  O3_9 
REMARK    4  A    between atoms: C8_11  and  O4_12 
REMARK    5  A    between atoms: C10_14  and  N1_15 
REMARK    6  A    between atoms: N1_15  and  C11_17 
REMARK    7  A    between atoms: C11_17  and  C12_18 
REMARK    8  A    between atoms: C11_17  and  C16_24 
REMARK    9  A    between atoms: C12_18  and  C13_19 
REMARK   10  A    between atoms: C13_19  and  C14_20 
REMARK   11  A    between atoms: C14_20  and  O5_22 
ROOT
HETATM    1  C2  UNL     1      53.569 -34.535   1.677  1.00  0.00     0.100 A 
HETATM    2  C3  UNL     1      52.716 -33.564   2.155  1.00  0.00     0.079 A 
HETATM    3  C4  UNL     1      52.531 -33.374   3.529  1.00  0.00     0.107 A 
HETATM    4  C6  UNL     1      53.212 -34.170   4.428  1.00  0.00     0.137 A 
HETATM    5  C8  UNL     1      54.067 -35.143   3.956  1.00  0.00     0.133 A 
HETATM    6  C10 UNL     1      54.252 -35.333   2.593  1.00  0.00     0.099 A 
ENDROOT
BRANCH   6   7
HETATM    7  N1  UNL     1      55.132 -36.322   2.102  1.00  0.00    -0.380 N 
ATOM      8  H1  UNL     1      54.791 -37.283   2.073  1.00  0.00     0.160 HD
BRANCH   7   9
HETATM    9  C11 UNL     1      56.484 -36.081   1.637  1.00  0.00     0.085 C 
BRANCH   9  10
HETATM   10  C12 UNL     1      56.686 -36.554   0.221  1.00  0.00     0.028 C 
BRANCH  10  11
HETATM   11  C13 UNL     1      58.117 -36.748  -0.173  1.00  0.00     0.033 C 
BRANCH  11  12
HETATM   12  C14 UNL     1      58.633 -35.440  -0.766  1.00  0.00     0.114 C 
HETATM   13  C15 UNL     1      57.575 -34.740  -1.554  1.00  0.00     0.039 C 
BRANCH  12  14
HETATM   14  O5  UNL     1      59.106 -34.580   0.222  1.00  0.00    -0.396 OA
ATOM     15  H5  UNL     1      59.744 -35.007   0.781  1.00  0.00     0.210 HD
ENDBRANCH  12  14
ENDBRANCH  11  12
ENDBRANCH  10  11
ENDBRANCH   9  10
BRANCH   9  16
HETATM   16  C16 UNL     1      57.502 -36.728   2.527  1.00  0.00    -0.000 C 
HETATM   17  C17 UNL     1      57.011 -37.992   3.161  1.00  0.00     0.011 C 
HETATM   18  C18 UNL     1      57.956 -35.744   3.596  1.00  0.00     0.011 C 
ENDBRANCH   9  16
ENDBRANCH   7   9
ENDBRANCH   6   7
BRANCH   1  19
HETATM   19  O1  UNL     1      53.747 -34.718   0.305  1.00  0.00    -0.353 OA
HETATM   20  C1  UNL     1      54.408 -33.708  -0.434  1.00  0.00     0.210 C 
ENDBRANCH   1  19
BRANCH   5  21
HETATM   21  O4  UNL     1      54.725 -35.910   4.903  1.00  0.00    -0.351 OA
HETATM   22  C9  UNL     1      54.202 -37.182   5.211  1.00  0.00     0.210 C 
ENDBRANCH   5  21
BRANCH   4  23
HETATM   23  O3  UNL     1      53.053 -34.009   5.769  1.00  0.00    -0.351 OA
HETATM   24  C7  UNL     1      52.102 -34.581   6.601  1.00  0.00     0.210 C 
ENDBRANCH   4  23
BRANCH   3  25
HETATM   25  O2  UNL     1      51.675 -32.398   4.010  1.00  0.00    -0.353 OA
HETATM   26  C5  UNL     1      51.046 -31.474   3.156  1.00  0.00     0.210 C 
ENDBRANCH   3  25
TORSDOF 11
ENDMDL
