MODEL 1
REMARK VINA RESULT: -8.319792356      0.000      0.000
REMARK  11 active torsions:
REMARK  status: ('A' for Active; 'I' for Inactive)
REMARK    1  A    between atoms: C2_2  and  C3_3 
REMARK    2  A    between atoms: C3_3  and  N1_4 
REMARK    3  A    between atoms: N1_4  and  C4_7 
REMARK    4  A    between atoms: C4_7  and  O1_8 
REMARK    5  A    between atoms: C4_7  and  C5_10 
REMARK    6  A    between atoms: N3_13  and  C6_14 
REMARK    7  A    between atoms: C6_14  and  C7_15 
REMARK    8  A    between atoms: C6_14  and  C11_20 
REMARK    9  A    between atoms: C7_15  and  O2_16 
REMARK   10  A    between atoms: O2_16  and  C8_17 
REMARK   11  A    between atoms: C11_20  and  C12_21 
ROOT
HETATM    1  C5  UNL     1      53.522 -35.816   1.679  1.00  0.00     0.112 A 
HETATM    2  N2  UNL     1      54.163 -36.322   2.745  1.00  0.00    -0.294 N 
ATOM      3  H2  UNL     1      54.705 -37.186   2.744  1.00  0.00     0.187 HD
HETATM    4  N3  UNL     1      53.991 -35.530   3.809  1.00  0.00    -0.267 N 
HETATM    5  C15 UNL     1      53.224 -34.470   3.471  1.00  0.00     0.153 A 
HETATM    6  N4  UNL     1      52.637 -33.333   3.881  1.00  0.00    -0.329 N 
ATOM      7  H4  UNL     1      52.688 -32.955   4.827  1.00  0.00     0.168 HD
HETATM    8  C16 UNL     1      51.972 -32.768   2.859  1.00  0.00     0.079 A 
HETATM    9  C17 UNL     1      51.178 -31.488   2.886  1.00  0.00     0.089 C 
HETATM   10  N5  UNL     1      52.162 -33.584   1.807  1.00  0.00    -0.341 N 
ATOM     11  H5  UNL     1      51.775 -33.418   0.878  1.00  0.00     0.167 HD
HETATM   12  C18 UNL     1      52.924 -34.644   2.128  1.00  0.00     0.108 A 
ENDROOT
BRANCH   4  13
HETATM   13  C6  UNL     1      54.560 -35.815   5.090  1.00  0.00     0.134 C 
BRANCH  13  14
HETATM   14  C7  UNL     1      56.066 -35.872   4.975  1.00  0.00     0.195 C 
BRANCH  14  15
HETATM   15  O2  UNL     1      56.510 -35.093   3.904  1.00  0.00    -0.385 OA
BRANCH  15  16
HETATM   16  C8  UNL     1      57.685 -35.575   3.375  1.00  0.00     0.113 C 
HETATM   17  C9  UNL     1      58.890 -35.193   4.231  1.00  0.00     0.039 C 
HETATM   18  C10 UNL     1      57.623 -37.094   3.334  1.00  0.00     0.039 C 
ENDBRANCH  15  16
ENDBRANCH  14  15
ENDBRANCH  13  14
BRANCH  13  19
HETATM   19  C11 UNL     1      53.992 -37.057   5.691  1.00  0.00     0.033 C 
BRANCH  19  20
HETATM   20  C12 UNL     1      54.881 -37.642   6.739  1.00  0.00    -0.021 C 
HETATM   21  C13 UNL     1      54.303 -37.470   8.121  1.00  0.00     0.009 C 
HETATM   22  C14 UNL     1      54.958 -39.156   6.498  1.00  0.00     0.009 C 
ENDBRANCH  19  20
ENDBRANCH  13  19
ENDBRANCH   4  13
BRANCH   1  23
HETATM   23  C4  UNL     1      53.455 -36.378   0.304  1.00  0.00     0.373 C 
BRANCH  23  24
HETATM   24  N1  UNL     1      54.236 -35.624  -0.631  1.00  0.00    -0.043 N 
ATOM     25  H12 UNL     1      53.820 -34.706  -0.786  1.00  0.00     0.280 HD
ATOM     26  H11 UNL     1      54.146 -36.016  -1.569  1.00  0.00     0.280 HD
BRANCH  24  27
HETATM   27  C3  UNL     1      55.611 -35.497  -0.271  1.00  0.00     0.235 C 
BRANCH  27  28
HETATM   28  C2  UNL     1      56.472 -36.599  -0.854  1.00  0.00     0.023 C 
HETATM   29  C1  UNL     1      57.892 -36.496  -0.390  1.00  0.00     0.007 C 
ENDBRANCH  27  28
ENDBRANCH  24  27
ENDBRANCH  23  24
BRANCH  23  30
HETATM   30  O1  UNL     1      52.134 -36.410  -0.083  1.00  0.00    -0.365 OA
ATOM     31  H1  UNL     1      51.584 -36.714   0.630  1.00  0.00     0.212 HD
ENDBRANCH  23  30
ENDBRANCH   1  23
TORSDOF 11
ENDMDL
MODEL 2
REMARK VINA RESULT: -8.281933241      1.681      2.218
REMARK  11 active torsions:
REMARK  status: ('A' for Active; 'I' for Inactive)
REMARK    1  A    between atoms: C2_2  and  C3_3 
REMARK    2  A    between atoms: C3_3  and  N1_4 
REMARK    3  A    between atoms: N1_4  and  C4_7 
REMARK    4  A    between atoms: C4_7  and  O1_8 
REMARK    5  A    between atoms: C4_7  and  C5_10 
REMARK    6  A    between atoms: N3_13  and  C6_14 
REMARK    7  A    between atoms: C6_14  and  C7_15 
REMARK    8  A    between atoms: C6_14  and  C11_20 
REMARK    9  A    between atoms: C7_15  and  O2_16 
REMARK   10  A    between atoms: O2_16  and  C8_17 
REMARK   11  A    between atoms: C11_20  and  C12_21 
ROOT
HETATM    1  C5  UNL     1      54.342 -34.479   1.169  1.00  0.00     0.112 A 
HETATM    2  N2  UNL     1      54.894 -35.164   2.184  1.00  0.00    -0.294 N 
ATOM      3  H2  UNL     1      55.640 -35.854   2.085  1.00  0.00     0.187 HD
HETATM    4  N3  UNL     1      54.328 -34.812   3.343  1.00  0.00    -0.267 N 
HETATM    5  C15 UNL     1      53.378 -33.877   3.123  1.00  0.00     0.153 A 
HETATM    6  N4  UNL     1      52.443 -33.077   3.664  1.00  0.00    -0.329 N 
ATOM      7  H4  UNL     1      52.221 -33.024   4.658  1.00  0.00     0.168 HD
HETATM    8  C16 UNL     1      51.845 -32.356   2.700  1.00  0.00     0.079 A 
HETATM    9  C17 UNL     1      50.745 -31.341   2.872  1.00  0.00     0.089 C 
HETATM   10  N5  UNL     1      52.433 -32.730   1.550  1.00  0.00    -0.341 N 
ATOM     11  H5  UNL     1      52.189 -32.354   0.634  1.00  0.00     0.167 HD
HETATM   12  C18 UNL     1      53.381 -33.662   1.753  1.00  0.00     0.108 A 
ENDROOT
BRANCH   4  13
HETATM   13  C6  UNL     1      54.713 -35.378   4.599  1.00  0.00     0.134 C 
BRANCH  13  14
HETATM   14  C7  UNL     1      55.866 -36.334   4.393  1.00  0.00     0.195 C 
BRANCH  14  15
HETATM   15  O2  UNL     1      55.405 -37.577   3.954  1.00  0.00    -0.385 OA
BRANCH  15  16
HETATM   16  C8  UNL     1      55.933 -38.608   4.695  1.00  0.00     0.113 C 
HETATM   17  C9  UNL     1      56.661 -38.098   5.937  1.00  0.00     0.039 C 
HETATM   18  C10 UNL     1      54.802 -39.506   5.170  1.00  0.00     0.039 C 
ENDBRANCH  15  16
ENDBRANCH  14  15
ENDBRANCH  13  14
BRANCH  13  19
HETATM   19  C11 UNL     1      53.565 -36.021   5.300  1.00  0.00     0.033 C 
BRANCH  19  20
HETATM   20  C12 UNL     1      53.417 -35.546   6.708  1.00  0.00    -0.021 C 
HETATM   21  C13 UNL     1      51.993 -35.158   7.021  1.00  0.00     0.009 C 
HETATM   22  C14 UNL     1      53.749 -36.721   7.638  1.00  0.00     0.009 C 
ENDBRANCH  19  20
ENDBRANCH  13  19
ENDBRANCH   4  13
BRANCH   1  23
HETATM   23  C4  UNL     1      54.676 -34.565  -0.277  1.00  0.00     0.373 C 
BRANCH  23  24
HETATM   24  N1  UNL     1      56.048 -34.912  -0.500  1.00  0.00    -0.043 N 
ATOM     25  H12 UNL     1      56.614 -34.670   0.313  1.00  0.00     0.280 HD
ATOM     26  H11 UNL     1      56.466 -34.291  -1.193  1.00  0.00     0.280 HD
BRANCH  24  27
HETATM   27  C3  UNL     1      56.251 -36.277  -0.864  1.00  0.00     0.235 C 
BRANCH  27  28
HETATM   28  C2  UNL     1      57.593 -36.811  -0.403  1.00  0.00     0.023 C 
HETATM   29  C1  UNL     1      57.531 -37.323   1.003  1.00  0.00     0.007 C 
ENDBRANCH  27  28
ENDBRANCH  24  27
ENDBRANCH  23  24
BRANCH  23  30
HETATM   30  O1  UNL     1      54.382 -33.353  -0.859  1.00  0.00    -0.365 OA
ATOM     31  H1  UNL     1      54.256 -32.685  -0.196  1.00  0.00     0.212 HD
ENDBRANCH  23  30
ENDBRANCH   1  23
TORSDOF 11
ENDMDL
MODEL 3
REMARK VINA RESULT: -8.258732394      2.223      3.586
REMARK  11 active torsions:
REMARK  status: ('A' for Active; 'I' for Inactive)
REMARK    1  A    between atoms: C2_2  and  C3_3 
REMARK    2  A    between atoms: C3_3  and  N1_4 
REMARK    3  A    between atoms: N1_4  and  C4_7 
REMARK    4  A    between atoms: C4_7  and  O1_8 
REMARK    5  A    between atoms: C4_7  and  C5_10 
REMARK    6  A    between atoms: N3_13  and  C6_14 
REMARK    7  A    between atoms: C6_14  and  C7_15 
REMARK    8  A    between atoms: C6_14  and  C11_20 
REMARK    9  A    between atoms: C7_15  and  O2_16 
REMARK   10  A    between atoms: O2_16  and  C8_17 
REMARK   11  A    between atoms: C11_20  and  C12_21 
ROOT
HETATM    1  C5  UNL     1      52.955 -33.975   3.370  1.00  0.00     0.112 A 
HETATM    2  N2  UNL     1      53.859 -34.859   2.917  1.00  0.00    -0.294 N 
ATOM      3  H2  UNL     1      54.233 -34.876   1.968  1.00  0.00     0.187 HD
HETATM    4  N3  UNL     1      54.199 -35.713   3.888  1.00  0.00    -0.267 N 
HETATM    5  C15 UNL     1      53.523 -35.414   5.019  1.00  0.00     0.153 A 
HETATM    6  N4  UNL     1      53.294 -35.725   6.306  1.00  0.00    -0.329 N 
ATOM      7  H4  UNL     1      53.739 -36.492   6.812  1.00  0.00     0.168 HD
HETATM    8  C16 UNL     1      52.393 -34.876   6.828  1.00  0.00     0.079 A 
HETATM    9  C17 UNL     1      51.856 -34.871   8.236  1.00  0.00     0.089 C 
HETATM   10  N5  UNL     1      52.070 -34.032   5.833  1.00  0.00    -0.341 N 
ATOM     11  H5  UNL     1      51.401 -33.268   5.925  1.00  0.00     0.167 HD
HETATM   12  C18 UNL     1      52.735 -34.318   4.699  1.00  0.00     0.108 A 
ENDROOT
BRANCH   4  13
HETATM   13  C6  UNL     1      55.146 -36.768   3.697  1.00  0.00     0.134 C 
BRANCH  13  14
HETATM   14  C7  UNL     1      55.480 -36.891   2.228  1.00  0.00     0.195 C 
BRANCH  14  15
HETATM   15  O2  UNL     1      56.304 -35.842   1.818  1.00  0.00    -0.385 OA
BRANCH  15  16
HETATM   16  C8  UNL     1      56.877 -36.091   0.593  1.00  0.00     0.113 C 
HETATM   17  C9  UNL     1      57.765 -37.333   0.624  1.00  0.00     0.039 C 
HETATM   18  C10 UNL     1      55.776 -36.349  -0.425  1.00  0.00     0.039 C 
ENDBRANCH  15  16
ENDBRANCH  14  15
ENDBRANCH  13  14
BRANCH  13  19
HETATM   19  C11 UNL     1      54.673 -38.057   4.279  1.00  0.00     0.033 C 
BRANCH  19  20
HETATM   20  C12 UNL     1      55.690 -38.689   5.171  1.00  0.00    -0.021 C 
HETATM   21  C13 UNL     1      56.510 -37.656   5.904  1.00  0.00     0.009 C 
HETATM   22  C14 UNL     1      54.941 -39.480   6.253  1.00  0.00     0.009 C 
ENDBRANCH  19  20
ENDBRANCH  13  19
ENDBRANCH   4  13
BRANCH   1  23
HETATM   23  C4  UNL     1      52.314 -32.861   2.622  1.00  0.00     0.373 C 
BRANCH  23  24
HETATM   24  N1  UNL     1      53.273 -31.943   2.086  1.00  0.00    -0.043 N 
ATOM     25  H12 UNL     1      54.199 -32.127   2.471  1.00  0.00     0.280 HD
ATOM     26  H11 UNL     1      53.116 -31.005   2.455  1.00  0.00     0.280 HD
BRANCH  24  27
HETATM   27  C3  UNL     1      53.320 -31.918   0.659  1.00  0.00     0.235 C 
BRANCH  27  28
HETATM   28  C2  UNL     1      54.006 -33.137   0.076  1.00  0.00     0.023 C 
HETATM   29  C1  UNL     1      54.888 -32.776  -1.080  1.00  0.00     0.007 C 
ENDBRANCH  27  28
ENDBRANCH  24  27
ENDBRANCH  23  24
BRANCH  23  30
HETATM   30  O1  UNL     1      51.447 -32.214   3.474  1.00  0.00    -0.365 OA
ATOM     31  H1  UNL     1      50.925 -32.841   3.960  1.00  0.00     0.212 HD
ENDBRANCH  23  30
ENDBRANCH   1  23
TORSDOF 11
ENDMDL
MODEL 4
REMARK VINA RESULT: -8.226161431      2.413      6.823
REMARK  11 active torsions:
REMARK  status: ('A' for Active; 'I' for Inactive)
REMARK    1  A    between atoms: C2_2  and  C3_3 
REMARK    2  A    between atoms: C3_3  and  N1_4 
REMARK    3  A    between atoms: N1_4  and  C4_7 
REMARK    4  A    between atoms: C4_7  and  O1_8 
REMARK    5  A    between atoms: C4_7  and  C5_10 
REMARK    6  A    between atoms: N3_13  and  C6_14 
REMARK    7  A    between atoms: C6_14  and  C7_15 
REMARK    8  A    between atoms: C6_14  and  C11_20 
REMARK    9  A    between atoms: C7_15  and  O2_16 
REMARK   10  A    between atoms: O2_16  and  C8_17 
REMARK   11  A    between atoms: C11_20  and  C12_21 
ROOT
HETATM    1  C5  UNL     1      55.570 -37.447   5.299  1.00  0.00     0.112 A 
HETATM    2  N2  UNL     1      55.016 -37.164   4.108  1.00  0.00    -0.294 N 
ATOM      3  H2  UNL     1      54.068 -37.420   3.832  1.00  0.00     0.187 HD
HETATM    4  N3  UNL     1      55.884 -36.500   3.339  1.00  0.00    -0.267 N 
HETATM    5  C15 UNL     1      57.046 -36.323   4.007  1.00  0.00     0.153 A 
HETATM    6  N4  UNL     1      58.292 -35.820   3.978  1.00  0.00    -0.329 N 
ATOM      7  H4  UNL     1      58.706 -35.325   3.189  1.00  0.00     0.168 HD
HETATM    8  C16 UNL     1      58.910 -36.067   5.145  1.00  0.00     0.079 A 
HETATM    9  C17 UNL     1      60.314 -35.678   5.531  1.00  0.00     0.089 C 
HETATM   10  N5  UNL     1      58.017 -36.735   5.896  1.00  0.00    -0.341 N 
ATOM     11  H5  UNL     1      58.198 -37.063   6.844  1.00  0.00     0.167 HD
HETATM   12  C18 UNL     1      56.855 -36.919   5.244  1.00  0.00     0.108 A 
ENDROOT
BRANCH   4  13
HETATM   13  C6  UNL     1      55.571 -36.065   2.013  1.00  0.00     0.134 C 
BRANCH  13  14
HETATM   14  C7  UNL     1      54.072 -35.937   1.861  1.00  0.00     0.195 C 
BRANCH  14  15
HETATM   15  O2  UNL     1      53.593 -34.846   2.588  1.00  0.00    -0.385 OA
BRANCH  15  16
HETATM   16  C8  UNL     1      52.767 -34.050   1.830  1.00  0.00     0.113 C 
HETATM   17  C9  UNL     1      51.965 -33.080   2.695  1.00  0.00     0.039 C 
HETATM   18  C10 UNL     1      53.616 -33.216   0.884  1.00  0.00     0.039 C 
ENDBRANCH  15  16
ENDBRANCH  14  15
ENDBRANCH  13  14
BRANCH  13  19
HETATM   19  C11 UNL     1      56.170 -36.954   0.976  1.00  0.00     0.033 C 
BRANCH  19  20
HETATM   20  C12 UNL     1      57.203 -36.257   0.153  1.00  0.00    -0.021 C 
HETATM   21  C13 UNL     1      58.175 -37.230  -0.465  1.00  0.00     0.009 C 
HETATM   22  C14 UNL     1      56.486 -35.572  -1.019  1.00  0.00     0.009 C 
ENDBRANCH  19  20
ENDBRANCH  13  19
ENDBRANCH   4  13
BRANCH   1  23
HETATM   23  C4  UNL     1      54.955 -38.170   6.443  1.00  0.00     0.373 C 
BRANCH  23  24
HETATM   24  N1  UNL     1      54.922 -37.378   7.635  1.00  0.00    -0.043 N 
ATOM     25  H12 UNL     1      55.644 -36.657   7.606  1.00  0.00     0.280 HD
ATOM     26  H11 UNL     1      55.251 -37.920   8.434  1.00  0.00     0.280 HD
BRANCH  24  27
HETATM   27  C3  UNL     1      53.648 -36.798   7.914  1.00  0.00     0.235 C 
BRANCH  27  28
HETATM   28  C2  UNL     1      53.293 -35.679   6.956  1.00  0.00     0.023 C 
HETATM   29  C1  UNL     1      52.001 -35.019   7.331  1.00  0.00     0.007 C 
ENDBRANCH  27  28
ENDBRANCH  24  27
ENDBRANCH  23  24
BRANCH  23  30
HETATM   30  O1  UNL     1      55.667 -39.330   6.651  1.00  0.00    -0.365 OA
ATOM     31  H1  UNL     1      56.601 -39.156   6.639  1.00  0.00     0.212 HD
ENDBRANCH  23  30
ENDBRANCH   1  23
TORSDOF 11
ENDMDL
MODEL 5
REMARK VINA RESULT: -8.148069136      2.178      6.553
REMARK  11 active torsions:
REMARK  status: ('A' for Active; 'I' for Inactive)
REMARK    1  A    between atoms: C2_2  and  C3_3 
REMARK    2  A    between atoms: C3_3  and  N1_4 
REMARK    3  A    between atoms: N1_4  and  C4_7 
REMARK    4  A    between atoms: C4_7  and  O1_8 
REMARK    5  A    between atoms: C4_7  and  C5_10 
REMARK    6  A    between atoms: N3_13  and  C6_14 
REMARK    7  A    between atoms: C6_14  and  C7_15 
REMARK    8  A    between atoms: C6_14  and  C11_20 
REMARK    9  A    between atoms: C7_15  and  O2_16 
REMARK   10  A    between atoms: O2_16  and  C8_17 
REMARK   11  A    between atoms: C11_20  and  C12_21 
ROOT
HETATM    1  C5  UNL     1      55.075 -36.843   4.258  1.00  0.00     0.112 A 
HETATM    2  N2  UNL     1      54.680 -36.531   3.012  1.00  0.00    -0.294 N 
ATOM      3  H2  UNL     1      53.751 -36.712   2.632  1.00  0.00     0.187 HD
HETATM    4  N3  UNL     1      55.680 -35.947   2.342  1.00  0.00    -0.267 N 
HETATM    5  C15 UNL     1      56.771 -35.858   3.135  1.00  0.00     0.153 A 
HETATM    6  N4  UNL     1      58.049 -35.457   3.244  1.00  0.00    -0.329 N 
ATOM      7  H4  UNL     1      58.587 -35.006   2.504  1.00  0.00     0.168 HD
HETATM    8  C16 UNL     1      58.513 -35.740   4.473  1.00  0.00     0.079 A 
HETATM    9  C17 UNL     1      59.891 -35.460   5.013  1.00  0.00     0.089 C 
HETATM   10  N5  UNL     1      57.490 -36.325   5.121  1.00  0.00    -0.341 N 
ATOM     11  H5  UNL     1      57.538 -36.655   6.085  1.00  0.00     0.167 HD
HETATM   12  C18 UNL     1      56.396 -36.422   4.345  1.00  0.00     0.108 A 
ENDROOT
BRANCH   4  13
HETATM   13  C6  UNL     1      55.552 -35.504   0.989  1.00  0.00     0.134 C 
BRANCH  13  14
HETATM   14  C7  UNL     1      54.259 -34.738   0.824  1.00  0.00     0.195 C 
BRANCH  14  15
HETATM   15  O2  UNL     1      54.225 -33.636   1.681  1.00  0.00    -0.385 OA
BRANCH  15  16
HETATM   16  C8  UNL     1      52.958 -33.112   1.788  1.00  0.00     0.113 C 
HETATM   17  C9  UNL     1      52.390 -33.287   3.194  1.00  0.00     0.039 C 
HETATM   18  C10 UNL     1      53.016 -31.618   1.506  1.00  0.00     0.039 C 
ENDBRANCH  15  16
ENDBRANCH  14  15
ENDBRANCH  13  14
BRANCH  13  19
HETATM   19  C11 UNL     1      55.669 -36.630   0.017  1.00  0.00     0.033 C 
BRANCH  19  20
HETATM   20  C12 UNL     1      56.859 -36.495  -0.875  1.00  0.00    -0.021 C 
HETATM   21  C13 UNL     1      57.310 -35.060  -0.990  1.00  0.00     0.009 C 
HETATM   22  C14 UNL     1      58.023 -37.254  -0.224  1.00  0.00     0.009 C 
ENDBRANCH  19  20
ENDBRANCH  13  19
ENDBRANCH   4  13
BRANCH   1  23
HETATM   23  C4  UNL     1      54.279 -37.501   5.327  1.00  0.00     0.373 C 
BRANCH  23  24
HETATM   24  N1  UNL     1      54.667 -37.071   6.638  1.00  0.00    -0.043 N 
ATOM     25  H12 UNL     1      55.493 -36.475   6.588  1.00  0.00     0.280 HD
ATOM     26  H11 UNL     1      55.049 -37.852   7.172  1.00  0.00     0.280 HD
BRANCH  24  27
HETATM   27  C3  UNL     1      53.626 -36.425   7.370  1.00  0.00     0.235 C 
BRANCH  27  28
HETATM   28  C2  UNL     1      52.969 -35.307   6.587  1.00  0.00     0.023 C 
HETATM   29  C1  UNL     1      51.636 -34.938   7.162  1.00  0.00     0.007 C 
ENDBRANCH  27  28
ENDBRANCH  24  27
ENDBRANCH  23  24
BRANCH  23  30
HETATM   30  O1  UNL     1      54.430 -38.863   5.200  1.00  0.00    -0.365 OA
ATOM     31  H1  UNL     1      55.327 -39.119   5.384  1.00  0.00     0.212 HD
ENDBRANCH  23  30
ENDBRANCH   1  23
TORSDOF 11
ENDMDL
