MODEL 1
REMARK VINA RESULT: -6.897215020      0.000      0.000
REMARK  3 active torsions:
REMARK  status: ('A' for Active; 'I' for Inactive)
REMARK    1  A    between atoms: N1_1  and  C1_4 
REMARK    2  A    between atoms: C2_7  and  N3_8 
REMARK    3  A    between atoms: N3_8  and  N4_10 
ROOT
HETATM    1  C1  UNL     1      59.174  67.283  59.212  1.00  0.00     0.256 A 
HETATM    2  N2  UNL     1      58.713  68.466  59.676  1.00  0.00    -0.150 N 
ATOM      3  H2  UNL     1      58.189  69.164  59.148  1.00  0.00     0.188 HD
HETATM    4  C2  UNL     1      59.078  68.544  60.964  1.00  0.00     0.720 A 
HETATM    5  N7  UNL     1      59.743  67.441  61.277  1.00  0.00    -0.086 N 
ATOM      6  H7  UNL     1      60.145  67.217  62.187  1.00  0.00     0.214 HD
HETATM    7  O1  UNL     1      59.788  66.701  60.212  1.00  0.00    -0.186 OA
ENDROOT
BRANCH   4   8
HETATM    8  N3  UNL     1      58.793  69.556  61.711  1.00  0.00    -0.128 N 
ATOM      9  H3  UNL     1      59.563  70.136  62.045  1.00  0.00     0.205 HD
BRANCH   8  10
HETATM   10  N4  UNL     1      57.517  69.901  62.087  1.00  0.00    -0.262 N 
HETATM   11  C3  UNL     1      57.228  70.819  62.946  1.00  0.00     0.216 C 
HETATM   12  N5  UNL     1      58.288  71.539  63.562  1.00  0.00    -0.065 NA
HETATM   13  N6  UNL     1      55.904  71.153  63.312  1.00  0.00    -0.065 NA
ATOM     14  H4  UNL     1      56.743  69.396  61.656  1.00  0.00     0.190 HD
ENDBRANCH   8  10
ENDBRANCH   4   8
BRANCH   1  15
HETATM   15  N1  UNL     1      59.039  66.813  58.015  1.00  0.00    -0.363 N 
ATOM     16  H12 UNL     1      59.383  67.239  57.153  1.00  0.00     0.159 HD
ATOM     17  H11 UNL     1      58.567  65.949  57.747  1.00  0.00     0.159 HD
ENDBRANCH   1  15
TORSDOF 3
ENDMDL
MODEL 2
REMARK VINA RESULT: -6.702955396      1.315      1.521
REMARK  3 active torsions:
REMARK  status: ('A' for Active; 'I' for Inactive)
REMARK    1  A    between atoms: N1_1  and  C1_4 
REMARK    2  A    between atoms: C2_7  and  N3_8 
REMARK    3  A    between atoms: N3_8  and  N4_10 
ROOT
HETATM    1  C1  UNL     1      59.134  67.186  59.401  1.00  0.00     0.256 A 
HETATM    2  N2  UNL     1      58.146  67.980  59.871  1.00  0.00    -0.150 N 
ATOM      3  H2  UNL     1      57.367  68.365  59.335  1.00  0.00     0.188 HD
HETATM    4  C2  UNL     1      58.388  68.163  61.177  1.00  0.00     0.720 A 
HETATM    5  N7  UNL     1      59.491  67.501  61.494  1.00  0.00    -0.086 N 
ATOM      6  H7  UNL     1      59.923  67.455  62.418  1.00  0.00     0.214 HD
HETATM    7  O1  UNL     1      59.921  66.924  60.415  1.00  0.00    -0.186 OA
ENDROOT
BRANCH   4   8
HETATM    8  N3  UNL     1      57.628  68.878  61.936  1.00  0.00    -0.128 N 
ATOM      9  H3  UNL     1      58.035  69.700  62.383  1.00  0.00     0.205 HD
BRANCH   8  10
HETATM   10  N4  UNL     1      56.303  68.602  62.179  1.00  0.00    -0.262 N 
HETATM   11  C3  UNL     1      55.519  69.340  62.888  1.00  0.00     0.216 C 
HETATM   12  N5  UNL     1      56.036  70.529  63.470  1.00  0.00    -0.065 NA
HETATM   13  N6  UNL     1      54.159  69.030  63.120  1.00  0.00    -0.065 NA
ATOM     14  H4  UNL     1      55.913  67.754  61.769  1.00  0.00     0.190 HD
ENDBRANCH   8  10
ENDBRANCH   4   8
BRANCH   1  15
HETATM   15  N1  UNL     1      59.279  66.766  58.186  1.00  0.00    -0.363 N 
ATOM     16  H12 UNL     1      59.886  66.007  57.875  1.00  0.00     0.159 HD
ATOM     17  H11 UNL     1      58.812  67.127  57.354  1.00  0.00     0.159 HD
ENDBRANCH   1  15
TORSDOF 3
ENDMDL
MODEL 3
REMARK VINA RESULT: -6.652073199      0.688      1.151
REMARK  3 active torsions:
REMARK  status: ('A' for Active; 'I' for Inactive)
REMARK    1  A    between atoms: N1_1  and  C1_4 
REMARK    2  A    between atoms: C2_7  and  N3_8 
REMARK    3  A    between atoms: N3_8  and  N4_10 
ROOT
HETATM    1  C1  UNL     1      59.108  67.118  59.337  1.00  0.00     0.256 A 
HETATM    2  N2  UNL     1      58.123  67.906  59.826  1.00  0.00    -0.150 N 
ATOM      3  H2  UNL     1      57.335  68.290  59.305  1.00  0.00     0.188 HD
HETATM    4  C2  UNL     1      58.386  68.083  61.130  1.00  0.00     0.720 A 
HETATM    5  N7  UNL     1      59.497  67.425  61.426  1.00  0.00    -0.086 N 
ATOM      6  H7  UNL     1      59.943  67.376  62.342  1.00  0.00     0.214 HD
HETATM    7  O1  UNL     1      59.911  66.855  60.336  1.00  0.00    -0.186 OA
ENDROOT
BRANCH   4   8
HETATM    8  N3  UNL     1      57.635  68.791  61.904  1.00  0.00    -0.128 N 
ATOM      9  H3  UNL     1      56.788  68.359  62.274  1.00  0.00     0.205 HD
BRANCH   8  10
HETATM   10  N4  UNL     1      57.904  70.091  62.260  1.00  0.00    -0.262 N 
HETATM   11  C3  UNL     1      57.115  70.841  62.951  1.00  0.00     0.216 C 
HETATM   12  N5  UNL     1      55.871  70.308  63.387  1.00  0.00    -0.065 NA
HETATM   13  N6  UNL     1      57.420  72.176  63.303  1.00  0.00    -0.065 NA
ATOM     14  H4  UNL     1      58.792  70.491  61.957  1.00  0.00     0.190 HD
ENDBRANCH   8  10
ENDBRANCH   4   8
BRANCH   1  15
HETATM   15  N1  UNL     1      59.235  66.704  58.118  1.00  0.00    -0.363 N 
ATOM     16  H12 UNL     1      59.944  66.061  57.766  1.00  0.00     0.159 HD
ATOM     17  H11 UNL     1      58.648  66.957  57.322  1.00  0.00     0.159 HD
ENDBRANCH   1  15
TORSDOF 3
ENDMDL
MODEL 4
REMARK VINA RESULT: -6.563873284      1.656      2.082
REMARK  3 active torsions:
REMARK  status: ('A' for Active; 'I' for Inactive)
REMARK    1  A    between atoms: N1_1  and  C1_4 
REMARK    2  A    between atoms: C2_7  and  N3_8 
REMARK    3  A    between atoms: N3_8  and  N4_10 
ROOT
HETATM    1  C1  UNL     1      58.211  66.886  59.060  1.00  0.00     0.256 A 
HETATM    2  N2  UNL     1      58.114  67.855  59.999  1.00  0.00    -0.150 N 
ATOM      3  H2  UNL     1      58.750  68.641  60.131  1.00  0.00     0.188 HD
HETATM    4  C2  UNL     1      57.018  67.580  60.722  1.00  0.00     0.720 A 
HETATM    5  N7  UNL     1      56.464  66.477  60.239  1.00  0.00    -0.086 N 
ATOM      6  H7  UNL     1      55.618  66.025  60.586  1.00  0.00     0.214 HD
HETATM    7  O1  UNL     1      57.196  66.080  59.244  1.00  0.00    -0.186 OA
ENDROOT
BRANCH   4   8
HETATM    8  N3  UNL     1      56.630  68.314  61.710  1.00  0.00    -0.128 N 
ATOM      9  H3  UNL     1      55.712  68.125  62.114  1.00  0.00     0.205 HD
BRANCH   8  10
HETATM   10  N4  UNL     1      57.376  69.333  62.252  1.00  0.00    -0.262 N 
HETATM   11  C3  UNL     1      56.905  70.264  63.008  1.00  0.00     0.216 C 
HETATM   12  N5  UNL     1      55.517  70.259  63.319  1.00  0.00    -0.065 NA
HETATM   13  N6  UNL     1      57.698  71.301  63.552  1.00  0.00    -0.065 NA
ATOM     14  H4  UNL     1      58.374  69.353  62.041  1.00  0.00     0.190 HD
ENDBRANCH   8  10
ENDBRANCH   4   8
BRANCH   1  15
HETATM   15  N1  UNL     1      59.127  66.775  58.154  1.00  0.00    -0.363 N 
ATOM     16  H12 UNL     1      59.700  67.529  57.773  1.00  0.00     0.159 HD
ATOM     17  H11 UNL     1      59.418  65.919  57.680  1.00  0.00     0.159 HD
ENDBRANCH   1  15
TORSDOF 3
ENDMDL
MODEL 5
REMARK VINA RESULT: -6.397811500      2.543      2.872
REMARK  3 active torsions:
REMARK  status: ('A' for Active; 'I' for Inactive)
REMARK    1  A    between atoms: N1_1  and  C1_4 
REMARK    2  A    between atoms: C2_7  and  N3_8 
REMARK    3  A    between atoms: N3_8  and  N4_10 
ROOT
HETATM    1  C1  UNL     1      58.157  66.837  59.091  1.00  0.00     0.256 A 
HETATM    2  N2  UNL     1      57.996  67.774  60.052  1.00  0.00    -0.150 N 
ATOM      3  H2  UNL     1      58.607  68.571  60.234  1.00  0.00     0.188 HD
HETATM    4  C2  UNL     1      56.878  67.453  60.719  1.00  0.00     0.720 A 
HETATM    5  N7  UNL     1      56.372  66.353  60.182  1.00  0.00    -0.086 N 
ATOM      6  H7  UNL     1      55.523  65.870  60.479  1.00  0.00     0.214 HD
HETATM    7  O1  UNL     1      57.155  66.002  59.208  1.00  0.00    -0.186 OA
ENDROOT
BRANCH   4   8
HETATM    8  N3  UNL     1      56.431  68.148  61.710  1.00  0.00    -0.128 N 
ATOM      9  H3  UNL     1      56.942  68.990  61.972  1.00  0.00     0.205 HD
BRANCH   8  10
HETATM   10  N4  UNL     1      55.308  67.824  62.433  1.00  0.00    -0.262 N 
HETATM   11  C3  UNL     1      54.459  68.680  62.892  1.00  0.00     0.216 C 
HETATM   12  N5  UNL     1      54.678  70.063  62.644  1.00  0.00    -0.065 NA
HETATM   13  N6  UNL     1      53.311  68.317  63.633  1.00  0.00    -0.065 NA
ATOM     14  H4  UNL     1      55.133  66.837  62.621  1.00  0.00     0.190 HD
ENDBRANCH   8  10
ENDBRANCH   4   8
BRANCH   1  15
HETATM   15  N1  UNL     1      59.113  66.774  58.222  1.00  0.00    -0.363 N 
ATOM     16  H12 UNL     1      59.760  65.996  58.088  1.00  0.00     0.159 HD
ATOM     17  H11 UNL     1      59.369  67.489  57.541  1.00  0.00     0.159 HD
ENDBRANCH   1  15
TORSDOF 3
ENDMDL
