MODEL 1
REMARK VINA RESULT: -7.096658405      0.000      0.000
REMARK  1 active torsions:
REMARK  status: ('A' for Active; 'I' for Inactive)
REMARK    1  A    between atoms: C4_13  and  C5_14 
ROOT
HETATM    1  N1  UNL     1      59.291  66.850  58.271  1.00  0.00    -0.384 N 
ATOM      2  H11 UNL     1      58.505  66.299  57.926  1.00  0.00     0.157 HD
ATOM      3  H12 UNL     1      60.148  66.789  57.723  1.00  0.00     0.157 HD
HETATM    4  C1  UNL     1      59.068  67.511  59.311  1.00  0.00     0.121 A 
HETATM    5  N2  UNL     1      60.127  68.254  59.774  1.00  0.00    -0.294 N 
ATOM      6  H2  UNL     1      61.007  68.225  59.259  1.00  0.00     0.172 HD
HETATM    7  C2  UNL     1      60.053  69.017  60.876  1.00  0.00     0.327 A 
HETATM    8  O1  UNL     1      61.048  69.688  61.274  1.00  0.00    -0.247 OA
HETATM    9  N3  UNL     1      58.915  69.092  61.593  1.00  0.00    -0.296 N 
ATOM     10  H3  UNL     1      58.870  69.675  62.428  1.00  0.00     0.171 HD
HETATM   11  C3  UNL     1      57.844  68.393  61.198  1.00  0.00     0.139 A 
HETATM   12  N4  UNL     1      56.635  68.474  61.961  1.00  0.00    -0.081 NA
HETATM   13  C4  UNL     1      57.914  67.594  60.048  1.00  0.00     0.114 A 
ENDROOT
BRANCH  13  14
HETATM   14  C5  UNL     1      56.741  66.854  59.649  1.00  0.00     0.272 C 
HETATM   15  N5  UNL     1      55.896  66.082  60.457  1.00  0.00    -0.057 NA
HETATM   16  O2  UNL     1      56.429  66.905  58.404  1.00  0.00    -0.271 OA
ENDBRANCH  13  14
TORSDOF 1
ENDMDL
MODEL 2
REMARK VINA RESULT: -6.901021817      1.756      2.234
REMARK  1 active torsions:
REMARK  status: ('A' for Active; 'I' for Inactive)
REMARK    1  A    between atoms: C4_13  and  C5_14 
ROOT
HETATM    1  N1  UNL     1      60.407  68.580  59.858  1.00  0.00    -0.384 N 
ATOM      2  H11 UNL     1      60.490  67.837  59.164  1.00  0.00     0.157 HD
ATOM      3  H12 UNL     1      61.196  69.224  59.914  1.00  0.00     0.157 HD
HETATM    4  C1  UNL     1      59.348  68.575  60.526  1.00  0.00     0.121 A 
HETATM    5  N2  UNL     1      59.237  69.576  61.461  1.00  0.00    -0.294 N 
ATOM      6  H2  UNL     1      60.002  70.245  61.554  1.00  0.00     0.172 HD
HETATM    7  C2  UNL     1      58.165  69.711  62.257  1.00  0.00     0.327 A 
HETATM    8  O1  UNL     1      58.096  70.644  63.108  1.00  0.00    -0.247 OA
HETATM    9  N3  UNL     1      57.128  68.855  62.176  1.00  0.00    -0.296 N 
ATOM     10  H3  UNL     1      56.318  68.968  62.786  1.00  0.00     0.171 HD
HETATM   11  C3  UNL     1      57.170  67.856  61.286  1.00  0.00     0.139 A 
HETATM   12  N4  UNL     1      56.066  66.948  61.200  1.00  0.00    -0.081 NA
HETATM   13  C4  UNL     1      58.287  67.709  60.451  1.00  0.00     0.114 A 
ENDROOT
BRANCH  13  14
HETATM   14  C5  UNL     1      58.301  66.622  59.502  1.00  0.00     0.272 C 
HETATM   15  N5  UNL     1      57.254  66.188  58.677  1.00  0.00    -0.057 NA
HETATM   16  O2  UNL     1      59.402  65.971  59.396  1.00  0.00    -0.271 OA
ENDBRANCH  13  14
TORSDOF 1
ENDMDL
MODEL 3
REMARK VINA RESULT: -6.710001449      2.589      4.218
REMARK  1 active torsions:
REMARK  status: ('A' for Active; 'I' for Inactive)
REMARK    1  A    between atoms: C4_13  and  C5_14 
ROOT
HETATM    1  N1  UNL     1      56.009  66.441  61.219  1.00  0.00    -0.384 N 
ATOM      2  H11 UNL     1      56.808  66.078  60.699  1.00  0.00     0.157 HD
ATOM      3  H12 UNL     1      55.177  65.851  61.221  1.00  0.00     0.157 HD
HETATM    4  C1  UNL     1      56.186  67.552  61.769  1.00  0.00     0.121 A 
HETATM    5  N2  UNL     1      55.109  68.040  62.470  1.00  0.00    -0.294 N 
ATOM      6  H2  UNL     1      54.254  67.485  62.500  1.00  0.00     0.172 HD
HETATM    7  C2  UNL     1      55.136  69.216  63.116  1.00  0.00     0.327 A 
HETATM    8  O1  UNL     1      54.126  69.635  63.751  1.00  0.00    -0.247 OA
HETATM    9  N3  UNL     1      56.240  69.988  63.108  1.00  0.00    -0.296 N 
ATOM     10  H3  UNL     1      56.249  70.879  63.602  1.00  0.00     0.171 HD
HETATM   11  C3  UNL     1      57.326  69.572  62.443  1.00  0.00     0.139 A 
HETATM   12  N4  UNL     1      58.498  70.394  62.437  1.00  0.00    -0.081 NA
HETATM   13  C4  UNL     1      57.305  68.345  61.767  1.00  0.00     0.114 A 
ENDROOT
BRANCH  13  14
HETATM   14  C5  UNL     1      58.493  67.926  61.061  1.00  0.00     0.272 C 
HETATM   15  N5  UNL     1      58.682  67.835  59.675  1.00  0.00    -0.057 NA
HETATM   16  O2  UNL     1      59.501  67.596  61.785  1.00  0.00    -0.271 OA
ENDBRANCH  13  14
TORSDOF 1
ENDMDL
MODEL 4
REMARK VINA RESULT: -6.679094172      2.111      3.476
REMARK  1 active torsions:
REMARK  status: ('A' for Active; 'I' for Inactive)
REMARK    1  A    between atoms: C4_13  and  C5_14 
ROOT
HETATM    1  N1  UNL     1      56.316  66.709  60.904  1.00  0.00    -0.384 N 
ATOM      2  H11 UNL     1      56.832  66.114  60.257  1.00  0.00     0.157 HD
ATOM      3  H12 UNL     1      55.376  66.394  61.142  1.00  0.00     0.157 HD
HETATM    4  C1  UNL     1      56.926  67.730  61.298  1.00  0.00     0.121 A 
HETATM    5  N2  UNL     1      56.231  68.532  62.171  1.00  0.00    -0.294 N 
ATOM      6  H2  UNL     1      55.285  68.258  62.438  1.00  0.00     0.172 HD
HETATM    7  C2  UNL     1      56.742  69.661  62.685  1.00  0.00     0.327 A 
HETATM    8  O1  UNL     1      56.073  70.376  63.485  1.00  0.00    -0.247 OA
HETATM    9  N3  UNL     1      57.985  70.069  62.364  1.00  0.00    -0.296 N 
ATOM     10  H3  UNL     1      58.364  70.928  62.761  1.00  0.00     0.171 HD
HETATM   11  C3  UNL     1      58.719  69.334  61.519  1.00  0.00     0.139 A 
HETATM   12  N4  UNL     1      60.040  69.769  61.180  1.00  0.00    -0.081 NA
HETATM   13  C4  UNL     1      58.191  68.153  60.978  1.00  0.00     0.114 A 
ENDROOT
BRANCH  13  14
HETATM   14  C5  UNL     1      59.009  67.384  60.071  1.00  0.00     0.272 C 
HETATM   15  N5  UNL     1      58.703  66.993  58.760  1.00  0.00    -0.057 NA
HETATM   16  O2  UNL     1      60.155  67.011  60.511  1.00  0.00    -0.271 OA
ENDBRANCH  13  14
TORSDOF 1
ENDMDL
MODEL 5
REMARK VINA RESULT: -6.636445910      0.831      2.491
REMARK  1 active torsions:
REMARK  status: ('A' for Active; 'I' for Inactive)
REMARK    1  A    between atoms: C4_13  and  C5_14 
ROOT
HETATM    1  N1  UNL     1      56.762  69.258  62.343  1.00  0.00    -0.384 N 
ATOM      2  H11 UNL     1      55.900  68.715  62.305  1.00  0.00     0.157 HD
ATOM      3  H12 UNL     1      56.751  70.063  62.969  1.00  0.00     0.157 HD
HETATM    4  C1  UNL     1      57.692  68.842  61.614  1.00  0.00     0.121 A 
HETATM    5  N2  UNL     1      58.854  69.574  61.666  1.00  0.00    -0.294 N 
ATOM      6  H2  UNL     1      58.890  70.390  62.279  1.00  0.00     0.172 HD
HETATM    7  C2  UNL     1      59.942  69.262  60.947  1.00  0.00     0.327 A 
HETATM    8  O1  UNL     1      60.996  69.958  61.019  1.00  0.00    -0.247 OA
HETATM    9  N3  UNL     1      59.948  68.196  60.123  1.00  0.00    -0.296 N 
ATOM     10  H3  UNL     1      60.781  67.967  59.581  1.00  0.00     0.171 HD
HETATM   11  C3  UNL     1      58.848  67.439  60.023  1.00  0.00     0.139 A 
HETATM   12  N4  UNL     1      58.855  66.306  59.148  1.00  0.00    -0.081 NA
HETATM   13  C4  UNL     1      57.707  67.759  60.773  1.00  0.00     0.114 A 
ENDROOT
BRANCH  13  14
HETATM   14  C5  UNL     1      56.538  66.922  60.643  1.00  0.00     0.272 C 
HETATM   15  N5  UNL     1      55.636  66.545  61.646  1.00  0.00    -0.057 NA
HETATM   16  O2  UNL     1      56.291  66.466  59.469  1.00  0.00    -0.271 OA
ENDBRANCH  13  14
TORSDOF 1
ENDMDL
