MODEL 1
REMARK VINA RESULT: -6.220901974      0.000      0.000
REMARK  5 active torsions:
REMARK  status: ('A' for Active; 'I' for Inactive)
REMARK    1  A    between atoms: C2_2  and  O1_3 
REMARK    2  A    between atoms: O1_3  and  C3_4 
REMARK    3  A    between atoms: C3_4  and  C4_5 
REMARK    4  A    between atoms: C4_5  and  C5_6 
REMARK    5  A    between atoms: C11_18  and  N4_19 
ROOT
HETATM    1  C5  UNL     1      17.001   3.946  14.306  1.00  0.00    -0.028 A 
HETATM    2  C6  UNL     1      17.016   5.297  13.943  1.00  0.00    -0.005 A 
HETATM    3  C7  UNL     1      16.808   5.781  12.682  1.00  0.00     0.109 A 
HETATM    4  N1  UNL     1      16.569   4.922  11.692  1.00  0.00    -0.328 N 
ATOM      5  H1  UNL     1      16.411   5.265  10.744  1.00  0.00     0.169 HD
HETATM    6  C8  UNL     1      16.537   3.611  11.943  1.00  0.00     0.122 A 
HETATM    7  N2  UNL     1      16.300   2.765  10.921  1.00  0.00    -0.332 N 
ATOM      8  H2  UNL     1      16.145   3.131   9.982  1.00  0.00     0.168 HD
HETATM    9  C9  UNL     1      16.266   1.440  11.136  1.00  0.00     0.080 A 
HETATM   10  C10 UNL     1      15.997   0.549   9.968  1.00  0.00     0.089 C 
HETATM   11  N3  UNL     1      16.459   0.893  12.327  1.00  0.00    -0.332 N 
ATOM     12  H3  UNL     1      16.427  -0.119  12.452  1.00  0.00     0.168 HD
HETATM   13  C11 UNL     1      16.703   1.730  13.391  1.00  0.00     0.114 A 
HETATM   14  C12 UNL     1      16.747   3.081  13.228  1.00  0.00     0.059 A 
HETATM   15  N5  UNL     1      16.904   7.231  12.679  1.00  0.00    -0.376 N 
ATOM     16  H5  UNL     1      16.500   7.881  12.004  1.00  0.00     0.161 HD
HETATM   17  C13 UNL     1      17.695   7.545  13.839  1.00  0.00     0.126 C 
HETATM   18  C14 UNL     1      17.280   6.470  14.807  1.00  0.00     0.062 C 
ENDROOT
BRANCH   1  19
HETATM   19  C4  UNL     1      17.189   3.411  15.652  1.00  0.00     0.066 C 
BRANCH  19  20
HETATM   20  C3  UNL     1      16.020   3.144  16.509  1.00  0.00     0.172 C 
BRANCH  20  21
HETATM   21  O1  UNL     1      16.006   2.164  17.456  1.00  0.00    -0.391 OA
BRANCH  21  22
HETATM   22  C2  UNL     1      14.852   1.399  17.344  1.00  0.00     0.163 C 
HETATM   23  C1  UNL     1      13.694   2.239  16.817  1.00  0.00     0.033 C 
ENDBRANCH  21  22
ENDBRANCH  20  21
ENDBRANCH  19  20
ENDBRANCH   1  19
BRANCH  13  24
HETATM   24  N4  UNL     1      16.896   1.175  14.521  1.00  0.00    -0.385 N 
ATOM     25  H42 UNL     1      17.376   1.649  15.286  1.00  0.00     0.157 HD
ATOM     26  H41 UNL     1      16.553   0.220  14.625  1.00  0.00     0.157 HD
ENDBRANCH  13  24
TORSDOF 5
ENDMDL
MODEL 2
REMARK VINA RESULT: -6.163586146      3.477      5.482
REMARK  5 active torsions:
REMARK  status: ('A' for Active; 'I' for Inactive)
REMARK    1  A    between atoms: C2_2  and  O1_3 
REMARK    2  A    between atoms: O1_3  and  C3_4 
REMARK    3  A    between atoms: C3_4  and  C4_5 
REMARK    4  A    between atoms: C4_5  and  C5_6 
REMARK    5  A    between atoms: C11_18  and  N4_19 
ROOT
HETATM    1  C5  UNL     1      17.427   6.654  13.026  1.00  0.00    -0.028 A 
HETATM    2  C6  UNL     1      18.759   6.593  12.600  1.00  0.00    -0.005 A 
HETATM    3  C7  UNL     1      19.674   5.657  12.994  1.00  0.00     0.109 A 
HETATM    4  N1  UNL     1      19.300   4.711  13.854  1.00  0.00    -0.328 N 
ATOM      5  H1  UNL     1      19.969   4.004  14.159  1.00  0.00     0.169 HD
HETATM    6  C8  UNL     1      18.048   4.690  14.317  1.00  0.00     0.122 A 
HETATM    7  N2  UNL     1      17.700   3.726  15.191  1.00  0.00    -0.332 N 
ATOM      8  H2  UNL     1      18.387   3.030  15.482  1.00  0.00     0.168 HD
HETATM    9  C9  UNL     1      16.450   3.677  15.681  1.00  0.00     0.080 A 
HETATM   10  C10 UNL     1      16.119   2.586  16.645  1.00  0.00     0.089 C 
HETATM   11  N3  UNL     1      15.507   4.547  15.350  1.00  0.00    -0.332 N 
ATOM     12  H3  UNL     1      14.569   4.479  15.744  1.00  0.00     0.168 HD
HETATM   13  C11 UNL     1      15.831   5.544  14.459  1.00  0.00     0.114 A 
HETATM   14  C12 UNL     1      17.083   5.638  13.932  1.00  0.00     0.059 A 
HETATM   15  N5  UNL     1      20.955   5.908  12.356  1.00  0.00    -0.376 N 
ATOM     16  H5  UNL     1      21.711   5.243  12.191  1.00  0.00     0.161 HD
HETATM   17  C13 UNL     1      20.919   7.304  12.008  1.00  0.00     0.126 C 
HETATM   18  C14 UNL     1      19.465   7.513  11.680  1.00  0.00     0.062 C 
ENDROOT
BRANCH   1  19
HETATM   19  C4  UNL     1      16.426   7.626  12.593  1.00  0.00     0.066 C 
BRANCH  19  20
HETATM   20  C3  UNL     1      15.861   7.546  11.233  1.00  0.00     0.172 C 
BRANCH  20  21
HETATM   21  O1  UNL     1      14.523   7.618  10.984  1.00  0.00    -0.391 OA
BRANCH  21  22
HETATM   22  C2  UNL     1      13.989   8.772  11.544  1.00  0.00     0.163 C 
HETATM   23  C1  UNL     1      14.526  10.014  10.843  1.00  0.00     0.033 C 
ENDBRANCH  21  22
ENDBRANCH  20  21
ENDBRANCH  19  20
ENDBRANCH   1  19
BRANCH  13  24
HETATM   24  N4  UNL     1      14.907   6.372  14.169  1.00  0.00    -0.385 N 
ATOM     25  H42 UNL     1      14.586   7.082  14.827  1.00  0.00     0.157 HD
ATOM     26  H41 UNL     1      14.492   6.285  13.242  1.00  0.00     0.157 HD
ENDBRANCH  13  24
TORSDOF 5
ENDMDL
MODEL 3
REMARK VINA RESULT: -6.128080942      2.535      4.097
REMARK  5 active torsions:
REMARK  status: ('A' for Active; 'I' for Inactive)
REMARK    1  A    between atoms: C2_2  and  O1_3 
REMARK    2  A    between atoms: O1_3  and  C3_4 
REMARK    3  A    between atoms: C3_4  and  C4_5 
REMARK    4  A    between atoms: C4_5  and  C5_6 
REMARK    5  A    between atoms: C11_18  and  N4_19 
ROOT
HETATM    1  C5  UNL     1      16.678   5.855  12.992  1.00  0.00    -0.028 A 
HETATM    2  C6  UNL     1      16.625   6.544  11.775  1.00  0.00    -0.005 A 
HETATM    3  C7  UNL     1      16.608   5.965  10.538  1.00  0.00     0.109 A 
HETATM    4  N1  UNL     1      16.643   4.636  10.446  1.00  0.00    -0.328 N 
ATOM      5  H1  UNL     1      16.630   4.186   9.530  1.00  0.00     0.169 HD
HETATM    6  C8  UNL     1      16.695   3.895  11.555  1.00  0.00     0.122 A 
HETATM    7  N2  UNL     1      16.736   2.553  11.432  1.00  0.00    -0.332 N 
ATOM      8  H2  UNL     1      16.723   2.126  10.506  1.00  0.00     0.168 HD
HETATM    9  C9  UNL     1      16.794   1.777  12.526  1.00  0.00     0.080 A 
HETATM   10  C10 UNL     1      16.836   0.296  12.330  1.00  0.00     0.089 C 
HETATM   11  N3  UNL     1      16.816   2.260  13.759  1.00  0.00    -0.332 N 
ATOM     12  H3  UNL     1      16.862   1.639  14.566  1.00  0.00     0.168 HD
HETATM   13  C11 UNL     1      16.775   3.626  13.918  1.00  0.00     0.114 A 
HETATM   14  C12 UNL     1      16.715   4.459  12.843  1.00  0.00     0.059 A 
HETATM   15  N5  UNL     1      16.559   6.987   9.506  1.00  0.00    -0.376 N 
ATOM     16  H5  UNL     1      16.224   6.890   8.547  1.00  0.00     0.161 HD
HETATM   17  C13 UNL     1      17.086   8.166  10.139  1.00  0.00     0.126 C 
HETATM   18  C14 UNL     1      16.608   8.009  11.557  1.00  0.00     0.062 C 
ENDROOT
BRANCH   1  19
HETATM   19  C4  UNL     1      16.666   6.454  14.325  1.00  0.00     0.066 C 
BRANCH  19  20
HETATM   20  C3  UNL     1      17.766   7.342  14.744  1.00  0.00     0.172 C 
BRANCH  20  21
HETATM   21  O1  UNL     1      19.004   7.301  14.178  1.00  0.00    -0.391 OA
BRANCH  21  22
HETATM   22  C2  UNL     1      19.491   8.588  13.987  1.00  0.00     0.163 C 
HETATM   23  C1  UNL     1      19.286   9.437  15.237  1.00  0.00     0.033 C 
ENDBRANCH  21  22
ENDBRANCH  20  21
ENDBRANCH  19  20
ENDBRANCH   1  19
BRANCH  13  24
HETATM   24  N4  UNL     1      16.809   4.062  15.115  1.00  0.00    -0.385 N 
ATOM     25  H42 UNL     1      16.919   3.442  15.917  1.00  0.00     0.157 HD
ATOM     26  H41 UNL     1      16.709   5.070  15.236  1.00  0.00     0.157 HD
ENDBRANCH  13  24
TORSDOF 5
ENDMDL
MODEL 4
REMARK VINA RESULT: -6.113750106      1.733      2.174
REMARK  5 active torsions:
REMARK  status: ('A' for Active; 'I' for Inactive)
REMARK    1  A    between atoms: C2_2  and  O1_3 
REMARK    2  A    between atoms: O1_3  and  C3_4 
REMARK    3  A    between atoms: C3_4  and  C4_5 
REMARK    4  A    between atoms: C4_5  and  C5_6 
REMARK    5  A    between atoms: C11_18  and  N4_19 
ROOT
HETATM    1  C5  UNL     1      16.676   4.963  13.155  1.00  0.00    -0.028 A 
HETATM    2  C6  UNL     1      16.550   5.797  12.039  1.00  0.00    -0.005 A 
HETATM    3  C7  UNL     1      16.440   5.375  10.743  1.00  0.00     0.109 A 
HETATM    4  N1  UNL     1      16.450   4.067  10.488  1.00  0.00    -0.328 N 
ATOM      5  H1  UNL     1      16.369   3.734   9.527  1.00  0.00     0.169 HD
HETATM    6  C8  UNL     1      16.569   3.195  11.491  1.00  0.00     0.122 A 
HETATM    7  N2  UNL     1      16.584   1.879  11.202  1.00  0.00    -0.332 N 
ATOM      8  H2  UNL     1      16.501   1.569  10.233  1.00  0.00     0.168 HD
HETATM    9  C9  UNL     1      16.706   0.973  12.185  1.00  0.00     0.080 A 
HETATM   10  C10 UNL     1      16.715  -0.472  11.807  1.00  0.00     0.089 C 
HETATM   11  N3  UNL     1      16.819   1.301  13.464  1.00  0.00    -0.332 N 
ATOM     12  H3  UNL     1      16.913   0.584  14.184  1.00  0.00     0.168 HD
HETATM   13  C11 UNL     1      16.807   2.636  13.791  1.00  0.00     0.114 A 
HETATM   14  C12 UNL     1      16.685   3.596  12.833  1.00  0.00     0.059 A 
HETATM   15  N5  UNL     1      16.333   6.517   9.851  1.00  0.00    -0.376 N 
ATOM     16  H5  UNL     1      15.932   6.540   8.913  1.00  0.00     0.161 HD
HETATM   17  C13 UNL     1      16.918   7.607  10.585  1.00  0.00     0.126 C 
HETATM   18  C14 UNL     1      16.536   7.278  12.003  1.00  0.00     0.062 C 
ENDROOT
BRANCH   1  19
HETATM   19  C4  UNL     1      16.763   5.393  14.549  1.00  0.00     0.066 C 
BRANCH  19  20
HETATM   20  C3  UNL     1      15.536   5.727  15.295  1.00  0.00     0.172 C 
BRANCH  20  21
HETATM   21  O1  UNL     1      14.474   4.880  15.387  1.00  0.00    -0.391 OA
BRANCH  21  22
HETATM   22  C2  UNL     1      14.293   4.471  16.703  1.00  0.00     0.163 C 
HETATM   23  C1  UNL     1      14.019   2.973  16.772  1.00  0.00     0.033 C 
ENDBRANCH  21  22
ENDBRANCH  20  21
ENDBRANCH  19  20
ENDBRANCH   1  19
BRANCH  13  24
HETATM   24  N4  UNL     1      16.929   2.922  15.027  1.00  0.00    -0.385 N 
ATOM     25  H42 UNL     1      16.408   2.430  15.753  1.00  0.00     0.157 HD
ATOM     26  H41 UNL     1      17.571   3.680  15.260  1.00  0.00     0.157 HD
ENDBRANCH  13  24
TORSDOF 5
ENDMDL
MODEL 5
REMARK VINA RESULT: -5.965597379      3.573      5.816
REMARK  5 active torsions:
REMARK  status: ('A' for Active; 'I' for Inactive)
REMARK    1  A    between atoms: C2_2  and  O1_3 
REMARK    2  A    between atoms: O1_3  and  C3_4 
REMARK    3  A    between atoms: C3_4  and  C4_5 
REMARK    4  A    between atoms: C4_5  and  C5_6 
REMARK    5  A    between atoms: C11_18  and  N4_19 
ROOT
HETATM    1  C5  UNL     1      16.980   6.596  12.877  1.00  0.00    -0.028 A 
HETATM    2  C6  UNL     1      16.476   5.796  13.909  1.00  0.00    -0.005 A 
HETATM    3  C7  UNL     1      17.084   4.682  14.416  1.00  0.00     0.109 A 
HETATM    4  N1  UNL     1      18.254   4.297  13.908  1.00  0.00    -0.328 N 
ATOM      5  H1  UNL     1      18.722   3.468  14.275  1.00  0.00     0.169 HD
HETATM    6  C8  UNL     1      18.812   4.998  12.919  1.00  0.00     0.122 A 
HETATM    7  N2  UNL     1      19.993   4.582  12.420  1.00  0.00    -0.332 N 
ATOM      8  H2  UNL     1      20.442   3.750  12.803  1.00  0.00     0.168 HD
HETATM    9  C9  UNL     1      20.580   5.260  11.421  1.00  0.00     0.080 A 
HETATM   10  C10 UNL     1      21.889   4.754  10.909  1.00  0.00     0.089 C 
HETATM   11  N3  UNL     1      20.056   6.347  10.875  1.00  0.00    -0.332 N 
ATOM     12  H3  UNL     1      20.531   6.835  10.116  1.00  0.00     0.168 HD
HETATM   13  C11 UNL     1      18.851   6.797  11.362  1.00  0.00     0.114 A 
HETATM   14  C12 UNL     1      18.213   6.148  12.375  1.00  0.00     0.059 A 
HETATM   15  N5  UNL     1      16.270   4.104  15.472  1.00  0.00    -0.376 N 
ATOM     16  H5  UNL     1      16.574   3.494  16.231  1.00  0.00     0.161 HD
HETATM   17  C13 UNL     1      14.939   4.581  15.206  1.00  0.00     0.126 C 
HETATM   18  C14 UNL     1      15.199   5.952  14.642  1.00  0.00     0.062 C 
ENDROOT
BRANCH   1  19
HETATM   19  C4  UNL     1      16.362   7.807  12.342  1.00  0.00     0.066 C 
BRANCH  19  20
HETATM   20  C3  UNL     1      15.163   7.708  11.489  1.00  0.00     0.172 C 
BRANCH  20  21
HETATM   21  O1  UNL     1      15.145   7.012  10.318  1.00  0.00    -0.391 OA
BRANCH  21  22
HETATM   22  C2  UNL     1      14.472   7.731   9.339  1.00  0.00     0.163 C 
HETATM   23  C1  UNL     1      13.650   8.855   9.959  1.00  0.00     0.033 C 
ENDBRANCH  21  22
ENDBRANCH  20  21
ENDBRANCH  19  20
ENDBRANCH   1  19
BRANCH  13  24
HETATM   24  N4  UNL     1      18.365   7.838  10.810  1.00  0.00    -0.385 N 
ATOM     25  H42 UNL     1      18.666   8.155   9.888  1.00  0.00     0.157 HD
ATOM     26  H41 UNL     1      17.663   8.351  11.342  1.00  0.00     0.157 HD
ENDBRANCH  13  24
TORSDOF 5
ENDMDL
