MODEL 1
REMARK VINA RESULT: -6.408253058      0.000      0.000
REMARK  8 active torsions:
REMARK  status: ('A' for Active; 'I' for Inactive)
REMARK    1  A    between atoms: O1_1  and  C1_3 
REMARK    2  A    between atoms: C1_3  and  C2_4 
REMARK    3  A    between atoms: C2_4  and  C3_5 
REMARK    4  A    between atoms: C3_5  and  C4_6 
REMARK    5  A    between atoms: C5_8  and  N1_9 
REMARK    6  A    between atoms: N1_9  and  C6_11 
REMARK    7  A    between atoms: C11_16  and  O2_17 
REMARK    8  A    between atoms: C12_21  and  O3_22 
ROOT
HETATM    1  C4  UNL     1      16.445   2.942  15.265  1.00  0.00     0.037 A 
HETATM    2  S1  UNL     1      16.721   4.414  14.446  1.00  0.00    -0.054 SA
HETATM    3  C5  UNL     1      16.995   3.772  12.864  1.00  0.00     0.147 A 
HETATM    4  N2  UNL     1      16.857   2.467  13.063  1.00  0.00    -0.317 N 
ATOM      5  H2  UNL     1      16.967   1.815  12.287  1.00  0.00     0.170 HD
HETATM    6  C12 UNL     1      16.581   2.025  14.260  1.00  0.00     0.155 A 
ENDROOT
BRANCH   3   7
HETATM    7  N1  UNL     1      17.259   4.466  11.815  1.00  0.00    -0.363 N 
ATOM      8  H1  UNL     1      16.447   4.903  11.379  1.00  0.00     0.162 HD
BRANCH   7   9
HETATM    9  C6  UNL     1      18.478   4.723  11.170  1.00  0.00     0.112 C 
HETATM   10  C7  UNL     1      18.517   5.916  10.252  1.00  0.00     0.028 C 
HETATM   11  C8  UNL     1      19.845   5.862   9.505  1.00  0.00     0.002 C 
HETATM   12  C9  UNL     1      21.022   5.880  10.434  1.00  0.00     0.003 C 
HETATM   13  C10 UNL     1      20.543   5.953  11.864  1.00  0.00     0.034 C 
HETATM   14  C11 UNL     1      19.584   4.822  12.186  1.00  0.00     0.140 C 
BRANCH  14  15
HETATM   15  O2  UNL     1      20.290   3.598  12.236  1.00  0.00    -0.394 OA
ATOM     16  H2  UNL     1      19.946   3.062  12.940  1.00  0.00     0.210 HD
ENDBRANCH  14  15
ENDBRANCH   7   9
ENDBRANCH   3   7
BRANCH   1  17
HETATM   17  C3  UNL     1      16.131   2.703  16.724  1.00  0.00     0.053 C 
BRANCH  17  18
HETATM   18  C2  UNL     1      14.637   2.904  16.844  1.00  0.00     0.031 C 
BRANCH  18  19
HETATM   19  C1  UNL     1      13.918   1.631  17.137  1.00  0.00     0.164 C 
BRANCH  19  20
HETATM   20  O1  UNL     1      14.865   0.600  17.217  1.00  0.00    -0.401 OA
ATOM     21  H1  UNL     1      15.514   0.739  16.538  1.00  0.00     0.209 HD
ENDBRANCH  19  20
ENDBRANCH  18  19
ENDBRANCH  17  18
ENDBRANCH   1  17
BRANCH   6  22
HETATM   22  O3  UNL     1      16.414   0.646  14.583  1.00  0.00    -0.345 OA
ATOM     23  H3  UNL     1      16.074   0.426  15.442  1.00  0.00     0.219 HD
ENDBRANCH   6  22
TORSDOF 8
ENDMDL
MODEL 2
REMARK VINA RESULT: -6.375016862      1.516      6.643
REMARK  8 active torsions:
REMARK  status: ('A' for Active; 'I' for Inactive)
REMARK    1  A    between atoms: O1_1  and  C1_3 
REMARK    2  A    between atoms: C1_3  and  C2_4 
REMARK    3  A    between atoms: C2_4  and  C3_5 
REMARK    4  A    between atoms: C3_5  and  C4_6 
REMARK    5  A    between atoms: C5_8  and  N1_9 
REMARK    6  A    between atoms: N1_9  and  C6_11 
REMARK    7  A    between atoms: C11_16  and  O2_17 
REMARK    8  A    between atoms: C12_21  and  O3_22 
ROOT
HETATM    1  C4  UNL     1      17.941   5.239  11.796  1.00  0.00     0.037 A 
HETATM    2  S1  UNL     1      17.517   4.837  13.400  1.00  0.00    -0.054 SA
HETATM    3  C5  UNL     1      16.436   3.532  13.054  1.00  0.00     0.147 A 
HETATM    4  N2  UNL     1      16.468   3.487  11.728  1.00  0.00    -0.317 N 
ATOM      5  H2  UNL     1      15.912   2.795  11.224  1.00  0.00     0.170 HD
HETATM    6  C12 UNL     1      17.216   4.333  11.072  1.00  0.00     0.155 A 
ENDROOT
BRANCH   3   7
HETATM    7  N1  UNL     1      15.804   2.837  13.930  1.00  0.00    -0.363 N 
ATOM      8  H1  UNL     1      15.258   2.065  13.547  1.00  0.00     0.162 HD
BRANCH   7   9
HETATM    9  C6  UNL     1      15.739   2.963  15.325  1.00  0.00     0.112 C 
HETATM   10  C7  UNL     1      14.465   3.531  15.894  1.00  0.00     0.028 C 
HETATM   11  C8  UNL     1      14.710   3.781  17.377  1.00  0.00     0.002 C 
HETATM   12  C9  UNL     1      15.096   2.530  18.109  1.00  0.00     0.003 C 
HETATM   13  C10 UNL     1      15.125   1.365  17.150  1.00  0.00     0.034 C 
HETATM   14  C11 UNL     1      16.043   1.639  15.973  1.00  0.00     0.140 C 
BRANCH  14  15
HETATM   15  O2  UNL     1      17.389   1.622  16.405  1.00  0.00    -0.394 OA
ATOM     16  H2  UNL     1      17.505   2.251  17.107  1.00  0.00     0.210 HD
ENDBRANCH  14  15
ENDBRANCH   7   9
ENDBRANCH   3   7
BRANCH   1  17
HETATM   17  C3  UNL     1      18.875   6.316  11.294  1.00  0.00     0.053 C 
BRANCH  17  18
HETATM   18  C2  UNL     1      20.204   6.024  11.954  1.00  0.00     0.031 C 
BRANCH  18  19
HETATM   19  C1  UNL     1      20.935   4.911  11.282  1.00  0.00     0.164 C 
BRANCH  19  20
HETATM   20  O1  UNL     1      20.788   3.756  12.063  1.00  0.00    -0.401 OA
ATOM     21  H1  UNL     1      20.188   3.950  12.772  1.00  0.00     0.209 HD
ENDBRANCH  19  20
ENDBRANCH  18  19
ENDBRANCH  17  18
ENDBRANCH   1  17
BRANCH   6  22
HETATM   22  O3  UNL     1      17.322   4.370   9.651  1.00  0.00    -0.345 OA
ATOM     23  H3  UNL     1      16.554   4.146   9.139  1.00  0.00     0.219 HD
ENDBRANCH   6  22
TORSDOF 8
ENDMDL
MODEL 3
REMARK VINA RESULT: -6.357696641      1.465      1.863
REMARK  8 active torsions:
REMARK  status: ('A' for Active; 'I' for Inactive)
REMARK    1  A    between atoms: O1_1  and  C1_3 
REMARK    2  A    between atoms: C1_3  and  C2_4 
REMARK    3  A    between atoms: C2_4  and  C3_5 
REMARK    4  A    between atoms: C3_5  and  C4_6 
REMARK    5  A    between atoms: C5_8  and  N1_9 
REMARK    6  A    between atoms: N1_9  and  C6_11 
REMARK    7  A    between atoms: C11_16  and  O2_17 
REMARK    8  A    between atoms: C12_21  and  O3_22 
ROOT
HETATM    1  C4  UNL     1      16.370   2.753  15.241  1.00  0.00     0.037 A 
HETATM    2  S1  UNL     1      16.532   4.076  14.174  1.00  0.00    -0.054 SA
HETATM    3  C5  UNL     1      16.845   3.190  12.722  1.00  0.00     0.147 A 
HETATM    4  N2  UNL     1      16.805   1.933  13.148  1.00  0.00    -0.317 N 
ATOM      5  H2  UNL     1      16.959   1.164  12.495  1.00  0.00     0.170 HD
HETATM    6  C12 UNL     1      16.569   1.687  14.408  1.00  0.00     0.155 A 
ENDROOT
BRANCH   3   7
HETATM    7  N1  UNL     1      17.052   3.707  11.565  1.00  0.00    -0.363 N 
ATOM      8  H1  UNL     1      16.682   3.165  10.784  1.00  0.00     0.162 HD
BRANCH   7   9
HETATM    9  C6  UNL     1      17.702   4.893  11.195  1.00  0.00     0.112 C 
HETATM   10  C7  UNL     1      19.161   5.006  11.556  1.00  0.00     0.028 C 
HETATM   11  C8  UNL     1      19.584   6.440  11.265  1.00  0.00     0.002 C 
HETATM   12  C9  UNL     1      19.371   6.817   9.829  1.00  0.00     0.003 C 
HETATM   13  C10 UNL     1      18.794   5.645   9.074  1.00  0.00     0.034 C 
HETATM   14  C11 UNL     1      17.519   5.140   9.723  1.00  0.00     0.140 C 
BRANCH  14  15
HETATM   15  O2  UNL     1      16.481   6.080   9.526  1.00  0.00    -0.394 OA
ATOM     16  H2  UNL     1      16.265   6.126   8.603  1.00  0.00     0.210 HD
ENDBRANCH  14  15
ENDBRANCH   7   9
ENDBRANCH   3   7
BRANCH   1  17
HETATM   17  C3  UNL     1      16.081   2.750  16.725  1.00  0.00     0.053 C 
BRANCH  17  18
HETATM   18  C2  UNL     1      14.586   2.945  16.837  1.00  0.00     0.031 C 
BRANCH  18  19
HETATM   19  C1  UNL     1      13.869   1.666  17.110  1.00  0.00     0.164 C 
BRANCH  19  20
HETATM   20  O1  UNL     1      14.825   0.664  17.324  1.00  0.00    -0.401 OA
ATOM     21  H1  UNL     1      14.520  -0.132  16.906  1.00  0.00     0.209 HD
ENDBRANCH  19  20
ENDBRANCH  18  19
ENDBRANCH  17  18
ENDBRANCH   1  17
BRANCH   6  22
HETATM   22  O3  UNL     1      16.505   0.377  14.968  1.00  0.00    -0.345 OA
ATOM     23  H3  UNL     1      15.653  -0.033  15.052  1.00  0.00     0.219 HD
ENDBRANCH   6  22
TORSDOF 8
ENDMDL
MODEL 4
REMARK VINA RESULT: -6.352092784      2.612      6.723
REMARK  8 active torsions:
REMARK  status: ('A' for Active; 'I' for Inactive)
REMARK    1  A    between atoms: O1_1  and  C1_3 
REMARK    2  A    between atoms: C1_3  and  C2_4 
REMARK    3  A    between atoms: C2_4  and  C3_5 
REMARK    4  A    between atoms: C3_5  and  C4_6 
REMARK    5  A    between atoms: C5_8  and  N1_9 
REMARK    6  A    between atoms: N1_9  and  C6_11 
REMARK    7  A    between atoms: C11_16  and  O2_17 
REMARK    8  A    between atoms: C12_21  and  O3_22 
ROOT
HETATM    1  C4  UNL     1      17.148   5.819  11.392  1.00  0.00     0.037 A 
HETATM    2  S1  UNL     1      16.892   5.358  13.016  1.00  0.00    -0.054 SA
HETATM    3  C5  UNL     1      16.573   3.678  12.751  1.00  0.00     0.147 A 
HETATM    4  N2  UNL     1      16.683   3.577  11.432  1.00  0.00    -0.317 N 
ATOM      5  H2  UNL     1      16.543   2.678  10.972  1.00  0.00     0.170 HD
HETATM    6  C12 UNL     1      16.970   4.638  10.727  1.00  0.00     0.155 A 
ENDROOT
BRANCH   3   7
HETATM    7  N1  UNL     1      16.307   2.818  13.667  1.00  0.00    -0.363 N 
ATOM      8  H1  UNL     1      16.291   1.849  13.349  1.00  0.00     0.162 HD
BRANCH   7   9
HETATM    9  C6  UNL     1      16.033   2.989  15.032  1.00  0.00     0.112 C 
HETATM   10  C7  UNL     1      14.704   3.603  15.383  1.00  0.00     0.028 C 
HETATM   11  C8  UNL     1      14.727   3.894  16.879  1.00  0.00     0.002 C 
HETATM   12  C9  UNL     1      14.963   2.659  17.696  1.00  0.00     0.003 C 
HETATM   13  C10 UNL     1      15.107   1.464  16.785  1.00  0.00     0.034 C 
HETATM   14  C11 UNL     1      16.200   1.680  15.755  1.00  0.00     0.140 C 
BRANCH  14  15
HETATM   15  O2  UNL     1      17.464   1.647  16.388  1.00  0.00    -0.394 OA
ATOM     16  H2  UNL     1      17.376   1.942  17.287  1.00  0.00     0.210 HD
ENDBRANCH  14  15
ENDBRANCH   7   9
ENDBRANCH   3   7
BRANCH   1  17
HETATM   17  C3  UNL     1      17.483   7.180  10.826  1.00  0.00     0.053 C 
BRANCH  17  18
HETATM   18  C2  UNL     1      16.166   7.922  10.776  1.00  0.00     0.031 C 
BRANCH  18  19
HETATM   19  C1  UNL     1      15.515   7.826   9.438  1.00  0.00     0.164 C 
BRANCH  19  20
HETATM   20  O1  UNL     1      14.441   6.931   9.536  1.00  0.00    -0.401 OA
ATOM     21  H1  UNL     1      13.751   7.229   8.956  1.00  0.00     0.209 HD
ENDBRANCH  19  20
ENDBRANCH  18  19
ENDBRANCH  17  18
ENDBRANCH   1  17
BRANCH   6  22
HETATM   22  O3  UNL     1      17.110   4.639   9.307  1.00  0.00    -0.345 OA
ATOM     23  H3  UNL     1      16.847   3.860   8.832  1.00  0.00     0.219 HD
ENDBRANCH   6  22
TORSDOF 8
ENDMDL
MODEL 5
REMARK VINA RESULT: -6.335386519      2.408      6.736
REMARK  8 active torsions:
REMARK  status: ('A' for Active; 'I' for Inactive)
REMARK    1  A    between atoms: O1_1  and  C1_3 
REMARK    2  A    between atoms: C1_3  and  C2_4 
REMARK    3  A    between atoms: C2_4  and  C3_5 
REMARK    4  A    between atoms: C3_5  and  C4_6 
REMARK    5  A    between atoms: C5_8  and  N1_9 
REMARK    6  A    between atoms: N1_9  and  C6_11 
REMARK    7  A    between atoms: C11_16  and  O2_17 
REMARK    8  A    between atoms: C12_21  and  O3_22 
ROOT
HETATM    1  C4  UNL     1      17.073   4.127  11.281  1.00  0.00     0.037 A 
HETATM    2  S1  UNL     1      17.284   4.330  12.963  1.00  0.00    -0.054 SA
HETATM    3  C5  UNL     1      16.704   2.783  13.476  1.00  0.00     0.147 A 
HETATM    4  N2  UNL     1      16.384   2.208  12.324  1.00  0.00    -0.317 N 
ATOM      5  H2  UNL     1      16.003   1.262  12.310  1.00  0.00     0.170 HD
HETATM    6  C12 UNL     1      16.560   2.862  11.207  1.00  0.00     0.155 A 
ENDROOT
BRANCH   3   7
HETATM    7  N1  UNL     1      16.637   2.381  14.694  1.00  0.00    -0.363 N 
ATOM      8  H1  UNL     1      17.244   1.592  14.915  1.00  0.00     0.162 HD
BRANCH   7   9
HETATM    9  C6  UNL     1      15.868   2.845  15.771  1.00  0.00     0.112 C 
HETATM   10  C7  UNL     1      14.848   3.910  15.465  1.00  0.00     0.028 C 
HETATM   11  C8  UNL     1      14.308   4.409  16.799  1.00  0.00     0.002 C 
HETATM   12  C9  UNL     1      13.687   3.310  17.609  1.00  0.00     0.003 C 
HETATM   13  C10 UNL     1      13.774   2.007  16.853  1.00  0.00     0.034 C 
HETATM   14  C11 UNL     1      15.205   1.685  16.464  1.00  0.00     0.140 C 
BRANCH  14  15
HETATM   15  O2  UNL     1      15.945   1.338  17.618  1.00  0.00    -0.394 OA
ATOM     16  H2  UNL     1      15.699   1.908  18.336  1.00  0.00     0.210 HD
ENDBRANCH  14  15
ENDBRANCH   7   9
ENDBRANCH   3   7
BRANCH   1  17
HETATM   17  C3  UNL     1      17.372   5.091  10.156  1.00  0.00     0.053 C 
BRANCH  17  18
HETATM   18  C2  UNL     1      17.067   6.461  10.719  1.00  0.00     0.031 C 
BRANCH  18  19
HETATM   19  C1  UNL     1      16.136   7.235   9.848  1.00  0.00     0.164 C 
BRANCH  19  20
HETATM   20  O1  UNL     1      14.886   6.601   9.868  1.00  0.00    -0.401 OA
ATOM     21  H1  UNL     1      14.574   6.587  10.764  1.00  0.00     0.209 HD
ENDBRANCH  19  20
ENDBRANCH  18  19
ENDBRANCH  17  18
ENDBRANCH   1  17
BRANCH   6  22
HETATM   22  O3  UNL     1      16.249   2.338   9.918  1.00  0.00    -0.345 OA
ATOM     23  H3  UNL     1      15.372   2.005   9.769  1.00  0.00     0.219 HD
ENDBRANCH   6  22
TORSDOF 8
ENDMDL
