MODEL 1
REMARK VINA RESULT: -6.540819589      0.000      0.000
REMARK  9 active torsions:
REMARK  status: ('A' for Active; 'I' for Inactive)
REMARK    1  A    between atoms: C2_2  and  C3_3 
REMARK    2  A    between atoms: C3_3  and  O1_4 
REMARK    3  A    between atoms: C3_3  and  C4_6 
REMARK    4  A    between atoms: C4_6  and  O2_7 
REMARK    5  A    between atoms: C4_6  and  N4_16 
REMARK    6  A    between atoms: O2_7  and  C5_8 
REMARK    7  A    between atoms: C5_8  and  N1_9 
REMARK    8  A    between atoms: C5_8  and  N2_12 
REMARK    9  A    between atoms: C8_20  and  C9_21 
ROOT
HETATM    1  N2  UNL     1      16.280   2.297  11.286  1.00  0.00    -0.259 N 
ATOM      2  H2  UNL     1      15.999   1.705  10.504  1.00  0.00     0.181 HD
HETATM    3  C6  UNL     1      16.431   3.659  11.119  1.00  0.00     0.185 C 
HETATM    4  N3  UNL     1      16.544   4.814  10.967  1.00  0.00    -0.172 NA
ENDROOT
BRANCH   1   5
HETATM    5  C5  UNL     1      16.529   1.722  12.604  1.00  0.00     0.232 C 
BRANCH   5   6
HETATM    6  O2  UNL     1      16.088   2.322  13.733  1.00  0.00    -0.263 OA
BRANCH   6   7
HETATM    7  C4  UNL     1      16.701   2.943  14.768  1.00  0.00     0.163 C 
BRANCH   7   8
HETATM    8  C3  UNL     1      16.555   2.503  16.173  1.00  0.00     0.193 C 
BRANCH   8   9
HETATM    9  C2  UNL     1      15.194   1.832  16.431  1.00  0.00     0.036 C 
HETATM   10  C1  UNL     1      14.177   2.734  17.017  1.00  0.00     0.008 C 
ENDBRANCH   8   9
BRANCH   8  11
HETATM   11  O1  UNL     1      17.431   1.353  16.310  1.00  0.00    -0.387 OA
ATOM     12  H1  UNL     1      17.008   0.912  17.037  1.00  0.00     0.210 HD
ENDBRANCH   8  11
ENDBRANCH   7   8
BRANCH   7  13
HETATM   13  N4  UNL     1      16.665   4.418  14.656  1.00  0.00    -0.298 N 
HETATM   14  C7  UNL     1      15.578   5.212  14.598  1.00  0.00     0.190 A 
HETATM   15  N5  UNL     1      15.949   6.498  14.498  1.00  0.00    -0.351 N 
HETATM   16  C8  UNL     1      17.282   6.590  14.489  1.00  0.00     0.049 A 
ATOM     17  H5  UNL     1      15.307   7.288  14.439  1.00  0.00     0.166 HD
HETATM   18  C13 UNL     1      17.700   5.250  14.591  1.00  0.00     0.129 A 
BRANCH  16  19
HETATM   19  C9  UNL     1      18.174   7.712  14.399  1.00  0.00     0.033 C 
HETATM   20  C10 UNL     1      18.473   8.376  13.328  1.00  0.00    -0.085 C 
HETATM   21  C11 UNL     1      17.929   8.075  12.000  1.00  0.00     0.043 C 
HETATM   22  C12 UNL     1      19.452   9.551  13.422  1.00  0.00     0.043 C 
ENDBRANCH  16  19
ENDBRANCH   7  13
ENDBRANCH   6   7
ENDBRANCH   5   6
BRANCH   5  23
HETATM   23  N1  UNL     1      17.169   0.647  12.686  1.00  0.00    -0.364 N 
ATOM     24  H12 UNL     1      18.180   0.663  12.552  1.00  0.00     0.159 HD
ATOM     25  H11 UNL     1      16.670  -0.220  12.886  1.00  0.00     0.159 HD
ENDBRANCH   5  23
ENDBRANCH   1   5
TORSDOF 9
ENDMDL
MODEL 2
REMARK VINA RESULT: -6.485712624      1.276      1.695
REMARK  9 active torsions:
REMARK  status: ('A' for Active; 'I' for Inactive)
REMARK    1  A    between atoms: C2_2  and  C3_3 
REMARK    2  A    between atoms: C3_3  and  O1_4 
REMARK    3  A    between atoms: C3_3  and  C4_6 
REMARK    4  A    between atoms: C4_6  and  O2_7 
REMARK    5  A    between atoms: C4_6  and  N4_16 
REMARK    6  A    between atoms: O2_7  and  C5_8 
REMARK    7  A    between atoms: C5_8  and  N1_9 
REMARK    8  A    between atoms: C5_8  and  N2_12 
REMARK    9  A    between atoms: C8_20  and  C9_21 
ROOT
HETATM    1  N2  UNL     1      16.978   0.920  12.847  1.00  0.00    -0.259 N 
ATOM      2  H2  UNL     1      17.634   0.165  12.648  1.00  0.00     0.181 HD
HETATM    3  C6  UNL     1      16.322   1.573  11.823  1.00  0.00     0.185 C 
HETATM    4  N3  UNL     1      15.762   2.109  10.947  1.00  0.00    -0.172 NA
ENDROOT
BRANCH   1   5
HETATM    5  C5  UNL     1      16.714   1.334  14.222  1.00  0.00     0.232 C 
BRANCH   5   6
HETATM    6  O2  UNL     1      16.168   2.538  14.506  1.00  0.00    -0.263 OA
BRANCH   6   7
HETATM    7  C4  UNL     1      16.389   3.467  15.467  1.00  0.00     0.163 C 
BRANCH   7   8
HETATM    8  C3  UNL     1      15.602   3.536  16.718  1.00  0.00     0.193 C 
BRANCH   8   9
HETATM    9  C2  UNL     1      14.126   3.159  16.495  1.00  0.00     0.036 C 
HETATM   10  C1  UNL     1      13.751   1.835  17.041  1.00  0.00     0.008 C 
ENDBRANCH   8   9
BRANCH   8  11
HETATM   11  O1  UNL     1      16.033   2.397  17.509  1.00  0.00    -0.387 OA
ATOM     12  H1  UNL     1      15.478   1.721  17.138  1.00  0.00     0.210 HD
ENDBRANCH   8  11
ENDBRANCH   7   8
BRANCH   7  13
HETATM   13  N4  UNL     1      16.647   4.815  14.915  1.00  0.00    -0.298 N 
HETATM   14  C7  UNL     1      15.749   5.785  14.661  1.00  0.00     0.190 A 
HETATM   15  N5  UNL     1      16.365   6.868  14.162  1.00  0.00    -0.351 N 
HETATM   16  C8  UNL     1      17.680   6.646  14.074  1.00  0.00     0.049 A 
ATOM     17  H5  UNL     1      15.899   7.733  13.891  1.00  0.00     0.166 HD
HETATM   18  C13 UNL     1      17.820   5.333  14.561  1.00  0.00     0.129 A 
BRANCH  16  19
HETATM   19  C9  UNL     1      18.771   7.459  13.614  1.00  0.00     0.033 C 
HETATM   20  C10 UNL     1      19.270   8.491  14.215  1.00  0.00    -0.085 C 
HETATM   21  C11 UNL     1      18.782   9.006  15.498  1.00  0.00     0.043 C 
HETATM   22  C12 UNL     1      20.440   9.243  13.570  1.00  0.00     0.043 C 
ENDBRANCH  16  19
ENDBRANCH   7  13
ENDBRANCH   6   7
ENDBRANCH   5   6
BRANCH   5  23
HETATM   23  N1  UNL     1      17.003   0.551  15.158  1.00  0.00    -0.364 N 
ATOM     24  H12 UNL     1      17.056   0.917  16.108  1.00  0.00     0.159 HD
ATOM     25  H11 UNL     1      17.177  -0.433  14.953  1.00  0.00     0.159 HD
ENDBRANCH   5  23
ENDBRANCH   1   5
TORSDOF 9
ENDMDL
MODEL 3
REMARK VINA RESULT: -6.262496672      2.286      3.595
REMARK  9 active torsions:
REMARK  status: ('A' for Active; 'I' for Inactive)
REMARK    1  A    between atoms: C2_2  and  C3_3 
REMARK    2  A    between atoms: C3_3  and  O1_4 
REMARK    3  A    between atoms: C3_3  and  C4_6 
REMARK    4  A    between atoms: C4_6  and  O2_7 
REMARK    5  A    between atoms: C4_6  and  N4_16 
REMARK    6  A    between atoms: O2_7  and  C5_8 
REMARK    7  A    between atoms: C5_8  and  N1_9 
REMARK    8  A    between atoms: C5_8  and  N2_12 
REMARK    9  A    between atoms: C8_20  and  C9_21 
ROOT
HETATM    1  N2  UNL     1      17.180   1.378  12.998  1.00  0.00    -0.259 N 
ATOM      2  H2  UNL     1      18.086   1.071  12.644  1.00  0.00     0.181 HD
HETATM    3  C6  UNL     1      16.705   0.920  14.211  1.00  0.00     0.185 C 
HETATM    4  N3  UNL     1      16.320   0.535  15.247  1.00  0.00    -0.172 NA
ENDROOT
BRANCH   1   5
HETATM    5  C5  UNL     1      16.358   2.310  12.233  1.00  0.00     0.232 C 
BRANCH   5   6
HETATM    6  O2  UNL     1      15.963   3.495  12.750  1.00  0.00    -0.263 OA
BRANCH   6   7
HETATM    7  C4  UNL     1      16.620   4.599  13.178  1.00  0.00     0.163 C 
BRANCH   7   8
HETATM    8  C3  UNL     1      16.480   5.140  14.547  1.00  0.00     0.193 C 
BRANCH   8   9
HETATM    9  C2  UNL     1      15.045   4.991  15.085  1.00  0.00     0.036 C 
HETATM   10  C1  UNL     1      14.849   3.819  15.967  1.00  0.00     0.008 C 
ENDBRANCH   8   9
BRANCH   8  11
HETATM   11  O1  UNL     1      17.168   4.194  15.408  1.00  0.00    -0.387 OA
ATOM     12  H1  UNL     1      17.891   3.953  14.840  1.00  0.00     0.210 HD
ENDBRANCH   8  11
ENDBRANCH   7   8
BRANCH   7  13
HETATM   13  N4  UNL     1      16.644   5.681  12.168  1.00  0.00    -0.298 N 
HETATM   14  C7  UNL     1      17.004   5.589  10.874  1.00  0.00     0.190 A 
HETATM   15  N5  UNL     1      16.896   6.787  10.278  1.00  0.00    -0.351 N 
HETATM   16  C8  UNL     1      16.462   7.697  11.155  1.00  0.00     0.049 A 
ATOM     17  H5  UNL     1      17.112   6.974   9.298  1.00  0.00     0.166 HD
HETATM   18  C13 UNL     1      16.314   6.957  12.342  1.00  0.00     0.129 A 
BRANCH  16  19
HETATM   19  C9  UNL     1      16.183   9.101  11.035  1.00  0.00     0.033 C 
HETATM   20  C10 UNL     1      15.035   9.639  10.775  1.00  0.00    -0.085 C 
HETATM   21  C11 UNL     1      13.804   8.875  10.553  1.00  0.00     0.043 C 
HETATM   22  C12 UNL     1      14.925  11.166  10.683  1.00  0.00     0.043 C 
ENDBRANCH  16  19
ENDBRANCH   7  13
ENDBRANCH   6   7
ENDBRANCH   5   6
BRANCH   5  23
HETATM   23  N1  UNL     1      16.012   1.999  11.069  1.00  0.00    -0.364 N 
ATOM     24  H12 UNL     1      16.733   1.807  10.374  1.00  0.00     0.159 HD
ATOM     25  H11 UNL     1      15.019   1.942  10.838  1.00  0.00     0.159 HD
ENDBRANCH   5  23
ENDBRANCH   1   5
TORSDOF 9
ENDMDL
MODEL 4
REMARK VINA RESULT: -6.200429759      1.552      2.478
REMARK  9 active torsions:
REMARK  status: ('A' for Active; 'I' for Inactive)
REMARK    1  A    between atoms: C2_2  and  C3_3 
REMARK    2  A    between atoms: C3_3  and  O1_4 
REMARK    3  A    between atoms: C3_3  and  C4_6 
REMARK    4  A    between atoms: C4_6  and  O2_7 
REMARK    5  A    between atoms: C4_6  and  N4_16 
REMARK    6  A    between atoms: O2_7  and  C5_8 
REMARK    7  A    between atoms: C5_8  and  N1_9 
REMARK    8  A    between atoms: C5_8  and  N2_12 
REMARK    9  A    between atoms: C8_20  and  C9_21 
ROOT
HETATM    1  N2  UNL     1      16.693   1.463  12.128  1.00  0.00    -0.259 N 
ATOM      2  H2  UNL     1      16.948   0.874  11.334  1.00  0.00     0.181 HD
HETATM    3  C6  UNL     1      16.666   0.947  13.408  1.00  0.00     0.185 C 
HETATM    4  N3  UNL     1      16.659   0.500  14.490  1.00  0.00    -0.172 NA
ENDROOT
BRANCH   1   5
HETATM    5  C5  UNL     1      16.347   2.868  11.934  1.00  0.00     0.232 C 
BRANCH   5   6
HETATM    6  O2  UNL     1      16.081   3.682  12.979  1.00  0.00    -0.263 OA
BRANCH   6   7
HETATM    7  C4  UNL     1      16.850   4.319  13.894  1.00  0.00     0.163 C 
BRANCH   7   8
HETATM    8  C3  UNL     1      16.608   4.233  15.351  1.00  0.00     0.193 C 
BRANCH   8   9
HETATM    9  C2  UNL     1      15.229   3.631  15.674  1.00  0.00     0.036 C 
HETATM   10  C1  UNL     1      15.195   2.834  16.920  1.00  0.00     0.008 C 
ENDBRANCH   8   9
BRANCH   8  11
HETATM   11  O1  UNL     1      17.466   3.160  15.821  1.00  0.00    -0.387 OA
ATOM     12  H1  UNL     1      17.322   2.522  15.132  1.00  0.00     0.210 HD
ENDBRANCH   8  11
ENDBRANCH   7   8
BRANCH   7  13
HETATM   13  N4  UNL     1      17.209   5.695  13.485  1.00  0.00    -0.298 N 
HETATM   14  C7  UNL     1      16.455   6.569  12.791  1.00  0.00     0.190 A 
HETATM   15  N5  UNL     1      17.125   7.719  12.612  1.00  0.00    -0.351 N 
HETATM   16  C8  UNL     1      18.332   7.638  13.180  1.00  0.00     0.049 A 
ATOM     17  H5  UNL     1      16.765   8.534  12.116  1.00  0.00     0.166 HD
HETATM   18  C13 UNL     1      18.347   6.340  13.724  1.00  0.00     0.129 A 
BRANCH  16  19
HETATM   19  C9  UNL     1      19.422   8.568  13.275  1.00  0.00     0.033 C 
HETATM   20  C10 UNL     1      19.694   9.336  14.282  1.00  0.00    -0.085 C 
HETATM   21  C11 UNL     1      18.906   9.377  15.517  1.00  0.00     0.043 C 
HETATM   22  C12 UNL     1      20.905  10.273  14.205  1.00  0.00     0.043 C 
ENDBRANCH  16  19
ENDBRANCH   7  13
ENDBRANCH   6   7
ENDBRANCH   5   6
BRANCH   5  23
HETATM   23  N1  UNL     1      16.297   3.325  10.767  1.00  0.00    -0.364 N 
ATOM     24  H12 UNL     1      15.548   3.972  10.523  1.00  0.00     0.159 HD
ATOM     25  H11 UNL     1      17.004   3.042  10.087  1.00  0.00     0.159 HD
ENDBRANCH   5  23
ENDBRANCH   1   5
TORSDOF 9
ENDMDL
MODEL 5
REMARK VINA RESULT: -6.176875060      1.567      2.005
REMARK  9 active torsions:
REMARK  status: ('A' for Active; 'I' for Inactive)
REMARK    1  A    between atoms: C2_2  and  C3_3 
REMARK    2  A    between atoms: C3_3  and  O1_4 
REMARK    3  A    between atoms: C3_3  and  C4_6 
REMARK    4  A    between atoms: C4_6  and  O2_7 
REMARK    5  A    between atoms: C4_6  and  N4_16 
REMARK    6  A    between atoms: O2_7  and  C5_8 
REMARK    7  A    between atoms: C5_8  and  N1_9 
REMARK    8  A    between atoms: C5_8  and  N2_12 
REMARK    9  A    between atoms: C8_20  and  C9_21 
ROOT
HETATM    1  N2  UNL     1      16.025   2.079  11.374  1.00  0.00    -0.259 N 
ATOM      2  H2  UNL     1      15.247   1.608  10.913  1.00  0.00     0.181 HD
HETATM    3  C6  UNL     1      16.637   3.169  10.787  1.00  0.00     0.185 C 
HETATM    4  N3  UNL     1      17.138   4.099  10.284  1.00  0.00    -0.172 NA
ENDROOT
BRANCH   1   5
HETATM    5  C5  UNL     1      16.516   1.616  12.669  1.00  0.00     0.232 C 
BRANCH   5   6
HETATM    6  O2  UNL     1      16.200   2.258  13.816  1.00  0.00    -0.263 OA
BRANCH   6   7
HETATM    7  C4  UNL     1      16.888   3.056  14.667  1.00  0.00     0.163 C 
BRANCH   7   8
HETATM    8  C3  UNL     1      16.852   2.888  16.136  1.00  0.00     0.193 C 
BRANCH   8   9
HETATM    9  C2  UNL     1      15.413   2.777  16.672  1.00  0.00     0.036 C 
HETATM   10  C1  UNL     1      15.059   1.433  17.181  1.00  0.00     0.008 C 
ENDBRANCH   8   9
BRANCH   8  11
HETATM   11  O1  UNL     1      17.315   1.533  16.381  1.00  0.00    -0.387 OA
ATOM     12  H1  UNL     1      18.071   1.513  15.807  1.00  0.00     0.210 HD
ENDBRANCH   8  11
ENDBRANCH   7   8
BRANCH   7  13
HETATM   13  N4  UNL     1      16.837   4.484  14.284  1.00  0.00    -0.298 N 
HETATM   14  C7  UNL     1      17.811   5.405  14.414  1.00  0.00     0.190 A 
HETATM   15  N5  UNL     1      17.389   6.593  13.954  1.00  0.00    -0.351 N 
HETATM   16  C8  UNL     1      16.133   6.491  13.508  1.00  0.00     0.049 A 
ATOM     17  H5  UNL     1      17.945   7.448  13.945  1.00  0.00     0.166 HD
HETATM   18  C13 UNL     1      15.818   5.138  13.734  1.00  0.00     0.129 A 
BRANCH  16  19
HETATM   19  C9  UNL     1      15.230   7.446  12.929  1.00  0.00     0.033 C 
HETATM   20  C10 UNL     1      15.287   7.930  11.729  1.00  0.00    -0.085 C 
HETATM   21  C11 UNL     1      16.313   7.568  10.747  1.00  0.00     0.043 C 
HETATM   22  C12 UNL     1      14.231   8.948  11.281  1.00  0.00     0.043 C 
ENDBRANCH  16  19
ENDBRANCH   7  13
ENDBRANCH   6   7
ENDBRANCH   5   6
BRANCH   5  23
HETATM   23  N1  UNL     1      17.248   0.600  12.712  1.00  0.00    -0.364 N 
ATOM     24  H12 UNL     1      17.527   0.231  13.621  1.00  0.00     0.159 HD
ATOM     25  H11 UNL     1      17.548   0.160  11.841  1.00  0.00     0.159 HD
ENDBRANCH   5  23
ENDBRANCH   1   5
TORSDOF 9
ENDMDL
