MODEL 1
REMARK VINA RESULT: -6.304164866      0.000      0.000
REMARK  6 active torsions:
REMARK  status: ('A' for Active; 'I' for Inactive)
REMARK    1  A    between atoms: C6_9  and  C7_10 
REMARK    2  A    between atoms: C7_10  and  O1_11 
REMARK    3  A    between atoms: C7_10  and  C8_13 
REMARK    4  A    between atoms: N3_18  and  C11_19 
REMARK    5  A    between atoms: C11_19  and  C12_20 
REMARK    6  A    between atoms: C12_20  and  O2_21 
ROOT
HETATM    1  N1  UNL     1      15.132   2.814  18.715  1.00  0.00    -0.405 N 
ATOM      2  H11 UNL     1      15.943   2.472  19.231  1.00  0.00     0.155 HD
ATOM      3  H12 UNL     1      14.325   3.323  19.075  1.00  0.00     0.155 HD
HETATM    4  C1  UNL     1      15.096   2.585  17.431  1.00  0.00    -0.016 C 
HETATM    5  C2  UNL     1      13.944   3.072  16.697  1.00  0.00     0.052 C 
HETATM    6  C3  UNL     1      14.117   4.513  16.203  1.00  0.00     0.006 C 
HETATM    7  C4  UNL     1      14.880   4.424  14.890  1.00  0.00     0.002 C 
HETATM    8  C5  UNL     1      16.335   4.471  15.211  1.00  0.00     0.028 C 
HETATM    9  C6  UNL     1      17.197   3.495  14.517  1.00  0.00     0.115 C 
HETATM   10  N4  UNL     1      16.950   2.150  14.552  1.00  0.00    -0.394 N 
ATOM     11  H4  UNL     1      17.352   1.599  13.794  1.00  0.00     0.159 HD
HETATM   12  C13 UNL     1      16.221   1.452  15.492  1.00  0.00     0.061 C 
HETATM   13  C14 UNL     1      16.265   1.847  16.909  1.00  0.00     0.096 C 
ENDROOT
BRANCH   9  14
HETATM   14  C7  UNL     1      17.241   3.941  13.052  1.00  0.00     0.192 C 
BRANCH  14  15
HETATM   15  O1  UNL     1      17.617   2.865  12.215  1.00  0.00    -0.387 OA
ATOM     16  H1  UNL     1      17.642   3.142  11.307  1.00  0.00     0.210 HD
ENDBRANCH  14  15
BRANCH  14  17
HETATM   17  C8  UNL     1      18.095   5.090  12.814  1.00  0.00     0.059 A 
HETATM   18  C9  UNL     1      19.246   5.399  13.487  1.00  0.00     0.116 A 
HETATM   19  N2  UNL     1      19.758   6.533  12.988  1.00  0.00    -0.360 N 
HETATM   20  C10 UNL     1      18.918   6.917  12.009  1.00  0.00     0.183 A 
ATOM     21  H2  UNL     1      20.609   7.008  13.288  1.00  0.00     0.166 HD
HETATM   22  N3  UNL     1      17.906   6.044  11.900  1.00  0.00    -0.341 N 
BRANCH  22  23
HETATM   23  C11 UNL     1      16.819   6.175  10.925  1.00  0.00     0.155 C 
BRANCH  23  24
HETATM   24  C12 UNL     1      17.340   5.671   9.578  1.00  0.00     0.184 C 
BRANCH  24  25
HETATM   25  O2  UNL     1      17.307   4.291   9.550  1.00  0.00    -0.399 OA
ATOM     26  H2  UNL     1      17.630   3.978   8.712  1.00  0.00     0.209 HD
ENDBRANCH  24  25
ENDBRANCH  23  24
ENDBRANCH  22  23
ENDBRANCH  14  17
ENDBRANCH   9  14
TORSDOF 6
ENDMDL
MODEL 2
REMARK VINA RESULT: -6.112702890      1.021      1.036
REMARK  6 active torsions:
REMARK  status: ('A' for Active; 'I' for Inactive)
REMARK    1  A    between atoms: C6_9  and  C7_10 
REMARK    2  A    between atoms: C7_10  and  O1_11 
REMARK    3  A    between atoms: C7_10  and  C8_13 
REMARK    4  A    between atoms: N3_18  and  C11_19 
REMARK    5  A    between atoms: C11_19  and  C12_20 
REMARK    6  A    between atoms: C12_20  and  O2_21 
ROOT
HETATM    1  N1  UNL     1      15.493   2.100  18.360  1.00  0.00    -0.405 N 
ATOM      2  H11 UNL     1      16.371   1.702  18.692  1.00  0.00     0.155 HD
ATOM      3  H12 UNL     1      14.698   2.420  18.913  1.00  0.00     0.155 HD
HETATM    4  C1  UNL     1      15.338   2.224  17.070  1.00  0.00    -0.016 C 
HETATM    5  C2  UNL     1      14.088   2.790  16.598  1.00  0.00     0.052 C 
HETATM    6  C3  UNL     1      14.122   4.321  16.512  1.00  0.00     0.006 C 
HETATM    7  C4  UNL     1      14.749   4.657  15.168  1.00  0.00     0.002 C 
HETATM    8  C5  UNL     1      16.224   4.742  15.368  1.00  0.00     0.028 C 
HETATM    9  C6  UNL     1      17.068   4.069  14.360  1.00  0.00     0.115 C 
HETATM   10  N4  UNL     1      16.907   2.748  14.041  1.00  0.00    -0.394 N 
ATOM     11  H4  UNL     1      17.261   2.460  13.128  1.00  0.00     0.159 HD
HETATM   12  C13 UNL     1      16.323   1.761  14.807  1.00  0.00     0.061 C 
HETATM   13  C14 UNL     1      16.490   1.760  16.269  1.00  0.00     0.096 C 
ENDROOT
BRANCH   9  14
HETATM   14  C7  UNL     1      16.932   4.897  13.079  1.00  0.00     0.192 C 
BRANCH  14  15
HETATM   15  O1  UNL     1      16.405   4.109  12.030  1.00  0.00    -0.387 OA
ATOM     16  H1  UNL     1      15.662   4.543  11.627  1.00  0.00     0.210 HD
ENDBRANCH  14  15
BRANCH  14  17
HETATM   17  C8  UNL     1      18.166   5.537  12.661  1.00  0.00     0.059 A 
HETATM   18  C9  UNL     1      19.436   5.108  12.936  1.00  0.00     0.116 A 
HETATM   19  N2  UNL     1      20.317   5.955  12.384  1.00  0.00    -0.360 N 
HETATM   20  C10 UNL     1      19.583   6.903  11.772  1.00  0.00     0.183 A 
ATOM     21  H2  UNL     1      21.334   5.895  12.421  1.00  0.00     0.166 HD
HETATM   22  N3  UNL     1      18.276   6.653  11.937  1.00  0.00    -0.341 N 
BRANCH  22  23
HETATM   23  C11 UNL     1      17.210   7.498  11.392  1.00  0.00     0.155 C 
BRANCH  23  24
HETATM   24  C12 UNL     1      16.845   6.951  10.010  1.00  0.00     0.184 C 
BRANCH  24  25
HETATM   25  O2  UNL     1      15.647   6.266  10.080  1.00  0.00    -0.399 OA
ATOM     26  H2  UNL     1      15.257   6.211   9.215  1.00  0.00     0.209 HD
ENDBRANCH  24  25
ENDBRANCH  23  24
ENDBRANCH  22  23
ENDBRANCH  14  17
ENDBRANCH   9  14
TORSDOF 6
ENDMDL
MODEL 3
REMARK VINA RESULT: -5.994356101      1.507      1.857
REMARK  6 active torsions:
REMARK  status: ('A' for Active; 'I' for Inactive)
REMARK    1  A    between atoms: C6_9  and  C7_10 
REMARK    2  A    between atoms: C7_10  and  O1_11 
REMARK    3  A    between atoms: C7_10  and  C8_13 
REMARK    4  A    between atoms: N3_18  and  C11_19 
REMARK    5  A    between atoms: C11_19  and  C12_20 
REMARK    6  A    between atoms: C12_20  and  O2_21 
ROOT
HETATM    1  N1  UNL     1      15.637   1.337  17.797  1.00  0.00    -0.405 N 
ATOM      2  H11 UNL     1      16.540   0.900  17.985  1.00  0.00     0.155 HD
ATOM      3  H12 UNL     1      14.853   1.463  18.436  1.00  0.00     0.155 HD
HETATM    4  C1  UNL     1      15.433   1.801  16.594  1.00  0.00    -0.016 C 
HETATM    5  C2  UNL     1      14.150   2.423  16.327  1.00  0.00     0.052 C 
HETATM    6  C3  UNL     1      14.133   3.920  16.661  1.00  0.00     0.006 C 
HETATM    7  C4  UNL     1      14.701   4.633  15.444  1.00  0.00     0.002 C 
HETATM    8  C5  UNL     1      16.179   4.720  15.621  1.00  0.00     0.028 C 
HETATM    9  C6  UNL     1      17.006   4.380  14.447  1.00  0.00     0.115 C 
HETATM   10  N4  UNL     1      16.876   3.191  13.784  1.00  0.00    -0.394 N 
ATOM     11  H4  UNL     1      17.207   3.176  12.819  1.00  0.00     0.159 HD
HETATM   12  C13 UNL     1      16.351   2.010  14.266  1.00  0.00     0.061 C 
HETATM   13  C14 UNL     1      16.570   1.618  15.668  1.00  0.00     0.096 C 
ENDROOT
BRANCH   9  14
HETATM   14  C7  UNL     1      16.800   5.519  13.444  1.00  0.00     0.192 C 
BRANCH  14  15
HETATM   15  O1  UNL     1      16.583   5.005  12.145  1.00  0.00    -0.387 OA
ATOM     16  H1  UNL     1      17.178   4.286  11.967  1.00  0.00     0.210 HD
ENDBRANCH  14  15
BRANCH  14  17
HETATM   17  C8  UNL     1      17.877   6.491  13.431  1.00  0.00     0.059 A 
HETATM   18  C9  UNL     1      18.066   7.506  14.329  1.00  0.00     0.116 A 
HETATM   19  N2  UNL     1      19.164   8.195  13.992  1.00  0.00    -0.360 N 
HETATM   20  C10 UNL     1      19.647   7.601  12.884  1.00  0.00     0.183 A 
ATOM     21  H2  UNL     1      19.555   9.004  14.474  1.00  0.00     0.166 HD
HETATM   22  N3  UNL     1      18.867   6.566  12.539  1.00  0.00    -0.341 N 
BRANCH  22  23
HETATM   23  C11 UNL     1      19.119   5.710  11.377  1.00  0.00     0.155 C 
BRANCH  23  24
HETATM   24  C12 UNL     1      20.110   4.626  11.805  1.00  0.00     0.184 C 
BRANCH  24  25
HETATM   25  O2  UNL     1      19.423   3.492  12.195  1.00  0.00    -0.399 OA
ATOM     26  H2  UNL     1      19.970   2.725  12.069  1.00  0.00     0.209 HD
ENDBRANCH  24  25
ENDBRANCH  23  24
ENDBRANCH  22  23
ENDBRANCH  14  17
ENDBRANCH   9  14
TORSDOF 6
ENDMDL
MODEL 4
REMARK VINA RESULT: -5.917798541      2.205      2.732
REMARK  6 active torsions:
REMARK  status: ('A' for Active; 'I' for Inactive)
REMARK    1  A    between atoms: C6_9  and  C7_10 
REMARK    2  A    between atoms: C7_10  and  O1_11 
REMARK    3  A    between atoms: C7_10  and  C8_13 
REMARK    4  A    between atoms: N3_18  and  C11_19 
REMARK    5  A    between atoms: C11_19  and  C12_20 
REMARK    6  A    between atoms: C12_20  and  O2_21 
ROOT
HETATM    1  N1  UNL     1      15.574   1.384  17.900  1.00  0.00    -0.405 N 
ATOM      2  H11 UNL     1      16.447   0.914  18.139  1.00  0.00     0.155 HD
ATOM      3  H12 UNL     1      14.788   1.602  18.513  1.00  0.00     0.155 HD
HETATM    4  C1  UNL     1      15.414   1.763  16.662  1.00  0.00    -0.016 C 
HETATM    5  C2  UNL     1      14.172   2.431  16.322  1.00  0.00     0.052 C 
HETATM    6  C3  UNL     1      14.233   3.948  16.539  1.00  0.00     0.006 C 
HETATM    7  C4  UNL     1      14.858   4.532  15.281  1.00  0.00     0.002 C 
HETATM    8  C5  UNL     1      16.335   4.551  15.480  1.00  0.00     0.028 C 
HETATM    9  C6  UNL     1      17.160   4.075  14.351  1.00  0.00     0.115 C 
HETATM   10  N4  UNL     1      16.974   2.847  13.780  1.00  0.00    -0.394 N 
ATOM     11  H4  UNL     1      17.317   2.738  12.825  1.00  0.00     0.159 HD
HETATM   12  C13 UNL     1      16.376   1.738  14.342  1.00  0.00     0.061 C 
HETATM   13  C14 UNL     1      16.552   1.446  15.774  1.00  0.00     0.096 C 
ENDROOT
BRANCH   9  14
HETATM   14  C7  UNL     1      17.032   5.142  13.260  1.00  0.00     0.192 C 
BRANCH  14  15
HETATM   15  O1  UNL     1      16.342   4.626  12.139  1.00  0.00    -0.387 OA
ATOM     16  H1  UNL     1      16.004   3.758  12.325  1.00  0.00     0.210 HD
ENDBRANCH  14  15
BRANCH  14  17
HETATM   17  C8  UNL     1      18.299   5.719  12.852  1.00  0.00     0.059 A 
HETATM   18  C9  UNL     1      19.170   5.198  11.934  1.00  0.00     0.116 A 
HETATM   19  N2  UNL     1      20.231   6.011  11.821  1.00  0.00    -0.360 N 
HETATM   20  C10 UNL     1      20.007   7.029  12.673  1.00  0.00     0.183 A 
ATOM     21  H2  UNL     1      21.041   5.884  11.215  1.00  0.00     0.166 HD
HETATM   22  N3  UNL     1      18.836   6.856  13.301  1.00  0.00    -0.341 N 
BRANCH  22  23
HETATM   23  C11 UNL     1      18.299   7.791  14.295  1.00  0.00     0.155 C 
BRANCH  23  24
HETATM   24  C12 UNL     1      19.341   8.890  14.508  1.00  0.00     0.184 C 
BRANCH  24  25
HETATM   25  O2  UNL     1      18.993   9.659  15.602  1.00  0.00    -0.399 OA
ATOM     26  H2  UNL     1      18.329  10.291  15.354  1.00  0.00     0.209 HD
ENDBRANCH  24  25
ENDBRANCH  23  24
ENDBRANCH  22  23
ENDBRANCH  14  17
ENDBRANCH   9  14
TORSDOF 6
ENDMDL
MODEL 5
REMARK VINA RESULT: -5.907271215      2.686      6.684
REMARK  6 active torsions:
REMARK  status: ('A' for Active; 'I' for Inactive)
REMARK    1  A    between atoms: C6_9  and  C7_10 
REMARK    2  A    between atoms: C7_10  and  O1_11 
REMARK    3  A    between atoms: C7_10  and  C8_13 
REMARK    4  A    between atoms: N3_18  and  C11_19 
REMARK    5  A    between atoms: C11_19  and  C12_20 
REMARK    6  A    between atoms: C12_20  and  O2_21 
ROOT
HETATM    1  N1  UNL     1      20.111  11.182  11.916  1.00  0.00    -0.405 N 
ATOM      2  H11 UNL     1      19.963  11.157  10.907  1.00  0.00     0.155 HD
ATOM      3  H12 UNL     1      20.038  11.982  12.544  1.00  0.00     0.155 HD
HETATM    4  C1  UNL     1      20.437  10.063  12.504  1.00  0.00    -0.016 C 
HETATM    5  C2  UNL     1      20.647  10.098  13.938  1.00  0.00     0.052 C 
HETATM    6  C3  UNL     1      19.356   9.874  14.735  1.00  0.00     0.006 C 
HETATM    7  C4  UNL     1      19.170   8.367  14.828  1.00  0.00     0.002 C 
HETATM    8  C5  UNL     1      18.383   7.937  13.637  1.00  0.00     0.028 C 
HETATM    9  C6  UNL     1      18.863   6.734  12.927  1.00  0.00     0.115 C 
HETATM   10  N4  UNL     1      20.146   6.624  12.466  1.00  0.00    -0.394 N 
ATOM     11  H4  UNL     1      20.489   5.675  12.317  1.00  0.00     0.159 HD
HETATM   12  C13 UNL     1      21.029   7.644  12.180  1.00  0.00     0.061 C 
HETATM   13  C14 UNL     1      20.544   8.903  11.594  1.00  0.00     0.096 C 
ENDROOT
BRANCH   9  14
HETATM   14  C7  UNL     1      18.580   5.556  13.863  1.00  0.00     0.192 C 
BRANCH  14  15
HETATM   15  O1  UNL     1      19.789   4.951  14.280  1.00  0.00    -0.387 OA
ATOM     16  H1  UNL     1      20.261   5.523  14.874  1.00  0.00     0.210 HD
ENDBRANCH  14  15
BRANCH  14  17
HETATM   17  C8  UNL     1      17.685   4.561  13.301  1.00  0.00     0.059 A 
HETATM   18  C9  UNL     1      17.494   4.301  11.971  1.00  0.00     0.116 A 
HETATM   19  N2  UNL     1      16.592   3.318  11.840  1.00  0.00    -0.360 N 
HETATM   20  C10 UNL     1      16.231   2.978  13.091  1.00  0.00     0.183 A 
ATOM     21  H2  UNL     1      16.250   2.910  10.970  1.00  0.00     0.166 HD
HETATM   22  N3  UNL     1      16.892   3.731  13.982  1.00  0.00    -0.341 N 
BRANCH  22  23
HETATM   23  C11 UNL     1      16.725   3.610  15.433  1.00  0.00     0.155 C 
BRANCH  23  24
HETATM   24  C12 UNL     1      16.309   2.169  15.734  1.00  0.00     0.184 C 
BRANCH  24  25
HETATM   25  O2  UNL     1      17.410   1.438  16.136  1.00  0.00    -0.399 OA
ATOM     26  H2  UNL     1      17.274   1.110  17.018  1.00  0.00     0.209 HD
ENDBRANCH  24  25
ENDBRANCH  23  24
ENDBRANCH  22  23
ENDBRANCH  14  17
ENDBRANCH   9  14
TORSDOF 6
ENDMDL
