MODEL 1
REMARK VINA RESULT: -6.808710149      0.000      0.000
REMARK  8 active torsions:
REMARK  status: ('A' for Active; 'I' for Inactive)
REMARK    1  A    between atoms: C4_4  and  C5_5 
REMARK    2  A    between atoms: C5_5  and  C6_6 
REMARK    3  A    between atoms: C7_7  and  C8_8 
REMARK    4  A    between atoms: C9_10  and  C10_11 
REMARK    5  A    between atoms: C10_11  and  O2_12 
REMARK    6  A    between atoms: C11_14  and  O3_15 
REMARK    7  A    between atoms: C12_17  and  O4_18 
REMARK    8  A    between atoms: C14_22  and  O6_23 
ROOT
HETATM    1  C6  UNL     1      16.692   2.394  14.637  1.00  0.00     0.014 A 
HETATM    2  C7  UNL     1      17.022   2.042  13.364  1.00  0.00     0.007 A 
HETATM    3  C13 UNL     1      16.853   0.676  13.290  1.00  0.00     0.155 A 
HETATM    4  O5  UNL     1      16.444   0.251  14.459  1.00  0.00    -0.299 OA
HETATM    5  C14 UNL     1      16.324   1.228  15.321  1.00  0.00     0.190 A 
ENDROOT
BRANCH   2   6
HETATM    6  C8  UNL     1      17.467   2.898  12.273  1.00  0.00     0.189 C 
HETATM    7  O1  UNL     1      18.191   4.010  12.665  1.00  0.00    -0.368 OA
HETATM    8  C9  UNL     1      18.283   4.708  11.440  1.00  0.00     0.177 C 
HETATM    9  C11 UNL     1      16.886   4.695  10.868  1.00  0.00     0.180 C 
HETATM   10  C12 UNL     1      16.367   3.357  11.365  1.00  0.00     0.183 C 
BRANCH   8  11
HETATM   11  C10 UNL     1      18.758   6.122  11.643  1.00  0.00     0.198 C 
BRANCH  11  12
HETATM   12  O2  UNL     1      17.721   6.972  11.310  1.00  0.00    -0.398 OA
ATOM     13  H2  UNL     1      18.016   7.865  11.450  1.00  0.00     0.209 HD
ENDBRANCH  11  12
ENDBRANCH   8  11
BRANCH   9  14
HETATM   14  O3  UNL     1      16.941   4.772   9.496  1.00  0.00    -0.390 OA
ATOM     15  H3  UNL     1      17.797   4.496   9.191  1.00  0.00     0.210 HD
ENDBRANCH   9  14
BRANCH  10  16
HETATM   16  O4  UNL     1      16.221   2.544  10.242  1.00  0.00    -0.390 OA
ATOM     17  H4  UNL     1      15.408   2.703   9.778  1.00  0.00     0.210 HD
ENDBRANCH  10  16
ENDBRANCH   2   6
BRANCH   1  18
HETATM   18  C5  UNL     1      16.722   3.754  15.184  1.00  0.00     0.071 C 
BRANCH  18  19
HETATM   19  C4  UNL     1      15.556   4.589  14.759  1.00  0.00    -0.020 C 
HETATM   20  C2  UNL     1      15.664   5.892  14.536  1.00  0.00    -0.091 C 
HETATM   21  C1  UNL     1      14.500   6.710  14.115  1.00  0.00     0.042 C 
HETATM   22  C3  UNL     1      16.988   6.550  14.713  1.00  0.00     0.042 C 
ENDBRANCH  18  19
ENDBRANCH   1  18
BRANCH   5  23
HETATM   23  O6  UNL     1      15.920   1.177  16.651  1.00  0.00    -0.340 OA
ATOM     24  H6  UNL     1      15.962   0.407  17.205  1.00  0.00     0.220 HD
ENDBRANCH   5  23
TORSDOF 8
ENDMDL
MODEL 2
REMARK VINA RESULT: -6.646268496      1.017      1.440
REMARK  8 active torsions:
REMARK  status: ('A' for Active; 'I' for Inactive)
REMARK    1  A    between atoms: C4_4  and  C5_5 
REMARK    2  A    between atoms: C5_5  and  C6_6 
REMARK    3  A    between atoms: C7_7  and  C8_8 
REMARK    4  A    between atoms: C9_10  and  C10_11 
REMARK    5  A    between atoms: C10_11  and  O2_12 
REMARK    6  A    between atoms: C11_14  and  O3_15 
REMARK    7  A    between atoms: C12_17  and  O4_18 
REMARK    8  A    between atoms: C14_22  and  O6_23 
ROOT
HETATM    1  C6  UNL     1      15.800   3.020  15.081  1.00  0.00     0.014 A 
HETATM    2  C7  UNL     1      16.493   2.278  14.175  1.00  0.00     0.007 A 
HETATM    3  C13 UNL     1      16.579   1.009  14.706  1.00  0.00     0.155 A 
HETATM    4  O5  UNL     1      15.967   1.008  15.864  1.00  0.00    -0.299 OA
HETATM    5  C14 UNL     1      15.473   2.184  16.157  1.00  0.00     0.190 A 
ENDROOT
BRANCH   2   6
HETATM    6  C8  UNL     1      17.049   2.697  12.895  1.00  0.00     0.189 C 
HETATM    7  O1  UNL     1      18.109   3.581  12.983  1.00  0.00    -0.368 OA
HETATM    8  C9  UNL     1      18.268   3.935  11.624  1.00  0.00     0.177 C 
HETATM    9  C11 UNL     1      16.875   4.241  11.127  1.00  0.00     0.180 C 
HETATM   10  C12 UNL     1      16.040   3.274  11.948  1.00  0.00     0.183 C 
BRANCH   8  11
HETATM   11  C10 UNL     1      19.161   5.137  11.467  1.00  0.00     0.198 C 
BRANCH  11  12
HETATM   12  O2  UNL     1      18.391   6.181  10.991  1.00  0.00    -0.398 OA
ATOM     13  H2  UNL     1      18.748   6.991  11.339  1.00  0.00     0.209 HD
ENDBRANCH  11  12
ENDBRANCH   8  11
BRANCH   9  14
HETATM   14  O3  UNL     1      16.798   4.002   9.775  1.00  0.00    -0.390 OA
ATOM     15  H3  UNL     1      15.891   3.883   9.519  1.00  0.00     0.210 HD
ENDBRANCH   9  14
BRANCH  10  16
HETATM   16  O4  UNL     1      15.536   2.328  11.057  1.00  0.00    -0.390 OA
ATOM     17  H4  UNL     1      14.636   2.501  10.809  1.00  0.00     0.210 HD
ENDBRANCH  10  16
ENDBRANCH   2   6
BRANCH   1  18
HETATM   18  C5  UNL     1      15.463   4.440  14.946  1.00  0.00     0.071 C 
BRANCH  18  19
HETATM   19  C4  UNL     1      16.647   5.344  15.074  1.00  0.00    -0.020 C 
HETATM   20  C2  UNL     1      16.791   6.430  14.326  1.00  0.00    -0.091 C 
HETATM   21  C1  UNL     1      17.971   7.320  14.462  1.00  0.00     0.042 C 
HETATM   22  C3  UNL     1      15.741   6.764  13.324  1.00  0.00     0.042 C 
ENDBRANCH  18  19
ENDBRANCH   1  18
BRANCH   5  23
HETATM   23  O6  UNL     1      14.762   2.577  17.285  1.00  0.00    -0.340 OA
ATOM     24  H6  UNL     1      14.637   2.047  18.064  1.00  0.00     0.220 HD
ENDBRANCH   5  23
TORSDOF 8
ENDMDL
MODEL 3
REMARK VINA RESULT: -6.631757183      2.138      5.168
REMARK  8 active torsions:
REMARK  status: ('A' for Active; 'I' for Inactive)
REMARK    1  A    between atoms: C4_4  and  C5_5 
REMARK    2  A    between atoms: C5_5  and  C6_6 
REMARK    3  A    between atoms: C7_7  and  C8_8 
REMARK    4  A    between atoms: C9_10  and  C10_11 
REMARK    5  A    between atoms: C10_11  and  O2_12 
REMARK    6  A    between atoms: C11_14  and  O3_15 
REMARK    7  A    between atoms: C12_17  and  O4_18 
REMARK    8  A    between atoms: C14_22  and  O6_23 
ROOT
HETATM    1  C6  UNL     1      16.954   4.467  11.973  1.00  0.00     0.014 A 
HETATM    2  C7  UNL     1      16.439   3.489  12.767  1.00  0.00     0.007 A 
HETATM    3  C13 UNL     1      16.183   2.419  11.937  1.00  0.00     0.155 A 
HETATM    4  O5  UNL     1      16.530   2.754  10.719  1.00  0.00    -0.299 OA
HETATM    5  C14 UNL     1      17.002   3.973  10.663  1.00  0.00     0.190 A 
ENDROOT
BRANCH   2   6
HETATM    6  C8  UNL     1      16.193   3.521  14.202  1.00  0.00     0.189 C 
HETATM    7  O1  UNL     1      16.285   2.295  14.835  1.00  0.00    -0.368 OA
HETATM    8  C9  UNL     1      15.804   2.627  16.122  1.00  0.00     0.177 C 
HETATM    9  C11 UNL     1      14.547   3.429  15.882  1.00  0.00     0.180 C 
HETATM   10  C12 UNL     1      14.886   4.146  14.587  1.00  0.00     0.183 C 
BRANCH   8  11
HETATM   11  C10 UNL     1      15.499   1.397  16.934  1.00  0.00     0.198 C 
BRANCH  11  12
HETATM   12  O2  UNL     1      14.162   1.094  16.764  1.00  0.00    -0.398 OA
ATOM     13  H2  UNL     1      14.089   0.490  16.034  1.00  0.00     0.209 HD
ENDBRANCH  11  12
ENDBRANCH   8  11
BRANCH   9  14
HETATM   14  O3  UNL     1      14.334   4.291  16.932  1.00  0.00    -0.390 OA
ATOM     15  H3  UNL     1      14.552   3.863  17.751  1.00  0.00     0.210 HD
ENDBRANCH   9  14
BRANCH  10  16
HETATM   16  O4  UNL     1      15.008   5.498  14.901  1.00  0.00    -0.390 OA
ATOM     17  H4  UNL     1      14.272   5.826  15.404  1.00  0.00     0.210 HD
ENDBRANCH  10  16
ENDBRANCH   2   6
BRANCH   1  18
HETATM   18  C5  UNL     1      17.377   5.798  12.420  1.00  0.00     0.071 C 
BRANCH  18  19
HETATM   19  C4  UNL     1      16.340   6.853  12.201  1.00  0.00    -0.020 C 
HETATM   20  C2  UNL     1      16.547   7.892  11.403  1.00  0.00    -0.091 C 
HETATM   21  C1  UNL     1      15.510   8.934  11.195  1.00  0.00     0.042 C 
HETATM   22  C3  UNL     1      17.852   8.017  10.699  1.00  0.00     0.042 C 
ENDBRANCH  18  19
ENDBRANCH   1  18
BRANCH   5  23
HETATM   23  O6  UNL     1      17.471   4.680   9.560  1.00  0.00    -0.340 OA
ATOM     24  H6  UNL     1      16.953   4.903   8.796  1.00  0.00     0.220 HD
ENDBRANCH   5  23
TORSDOF 8
ENDMDL
MODEL 4
REMARK VINA RESULT: -6.575391487      2.319      4.982
REMARK  8 active torsions:
REMARK  status: ('A' for Active; 'I' for Inactive)
REMARK    1  A    between atoms: C4_4  and  C5_5 
REMARK    2  A    between atoms: C5_5  and  C6_6 
REMARK    3  A    between atoms: C7_7  and  C8_8 
REMARK    4  A    between atoms: C9_10  and  C10_11 
REMARK    5  A    between atoms: C10_11  and  O2_12 
REMARK    6  A    between atoms: C11_14  and  O3_15 
REMARK    7  A    between atoms: C12_17  and  O4_18 
REMARK    8  A    between atoms: C14_22  and  O6_23 
ROOT
HETATM    1  C6  UNL     1      17.371   6.734  13.349  1.00  0.00     0.014 A 
HETATM    2  C7  UNL     1      17.753   5.458  13.629  1.00  0.00     0.007 A 
HETATM    3  C13 UNL     1      19.066   5.536  14.044  1.00  0.00     0.155 A 
HETATM    4  O5  UNL     1      19.432   6.793  14.009  1.00  0.00    -0.299 OA
HETATM    5  C14 UNL     1      18.465   7.573  13.600  1.00  0.00     0.190 A 
ENDROOT
BRANCH   2   6
HETATM    6  C8  UNL     1      16.971   4.234  13.526  1.00  0.00     0.189 C 
HETATM    7  O1  UNL     1      17.109   3.365  14.594  1.00  0.00    -0.368 OA
HETATM    8  C9  UNL     1      16.417   2.235  14.104  1.00  0.00     0.177 C 
HETATM    9  C11 UNL     1      16.933   2.030  12.699  1.00  0.00     0.180 C 
HETATM   10  C12 UNL     1      17.207   3.460  12.265  1.00  0.00     0.183 C 
BRANCH   8  11
HETATM   11  C10 UNL     1      16.680   1.016  14.946  1.00  0.00     0.198 C 
BRANCH  11  12
HETATM   12  O2  UNL     1      17.390   1.413  16.063  1.00  0.00    -0.398 OA
ATOM     13  H2  UNL     1      18.264   1.046  16.001  1.00  0.00     0.209 HD
ENDBRANCH  11  12
ENDBRANCH   8  11
BRANCH   9  14
HETATM   14  O3  UNL     1      15.974   1.411  11.934  1.00  0.00    -0.390 OA
ATOM     15  H3  UNL     1      16.078   1.658  11.023  1.00  0.00     0.210 HD
ENDBRANCH   9  14
BRANCH  10  16
HETATM   16  O4  UNL     1      16.277   3.758  11.270  1.00  0.00    -0.390 OA
ATOM     17  H4  UNL     1      16.609   4.378  10.631  1.00  0.00     0.210 HD
ENDBRANCH  10  16
ENDBRANCH   2   6
BRANCH   1  18
HETATM   18  C5  UNL     1      16.049   7.145  12.869  1.00  0.00     0.071 C 
BRANCH  18  19
HETATM   19  C4  UNL     1      15.994   7.351  11.388  1.00  0.00    -0.020 C 
HETATM   20  C2  UNL     1      15.025   8.046  10.807  1.00  0.00    -0.091 C 
HETATM   21  C1  UNL     1      14.981   8.242   9.337  1.00  0.00     0.042 C 
HETATM   22  C3  UNL     1      13.955   8.644  11.652  1.00  0.00     0.042 C 
ENDBRANCH  18  19
ENDBRANCH   1  18
BRANCH   5  23
HETATM   23  O6  UNL     1      18.467   8.954  13.432  1.00  0.00    -0.340 OA
ATOM     24  H6  UNL     1      17.895   9.433  12.844  1.00  0.00     0.220 HD
ENDBRANCH   5  23
TORSDOF 8
ENDMDL
MODEL 5
REMARK VINA RESULT: -6.490492707      1.913      5.286
REMARK  8 active torsions:
REMARK  status: ('A' for Active; 'I' for Inactive)
REMARK    1  A    between atoms: C4_4  and  C5_5 
REMARK    2  A    between atoms: C5_5  and  C6_6 
REMARK    3  A    between atoms: C7_7  and  C8_8 
REMARK    4  A    between atoms: C9_10  and  C10_11 
REMARK    5  A    between atoms: C10_11  and  O2_12 
REMARK    6  A    between atoms: C11_14  and  O3_15 
REMARK    7  A    between atoms: C12_17  and  O4_18 
REMARK    8  A    between atoms: C14_22  and  O6_23 
ROOT
HETATM    1  C6  UNL     1      16.778   4.284  11.998  1.00  0.00     0.014 A 
HETATM    2  C7  UNL     1      16.387   3.311  12.866  1.00  0.00     0.007 A 
HETATM    3  C13 UNL     1      16.247   2.163  12.114  1.00  0.00     0.155 A 
HETATM    4  O5  UNL     1      16.543   2.451  10.871  1.00  0.00    -0.299 OA
HETATM    5  C14 UNL     1      16.871   3.708  10.724  1.00  0.00     0.190 A 
ENDROOT
BRANCH   2   6
HETATM    6  C8  UNL     1      16.152   3.415  14.299  1.00  0.00     0.189 C 
HETATM    7  O1  UNL     1      16.224   2.217  14.988  1.00  0.00    -0.368 OA
HETATM    8  C9  UNL     1      15.759   2.619  16.261  1.00  0.00     0.177 C 
HETATM    9  C11 UNL     1      14.516   3.434  15.992  1.00  0.00     0.180 C 
HETATM   10  C12 UNL     1      14.860   4.082  14.662  1.00  0.00     0.183 C 
BRANCH   8  11
HETATM   11  C10 UNL     1      15.435   1.434  17.131  1.00  0.00     0.198 C 
BRANCH  11  12
HETATM   12  O2  UNL     1      14.091   1.149  16.983  1.00  0.00    -0.398 OA
ATOM     13  H2  UNL     1      13.981   0.208  17.054  1.00  0.00     0.209 HD
ENDBRANCH  11  12
ENDBRANCH   8  11
BRANCH   9  14
HETATM   14  O3  UNL     1      14.328   4.347  17.001  1.00  0.00    -0.390 OA
ATOM     15  H3  UNL     1      15.124   4.432  17.513  1.00  0.00     0.210 HD
ENDBRANCH   9  14
BRANCH  10  16
HETATM   16  O4  UNL     1      15.011   5.445  14.912  1.00  0.00    -0.390 OA
ATOM     17  H4  UNL     1      15.398   5.912  14.181  1.00  0.00     0.210 HD
ENDBRANCH  10  16
ENDBRANCH   2   6
BRANCH   1  18
HETATM   18  C5  UNL     1      17.049   5.682  12.345  1.00  0.00     0.071 C 
BRANCH  18  19
HETATM   19  C4  UNL     1      18.398   6.151  11.902  1.00  0.00    -0.020 C 
HETATM   20  C2  UNL     1      19.446   6.156  12.715  1.00  0.00    -0.091 C 
HETATM   21  C1  UNL     1      20.780   6.625  12.263  1.00  0.00     0.042 C 
HETATM   22  C3  UNL     1      19.280   5.679  14.115  1.00  0.00     0.042 C 
ENDBRANCH  18  19
ENDBRANCH   1  18
BRANCH   5  23
HETATM   23  O6  UNL     1      17.245   4.386   9.568  1.00  0.00    -0.340 OA
ATOM     24  H6  UNL     1      17.521   3.972   8.759  1.00  0.00     0.220 HD
ENDBRANCH   5  23
TORSDOF 8
ENDMDL
