MODEL 1
REMARK VINA RESULT: -7.966142791      0.000      0.000
REMARK  14 active torsions:
REMARK  status: ('A' for Active; 'I' for Inactive)
REMARK    1  A    between atoms: C2_2  and  O1_3 
REMARK    2  A    between atoms: C2_2  and  C3_5 
REMARK    3  A    between atoms: C3_5  and  C9_28 
REMARK    4  A    between atoms: N1_6  and  O2_8 
REMARK    5  A    between atoms: O2_8  and  C4_9 
REMARK    6  A    between atoms: C4_9  and  C5_11 
REMARK    7  A    between atoms: C5_11  and  S1_12 
REMARK    8  A    between atoms: S1_12  and  C6_13 
REMARK    9  A    between atoms: C7_16  and  N3_17 
REMARK   10  A    between atoms: C8_22  and  N5_23 
REMARK   11  A    between atoms: N8_32  and  C11_33 
REMARK   12  A    between atoms: C11_33  and  C12_34 
REMARK       I    between atoms: C12_34  and  N9_36 
REMARK   13  A    between atoms: N9_36  and  N10_37 
REMARK       I    between atoms: N10_37  and  C13_39 
REMARK   14  A    between atoms: C13_39  and  C14_41 
ROOT
HETATM    1  C3  UNL     1      28.793  -5.170  49.873  1.00  0.00     0.090 C 
HETATM    2  N1  UNL     1      28.825  -5.218  51.101  1.00  0.00    -0.257 N 
ATOM      3  H1  UNL     1      28.842  -6.172  51.461  1.00  0.00     0.195 HD
ENDROOT
BRANCH   1   4
HETATM    4  C2  UNL     1      28.761  -3.972  48.987  1.00  0.00     0.168 C 
HETATM    5  C1  UNL     1      27.449  -3.721  48.320  1.00  0.00     0.046 C 
BRANCH   4   6
HETATM    6  O1  UNL     1      29.747  -4.264  47.956  1.00  0.00    -0.390 OA
ATOM      7  H1  UNL     1      30.564  -3.844  48.199  1.00  0.00     0.210 HD
ENDBRANCH   4   6
ENDBRANCH   1   4
BRANCH   1   8
HETATM    8  C9  UNL     1      28.942  -6.498  49.173  1.00  0.00     0.093 A 
HETATM    9  C10 UNL     1      29.796  -7.540  49.541  1.00  0.00     0.142 A 
HETATM   10  N7  UNL     1      29.380  -8.596  48.805  1.00  0.00    -0.293 N 
HETATM   11  N8  UNL     1      28.321  -8.227  48.014  1.00  0.00    -0.224 N 
ATOM     12  H7  UNL     1      29.793  -9.528  48.833  1.00  0.00     0.187 HD
HETATM   13  N11 UNL     1      28.138  -6.990  48.282  1.00  0.00    -0.280 N 
ATOM     14  H11 UNL     1      27.414  -6.432  47.829  1.00  0.00     0.189 HD
BRANCH  11  15
HETATM   15  C11 UNL     1      27.681  -9.184  47.163  1.00  0.00     0.290 C 
BRANCH  15  16
HETATM   16  C12 UNL     1      28.743  -9.828  46.296  1.00  0.00     0.333 C 
HETATM   17  O4  UNL     1      28.849 -10.940  46.092  1.00  0.00    -0.253 OA
HETATM   18  N9  UNL     1      29.598  -8.749  45.793  1.00  0.00    -0.282 NA
BRANCH  18  19
HETATM   19  N10 UNL     1      30.308  -7.878  45.370  1.00  0.00    -0.195 N 
HETATM   20  C13 UNL     1      30.121  -6.433  45.310  1.00  0.00     0.287 C 
HETATM   21  O5  UNL     1      29.077  -5.936  45.692  1.00  0.00    -0.264 OA
ATOM     22  H10 UNL     1      31.196  -8.205  44.989  1.00  0.00     0.205 HD
BRANCH  20  23
HETATM   23  C14 UNL     1      31.205  -5.591  44.795  1.00  0.00     0.075 A 
HETATM   24  C15 UNL     1      32.399  -5.288  45.424  1.00  0.00     0.025 A 
HETATM   25  C16 UNL     1      33.247  -4.492  44.792  1.00  0.00     0.009 A 
HETATM   26  C17 UNL     1      32.886  -4.024  43.563  1.00  0.00     0.050 A 
HETATM   27  S2  UNL     1      31.351  -4.737  43.356  1.00  0.00    -0.097 SA
ENDBRANCH  20  23
ENDBRANCH  18  19
ENDBRANCH  15  16
ENDBRANCH  11  15
ENDBRANCH   1   8
BRANCH   2  28
HETATM   28  O2  UNL     1      28.843  -4.296  52.069  1.00  0.00    -0.199 OA
BRANCH  28  29
HETATM   29  C4  UNL     1      27.895  -4.409  53.117  1.00  0.00     0.290 C 
HETATM   30  O3  UNL     1      27.744  -3.536  53.885  1.00  0.00    -0.262 OA
BRANCH  29  31
HETATM   31  C5  UNL     1      27.142  -5.747  53.078  1.00  0.00     0.195 C 
BRANCH  31  32
HETATM   32  S1  UNL     1      27.930  -7.022  53.948  1.00  0.00    -0.083 SA
BRANCH  32  33
HETATM   33  C6  UNL     1      27.583  -8.672  53.522  1.00  0.00     0.174 A 
HETATM   34  N2  UNL     1      27.175  -9.604  54.502  1.00  0.00    -0.170 N 
HETATM   35  C7  UNL     1      27.055 -10.877  54.149  1.00  0.00     0.692 A 
ATOM     36  H2  UNL     1      26.977  -9.306  55.457  1.00  0.00     0.186 HD
HETATM   37  N4  UNL     1      27.294 -11.333  52.919  1.00  0.00    -0.023 N 
HETATM   38  C8  UNL     1      27.680 -10.437  51.973  1.00  0.00     0.692 A 
ATOM     39  H4  UNL     1      27.191 -12.323  52.696  1.00  0.00     0.203 HD
HETATM   40  N6  UNL     1      27.798  -9.171  52.322  1.00  0.00    -0.170 N 
ATOM     41  H6  UNL     1      28.082  -8.515  51.593  1.00  0.00     0.186 HD
BRANCH  35  42
HETATM   42  N3  UNL     1      26.685 -11.778  55.031  1.00  0.00    -0.234 N 
ATOM     43  H32 UNL     1      27.402 -12.446  55.312  1.00  0.00     0.174 HD
ATOM     44  H31 UNL     1      25.732 -11.780  55.394  1.00  0.00     0.174 HD
ENDBRANCH  35  42
BRANCH  38  45
HETATM   45  N5  UNL     1      27.921 -10.892  50.786  1.00  0.00    -0.234 N 
ATOM     46  H52 UNL     1      27.201 -11.197  50.131  1.00  0.00     0.174 HD
ATOM     47  H51 UNL     1      28.897 -10.935  50.489  1.00  0.00     0.174 HD
ENDBRANCH  38  45
ENDBRANCH  32  33
ENDBRANCH  31  32
ENDBRANCH  29  31
ENDBRANCH  28  29
ENDBRANCH   2  28
TORSDOF 14
ENDMDL
MODEL 2
REMARK VINA RESULT: -7.943501149      2.084      4.832
REMARK  14 active torsions:
REMARK  status: ('A' for Active; 'I' for Inactive)
REMARK    1  A    between atoms: C2_2  and  O1_3 
REMARK    2  A    between atoms: C2_2  and  C3_5 
REMARK    3  A    between atoms: C3_5  and  C9_28 
REMARK    4  A    between atoms: N1_6  and  O2_8 
REMARK    5  A    between atoms: O2_8  and  C4_9 
REMARK    6  A    between atoms: C4_9  and  C5_11 
REMARK    7  A    between atoms: C5_11  and  S1_12 
REMARK    8  A    between atoms: S1_12  and  C6_13 
REMARK    9  A    between atoms: C7_16  and  N3_17 
REMARK   10  A    between atoms: C8_22  and  N5_23 
REMARK   11  A    between atoms: N8_32  and  C11_33 
REMARK   12  A    between atoms: C11_33  and  C12_34 
REMARK       I    between atoms: C12_34  and  N9_36 
REMARK   13  A    between atoms: N9_36  and  N10_37 
REMARK       I    between atoms: N10_37  and  C13_39 
REMARK   14  A    between atoms: C13_39  and  C14_41 
ROOT
HETATM    1  C3  UNL     1      28.137  -8.686  51.901  1.00  0.00     0.090 C 
HETATM    2  N1  UNL     1      28.386  -7.525  52.221  1.00  0.00    -0.257 N 
ATOM      3  H1  UNL     1      28.636  -6.938  51.425  1.00  0.00     0.195 HD
ENDROOT
BRANCH   1   4
HETATM    4  C2  UNL     1      27.738  -9.827  52.772  1.00  0.00     0.168 C 
HETATM    5  C1  UNL     1      26.279 -10.140  52.766  1.00  0.00     0.046 C 
BRANCH   4   6
HETATM    6  O1  UNL     1      28.107  -9.398  54.114  1.00  0.00    -0.390 OA
ATOM      7  H1  UNL     1      27.428  -9.684  54.714  1.00  0.00     0.210 HD
ENDBRANCH   4   6
ENDBRANCH   1   4
BRANCH   1   8
HETATM    8  C9  UNL     1      28.100  -8.950  50.417  1.00  0.00     0.093 A 
HETATM    9  C10 UNL     1      27.738  -8.042  49.420  1.00  0.00     0.142 A 
HETATM   10  N7  UNL     1      28.123  -8.633  48.266  1.00  0.00    -0.293 N 
HETATM   11  N8  UNL     1      28.694  -9.852  48.532  1.00  0.00    -0.224 N 
ATOM     12  H7  UNL     1      28.007  -8.232  47.335  1.00  0.00     0.187 HD
HETATM   13  N11 UNL     1      28.631  -9.963  49.805  1.00  0.00    -0.280 N 
ATOM     14  H11 UNL     1      28.973 -10.786  50.301  1.00  0.00     0.189 HD
BRANCH  11  15
HETATM   15  C11 UNL     1      29.214 -10.660  47.470  1.00  0.00     0.290 C 
BRANCH  15  16
HETATM   16  C12 UNL     1      28.613 -10.171  46.169  1.00  0.00     0.333 C 
HETATM   17  O4  UNL     1      27.696 -10.603  45.658  1.00  0.00    -0.253 OA
HETATM   18  N9  UNL     1      29.443  -9.054  45.705  1.00  0.00    -0.282 NA
BRANCH  18  19
HETATM   19  N10 UNL     1      30.111  -8.138  45.311  1.00  0.00    -0.195 N 
HETATM   20  C13 UNL     1      30.059  -6.713  45.614  1.00  0.00     0.287 C 
HETATM   21  O5  UNL     1      29.195  -6.277  46.354  1.00  0.00    -0.264 OA
ATOM     22  H10 UNL     1      30.842  -8.402  44.650  1.00  0.00     0.205 HD
BRANCH  20  23
HETATM   23  C14 UNL     1      31.062  -5.818  45.029  1.00  0.00     0.075 A 
HETATM   24  C15 UNL     1      32.238  -5.385  45.614  1.00  0.00     0.025 A 
HETATM   25  C16 UNL     1      33.008  -4.562  44.919  1.00  0.00     0.009 A 
HETATM   26  C17 UNL     1      32.589  -4.197  43.673  1.00  0.00     0.050 A 
HETATM   27  S2  UNL     1      31.113  -5.040  43.541  1.00  0.00    -0.097 SA
ENDBRANCH  20  23
ENDBRANCH  18  19
ENDBRANCH  15  16
ENDBRANCH  11  15
ENDBRANCH   1   8
BRANCH   2  28
HETATM   28  O2  UNL     1      28.402  -6.861  53.381  1.00  0.00    -0.199 OA
BRANCH  28  29
HETATM   29  C4  UNL     1      27.168  -6.397  53.903  1.00  0.00     0.290 C 
HETATM   30  O3  UNL     1      26.540  -7.061  54.637  1.00  0.00    -0.262 OA
BRANCH  29  31
HETATM   31  C5  UNL     1      26.822  -4.986  53.405  1.00  0.00     0.195 C 
BRANCH  31  32
HETATM   32  S1  UNL     1      28.154  -3.878  53.450  1.00  0.00    -0.083 SA
BRANCH  32  33
HETATM   33  C6  UNL     1      29.126  -3.672  52.023  1.00  0.00     0.174 A 
HETATM   34  N2  UNL     1      29.636  -2.403  51.669  1.00  0.00    -0.170 N 
HETATM   35  C7  UNL     1      30.255  -2.276  50.502  1.00  0.00     0.692 A 
ATOM     36  H2  UNL     1      29.531  -1.604  52.294  1.00  0.00     0.186 HD
HETATM   37  N4  UNL     1      30.429  -3.278  49.640  1.00  0.00    -0.023 N 
HETATM   38  C8  UNL     1      29.945  -4.501  49.982  1.00  0.00     0.692 A 
ATOM     39  H4  UNL     1      30.911  -3.131  48.753  1.00  0.00     0.203 HD
HETATM   40  N6  UNL     1      29.332  -4.630  51.142  1.00  0.00    -0.170 N 
ATOM     41  H6  UNL     1      28.983  -5.559  51.380  1.00  0.00     0.186 HD
BRANCH  35  42
HETATM   42  N3  UNL     1      30.738  -1.112  50.132  1.00  0.00    -0.234 N 
ATOM     43  H32 UNL     1      30.510  -0.818  49.182  1.00  0.00     0.174 HD
ATOM     44  H31 UNL     1      31.301  -0.559  50.778  1.00  0.00     0.174 HD
ENDBRANCH  35  42
BRANCH  38  45
HETATM   45  N5  UNL     1      30.110  -5.464  49.133  1.00  0.00    -0.234 N 
ATOM     46  H52 UNL     1      29.456  -5.686  48.382  1.00  0.00     0.174 HD
ATOM     47  H51 UNL     1      30.955  -6.028  49.222  1.00  0.00     0.174 HD
ENDBRANCH  38  45
ENDBRANCH  32  33
ENDBRANCH  31  32
ENDBRANCH  29  31
ENDBRANCH  28  29
ENDBRANCH   2  28
TORSDOF 14
ENDMDL
MODEL 3
REMARK VINA RESULT: -7.919353757      0.984      1.865
REMARK  14 active torsions:
REMARK  status: ('A' for Active; 'I' for Inactive)
REMARK    1  A    between atoms: C2_2  and  O1_3 
REMARK    2  A    between atoms: C2_2  and  C3_5 
REMARK    3  A    between atoms: C3_5  and  C9_28 
REMARK    4  A    between atoms: N1_6  and  O2_8 
REMARK    5  A    between atoms: O2_8  and  C4_9 
REMARK    6  A    between atoms: C4_9  and  C5_11 
REMARK    7  A    between atoms: C5_11  and  S1_12 
REMARK    8  A    between atoms: S1_12  and  C6_13 
REMARK    9  A    between atoms: C7_16  and  N3_17 
REMARK   10  A    between atoms: C8_22  and  N5_23 
REMARK   11  A    between atoms: N8_32  and  C11_33 
REMARK   12  A    between atoms: C11_33  and  C12_34 
REMARK       I    between atoms: C12_34  and  N9_36 
REMARK   13  A    between atoms: N9_36  and  N10_37 
REMARK       I    between atoms: N10_37  and  C13_39 
REMARK   14  A    between atoms: C13_39  and  C14_41 
ROOT
HETATM    1  C3  UNL     1      29.146  -4.884  50.234  1.00  0.00     0.090 C 
HETATM    2  N1  UNL     1      28.582  -4.678  51.307  1.00  0.00    -0.257 N 
ATOM      3  H1  UNL     1      27.622  -5.022  51.323  1.00  0.00     0.195 HD
ENDROOT
BRANCH   1   4
HETATM    4  C2  UNL     1      30.537  -4.533  49.830  1.00  0.00     0.168 C 
HETATM    5  C1  UNL     1      30.736  -3.104  49.448  1.00  0.00     0.046 C 
BRANCH   4   6
HETATM    6  O1  UNL     1      30.786  -5.357  48.654  1.00  0.00    -0.390 OA
ATOM      7  H1  UNL     1      31.651  -5.741  48.739  1.00  0.00     0.210 HD
ENDBRANCH   4   6
ENDBRANCH   1   4
BRANCH   1   8
HETATM    8  C9  UNL     1      28.370  -5.723  49.249  1.00  0.00     0.093 A 
HETATM    9  C10 UNL     1      27.551  -5.252  48.221  1.00  0.00     0.142 A 
HETATM   10  N7  UNL     1      27.308  -6.340  47.455  1.00  0.00    -0.293 N 
HETATM   11  N8  UNL     1      27.942  -7.436  47.984  1.00  0.00    -0.224 N 
ATOM     12  H7  UNL     1      26.738  -6.345  46.609  1.00  0.00     0.187 HD
HETATM   13  N11 UNL     1      28.528  -6.991  49.031  1.00  0.00    -0.280 N 
ATOM     14  H11 UNL     1      29.077  -7.590  49.647  1.00  0.00     0.189 HD
BRANCH  11  15
HETATM   15  C11 UNL     1      27.863  -8.708  47.331  1.00  0.00     0.290 C 
BRANCH  15  16
HETATM   16  C12 UNL     1      29.266  -9.268  47.221  1.00  0.00     0.333 C 
HETATM   17  O4  UNL     1      29.613 -10.273  47.620  1.00  0.00    -0.253 OA
HETATM   18  N9  UNL     1      30.074  -8.266  46.519  1.00  0.00    -0.282 NA
BRANCH  18  19
HETATM   19  N10 UNL     1      30.751  -7.458  45.945  1.00  0.00    -0.195 N 
HETATM   20  C13 UNL     1      30.400  -6.193  45.309  1.00  0.00     0.287 C 
HETATM   21  O5  UNL     1      29.238  -5.831  45.266  1.00  0.00    -0.264 OA
ATOM     22  H10 UNL     1      31.741  -7.696  45.894  1.00  0.00     0.205 HD
BRANCH  20  23
HETATM   23  C14 UNL     1      31.463  -5.362  44.734  1.00  0.00     0.075 A 
HETATM   24  C15 UNL     1      32.663  -5.013  45.325  1.00  0.00     0.025 A 
HETATM   25  C16 UNL     1      33.488  -4.236  44.639  1.00  0.00     0.009 A 
HETATM   26  C17 UNL     1      33.098  -3.834  43.396  1.00  0.00     0.050 A 
HETATM   27  S2  UNL     1      31.570  -4.576  43.253  1.00  0.00    -0.097 SA
ENDBRANCH  20  23
ENDBRANCH  18  19
ENDBRANCH  15  16
ENDBRANCH  11  15
ENDBRANCH   1   8
BRANCH   2  28
HETATM   28  O2  UNL     1      28.948  -4.103  52.456  1.00  0.00    -0.199 OA
BRANCH  28  29
HETATM   29  C4  UNL     1      28.087  -4.237  53.575  1.00  0.00     0.290 C 
HETATM   30  O3  UNL     1      27.363  -3.367  53.882  1.00  0.00    -0.262 OA
BRANCH  29  31
HETATM   31  C5  UNL     1      28.229  -5.605  54.257  1.00  0.00     0.195 C 
BRANCH  31  32
HETATM   32  S1  UNL     1      26.950  -6.714  53.882  1.00  0.00    -0.083 SA
BRANCH  32  33
HETATM   33  C6  UNL     1      27.354  -8.345  53.435  1.00  0.00     0.174 A 
HETATM   34  N2  UNL     1      27.853  -8.643  52.147  1.00  0.00    -0.170 N 
HETATM   35  C7  UNL     1      28.015  -9.916  51.813  1.00  0.00     0.692 A 
ATOM     36  H2  UNL     1      28.082  -7.897  51.490  1.00  0.00     0.186 HD
HETATM   37  N4  UNL     1      27.738 -10.938  52.623  1.00  0.00    -0.023 N 
HETATM   38  C8  UNL     1      27.264 -10.654  53.865  1.00  0.00     0.692 A 
ATOM     39  H4  UNL     1      27.877 -11.902  52.321  1.00  0.00     0.203 HD
HETATM   40  N6  UNL     1      27.104  -9.389  54.200  1.00  0.00    -0.170 N 
ATOM     41  H6  UNL     1      26.755  -9.200  55.139  1.00  0.00     0.186 HD
BRANCH  35  42
HETATM   42  N3  UNL     1      28.470 -10.236  50.623  1.00  0.00    -0.234 N 
ATOM     43  H32 UNL     1      28.317  -9.545  49.889  1.00  0.00     0.174 HD
ATOM     44  H31 UNL     1      28.944 -11.127  50.476  1.00  0.00     0.174 HD
ENDBRANCH  35  42
BRANCH  38  45
HETATM   45  N5  UNL     1      26.988 -11.654  54.639  1.00  0.00    -0.234 N 
ATOM     46  H52 UNL     1      26.868 -12.614  54.317  1.00  0.00     0.174 HD
ATOM     47  H51 UNL     1      26.895 -11.462  55.637  1.00  0.00     0.174 HD
ENDBRANCH  38  45
ENDBRANCH  32  33
ENDBRANCH  31  32
ENDBRANCH  29  31
ENDBRANCH  28  29
ENDBRANCH   2  28
TORSDOF 14
ENDMDL
MODEL 4
REMARK VINA RESULT: -7.918057128      1.318      2.100
REMARK  14 active torsions:
REMARK  status: ('A' for Active; 'I' for Inactive)
REMARK    1  A    between atoms: C2_2  and  O1_3 
REMARK    2  A    between atoms: C2_2  and  C3_5 
REMARK    3  A    between atoms: C3_5  and  C9_28 
REMARK    4  A    between atoms: N1_6  and  O2_8 
REMARK    5  A    between atoms: O2_8  and  C4_9 
REMARK    6  A    between atoms: C4_9  and  C5_11 
REMARK    7  A    between atoms: C5_11  and  S1_12 
REMARK    8  A    between atoms: S1_12  and  C6_13 
REMARK    9  A    between atoms: C7_16  and  N3_17 
REMARK   10  A    between atoms: C8_22  and  N5_23 
REMARK   11  A    between atoms: N8_32  and  C11_33 
REMARK   12  A    between atoms: C11_33  and  C12_34 
REMARK       I    between atoms: C12_34  and  N9_36 
REMARK   13  A    between atoms: N9_36  and  N10_37 
REMARK       I    between atoms: N10_37  and  C13_39 
REMARK   14  A    between atoms: C13_39  and  C14_41 
ROOT
HETATM    1  C3  UNL     1      28.996  -4.758  50.383  1.00  0.00     0.090 C 
HETATM    2  N1  UNL     1      28.232  -4.715  51.345  1.00  0.00    -0.257 N 
ATOM      3  H1  UNL     1      27.312  -5.103  51.139  1.00  0.00     0.195 HD
ENDROOT
BRANCH   1   4
HETATM    4  C2  UNL     1      30.409  -4.292  50.294  1.00  0.00     0.168 C 
HETATM    5  C1  UNL     1      30.575  -2.870  49.871  1.00  0.00     0.046 C 
BRANCH   4   6
HETATM    6  O1  UNL     1      31.002  -5.144  49.271  1.00  0.00    -0.390 OA
ATOM      7  H1  UNL     1      30.356  -5.790  49.012  1.00  0.00     0.210 HD
ENDBRANCH   4   6
ENDBRANCH   1   4
BRANCH   1   8
HETATM    8  C9  UNL     1      28.475  -5.502  49.179  1.00  0.00     0.093 A 
HETATM    9  C10 UNL     1      27.973  -4.936  48.006  1.00  0.00     0.142 A 
HETATM   10  N7  UNL     1      27.899  -5.969  47.136  1.00  0.00    -0.293 N 
HETATM   11  N8  UNL     1      28.330  -7.123  47.741  1.00  0.00    -0.224 N 
ATOM     12  H7  UNL     1      27.571  -5.901  46.173  1.00  0.00     0.187 HD
HETATM   13  N11 UNL     1      28.636  -6.765  48.929  1.00  0.00    -0.280 N 
ATOM     14  H11 UNL     1      28.981  -7.422  49.629  1.00  0.00     0.189 HD
BRANCH  11  15
HETATM   15  C11 UNL     1      28.377  -8.354  47.010  1.00  0.00     0.290 C 
BRANCH  15  16
HETATM   16  C12 UNL     1      29.830  -8.738  46.829  1.00  0.00     0.333 C 
HETATM   17  O4  UNL     1      30.340  -9.643  47.287  1.00  0.00    -0.253 OA
HETATM   18  N9  UNL     1      30.439  -7.719  45.969  1.00  0.00    -0.282 NA
BRANCH  18  19
HETATM   19  N10 UNL     1      30.954  -6.894  45.265  1.00  0.00    -0.195 N 
HETATM   20  C13 UNL     1      31.282  -5.494  45.511  1.00  0.00     0.287 C 
HETATM   21  O5  UNL     1      30.982  -4.973  46.570  1.00  0.00    -0.264 OA
ATOM     22  H10 UNL     1      31.206  -7.229  44.335  1.00  0.00     0.205 HD
BRANCH  20  23
HETATM   23  C14 UNL     1      31.984  -4.730  44.475  1.00  0.00     0.075 A 
HETATM   24  C15 UNL     1      33.336  -4.444  44.420  1.00  0.00     0.025 A 
HETATM   25  C16 UNL     1      33.775  -3.722  43.400  1.00  0.00     0.009 A 
HETATM   26  C17 UNL     1      32.864  -3.311  42.472  1.00  0.00     0.050 A 
HETATM   27  S2  UNL     1      31.417  -3.967  43.091  1.00  0.00    -0.097 SA
ENDBRANCH  20  23
ENDBRANCH  18  19
ENDBRANCH  15  16
ENDBRANCH  11  15
ENDBRANCH   1   8
BRANCH   2  28
HETATM   28  O2  UNL     1      28.340  -4.272  52.602  1.00  0.00    -0.199 OA
BRANCH  28  29
HETATM   29  C4  UNL     1      27.724  -5.026  53.632  1.00  0.00     0.290 C 
HETATM   30  O3  UNL     1      27.822  -4.701  54.754  1.00  0.00    -0.262 OA
BRANCH  29  31
HETATM   31  C5  UNL     1      26.951  -6.235  53.084  1.00  0.00     0.195 C 
BRANCH  31  32
HETATM   32  S1  UNL     1      27.223  -7.702  53.967  1.00  0.00    -0.083 SA
BRANCH  32  33
HETATM   33  C6  UNL     1      27.564  -9.163  53.088  1.00  0.00     0.174 A 
HETATM   34  N2  UNL     1      28.024  -9.116  51.753  1.00  0.00    -0.170 N 
HETATM   35  C7  UNL     1      28.138 -10.257  51.086  1.00  0.00     0.692 A 
ATOM     36  H2  UNL     1      28.263  -8.228  51.313  1.00  0.00     0.186 HD
HETATM   37  N4  UNL     1      27.846 -11.452  51.601  1.00  0.00    -0.023 N 
HETATM   38  C8  UNL     1      27.410 -11.499  52.888  1.00  0.00     0.692 A 
ATOM     39  H4  UNL     1      27.948 -12.303  51.048  1.00  0.00     0.203 HD
HETATM   40  N6  UNL     1      27.298 -10.367  53.553  1.00  0.00    -0.170 N 
ATOM     41  H6  UNL     1      26.976 -10.428  54.519  1.00  0.00     0.186 HD
BRANCH  35  42
HETATM   42  N3  UNL     1      28.555 -10.258  49.840  1.00  0.00    -0.234 N 
ATOM     43  H32 UNL     1      29.090  -9.439  49.551  1.00  0.00     0.174 HD
ATOM     44  H31 UNL     1      28.343 -11.044  49.226  1.00  0.00     0.174 HD
ENDBRANCH  35  42
BRANCH  38  45
HETATM   45  N5  UNL     1      27.119 -12.663  53.374  1.00  0.00    -0.234 N 
ATOM     46  H52 UNL     1      27.768 -13.239  53.911  1.00  0.00     0.174 HD
ATOM     47  H51 UNL     1      26.175 -13.015  53.215  1.00  0.00     0.174 HD
ENDBRANCH  38  45
ENDBRANCH  32  33
ENDBRANCH  31  32
ENDBRANCH  29  31
ENDBRANCH  28  29
ENDBRANCH   2  28
TORSDOF 14
ENDMDL
MODEL 5
REMARK VINA RESULT: -7.822316123      2.575      5.434
REMARK  14 active torsions:
REMARK  status: ('A' for Active; 'I' for Inactive)
REMARK    1  A    between atoms: C2_2  and  O1_3 
REMARK    2  A    between atoms: C2_2  and  C3_5 
REMARK    3  A    between atoms: C3_5  and  C9_28 
REMARK    4  A    between atoms: N1_6  and  O2_8 
REMARK    5  A    between atoms: O2_8  and  C4_9 
REMARK    6  A    between atoms: C4_9  and  C5_11 
REMARK    7  A    between atoms: C5_11  and  S1_12 
REMARK    8  A    between atoms: S1_12  and  C6_13 
REMARK    9  A    between atoms: C7_16  and  N3_17 
REMARK   10  A    between atoms: C8_22  and  N5_23 
REMARK   11  A    between atoms: N8_32  and  C11_33 
REMARK   12  A    between atoms: C11_33  and  C12_34 
REMARK       I    between atoms: C12_34  and  N9_36 
REMARK   13  A    between atoms: N9_36  and  N10_37 
REMARK       I    between atoms: N10_37  and  C13_39 
REMARK   14  A    between atoms: C13_39  and  C14_41 
ROOT
HETATM    1  C3  UNL     1      27.671 -10.383  51.599  1.00  0.00     0.090 C 
HETATM    2  N1  UNL     1      27.932  -9.426  52.326  1.00  0.00    -0.257 N 
ATOM      3  H1  UNL     1      28.513  -8.725  51.867  1.00  0.00     0.195 HD
ENDROOT
BRANCH   1   4
HETATM    4  C2  UNL     1      26.858 -11.593  51.907  1.00  0.00     0.168 C 
HETATM    5  C1  UNL     1      25.394 -11.343  52.055  1.00  0.00     0.046 C 
BRANCH   4   6
HETATM    6  O1  UNL     1      27.373 -12.053  53.190  1.00  0.00    -0.390 OA
ATOM      7  H1  UNL     1      27.640 -12.960  53.095  1.00  0.00     0.210 HD
ENDBRANCH   4   6
ENDBRANCH   1   4
BRANCH   1   8
HETATM    8  C9  UNL     1      28.123 -10.245  50.167  1.00  0.00     0.093 A 
HETATM    9  C10 UNL     1      27.399 -10.606  49.029  1.00  0.00     0.142 A 
HETATM   10  N7  UNL     1      28.078 -10.046  48.002  1.00  0.00    -0.293 N 
HETATM   11  N8  UNL     1      29.175  -9.372  48.478  1.00  0.00    -0.224 N 
ATOM     12  H7  UNL     1      27.815 -10.115  47.019  1.00  0.00     0.187 HD
HETATM   13  N11 UNL     1      29.131  -9.547  49.745  1.00  0.00    -0.280 N 
ATOM     14  H11 UNL     1      29.837  -9.166  50.375  1.00  0.00     0.189 HD
BRANCH  11  15
HETATM   15  C11 UNL     1      30.039  -8.664  47.583  1.00  0.00     0.290 C 
BRANCH  15  16
HETATM   16  C12 UNL     1      30.031  -7.203  47.979  1.00  0.00     0.333 C 
HETATM   17  O4  UNL     1      29.544  -6.769  48.908  1.00  0.00    -0.253 OA
HETATM   18  N9  UNL     1      30.756  -6.471  46.935  1.00  0.00    -0.282 NA
BRANCH  18  19
HETATM   19  N10 UNL     1      31.347  -5.856  46.090  1.00  0.00    -0.195 N 
HETATM   20  C13 UNL     1      31.019  -5.587  44.695  1.00  0.00     0.287 C 
HETATM   21  O5  UNL     1      30.012  -6.062  44.201  1.00  0.00    -0.264 OA
ATOM     22  H10 UNL     1      32.230  -5.451  46.402  1.00  0.00     0.205 HD
BRANCH  20  23
HETATM   23  C14 UNL     1      31.908  -4.732  43.902  1.00  0.00     0.075 A 
HETATM   24  C15 UNL     1      33.238  -4.448  44.154  1.00  0.00     0.025 A 
HETATM   25  C16 UNL     1      33.866  -3.635  43.318  1.00  0.00     0.009 A 
HETATM   26  C17 UNL     1      33.159  -3.134  42.265  1.00  0.00     0.050 A 
HETATM   27  S2  UNL     1      31.625  -3.839  42.508  1.00  0.00    -0.097 SA
ENDBRANCH  20  23
ENDBRANCH  18  19
ENDBRANCH  15  16
ENDBRANCH  11  15
ENDBRANCH   1   8
BRANCH   2  28
HETATM   28  O2  UNL     1      27.622  -9.101  53.585  1.00  0.00    -0.199 OA
BRANCH  28  29
HETATM   29  C4  UNL     1      27.407  -7.733  53.889  1.00  0.00     0.290 C 
HETATM   30  O3  UNL     1      26.573  -7.411  54.648  1.00  0.00    -0.262 OA
BRANCH  29  31
HETATM   31  C5  UNL     1      28.378  -6.811  53.137  1.00  0.00     0.195 C 
BRANCH  31  32
HETATM   32  S1  UNL     1      27.906  -5.143  53.137  1.00  0.00    -0.083 SA
BRANCH  32  33
HETATM   33  C6  UNL     1      28.782  -4.020  52.138  1.00  0.00     0.174 A 
HETATM   34  N2  UNL     1      28.925  -2.668  52.520  1.00  0.00    -0.170 N 
HETATM   35  C7  UNL     1      29.483  -1.826  51.660  1.00  0.00     0.692 A 
ATOM     36  H2  UNL     1      28.608  -2.347  53.435  1.00  0.00     0.186 HD
HETATM   37  N4  UNL     1      29.922  -2.180  50.452  1.00  0.00    -0.023 N 
HETATM   38  C8  UNL     1      29.791  -3.482  50.085  1.00  0.00     0.692 A 
ATOM     39  H4  UNL     1      30.342  -1.495  49.824  1.00  0.00     0.203 HD
HETATM   40  N6  UNL     1      29.239  -4.321  50.939  1.00  0.00    -0.170 N 
ATOM     41  H6  UNL     1      29.158  -5.294  50.645  1.00  0.00     0.186 HD
BRANCH  35  42
HETATM   42  N3  UNL     1      29.629  -0.559  51.974  1.00  0.00    -0.234 N 
ATOM     43  H32 UNL     1      28.883   0.064  51.663  1.00  0.00     0.174 HD
ATOM     44  H31 UNL     1      30.447  -0.249  52.498  1.00  0.00     0.174 HD
ENDBRANCH  35  42
BRANCH  38  45
HETATM   45  N5  UNL     1      30.210  -3.813  48.906  1.00  0.00    -0.234 N 
ATOM     46  H52 UNL     1      31.021  -3.397  48.447  1.00  0.00     0.174 HD
ATOM     47  H51 UNL     1      29.696  -4.544  48.414  1.00  0.00     0.174 HD
ENDBRANCH  38  45
ENDBRANCH  32  33
ENDBRANCH  31  32
ENDBRANCH  29  31
ENDBRANCH  28  29
ENDBRANCH   2  28
TORSDOF 14
ENDMDL
