MODEL 1
REMARK VINA RESULT: -8.654618271      0.000      0.000
REMARK  12 active torsions:
REMARK  status: ('A' for Active; 'I' for Inactive)
REMARK    1  A    between atoms: C2_4  and  N2_5 
REMARK    2  A    between atoms: C2_4  and  C16_33 
REMARK    3  A    between atoms: N2_5  and  N3_7 
REMARK    4  A    between atoms: N3_7  and  C3_9 
REMARK    5  A    between atoms: C6_12  and  S1_13 
REMARK    6  A    between atoms: S1_13  and  N4_15 
REMARK    7  A    between atoms: N4_15  and  N5_17 
REMARK       I    between atoms: N5_17  and  C7_19 
REMARK    8  A    between atoms: C7_19  and  C8_21 
REMARK    9  A    between atoms: C16_33  and  C17_38 
REMARK   10  A    between atoms: N9_34  and  O4_36 
REMARK   11  A    between atoms: N10_40  and  O5_42 
REMARK   12  A    between atoms: O5_42  and  C19_43 
ROOT
HETATM    1  C3  UNL     1      28.789  -9.581  48.898  1.00  0.00     0.048 A 
HETATM    2  C4  UNL     1      30.143  -9.511  48.803  1.00  0.00     0.032 A 
HETATM    3  C5  UNL     1      30.724  -8.575  47.936  1.00  0.00     0.025 A 
HETATM    4  C6  UNL     1      29.937  -7.738  47.188  1.00  0.00     0.053 A 
HETATM    5  C14 UNL     1      28.552  -7.841  47.312  1.00  0.00     0.025 A 
HETATM    6  C15 UNL     1      27.964  -8.753  48.156  1.00  0.00     0.032 A 
ENDROOT
BRANCH   1   7
HETATM    7  N3  UNL     1      28.110 -10.510  49.770  1.00  0.00    -0.299 N 
ATOM      8  H3  UNL     1      28.390 -11.490  49.823  1.00  0.00     0.187 HD
BRANCH   7   9
HETATM    9  N2  UNL     1      27.056 -10.015  50.536  1.00  0.00    -0.283 N 
ATOM     10  H2  UNL     1      26.718  -9.076  50.322  1.00  0.00     0.188 HD
BRANCH   9  11
HETATM   11  C2  UNL     1      26.411 -10.729  51.604  1.00  0.00     0.146 C 
HETATM   12  N1  UNL     1      25.462 -11.528  51.331  1.00  0.00    -0.378 N 
HETATM   13  C1  UNL     1      24.946 -11.804  50.026  1.00  0.00     0.148 C 
ATOM     14  H1  UNL     1      25.029 -12.017  52.113  1.00  0.00     0.160 HD
BRANCH  11  15
HETATM   15  C16 UNL     1      26.885 -10.456  52.964  1.00  0.00     0.123 C 
HETATM   16  N9  UNL     1      27.285  -9.258  53.163  1.00  0.00    -0.264 N 
ATOM     17  H9  UNL     1      27.221  -8.646  52.350  1.00  0.00     0.194 HD
BRANCH  16  18
HETATM   18  O4  UNL     1      27.772  -8.678  54.262  1.00  0.00    -0.289 OA
ATOM     19  H4  UNL     1      28.646  -8.698  54.635  1.00  0.00     0.244 HD
ENDBRANCH  16  18
BRANCH  15  20
HETATM   20  C17 UNL     1      26.877 -11.502  54.015  1.00  0.00     0.061 C 
HETATM   21  C18 UNL     1      27.567 -12.793  53.597  1.00  0.00     0.073 C 
HETATM   22  N10 UNL     1      26.415 -11.471  55.133  1.00  0.00    -0.260 N 
ATOM     23  H10 UNL     1      26.638 -12.400  55.491  1.00  0.00     0.194 HD
BRANCH  22  24
HETATM   24  O5  UNL     1      25.803 -10.929  56.124  1.00  0.00    -0.200 OA
BRANCH  24  25
HETATM   25  C19 UNL     1      24.805  -9.970  55.961  1.00  0.00     0.277 C 
HETATM   26  C20 UNL     1      23.368 -10.271  56.159  1.00  0.00     0.128 C 
HETATM   27  O6  UNL     1      25.166  -8.817  55.633  1.00  0.00    -0.264 OA
ENDBRANCH  24  25
ENDBRANCH  22  24
ENDBRANCH  15  20
ENDBRANCH  11  15
ENDBRANCH   9  11
ENDBRANCH   7   9
ENDBRANCH   1   7
BRANCH   4  28
HETATM   28  S1  UNL     1      30.539  -6.512  46.089  1.00  0.00     0.165 S 
HETATM   29  O1  UNL     1      29.514  -5.971  45.172  1.00  0.00    -0.229 OA
BRANCH  28  30
HETATM   30  N4  UNL     1      31.099  -5.349  46.959  1.00  0.00    -0.242 N 
ATOM     31  H4  UNL     1      31.736  -4.668  46.546  1.00  0.00     0.198 HD
BRANCH  30  32
HETATM   32  N5  UNL     1      30.735  -5.233  48.298  1.00  0.00    -0.258 N 
HETATM   33  C7  UNL     1      29.785  -4.340  48.762  1.00  0.00     0.278 C 
HETATM   34  O2  UNL     1      29.230  -3.610  47.848  1.00  0.00    -0.266 OA
ATOM     35  H5  UNL     1      31.195  -5.842  48.976  1.00  0.00     0.191 HD
BRANCH  33  36
HETATM   36  C8  UNL     1      29.341  -4.119  50.114  1.00  0.00     0.126 A 
HETATM   37  C9  UNL     1      29.777  -2.958  50.789  1.00  0.00     0.070 A 
HETATM   38  N6  UNL     1      30.618  -2.041  50.064  1.00  0.00    -0.101 NA
HETATM   39  C10 UNL     1      29.412  -2.705  52.084  1.00  0.00     0.073 A 
HETATM   40  C11 UNL     1      28.612  -3.602  52.725  1.00  0.00     0.122 A 
HETATM   41  N7  UNL     1      28.243  -3.333  54.055  1.00  0.00    -0.082 NA
HETATM   42  N8  UNL     1      28.172  -4.717  52.130  1.00  0.00    -0.306 N 
HETATM   43  C12 UNL     1      27.326  -5.684  52.813  1.00  0.00     0.161 C 
HETATM   44  C13 UNL     1      28.535  -4.968  50.839  1.00  0.00     0.266 A 
HETATM   45  O3  UNL     1      28.106  -6.031  50.294  1.00  0.00    -0.267 OA
ENDBRANCH  33  36
ENDBRANCH  30  32
ENDBRANCH  28  30
ENDBRANCH   4  28
TORSDOF 12
ENDMDL
MODEL 2
REMARK VINA RESULT: -8.532252036      1.864      2.629
REMARK  12 active torsions:
REMARK  status: ('A' for Active; 'I' for Inactive)
REMARK    1  A    between atoms: C2_4  and  N2_5 
REMARK    2  A    between atoms: C2_4  and  C16_33 
REMARK    3  A    between atoms: N2_5  and  N3_7 
REMARK    4  A    between atoms: N3_7  and  C3_9 
REMARK    5  A    between atoms: C6_12  and  S1_13 
REMARK    6  A    between atoms: S1_13  and  N4_15 
REMARK    7  A    between atoms: N4_15  and  N5_17 
REMARK       I    between atoms: N5_17  and  C7_19 
REMARK    8  A    between atoms: C7_19  and  C8_21 
REMARK    9  A    between atoms: C16_33  and  C17_38 
REMARK   10  A    between atoms: N9_34  and  O4_36 
REMARK   11  A    between atoms: N10_40  and  O5_42 
REMARK   12  A    between atoms: O5_42  and  C19_43 
ROOT
HETATM    1  C3  UNL     1      28.910  -9.696  48.388  1.00  0.00     0.048 A 
HETATM    2  C4  UNL     1      28.039  -8.824  47.815  1.00  0.00     0.032 A 
HETATM    3  C5  UNL     1      28.535  -7.762  47.046  1.00  0.00     0.025 A 
HETATM    4  C6  UNL     1      29.885  -7.600  46.873  1.00  0.00     0.053 A 
HETATM    5  C14 UNL     1      30.747  -8.514  47.477  1.00  0.00     0.025 A 
HETATM    6  C15 UNL     1      30.280  -9.561  48.235  1.00  0.00     0.032 A 
ENDROOT
BRANCH   1   7
HETATM    7  N3  UNL     1      28.486 -10.819  49.190  1.00  0.00    -0.299 N 
ATOM      8  H3  UNL     1      28.629 -10.835  50.199  1.00  0.00     0.187 HD
BRANCH   7   9
HETATM    9  N2  UNL     1      27.871 -11.880  48.528  1.00  0.00    -0.283 N 
ATOM     10  H2  UNL     1      28.451 -12.457  47.918  1.00  0.00     0.188 HD
BRANCH   9  11
HETATM   11  C2  UNL     1      26.478 -12.222  48.641  1.00  0.00     0.146 C 
HETATM   12  N1  UNL     1      25.810 -12.456  47.587  1.00  0.00    -0.378 N 
HETATM   13  C1  UNL     1      26.311 -12.414  46.248  1.00  0.00     0.148 C 
ATOM     14  H1  UNL     1      24.826 -12.695  47.706  1.00  0.00     0.160 HD
BRANCH  11  15
HETATM   15  C16 UNL     1      25.910 -12.247  49.993  1.00  0.00     0.123 C 
HETATM   16  N9  UNL     1      24.774 -11.673  50.108  1.00  0.00    -0.264 N 
ATOM     17  H9  UNL     1      24.408 -11.273  49.244  1.00  0.00     0.194 HD
BRANCH  16  18
HETATM   18  O4  UNL     1      23.988 -11.512  51.175  1.00  0.00    -0.289 OA
ATOM     19  H4  UNL     1      23.048 -11.611  51.270  1.00  0.00     0.244 HD
ENDBRANCH  16  18
BRANCH  15  20
HETATM   20  C17 UNL     1      26.612 -12.907  51.119  1.00  0.00     0.061 C 
HETATM   21  C18 UNL     1      26.290 -14.389  51.256  1.00  0.00     0.073 C 
HETATM   22  N10 UNL     1      27.392 -12.445  51.922  1.00  0.00    -0.260 N 
ATOM     23  H10 UNL     1      27.614 -13.252  52.504  1.00  0.00     0.194 HD
BRANCH  22  24
HETATM   24  O5  UNL     1      28.097 -11.512  52.454  1.00  0.00    -0.200 OA
BRANCH  24  25
HETATM   25  C19 UNL     1      27.615 -10.219  52.646  1.00  0.00     0.277 C 
HETATM   26  C20 UNL     1      27.329  -9.665  53.990  1.00  0.00     0.128 C 
HETATM   27  O6  UNL     1      27.425  -9.521  51.625  1.00  0.00    -0.264 OA
ENDBRANCH  24  25
ENDBRANCH  22  24
ENDBRANCH  15  20
ENDBRANCH  11  15
ENDBRANCH   9  11
ENDBRANCH   7   9
ENDBRANCH   1   7
BRANCH   4  28
HETATM   28  S1  UNL     1      30.628  -6.332  45.918  1.00  0.00     0.165 S 
HETATM   29  O1  UNL     1      29.719  -5.711  44.931  1.00  0.00    -0.229 OA
BRANCH  28  30
HETATM   30  N4  UNL     1      31.117  -5.236  46.909  1.00  0.00    -0.242 N 
ATOM     31  H4  UNL     1      31.747  -4.503  46.585  1.00  0.00     0.198 HD
BRANCH  30  32
HETATM   32  N5  UNL     1      30.697  -5.250  48.237  1.00  0.00    -0.258 N 
HETATM   33  C7  UNL     1      29.789  -4.350  48.766  1.00  0.00     0.278 C 
HETATM   34  O2  UNL     1      29.330  -3.479  47.925  1.00  0.00    -0.266 OA
ATOM     35  H5  UNL     1      31.081  -5.966  48.855  1.00  0.00     0.191 HD
BRANCH  33  36
HETATM   36  C8  UNL     1      29.296  -4.256  50.117  1.00  0.00     0.126 A 
HETATM   37  C9  UNL     1      29.638  -3.122  50.885  1.00  0.00     0.070 A 
HETATM   38  N6  UNL     1      30.438  -2.105  50.254  1.00  0.00    -0.101 NA
HETATM   39  C10 UNL     1      29.224  -2.988  52.183  1.00  0.00     0.073 A 
HETATM   40  C11 UNL     1      28.467  -3.977  52.734  1.00  0.00     0.122 A 
HETATM   41  N7  UNL     1      28.047  -3.829  54.068  1.00  0.00    -0.082 NA
HETATM   42  N8  UNL     1      28.115  -5.072  52.047  1.00  0.00    -0.306 N 
HETATM   43  C12 UNL     1      27.315  -6.136  52.633  1.00  0.00     0.161 C 
HETATM   44  C13 UNL     1      28.527  -5.204  50.754  1.00  0.00     0.266 A 
HETATM   45  O3  UNL     1      28.182  -6.249  50.122  1.00  0.00    -0.267 OA
ENDBRANCH  33  36
ENDBRANCH  30  32
ENDBRANCH  28  30
ENDBRANCH   4  28
TORSDOF 12
ENDMDL
MODEL 3
REMARK VINA RESULT: -8.450566855      3.162      9.941
REMARK  12 active torsions:
REMARK  status: ('A' for Active; 'I' for Inactive)
REMARK    1  A    between atoms: C2_4  and  N2_5 
REMARK    2  A    between atoms: C2_4  and  C16_33 
REMARK    3  A    between atoms: N2_5  and  N3_7 
REMARK    4  A    between atoms: N3_7  and  C3_9 
REMARK    5  A    between atoms: C6_12  and  S1_13 
REMARK    6  A    between atoms: S1_13  and  N4_15 
REMARK    7  A    between atoms: N4_15  and  N5_17 
REMARK       I    between atoms: N5_17  and  C7_19 
REMARK    8  A    between atoms: C7_19  and  C8_21 
REMARK    9  A    between atoms: C16_33  and  C17_38 
REMARK   10  A    between atoms: N9_34  and  O4_36 
REMARK   11  A    between atoms: N10_40  and  O5_42 
REMARK   12  A    between atoms: O5_42  and  C19_43 
ROOT
HETATM    1  C3  UNL     1      28.680  -6.698  52.123  1.00  0.00     0.048 A 
HETATM    2  C4  UNL     1      28.589  -7.702  51.211  1.00  0.00     0.032 A 
HETATM    3  C5  UNL     1      28.052  -8.938  51.598  1.00  0.00     0.025 A 
HETATM    4  C6  UNL     1      27.624  -9.136  52.885  1.00  0.00     0.053 A 
HETATM    5  C14 UNL     1      27.736  -8.084  53.793  1.00  0.00     0.025 A 
HETATM    6  C15 UNL     1      28.259  -6.866  53.432  1.00  0.00     0.032 A 
ENDROOT
BRANCH   1   7
HETATM    7  N3  UNL     1      29.213  -5.395  51.807  1.00  0.00    -0.299 N 
ATOM      8  H3  UNL     1      30.091  -5.068  52.212  1.00  0.00     0.187 HD
BRANCH   7   9
HETATM    9  N2  UNL     1      28.481  -4.601  50.926  1.00  0.00    -0.283 N 
ATOM     10  H2  UNL     1      27.484  -4.484  51.112  1.00  0.00     0.188 HD
BRANCH   9  11
HETATM   11  C2  UNL     1      29.027  -3.934  49.775  1.00  0.00     0.146 C 
HETATM   12  N1  UNL     1      29.524  -2.773  49.909  1.00  0.00    -0.378 N 
HETATM   13  C1  UNL     1      29.603  -2.028  51.128  1.00  0.00     0.148 C 
ATOM     14  H1  UNL     1      29.902  -2.331  49.072  1.00  0.00     0.160 HD
BRANCH  11  15
HETATM   15  C16 UNL     1      28.941  -4.644  48.495  1.00  0.00     0.123 C 
HETATM   16  N9  UNL     1      27.819  -4.531  47.892  1.00  0.00    -0.264 N 
ATOM     17  H9  UNL     1      27.129  -3.958  48.379  1.00  0.00     0.194 HD
BRANCH  16  18
HETATM   18  O4  UNL     1      27.404  -5.039  46.729  1.00  0.00    -0.289 OA
ATOM     19  H4  UNL     1      27.380  -5.937  46.422  1.00  0.00     0.244 HD
ENDBRANCH  16  18
BRANCH  15  20
HETATM   20  C17 UNL     1      30.085  -5.416  47.956  1.00  0.00     0.061 C 
HETATM   21  C18 UNL     1      30.163  -6.843  48.483  1.00  0.00     0.073 C 
HETATM   22  N10 UNL     1      30.943  -5.081  47.170  1.00  0.00    -0.260 N 
ATOM     23  H10 UNL     1      31.515  -5.922  47.094  1.00  0.00     0.194 HD
BRANCH  22  24
HETATM   24  O5  UNL     1      31.540  -4.264  46.378  1.00  0.00    -0.200 OA
BRANCH  24  25
HETATM   25  C19 UNL     1      32.244  -4.684  45.251  1.00  0.00     0.277 C 
HETATM   26  C20 UNL     1      31.573  -5.080  43.991  1.00  0.00     0.128 C 
HETATM   27  O6  UNL     1      33.492  -4.721  45.336  1.00  0.00    -0.264 OA
ENDBRANCH  24  25
ENDBRANCH  22  24
ENDBRANCH  15  20
ENDBRANCH  11  15
ENDBRANCH   9  11
ENDBRANCH   7   9
ENDBRANCH   1   7
BRANCH   4  28
HETATM   28  S1  UNL     1      26.915 -10.622  53.487  1.00  0.00     0.165 S 
HETATM   29  O1  UNL     1      27.546 -11.848  52.954  1.00  0.00    -0.229 OA
BRANCH  28  30
HETATM   30  N4  UNL     1      27.069 -10.611  55.036  1.00  0.00    -0.242 N 
ATOM     31  H4  UNL     1      27.956 -10.331  55.456  1.00  0.00     0.198 HD
BRANCH  30  32
HETATM   32  N5  UNL     1      26.004 -10.982  55.851  1.00  0.00    -0.258 N 
HETATM   33  C7  UNL     1      24.981 -10.124  56.218  1.00  0.00     0.278 C 
HETATM   34  O2  UNL     1      25.070  -8.928  55.730  1.00  0.00    -0.266 OA
ATOM     35  H5  UNL     1      25.975 -11.941  56.199  1.00  0.00     0.191 HD
BRANCH  33  36
HETATM   36  C8  UNL     1      23.844 -10.386  57.063  1.00  0.00     0.126 A 
HETATM   37  C9  UNL     1      24.025 -10.375  58.463  1.00  0.00     0.070 A 
HETATM   38  N6  UNL     1      25.339 -10.065  58.964  1.00  0.00    -0.101 NA
HETATM   39  C10 UNL     1      22.991 -10.644  59.318  1.00  0.00     0.073 A 
HETATM   40  C11 UNL     1      21.766 -10.928  58.795  1.00  0.00     0.122 A 
HETATM   41  N7  UNL     1      20.710 -11.203  59.683  1.00  0.00    -0.082 NA
HETATM   42  N8  UNL     1      21.542 -10.951  57.475  1.00  0.00    -0.306 N 
HETATM   43  C12 UNL     1      20.239 -11.265  56.910  1.00  0.00     0.161 C 
HETATM   44  C13 UNL     1      22.573 -10.683  56.624  1.00  0.00     0.266 A 
HETATM   45  O3  UNL     1      22.340 -10.709  55.377  1.00  0.00    -0.267 OA
ENDBRANCH  33  36
ENDBRANCH  30  32
ENDBRANCH  28  30
ENDBRANCH   4  28
TORSDOF 12
ENDMDL
MODEL 4
REMARK VINA RESULT: -8.443590281      3.727      5.786
REMARK  12 active torsions:
REMARK  status: ('A' for Active; 'I' for Inactive)
REMARK    1  A    between atoms: C2_4  and  N2_5 
REMARK    2  A    between atoms: C2_4  and  C16_33 
REMARK    3  A    between atoms: N2_5  and  N3_7 
REMARK    4  A    between atoms: N3_7  and  C3_9 
REMARK    5  A    between atoms: C6_12  and  S1_13 
REMARK    6  A    between atoms: S1_13  and  N4_15 
REMARK    7  A    between atoms: N4_15  and  N5_17 
REMARK       I    between atoms: N5_17  and  C7_19 
REMARK    8  A    between atoms: C7_19  and  C8_21 
REMARK    9  A    between atoms: C16_33  and  C17_38 
REMARK   10  A    between atoms: N9_34  and  O4_36 
REMARK   11  A    between atoms: N10_40  and  O5_42 
REMARK   12  A    between atoms: O5_42  and  C19_43 
ROOT
HETATM    1  C3  UNL     1      28.127  -8.779  51.239  1.00  0.00     0.048 A 
HETATM    2  C4  UNL     1      29.014  -7.756  51.121  1.00  0.00     0.032 A 
HETATM    3  C5  UNL     1      29.352  -7.282  49.845  1.00  0.00     0.025 A 
HETATM    4  C6  UNL     1      28.797  -7.845  48.726  1.00  0.00     0.053 A 
HETATM    5  C14 UNL     1      27.893  -8.893  48.887  1.00  0.00     0.025 A 
HETATM    6  C15 UNL     1      27.549  -9.371  50.129  1.00  0.00     0.032 A 
ENDROOT
BRANCH   1   7
HETATM    7  N3  UNL     1      27.719  -9.322  52.513  1.00  0.00    -0.299 N 
ATOM      8  H3  UNL     1      28.239  -9.121  53.367  1.00  0.00     0.187 HD
BRANCH   7   9
HETATM    9  N2  UNL     1      26.585 -10.133  52.528  1.00  0.00    -0.283 N 
ATOM     10  H2  UNL     1      26.059 -10.225  51.659  1.00  0.00     0.188 HD
BRANCH   9  11
HETATM   11  C2  UNL     1      26.104 -10.849  53.679  1.00  0.00     0.146 C 
HETATM   12  N1  UNL     1      26.554 -12.012  53.917  1.00  0.00    -0.378 N 
HETATM   13  C1  UNL     1      27.525 -12.714  53.136  1.00  0.00     0.148 C 
ATOM     14  H1  UNL     1      26.190 -12.489  54.741  1.00  0.00     0.160 HD
BRANCH  11  15
HETATM   15  C16 UNL     1      25.084 -10.183  54.494  1.00  0.00     0.123 C 
HETATM   16  N9  UNL     1      25.526  -9.256  55.255  1.00  0.00    -0.264 N 
ATOM     17  H9  UNL     1      26.532  -9.097  55.196  1.00  0.00     0.194 HD
BRANCH  16  18
HETATM   18  O4  UNL     1      24.886  -8.460  56.116  1.00  0.00    -0.289 OA
ATOM     19  H4  UNL     1      23.957  -8.359  56.289  1.00  0.00     0.244 HD
ENDBRANCH  16  18
BRANCH  15  20
HETATM   20  C17 UNL     1      23.654 -10.563  54.413  1.00  0.00     0.061 C 
HETATM   21  C18 UNL     1      23.233 -11.072  53.041  1.00  0.00     0.073 C 
HETATM   22  N10 UNL     1      22.795 -10.533  55.267  1.00  0.00    -0.260 N 
ATOM     23  H10 UNL     1      21.975 -10.879  54.769  1.00  0.00     0.194 HD
BRANCH  22  24
HETATM   24  O5  UNL     1      22.335 -10.310  56.445  1.00  0.00    -0.200 OA
BRANCH  24  25
HETATM   25  C19 UNL     1      21.209 -10.958  56.949  1.00  0.00     0.277 C 
HETATM   26  C20 UNL     1      20.779 -10.831  58.361  1.00  0.00     0.128 C 
HETATM   27  O6  UNL     1      20.553 -11.670  56.155  1.00  0.00    -0.264 OA
ENDBRANCH  24  25
ENDBRANCH  22  24
ENDBRANCH  15  20
ENDBRANCH  11  15
ENDBRANCH   9  11
ENDBRANCH   7   9
ENDBRANCH   1   7
BRANCH   4  28
HETATM   28  S1  UNL     1      29.118  -7.330  47.081  1.00  0.00     0.165 S 
HETATM   29  O1  UNL     1      28.269  -6.209  46.625  1.00  0.00    -0.229 OA
BRANCH  28  30
HETATM   30  N4  UNL     1      30.609  -6.887  47.021  1.00  0.00    -0.242 N 
ATOM     31  H4  UNL     1      31.199  -6.977  47.848  1.00  0.00     0.198 HD
BRANCH  30  32
HETATM   32  N5  UNL     1      31.142  -6.368  45.844  1.00  0.00    -0.258 N 
HETATM   33  C7  UNL     1      31.524  -5.046  45.690  1.00  0.00     0.278 C 
HETATM   34  O2  UNL     1      31.365  -4.306  46.740  1.00  0.00    -0.266 OA
ATOM     35  H5  UNL     1      31.258  -6.998  45.050  1.00  0.00     0.191 HD
BRANCH  33  36
HETATM   36  C8  UNL     1      32.067  -4.395  44.525  1.00  0.00     0.126 A 
HETATM   37  C9  UNL     1      31.207  -4.121  43.440  1.00  0.00     0.070 A 
HETATM   38  N6  UNL     1      29.820  -4.483  43.580  1.00  0.00    -0.101 NA
HETATM   39  C10 UNL     1      31.669  -3.531  42.295  1.00  0.00     0.073 A 
HETATM   40  C11 UNL     1      32.989  -3.205  42.212  1.00  0.00     0.122 A 
HETATM   41  N7  UNL     1      33.453  -2.598  41.032  1.00  0.00    -0.082 NA
HETATM   42  N8  UNL     1      33.845  -3.443  43.214  1.00  0.00    -0.306 N 
HETATM   43  C12 UNL     1      35.258  -3.108  43.128  1.00  0.00     0.161 C 
HETATM   44  C13 UNL     1      33.384  -4.032  44.354  1.00  0.00     0.266 A 
HETATM   45  O3  UNL     1      34.213  -4.248  45.291  1.00  0.00    -0.267 OA
ENDBRANCH  33  36
ENDBRANCH  30  32
ENDBRANCH  28  30
ENDBRANCH   4  28
TORSDOF 12
ENDMDL
MODEL 5
REMARK VINA RESULT: -8.441559168      3.168      8.682
REMARK  12 active torsions:
REMARK  status: ('A' for Active; 'I' for Inactive)
REMARK    1  A    between atoms: C2_4  and  N2_5 
REMARK    2  A    between atoms: C2_4  and  C16_33 
REMARK    3  A    between atoms: N2_5  and  N3_7 
REMARK    4  A    between atoms: N3_7  and  C3_9 
REMARK    5  A    between atoms: C6_12  and  S1_13 
REMARK    6  A    between atoms: S1_13  and  N4_15 
REMARK    7  A    between atoms: N4_15  and  N5_17 
REMARK       I    between atoms: N5_17  and  C7_19 
REMARK    8  A    between atoms: C7_19  and  C8_21 
REMARK    9  A    between atoms: C16_33  and  C17_38 
REMARK   10  A    between atoms: N9_34  and  O4_36 
REMARK   11  A    between atoms: N10_40  and  O5_42 
REMARK   12  A    between atoms: O5_42  and  C19_43 
ROOT
HETATM    1  C3  UNL     1      29.115  -8.285  46.729  1.00  0.00     0.048 A 
HETATM    2  C4  UNL     1      29.871  -9.351  47.102  1.00  0.00     0.032 A 
HETATM    3  C5  UNL     1      29.334 -10.301  47.983  1.00  0.00     0.025 A 
HETATM    4  C6  UNL     1      28.060 -10.156  48.467  1.00  0.00     0.053 A 
HETATM    5  C14 UNL     1      27.316  -9.048  48.064  1.00  0.00     0.025 A 
HETATM    6  C15 UNL     1      27.825  -8.107  47.201  1.00  0.00     0.032 A 
ENDROOT
BRANCH   1   7
HETATM    7  N3  UNL     1      29.586  -7.265  45.822  1.00  0.00    -0.299 N 
ATOM      8  H3  UNL     1      28.957  -6.811  45.161  1.00  0.00     0.187 HD
BRANCH   7   9
HETATM    9  N2  UNL     1      30.937  -6.927  45.888  1.00  0.00    -0.283 N 
ATOM     10  H2  UNL     1      31.608  -7.684  46.022  1.00  0.00     0.188 HD
BRANCH   9  11
HETATM   11  C2  UNL     1      31.454  -5.589  45.780  1.00  0.00     0.146 C 
HETATM   12  N1  UNL     1      31.401  -4.821  46.790  1.00  0.00    -0.378 N 
HETATM   13  C1  UNL     1      30.862  -5.156  48.073  1.00  0.00     0.148 C 
ATOM     14  H1  UNL     1      31.776  -3.880  46.677  1.00  0.00     0.160 HD
BRANCH  11  15
HETATM   15  C16 UNL     1      31.988  -5.188  44.475  1.00  0.00     0.123 C 
HETATM   16  N9  UNL     1      33.260  -5.067  44.430  1.00  0.00    -0.264 N 
ATOM     17  H9  UNL     1      33.740  -5.267  45.308  1.00  0.00     0.194 HD
BRANCH  16  18
HETATM   18  O4  UNL     1      34.064  -4.722  43.421  1.00  0.00    -0.289 OA
ATOM     19  H4  UNL     1      33.896  -4.673  42.487  1.00  0.00     0.244 HD
ENDBRANCH  16  18
BRANCH  15  20
HETATM   20  C17 UNL     1      31.103  -4.961  43.309  1.00  0.00     0.061 C 
HETATM   21  C18 UNL     1      30.460  -3.580  43.289  1.00  0.00     0.073 C 
HETATM   22  N10 UNL     1      30.830  -5.699  42.388  1.00  0.00    -0.260 N 
ATOM     23  H10 UNL     1      30.192  -5.132  41.831  1.00  0.00     0.194 HD
BRANCH  22  24
HETATM   24  O5  UNL     1      30.892  -6.793  41.718  1.00  0.00    -0.200 OA
BRANCH  24  25
HETATM   25  C19 UNL     1      30.070  -7.887  41.982  1.00  0.00     0.277 C 
HETATM   26  C20 UNL     1      29.467  -8.711  40.909  1.00  0.00     0.128 C 
HETATM   27  O6  UNL     1      29.849  -8.160  43.184  1.00  0.00    -0.264 OA
ENDBRANCH  24  25
ENDBRANCH  22  24
ENDBRANCH  15  20
ENDBRANCH  11  15
ENDBRANCH   9  11
ENDBRANCH   7   9
ENDBRANCH   1   7
BRANCH   4  28
HETATM   28  S1  UNL     1      27.268 -11.282  49.553  1.00  0.00     0.165 S 
HETATM   29  O1  UNL     1      27.480 -12.703  49.205  1.00  0.00    -0.229 OA
BRANCH  28  30
HETATM   30  N4  UNL     1      27.836 -11.024  50.979  1.00  0.00    -0.242 N 
ATOM     31  H4  UNL     1      27.954 -11.802  51.627  1.00  0.00     0.198 HD
BRANCH  30  32
HETATM   32  N5  UNL     1      28.185  -9.735  51.374  1.00  0.00    -0.258 N 
HETATM   33  C7  UNL     1      27.331  -8.880  52.049  1.00  0.00     0.278 C 
HETATM   34  O2  UNL     1      26.162  -9.371  52.311  1.00  0.00    -0.266 OA
ATOM     35  H5  UNL     1      29.124  -9.402  51.154  1.00  0.00     0.191 HD
BRANCH  33  36
HETATM   36  C8  UNL     1      27.572  -7.530  52.492  1.00  0.00     0.126 A 
HETATM   37  C9  UNL     1      27.174  -7.164  53.795  1.00  0.00     0.070 A 
HETATM   38  N6  UNL     1      26.577  -8.181  54.621  1.00  0.00    -0.101 NA
HETATM   39  C10 UNL     1      27.350  -5.890  54.264  1.00  0.00     0.073 A 
HETATM   40  C11 UNL     1      27.922  -4.965  53.444  1.00  0.00     0.122 A 
HETATM   41  N7  UNL     1      28.098  -3.658  53.935  1.00  0.00    -0.082 NA
HETATM   42  N8  UNL     1      28.317  -5.262  52.200  1.00  0.00    -0.306 N 
HETATM   43  C12 UNL     1      28.919  -4.276  51.316  1.00  0.00     0.161 C 
HETATM   44  C13 UNL     1      28.142  -6.531  51.734  1.00  0.00     0.266 A 
HETATM   45  O3  UNL     1      28.524  -6.792  50.552  1.00  0.00    -0.267 OA
ENDBRANCH  33  36
ENDBRANCH  30  32
ENDBRANCH  28  30
ENDBRANCH   4  28
TORSDOF 12
ENDMDL
