MODEL 1
REMARK VINA RESULT: -10.172949745      0.000      0.000
REMARK  13 active torsions:
REMARK  status: ('A' for Active; 'I' for Inactive)
REMARK    1  A    between atoms: O1_2  and  C2_3 
REMARK    2  A    between atoms: C3_4  and  O2_5 
REMARK    3  A    between atoms: C7_10  and  C8_11 
REMARK    4  A    between atoms: C8_11  and  O4_13 
REMARK    5  A    between atoms: O4_13  and  C9_14 
REMARK    6  A    between atoms: C9_14  and  C10_15 
REMARK    7  A    between atoms: C10_15  and  N1_16 
REMARK    8  A    between atoms: C12_18  and  C13_19 
REMARK    9  A    between atoms: C13_19  and  N2_21 
REMARK   10  A    between atoms: N2_21  and  N3_22 
REMARK       I    between atoms: N3_22  and  C15_24 
REMARK   11  A    between atoms: C15_24  and  C16_26 
REMARK   12  A    between atoms: C17_27  and  O6_28 
REMARK   13  A    between atoms: N6_40  and  O10_41 
ROOT
HETATM    1  N1  UNL     1      29.035  -5.135  51.907  1.00  0.00    -0.305 N 
HETATM    2  C11 UNL     1      29.503  -5.662  50.781  1.00  0.00     0.116 A 
HETATM    3  C12 UNL     1      30.012  -4.906  49.704  1.00  0.00     0.088 A 
HETATM    4  C20 UNL     1      30.019  -3.546  49.855  1.00  0.00     0.290 A 
HETATM    5  O9  UNL     1      30.445  -2.778  48.967  1.00  0.00    -0.265 OA
HETATM    6  N6  UNL     1      29.535  -3.039  51.027  1.00  0.00    -0.133 N 
HETATM    7  C21 UNL     1      29.057  -3.780  52.026  1.00  0.00     0.355 A 
HETATM    8  O11 UNL     1      28.626  -3.210  53.081  1.00  0.00    -0.244 OA
ENDROOT
BRANCH   3   9
HETATM    9  C13 UNL     1      30.370  -5.586  48.472  1.00  0.00     0.122 C 
HETATM   10  C14 UNL     1      30.146  -7.101  48.483  1.00  0.00     0.088 C 
BRANCH   9  11
HETATM   11  N2  UNL     1      30.804  -5.115  47.449  1.00  0.00    -0.327 NA
BRANCH  11  12
HETATM   12  N3  UNL     1      31.239  -4.639  46.420  1.00  0.00    -0.198 N 
HETATM   13  C15 UNL     1      31.110  -4.759  45.009  1.00  0.00     0.290 C 
HETATM   14  O5  UNL     1      30.181  -5.599  44.676  1.00  0.00    -0.265 OA
ATOM     15  H3  UNL     1      31.923  -3.915  46.640  1.00  0.00     0.205 HD
BRANCH  13  16
HETATM   16  C16 UNL     1      31.819  -4.122  43.958  1.00  0.00     0.153 A 
HETATM   17  C17 UNL     1      31.109  -3.385  42.982  1.00  0.00     0.165 A 
HETATM   18  N4  UNL     1      31.669  -2.810  41.934  1.00  0.00    -0.288 N 
HETATM   19  C18 UNL     1      32.989  -2.904  41.744  1.00  0.00     0.329 A 
ATOM     20  H4  UNL     1      31.094  -2.293  41.268  1.00  0.00     0.172 HD
HETATM   21  O7  UNL     1      33.534  -2.366  40.759  1.00  0.00    -0.247 OA
HETATM   22  N5  UNL     1      33.705  -3.577  42.622  1.00  0.00    -0.274 N 
HETATM   23  C19 UNL     1      33.169  -4.192  43.726  1.00  0.00     0.269 A 
ATOM     24  H5  UNL     1      34.712  -3.644  42.474  1.00  0.00     0.173 HD
HETATM   25  O8  UNL     1      33.943  -4.799  44.481  1.00  0.00    -0.267 OA
BRANCH  17  26
HETATM   26  O6  UNL     1      29.722  -3.256  43.138  1.00  0.00    -0.345 OA
ATOM     27  H6  UNL     1      29.404  -2.690  43.831  1.00  0.00     0.219 HD
ENDBRANCH  17  26
ENDBRANCH  13  16
ENDBRANCH  11  12
ENDBRANCH   9  11
ENDBRANCH   3   9
BRANCH   1  28
HETATM   28  C10 UNL     1      28.398  -5.944  52.909  1.00  0.00     0.160 C 
BRANCH  28  29
HETATM   29  C9  UNL     1      27.047  -6.510  52.602  1.00  0.00     0.199 C 
BRANCH  29  30
HETATM   30  O4  UNL     1      26.849  -7.533  53.610  1.00  0.00    -0.316 OA
BRANCH  30  31
HETATM   31  C8  UNL     1      27.303  -8.823  53.452  1.00  0.00     0.296 C 
HETATM   32  O3  UNL     1      27.760  -9.419  54.459  1.00  0.00    -0.259 OA
BRANCH  31  33
HETATM   33  C7  UNL     1      27.268  -9.537  52.169  1.00  0.00     0.075 A 
HETATM   34  C2  UNL     1      26.258 -10.411  51.918  1.00  0.00     0.117 A 
HETATM   35  C3  UNL     1      26.314 -11.062  50.665  1.00  0.00     0.100 A 
HETATM   36  C4  UNL     1      27.322 -10.821  49.778  1.00  0.00     0.039 A 
HETATM   37  C5  UNL     1      28.340  -9.916  50.069  1.00  0.00     0.004 A 
HETATM   38  C6  UNL     1      28.308  -9.279  51.268  1.00  0.00     0.021 A 
BRANCH  34  39
HETATM   39  O1  UNL     1      25.210 -10.703  52.765  1.00  0.00    -0.352 OA
HETATM   40  C1  UNL     1      25.182 -11.734  53.708  1.00  0.00     0.210 C 
ENDBRANCH  34  39
BRANCH  35  41
HETATM   41  O2  UNL     1      25.315 -11.960  50.357  1.00  0.00    -0.358 OA
ATOM     42  H2  UNL     1      25.050 -12.038  49.448  1.00  0.00     0.217 HD
ENDBRANCH  35  41
ENDBRANCH  31  33
ENDBRANCH  30  31
ENDBRANCH  29  30
ENDBRANCH  28  29
ENDBRANCH   1  28
BRANCH   6  43
HETATM   43  O10 UNL     1      29.571  -1.657  51.170  1.00  0.00    -0.276 OA
ATOM     44  H10 UNL     1      29.398  -1.314  52.039  1.00  0.00     0.245 HD
ENDBRANCH   6  43
TORSDOF 13
ENDMDL
MODEL 2
REMARK VINA RESULT: -9.901078330      0.817      1.639
REMARK  13 active torsions:
REMARK  status: ('A' for Active; 'I' for Inactive)
REMARK    1  A    between atoms: O1_2  and  C2_3 
REMARK    2  A    between atoms: C3_4  and  O2_5 
REMARK    3  A    between atoms: C7_10  and  C8_11 
REMARK    4  A    between atoms: C8_11  and  O4_13 
REMARK    5  A    between atoms: O4_13  and  C9_14 
REMARK    6  A    between atoms: C9_14  and  C10_15 
REMARK    7  A    between atoms: C10_15  and  N1_16 
REMARK    8  A    between atoms: C12_18  and  C13_19 
REMARK    9  A    between atoms: C13_19  and  N2_21 
REMARK   10  A    between atoms: N2_21  and  N3_22 
REMARK       I    between atoms: N3_22  and  C15_24 
REMARK   11  A    between atoms: C15_24  and  C16_26 
REMARK   12  A    between atoms: C17_27  and  O6_28 
REMARK   13  A    between atoms: N6_40  and  O10_41 
ROOT
HETATM    1  N1  UNL     1      29.021  -5.620  51.718  1.00  0.00    -0.305 N 
HETATM    2  C11 UNL     1      29.519  -6.086  50.579  1.00  0.00     0.116 A 
HETATM    3  C12 UNL     1      29.972  -5.272  49.519  1.00  0.00     0.088 A 
HETATM    4  C20 UNL     1      29.887  -3.919  49.704  1.00  0.00     0.290 A 
HETATM    5  O9  UNL     1      30.257  -3.102  48.833  1.00  0.00    -0.265 OA
HETATM    6  N6  UNL     1      29.375  -3.474  50.889  1.00  0.00    -0.133 N 
HETATM    7  C21 UNL     1      28.953  -4.269  51.870  1.00  0.00     0.355 A 
HETATM    8  O11 UNL     1      28.488  -3.755  52.941  1.00  0.00    -0.244 OA
ENDROOT
BRANCH   3   9
HETATM    9  C13 UNL     1      30.370  -5.896  48.270  1.00  0.00     0.122 C 
HETATM   10  C14 UNL     1      30.197  -7.417  48.226  1.00  0.00     0.088 C 
BRANCH   9  11
HETATM   11  N2  UNL     1      30.802  -5.375  47.271  1.00  0.00    -0.327 NA
BRANCH  11  12
HETATM   12  N3  UNL     1      31.234  -4.850  46.265  1.00  0.00    -0.198 N 
HETATM   13  C15 UNL     1      31.039  -4.839  44.857  1.00  0.00     0.290 C 
HETATM   14  O5  UNL     1      30.031  -5.570  44.500  1.00  0.00    -0.265 OA
ATOM     15  H3  UNL     1      31.985  -4.204  46.511  1.00  0.00     0.205 HD
BRANCH  13  16
HETATM   16  C16 UNL     1      31.757  -4.174  43.829  1.00  0.00     0.153 A 
HETATM   17  C17 UNL     1      31.061  -3.367  42.900  1.00  0.00     0.165 A 
HETATM   18  N4  UNL     1      31.628  -2.759  41.874  1.00  0.00    -0.288 N 
HETATM   19  C18 UNL     1      32.942  -2.886  41.663  1.00  0.00     0.329 A 
ATOM     20  H4  UNL     1      31.063  -2.192  41.242  1.00  0.00     0.172 HD
HETATM   21  O7  UNL     1      33.493  -2.319  40.698  1.00  0.00    -0.247 OA
HETATM   22  N5  UNL     1      33.645  -3.625  42.497  1.00  0.00    -0.274 N 
HETATM   23  C19 UNL     1      33.101  -4.276  43.576  1.00  0.00     0.269 A 
ATOM     24  H5  UNL     1      34.648  -3.717  42.332  1.00  0.00     0.173 HD
HETATM   25  O8  UNL     1      33.863  -4.945  44.291  1.00  0.00    -0.267 OA
BRANCH  17  26
HETATM   26  O6  UNL     1      29.681  -3.200  43.079  1.00  0.00    -0.345 OA
ATOM     27  H6  UNL     1      29.386  -2.451  43.583  1.00  0.00     0.219 HD
ENDBRANCH  17  26
ENDBRANCH  13  16
ENDBRANCH  11  12
ENDBRANCH   9  11
ENDBRANCH   3   9
BRANCH   1  28
HETATM   28  C10 UNL     1      28.445  -6.493  52.702  1.00  0.00     0.160 C 
BRANCH  28  29
HETATM   29  C9  UNL     1      27.037  -6.956  52.493  1.00  0.00     0.199 C 
BRANCH  29  30
HETATM   30  O4  UNL     1      26.726  -7.710  53.693  1.00  0.00    -0.316 OA
BRANCH  30  31
HETATM   31  C8  UNL     1      26.896  -9.073  53.773  1.00  0.00     0.296 C 
HETATM   32  O3  UNL     1      27.800  -9.515  54.525  1.00  0.00    -0.259 OA
BRANCH  31  33
HETATM   33  C7  UNL     1      26.067 -10.033  53.032  1.00  0.00     0.075 A 
HETATM   34  C2  UNL     1      26.563 -10.616  51.909  1.00  0.00     0.117 A 
HETATM   35  C3  UNL     1      25.690 -11.515  51.254  1.00  0.00     0.100 A 
HETATM   36  C4  UNL     1      24.437 -11.769  51.728  1.00  0.00     0.039 A 
HETATM   37  C5  UNL     1      23.964 -11.154  52.884  1.00  0.00     0.004 A 
HETATM   38  C6  UNL     1      24.784 -10.285  53.530  1.00  0.00     0.021 A 
BRANCH  34  39
HETATM   39  O1  UNL     1      27.816 -10.408  51.373  1.00  0.00    -0.352 OA
HETATM   40  C1  UNL     1      28.113  -9.601  50.271  1.00  0.00     0.210 C 
ENDBRANCH  34  39
BRANCH  35  41
HETATM   41  O2  UNL     1      26.142 -12.135  50.109  1.00  0.00    -0.358 OA
ATOM     42  H2  UNL     1      26.295 -13.072  50.140  1.00  0.00     0.217 HD
ENDBRANCH  35  41
ENDBRANCH  31  33
ENDBRANCH  30  31
ENDBRANCH  29  30
ENDBRANCH  28  29
ENDBRANCH   1  28
BRANCH   6  43
HETATM   43  O10 UNL     1      29.318  -2.096  51.066  1.00  0.00    -0.276 OA
ATOM     44  H10 UNL     1      29.467  -1.773  51.946  1.00  0.00     0.245 HD
ENDBRANCH   6  43
TORSDOF 13
ENDMDL
MODEL 3
REMARK VINA RESULT: -9.812614809      1.025      1.717
REMARK  13 active torsions:
REMARK  status: ('A' for Active; 'I' for Inactive)
REMARK    1  A    between atoms: O1_2  and  C2_3 
REMARK    2  A    between atoms: C3_4  and  O2_5 
REMARK    3  A    between atoms: C7_10  and  C8_11 
REMARK    4  A    between atoms: C8_11  and  O4_13 
REMARK    5  A    between atoms: O4_13  and  C9_14 
REMARK    6  A    between atoms: C9_14  and  C10_15 
REMARK    7  A    between atoms: C10_15  and  N1_16 
REMARK    8  A    between atoms: C12_18  and  C13_19 
REMARK    9  A    between atoms: C13_19  and  N2_21 
REMARK   10  A    between atoms: N2_21  and  N3_22 
REMARK       I    between atoms: N3_22  and  C15_24 
REMARK   11  A    between atoms: C15_24  and  C16_26 
REMARK   12  A    between atoms: C17_27  and  O6_28 
REMARK   13  A    between atoms: N6_40  and  O10_41 
ROOT
HETATM    1  N1  UNL     1      28.891  -4.884  51.892  1.00  0.00    -0.305 N 
HETATM    2  C11 UNL     1      29.355  -5.445  50.781  1.00  0.00     0.116 A 
HETATM    3  C12 UNL     1      29.967  -4.732  49.729  1.00  0.00     0.088 A 
HETATM    4  C20 UNL     1      30.083  -3.378  49.889  1.00  0.00     0.290 A 
HETATM    5  O9  UNL     1      30.607  -2.646  49.023  1.00  0.00    -0.265 OA
HETATM    6  N6  UNL     1      29.600  -2.835  51.045  1.00  0.00    -0.133 N 
HETATM    7  C21 UNL     1      29.023  -3.536  52.020  1.00  0.00     0.355 A 
HETATM    8  O11 UNL     1      28.602  -2.935  53.062  1.00  0.00    -0.244 OA
ENDROOT
BRANCH   3   9
HETATM    9  C13 UNL     1      30.313  -5.436  48.507  1.00  0.00     0.122 C 
HETATM   10  C14 UNL     1      30.060  -6.946  48.540  1.00  0.00     0.088 C 
BRANCH   9  11
HETATM   11  N2  UNL     1      30.758  -4.988  47.478  1.00  0.00    -0.327 NA
BRANCH  11  12
HETATM   12  N3  UNL     1      31.207  -4.538  46.444  1.00  0.00    -0.198 N 
HETATM   13  C15 UNL     1      31.108  -4.703  45.035  1.00  0.00     0.290 C 
HETATM   14  O5  UNL     1      30.199  -5.566  44.709  1.00  0.00    -0.265 OA
ATOM     15  H3  UNL     1      31.876  -3.797  46.655  1.00  0.00     0.205 HD
BRANCH  13  16
HETATM   16  C16 UNL     1      31.830  -4.088  43.980  1.00  0.00     0.153 A 
HETATM   17  C17 UNL     1      31.135  -3.352  42.993  1.00  0.00     0.165 A 
HETATM   18  N4  UNL     1      31.706  -2.797  41.940  1.00  0.00    -0.288 N 
HETATM   19  C18 UNL     1      33.025  -2.912  41.756  1.00  0.00     0.329 A 
ATOM     20  H4  UNL     1      31.141  -2.280  41.267  1.00  0.00     0.172 HD
HETATM   21  O7  UNL     1      33.581  -2.394  40.767  1.00  0.00    -0.247 OA
HETATM   22  N5  UNL     1      33.729  -3.586  42.644  1.00  0.00    -0.274 N 
HETATM   23  C19 UNL     1      33.180  -4.181  43.752  1.00  0.00     0.269 A 
ATOM     24  H5  UNL     1      34.735  -3.670  42.499  1.00  0.00     0.173 HD
HETATM   25  O8  UNL     1      33.942  -4.791  44.517  1.00  0.00    -0.267 OA
BRANCH  17  26
HETATM   26  O6  UNL     1      29.749  -3.200  43.142  1.00  0.00    -0.345 OA
ATOM     27  H6  UNL     1      29.431  -2.410  43.562  1.00  0.00     0.219 HD
ENDBRANCH  17  26
ENDBRANCH  13  16
ENDBRANCH  11  12
ENDBRANCH   9  11
ENDBRANCH   3   9
BRANCH   1  28
HETATM   28  C10 UNL     1      28.150  -5.639  52.864  1.00  0.00     0.160 C 
BRANCH  28  29
HETATM   29  C9  UNL     1      27.346  -6.806  52.384  1.00  0.00     0.199 C 
BRANCH  29  30
HETATM   30  O4  UNL     1      27.892  -7.940  53.105  1.00  0.00    -0.316 OA
BRANCH  30  31
HETATM   31  C8  UNL     1      27.097  -8.837  53.782  1.00  0.00     0.296 C 
HETATM   32  O3  UNL     1      26.291  -8.389  54.635  1.00  0.00    -0.259 OA
BRANCH  31  33
HETATM   33  C7  UNL     1      27.138 -10.286  53.548  1.00  0.00     0.075 A 
HETATM   34  C2  UNL     1      27.199 -10.756  52.274  1.00  0.00     0.117 A 
HETATM   35  C3  UNL     1      27.220 -12.163  52.144  1.00  0.00     0.100 A 
HETATM   36  C4  UNL     1      27.180 -12.982  53.233  1.00  0.00     0.039 A 
HETATM   37  C5  UNL     1      27.120 -12.464  54.525  1.00  0.00     0.004 A 
HETATM   38  C6  UNL     1      27.097 -11.115  54.674  1.00  0.00     0.021 A 
BRANCH  34  39
HETATM   39  O1  UNL     1      27.243  -9.988  51.129  1.00  0.00    -0.352 OA
HETATM   40  C1  UNL     1      28.372  -9.760  50.338  1.00  0.00     0.210 C 
ENDBRANCH  34  39
BRANCH  35  41
HETATM   41  O2  UNL     1      27.282 -12.694  50.874  1.00  0.00    -0.358 OA
ATOM     42  H2  UNL     1      27.572 -13.593  50.780  1.00  0.00     0.217 HD
ENDBRANCH  35  41
ENDBRANCH  31  33
ENDBRANCH  30  31
ENDBRANCH  29  30
ENDBRANCH  28  29
ENDBRANCH   1  28
BRANCH   6  43
HETATM   43  O10 UNL     1      29.748  -1.462  51.198  1.00  0.00    -0.276 OA
ATOM     44  H10 UNL     1      30.390  -1.171  51.834  1.00  0.00     0.245 HD
ENDBRANCH   6  43
TORSDOF 13
ENDMDL
MODEL 4
REMARK VINA RESULT: -9.809101293      1.426      1.975
REMARK  13 active torsions:
REMARK  status: ('A' for Active; 'I' for Inactive)
REMARK    1  A    between atoms: O1_2  and  C2_3 
REMARK    2  A    between atoms: C3_4  and  O2_5 
REMARK    3  A    between atoms: C7_10  and  C8_11 
REMARK    4  A    between atoms: C8_11  and  O4_13 
REMARK    5  A    between atoms: O4_13  and  C9_14 
REMARK    6  A    between atoms: C9_14  and  C10_15 
REMARK    7  A    between atoms: C10_15  and  N1_16 
REMARK    8  A    between atoms: C12_18  and  C13_19 
REMARK    9  A    between atoms: C13_19  and  N2_21 
REMARK   10  A    between atoms: N2_21  and  N3_22 
REMARK       I    between atoms: N3_22  and  C15_24 
REMARK   11  A    between atoms: C15_24  and  C16_26 
REMARK   12  A    between atoms: C17_27  and  O6_28 
REMARK   13  A    between atoms: N6_40  and  O10_41 
ROOT
HETATM    1  N1  UNL     1      28.848  -5.551  52.073  1.00  0.00    -0.305 N 
HETATM    2  C11 UNL     1      29.323  -6.045  50.935  1.00  0.00     0.116 A 
HETATM    3  C12 UNL     1      29.853  -5.259  49.890  1.00  0.00     0.088 A 
HETATM    4  C20 UNL     1      29.871  -3.905  50.087  1.00  0.00     0.290 A 
HETATM    5  O9  UNL     1      30.316  -3.112  49.230  1.00  0.00    -0.265 OA
HETATM    6  N6  UNL     1      29.379  -3.432  51.270  1.00  0.00    -0.133 N 
HETATM    7  C21 UNL     1      28.882  -4.201  52.238  1.00  0.00     0.355 A 
HETATM    8  O11 UNL     1      28.445  -3.662  53.307  1.00  0.00    -0.244 OA
ENDROOT
BRANCH   3   9
HETATM    9  C13 UNL     1      30.218  -5.901  48.640  1.00  0.00     0.122 C 
HETATM   10  C14 UNL     1      29.962  -7.410  48.592  1.00  0.00     0.088 C 
BRANCH   9  11
HETATM   11  N2  UNL     1      30.680  -5.402  47.642  1.00  0.00    -0.327 NA
BRANCH  11  12
HETATM   12  N3  UNL     1      31.146  -4.903  46.639  1.00  0.00    -0.198 N 
HETATM   13  C15 UNL     1      31.001  -4.930  45.225  1.00  0.00     0.290 C 
HETATM   14  O5  UNL     1      30.008  -5.675  44.852  1.00  0.00    -0.265 OA
ATOM     15  H3  UNL     1      31.885  -4.248  46.894  1.00  0.00     0.205 HD
BRANCH  13  16
HETATM   16  C16 UNL     1      31.753  -4.291  44.206  1.00  0.00     0.153 A 
HETATM   17  C17 UNL     1      31.082  -3.619  43.158  1.00  0.00     0.165 A 
HETATM   18  N4  UNL     1      31.688  -3.049  42.133  1.00  0.00    -0.288 N 
HETATM   19  C18 UNL     1      33.021  -3.083  42.040  1.00  0.00     0.329 A 
ATOM     20  H4  UNL     1      31.139  -2.582  41.412  1.00  0.00     0.172 HD
HETATM   21  O7  UNL     1      33.610  -2.549  41.079  1.00  0.00    -0.247 OA
HETATM   22  N5  UNL     1      33.703  -3.693  42.988  1.00  0.00    -0.274 N 
HETATM   23  C19 UNL     1      33.118  -4.301  44.071  1.00  0.00     0.269 A 
ATOM     24  H5  UNL     1      34.720  -3.714  42.914  1.00  0.00     0.173 HD
HETATM   25  O8  UNL     1      33.863  -4.846  44.900  1.00  0.00    -0.267 OA
BRANCH  17  26
HETATM   26  O6  UNL     1      29.682  -3.554  43.211  1.00  0.00    -0.345 OA
ATOM     27  H6  UNL     1      29.236  -3.047  42.544  1.00  0.00     0.219 HD
ENDBRANCH  17  26
ENDBRANCH  13  16
ENDBRANCH  11  12
ENDBRANCH   9  11
ENDBRANCH   3   9
BRANCH   1  28
HETATM   28  C10 UNL     1      28.192  -6.386  53.040  1.00  0.00     0.160 C 
BRANCH  28  29
HETATM   29  C9  UNL     1      27.700  -7.727  52.593  1.00  0.00     0.199 C 
BRANCH  29  30
HETATM   30  O4  UNL     1      26.864  -8.186  53.686  1.00  0.00    -0.316 OA
BRANCH  30  31
HETATM   31  C8  UNL     1      26.630  -9.521  53.926  1.00  0.00     0.296 C 
HETATM   32  O3  UNL     1      27.483 -10.163  54.588  1.00  0.00    -0.259 OA
BRANCH  31  33
HETATM   33  C7  UNL     1      25.430 -10.225  53.457  1.00  0.00     0.075 A 
HETATM   34  C2  UNL     1      24.303 -10.204  54.216  1.00  0.00     0.117 A 
HETATM   35  C3  UNL     1      23.202 -10.920  53.693  1.00  0.00     0.100 A 
HETATM   36  C4  UNL     1      23.281 -11.584  52.505  1.00  0.00     0.039 A 
HETATM   37  C5  UNL     1      24.454 -11.582  51.752  1.00  0.00     0.004 A 
HETATM   38  C6  UNL     1      25.525 -10.902  52.236  1.00  0.00     0.021 A 
BRANCH  34  39
HETATM   39  O1  UNL     1      24.151  -9.555  55.423  1.00  0.00    -0.352 OA
HETATM   40  C1  UNL     1      24.402 -10.101  56.685  1.00  0.00     0.210 C 
ENDBRANCH  34  39
BRANCH  35  41
HETATM   41  O2  UNL     1      22.033 -10.932  54.422  1.00  0.00    -0.358 OA
ATOM     42  H2  UNL     1      21.338 -10.339  54.161  1.00  0.00     0.217 HD
ENDBRANCH  35  41
ENDBRANCH  31  33
ENDBRANCH  30  31
ENDBRANCH  29  30
ENDBRANCH  28  29
ENDBRANCH   1  28
BRANCH   6  43
HETATM   43  O10 UNL     1      29.427  -2.056  51.459  1.00  0.00    -0.276 OA
ATOM     44  H10 UNL     1      29.871  -1.749  52.241  1.00  0.00     0.245 HD
ENDBRANCH   6  43
TORSDOF 13
ENDMDL
MODEL 5
REMARK VINA RESULT: -9.775957526      2.479      5.009
REMARK  13 active torsions:
REMARK  status: ('A' for Active; 'I' for Inactive)
REMARK    1  A    between atoms: O1_2  and  C2_3 
REMARK    2  A    between atoms: C3_4  and  O2_5 
REMARK    3  A    between atoms: C7_10  and  C8_11 
REMARK    4  A    between atoms: C8_11  and  O4_13 
REMARK    5  A    between atoms: O4_13  and  C9_14 
REMARK    6  A    between atoms: C9_14  and  C10_15 
REMARK    7  A    between atoms: C10_15  and  N1_16 
REMARK    8  A    between atoms: C12_18  and  C13_19 
REMARK    9  A    between atoms: C13_19  and  N2_21 
REMARK   10  A    between atoms: N2_21  and  N3_22 
REMARK       I    between atoms: N3_22  and  C15_24 
REMARK   11  A    between atoms: C15_24  and  C16_26 
REMARK   12  A    between atoms: C17_27  and  O6_28 
REMARK   13  A    between atoms: N6_40  and  O10_41 
ROOT
HETATM    1  N1  UNL     1      28.068  -9.973  48.465  1.00  0.00    -0.305 N 
HETATM    2  C11 UNL     1      28.135  -8.693  48.117  1.00  0.00     0.116 A 
HETATM    3  C12 UNL     1      28.669  -8.228  46.897  1.00  0.00     0.088 A 
HETATM    4  C20 UNL     1      29.137  -9.178  46.030  1.00  0.00     0.290 A 
HETATM    5  O9  UNL     1      29.633  -8.884  44.921  1.00  0.00    -0.265 OA
HETATM    6  N6  UNL     1      29.049 -10.485  46.417  1.00  0.00    -0.133 N 
HETATM    7  C21 UNL     1      28.540 -10.892  47.579  1.00  0.00     0.355 A 
HETATM    8  O11 UNL     1      28.503 -12.137  47.848  1.00  0.00    -0.244 OA
ENDROOT
BRANCH   3   9
HETATM    9  C13 UNL     1      28.812  -6.800  46.687  1.00  0.00     0.122 C 
HETATM   10  C14 UNL     1      27.941  -5.925  47.593  1.00  0.00     0.088 C 
BRANCH   9  11
HETATM   11  N2  UNL     1      29.529  -6.219  45.908  1.00  0.00    -0.327 NA
BRANCH  11  12
HETATM   12  N3  UNL     1      30.252  -5.636  45.126  1.00  0.00    -0.198 N 
HETATM   13  C15 UNL     1      31.219  -4.595  45.086  1.00  0.00     0.290 C 
HETATM   14  O5  UNL     1      31.491  -4.137  46.267  1.00  0.00    -0.265 OA
ATOM     15  H3  UNL     1      30.124  -6.021  44.190  1.00  0.00     0.205 HD
BRANCH  13  16
HETATM   16  C16 UNL     1      31.899  -4.007  43.988  1.00  0.00     0.153 A 
HETATM   17  C17 UNL     1      31.165  -3.300  43.007  1.00  0.00     0.165 A 
HETATM   18  N4  UNL     1      31.696  -2.773  41.919  1.00  0.00    -0.288 N 
HETATM   19  C18 UNL     1      33.008  -2.890  41.690  1.00  0.00     0.329 A 
ATOM     20  H4  UNL     1      31.104  -2.275  41.254  1.00  0.00     0.172 HD
HETATM   21  O7  UNL     1      33.525  -2.398  40.667  1.00  0.00    -0.247 OA
HETATM   22  N5  UNL     1      33.746  -3.537  42.569  1.00  0.00    -0.274 N 
HETATM   23  C19 UNL     1      33.240  -4.103  43.713  1.00  0.00     0.269 A 
ATOM     24  H5  UNL     1      34.746  -3.622  42.390  1.00  0.00     0.173 HD
HETATM   25  O8  UNL     1      34.032  -4.689  44.466  1.00  0.00    -0.267 OA
BRANCH  17  26
HETATM   26  O6  UNL     1      29.785  -3.148  43.204  1.00  0.00    -0.345 OA
ATOM     27  H6  UNL     1      29.210  -3.810  42.841  1.00  0.00     0.219 HD
ENDBRANCH  17  26
ENDBRANCH  13  16
ENDBRANCH  11  12
ENDBRANCH   9  11
ENDBRANCH   3   9
BRANCH   1  28
HETATM   28  C10 UNL     1      27.645 -10.376  49.776  1.00  0.00     0.160 C 
BRANCH  28  29
HETATM   29  C9  UNL     1      27.225  -9.310  50.739  1.00  0.00     0.199 C 
BRANCH  29  30
HETATM   30  O4  UNL     1      28.404  -9.073  51.550  1.00  0.00    -0.316 OA
BRANCH  30  31
HETATM   31  C8  UNL     1      29.196  -7.958  51.395  1.00  0.00     0.296 C 
HETATM   32  O3  UNL     1      30.266  -8.075  50.747  1.00  0.00    -0.259 OA
BRANCH  31  33
HETATM   33  C7  UNL     1      28.845  -6.640  51.938  1.00  0.00     0.075 A 
HETATM   34  C2  UNL     1      28.235  -6.557  53.150  1.00  0.00     0.117 A 
HETATM   35  C3  UNL     1      27.922  -5.250  53.587  1.00  0.00     0.100 A 
HETATM   36  C4  UNL     1      28.217  -4.154  52.831  1.00  0.00     0.039 A 
HETATM   37  C5  UNL     1      28.845  -4.277  51.594  1.00  0.00     0.004 A 
HETATM   38  C6  UNL     1      29.154  -5.523  51.153  1.00  0.00     0.021 A 
BRANCH  34  39
HETATM   39  O1  UNL     1      27.908  -7.619  53.966  1.00  0.00    -0.352 OA
HETATM   40  C1  UNL     1      26.622  -8.126  54.177  1.00  0.00     0.210 C 
ENDBRANCH  34  39
BRANCH  35  41
HETATM   41  O2  UNL     1      27.302  -5.108  54.809  1.00  0.00    -0.358 OA
ATOM     42  H2  UNL     1      26.366  -4.942  54.819  1.00  0.00     0.217 HD
ENDBRANCH  35  41
ENDBRANCH  31  33
ENDBRANCH  30  31
ENDBRANCH  29  30
ENDBRANCH  28  29
ENDBRANCH   1  28
BRANCH   6  43
HETATM   43  O10 UNL     1      29.509 -11.435  45.513  1.00  0.00    -0.276 OA
ATOM     44  H10 UNL     1      29.242 -12.334  45.667  1.00  0.00     0.245 HD
ENDBRANCH   6  43
TORSDOF 13
ENDMDL
