MODEL 1
REMARK VINA RESULT: -8.045002876      0.000      0.000
REMARK  12 active torsions:
REMARK  status: ('A' for Active; 'I' for Inactive)
REMARK    1  A    between atoms: C5_5  and  O1_6 
REMARK    2  A    between atoms: O1_6  and  C6_7 
REMARK    3  A    between atoms: C6_7  and  C7_8 
REMARK    4  A    between atoms: C7_8  and  C8_9 
REMARK    5  A    between atoms: C8_9  and  N1_10 
REMARK       I    between atoms: N1_10  and  C9_12 
REMARK    6  A    between atoms: C9_12  and  C10_14 
REMARK    7  A    between atoms: C10_14  and  S1_15 
REMARK    8  A    between atoms: S1_15  and  C11_16 
REMARK    9  A    between atoms: N5_22  and  C12_23 
REMARK   10  A    between atoms: C13_29  and  N8_30 
REMARK   11  A    between atoms: N9_33  and  N10_35 
REMARK   12  A    between atoms: N10_35  and  C14_37 
ROOT
HETATM    1  C7  UNL     1      30.643  -9.393  48.541  1.00  0.00     0.105 C 
ENDROOT
BRANCH   1   2
HETATM    2  C6  UNL     1      30.204  -9.546  47.141  1.00  0.00     0.134 C 
HETATM    3  N9  UNL     1      30.530  -8.695  46.212  1.00  0.00    -0.281 N 
ATOM      4  H9  UNL     1      30.191  -8.862  45.264  1.00  0.00     0.189 HD
BRANCH   2   5
HETATM    5  O1  UNL     1      29.411 -10.603  46.697  1.00  0.00    -0.332 OA
BRANCH   5   6
HETATM    6  C5  UNL     1      28.385 -10.364  45.722  1.00  0.00     0.135 C 
HETATM    7  C4  UNL     1      28.330 -11.533  44.788  1.00  0.00     0.062 C 
HETATM    8  C2  UNL     1      27.058 -11.637  44.012  1.00  0.00     0.021 C 
HETATM    9  C1  UNL     1      27.223 -11.011  42.634  1.00  0.00     0.037 C 
HETATM   10  C3  UNL     1      26.698 -13.087  43.778  1.00  0.00     0.037 C 
HETATM   11  N13 UNL     1      25.933 -11.003  44.627  1.00  0.00    -0.405 N 
HETATM   12  C18 UNL     1      25.980 -10.848  46.034  1.00  0.00     0.021 C 
ATOM     13  H13 UNL     1      25.136 -10.678  44.080  1.00  0.00     0.154 HD
HETATM   14  C17 UNL     1      27.138 -10.000  46.417  1.00  0.00     0.062 C 
HETATM   15  C19 UNL     1      24.694 -10.066  46.395  1.00  0.00     0.037 C 
HETATM   16  C20 UNL     1      25.874 -12.120  46.835  1.00  0.00     0.037 C 
ENDBRANCH   5   6
ENDBRANCH   2   5
BRANCH   3  17
HETATM   17  N10 UNL     1      31.311  -7.574  46.440  1.00  0.00    -0.270 N 
ATOM     18  H10 UNL     1      31.884  -7.518  47.282  1.00  0.00     0.190 HD
BRANCH  17  19
HETATM   19  C14 UNL     1      31.320  -6.511  45.516  1.00  0.00     0.190 C 
HETATM   20  N11 UNL     1      30.423  -6.316  44.608  1.00  0.00    -0.360 N 
HETATM   21  C15 UNL     1      30.719  -5.148  43.829  1.00  0.00     0.142 C 
ATOM     22  H11 UNL     1      29.609  -6.914  44.463  1.00  0.00     0.162 HD
HETATM   23  C16 UNL     1      32.179  -4.890  44.131  1.00  0.00     0.142 C 
HETATM   24  N12 UNL     1      32.310  -5.495  45.437  1.00  0.00    -0.360 N 
ATOM     25  H12 UNL     1      32.982  -5.242  46.160  1.00  0.00     0.162 HD
ENDBRANCH  17  19
ENDBRANCH   3  17
ENDBRANCH   1   2
BRANCH   1  26
HETATM   26  C8  UNL     1      29.481  -9.140  49.478  1.00  0.00     0.130 C 
BRANCH  26  27
HETATM   27  N1  UNL     1      29.871  -8.232  50.537  1.00  0.00    -0.360 N 
HETATM   28  C9  UNL     1      28.965  -7.222  50.943  1.00  0.00     0.227 C 
HETATM   29  O2  UNL     1      27.821  -7.138  50.353  1.00  0.00    -0.273 OA
ATOM     30  H1  UNL     1      30.784  -8.319  50.983  1.00  0.00     0.162 HD
BRANCH  28  31
HETATM   31  C10 UNL     1      29.184  -6.218  51.990  1.00  0.00     0.185 C 
BRANCH  31  32
HETATM   32  S1  UNL     1      28.350  -4.655  51.728  1.00  0.00    -0.082 SA
BRANCH  32  33
HETATM   33  C11 UNL     1      29.345  -3.487  50.853  1.00  0.00     0.182 A 
HETATM   34  N2  UNL     1      30.016  -2.449  51.314  1.00  0.00    -0.261 N 
HETATM   35  N3  UNL     1      30.636  -1.839  50.307  1.00  0.00    -0.004 NA
ATOM     36  H2  UNL     1      30.054  -2.159  52.292  1.00  0.00     0.186 HD
HETATM   37  N4  UNL     1      30.363  -2.486  49.187  1.00  0.00    -0.216 N 
HETATM   38  N5  UNL     1      29.585  -3.481  49.509  1.00  0.00    -0.198 N 
ATOM     39  H4  UNL     1      30.696  -2.252  48.253  1.00  0.00     0.206 HD
BRANCH  38  40
HETATM   40  C12 UNL     1      29.029  -4.459  48.639  1.00  0.00     0.198 A 
HETATM   41  N6  UNL     1      29.578  -5.619  48.237  1.00  0.00    -0.220 N 
HETATM   42  O3  UNL     1      28.758  -6.235  47.442  1.00  0.00    -0.153 OA
ATOM     43  H6  UNL     1      30.497  -5.962  48.514  1.00  0.00     0.198 HD
HETATM   44  N7  UNL     1      27.676  -5.528  47.297  1.00  0.00    -0.222 N 
HETATM   45  C13 UNL     1      27.794  -4.411  48.021  1.00  0.00     0.169 A 
ATOM     46  H7  UNL     1      26.871  -5.784  46.725  1.00  0.00     0.198 HD
BRANCH  45  47
HETATM   47  N8  UNL     1      26.971  -3.457  48.158  1.00  0.00    -0.381 N 
ATOM     48  H82 UNL     1      26.736  -2.926  48.997  1.00  0.00     0.157 HD
ATOM     49  H81 UNL     1      26.407  -3.079  47.397  1.00  0.00     0.157 HD
ENDBRANCH  45  47
ENDBRANCH  38  40
ENDBRANCH  32  33
ENDBRANCH  31  32
ENDBRANCH  28  31
ENDBRANCH  26  27
ENDBRANCH   1  26
TORSDOF 12
ENDMDL
MODEL 2
REMARK VINA RESULT: -7.765836830      0.897      1.484
REMARK  12 active torsions:
REMARK  status: ('A' for Active; 'I' for Inactive)
REMARK    1  A    between atoms: C5_5  and  O1_6 
REMARK    2  A    between atoms: O1_6  and  C6_7 
REMARK    3  A    between atoms: C6_7  and  C7_8 
REMARK    4  A    between atoms: C7_8  and  C8_9 
REMARK    5  A    between atoms: C8_9  and  N1_10 
REMARK       I    between atoms: N1_10  and  C9_12 
REMARK    6  A    between atoms: C9_12  and  C10_14 
REMARK    7  A    between atoms: C10_14  and  S1_15 
REMARK    8  A    between atoms: S1_15  and  C11_16 
REMARK    9  A    between atoms: N5_22  and  C12_23 
REMARK   10  A    between atoms: C13_29  and  N8_30 
REMARK   11  A    between atoms: N9_33  and  N10_35 
REMARK   12  A    between atoms: N10_35  and  C14_37 
ROOT
HETATM    1  C7  UNL     1      30.612  -9.491  48.621  1.00  0.00     0.105 C 
ENDROOT
BRANCH   1   2
HETATM    2  C6  UNL     1      30.206  -9.663  47.213  1.00  0.00     0.134 C 
HETATM    3  N9  UNL     1      30.505  -8.796  46.290  1.00  0.00    -0.281 N 
ATOM      4  H9  UNL     1      30.191  -8.977  45.336  1.00  0.00     0.189 HD
BRANCH   2   5
HETATM    5  O1  UNL     1      29.473 -10.757  46.755  1.00  0.00    -0.332 OA
BRANCH   5   6
HETATM    6  C5  UNL     1      28.079 -10.866  47.076  1.00  0.00     0.135 C 
HETATM    7  C4  UNL     1      27.278 -10.588  45.842  1.00  0.00     0.062 C 
HETATM    8  C2  UNL     1      25.870 -11.082  45.900  1.00  0.00     0.021 C 
HETATM    9  C1  UNL     1      24.931  -9.961  46.319  1.00  0.00     0.037 C 
HETATM   10  C3  UNL     1      25.410 -11.532  44.532  1.00  0.00     0.037 C 
HETATM   11  N13 UNL     1      25.658 -12.167  46.809  1.00  0.00    -0.405 N 
HETATM   12  C18 UNL     1      26.784 -12.972  47.112  1.00  0.00     0.021 C 
ATOM     13  H13 UNL     1      24.743 -12.352  47.218  1.00  0.00     0.154 HD
HETATM   14  C17 UNL     1      27.842 -12.152  47.756  1.00  0.00     0.062 C 
HETATM   15  C19 UNL     1      26.278 -13.986  48.166  1.00  0.00     0.037 C 
HETATM   16  C20 UNL     1      27.291 -13.835  45.986  1.00  0.00     0.037 C 
ENDBRANCH   5   6
ENDBRANCH   2   5
BRANCH   3  17
HETATM   17  N10 UNL     1      31.227  -7.638  46.533  1.00  0.00    -0.270 N 
ATOM     18  H10 UNL     1      31.752  -7.541  47.402  1.00  0.00     0.190 HD
BRANCH  17  19
HETATM   19  C14 UNL     1      31.240  -6.595  45.587  1.00  0.00     0.190 C 
HETATM   20  N11 UNL     1      30.389  -6.462  44.624  1.00  0.00    -0.360 N 
HETATM   21  C15 UNL     1      30.676  -5.298  43.836  1.00  0.00     0.142 C 
ATOM     22  H11 UNL     1      29.615  -7.101  44.447  1.00  0.00     0.162 HD
HETATM   23  C16 UNL     1      32.102  -4.963  44.216  1.00  0.00     0.142 C 
HETATM   24  N12 UNL     1      32.184  -5.535  45.541  1.00  0.00    -0.360 N 
ATOM     25  H12 UNL     1      32.801  -5.235  46.296  1.00  0.00     0.162 HD
ENDBRANCH  17  19
ENDBRANCH   3  17
ENDBRANCH   1   2
BRANCH   1  26
HETATM   26  C8  UNL     1      29.438  -9.160  49.517  1.00  0.00     0.130 C 
BRANCH  26  27
HETATM   27  N1  UNL     1      29.842  -8.250  50.568  1.00  0.00    -0.360 N 
HETATM   28  C9  UNL     1      28.949  -7.226  50.971  1.00  0.00     0.227 C 
HETATM   29  O2  UNL     1      27.804  -7.134  50.385  1.00  0.00    -0.273 OA
ATOM     30  H1  UNL     1      30.756  -8.343  51.012  1.00  0.00     0.162 HD
BRANCH  28  31
HETATM   31  C10 UNL     1      29.183  -6.218  52.011  1.00  0.00     0.185 C 
BRANCH  31  32
HETATM   32  S1  UNL     1      28.350  -4.654  51.751  1.00  0.00    -0.082 SA
BRANCH  32  33
HETATM   33  C11 UNL     1      29.343  -3.488  50.874  1.00  0.00     0.182 A 
HETATM   34  N2  UNL     1      30.020  -2.453  51.334  1.00  0.00    -0.261 N 
HETATM   35  N3  UNL     1      30.635  -1.842  50.325  1.00  0.00    -0.004 NA
ATOM     36  H2  UNL     1      30.064  -2.165  52.312  1.00  0.00     0.186 HD
HETATM   37  N4  UNL     1      30.355  -2.485  49.205  1.00  0.00    -0.216 N 
HETATM   38  N5  UNL     1      29.576  -3.479  49.529  1.00  0.00    -0.198 N 
ATOM     39  H4  UNL     1      30.684  -2.250  48.269  1.00  0.00     0.206 HD
BRANCH  38  40
HETATM   40  C12 UNL     1      29.012  -4.453  48.659  1.00  0.00     0.198 A 
HETATM   41  N6  UNL     1      29.547  -5.622  48.266  1.00  0.00    -0.220 N 
HETATM   42  O3  UNL     1      28.724  -6.231  47.468  1.00  0.00    -0.153 OA
ATOM     43  H6  UNL     1      30.459  -5.977  48.551  1.00  0.00     0.198 HD
HETATM   44  N7  UNL     1      27.654  -5.509  47.312  1.00  0.00    -0.222 N 
HETATM   45  C13 UNL     1      27.783  -4.390  48.032  1.00  0.00     0.169 A 
ATOM     46  H7  UNL     1      26.849  -5.756  46.735  1.00  0.00     0.198 HD
BRANCH  45  47
HETATM   47  N8  UNL     1      26.972  -3.424  48.158  1.00  0.00    -0.381 N 
ATOM     48  H82 UNL     1      25.989  -3.441  48.428  1.00  0.00     0.157 HD
ATOM     49  H81 UNL     1      27.219  -2.448  47.994  1.00  0.00     0.157 HD
ENDBRANCH  45  47
ENDBRANCH  38  40
ENDBRANCH  32  33
ENDBRANCH  31  32
ENDBRANCH  28  31
ENDBRANCH  26  27
ENDBRANCH   1  26
TORSDOF 12
ENDMDL
MODEL 3
REMARK VINA RESULT: -7.755429417      4.719      8.760
REMARK  12 active torsions:
REMARK  status: ('A' for Active; 'I' for Inactive)
REMARK    1  A    between atoms: C5_5  and  O1_6 
REMARK    2  A    between atoms: O1_6  and  C6_7 
REMARK    3  A    between atoms: C6_7  and  C7_8 
REMARK    4  A    between atoms: C7_8  and  C8_9 
REMARK    5  A    between atoms: C8_9  and  N1_10 
REMARK       I    between atoms: N1_10  and  C9_12 
REMARK    6  A    between atoms: C9_12  and  C10_14 
REMARK    7  A    between atoms: C10_14  and  S1_15 
REMARK    8  A    between atoms: S1_15  and  C11_16 
REMARK    9  A    between atoms: N5_22  and  C12_23 
REMARK   10  A    between atoms: C13_29  and  N8_30 
REMARK   11  A    between atoms: N9_33  and  N10_35 
REMARK   12  A    between atoms: N10_35  and  C14_37 
ROOT
HETATM    1  C7  UNL     1      30.094  -7.985  46.752  1.00  0.00     0.105 C 
ENDROOT
BRANCH   1   2
HETATM    2  C6  UNL     1      29.643  -6.580  46.704  1.00  0.00     0.134 C 
HETATM    3  N9  UNL     1      30.441  -5.603  46.383  1.00  0.00    -0.281 N 
ATOM      4  H9  UNL     1      30.063  -4.655  46.370  1.00  0.00     0.189 HD
BRANCH   2   5
HETATM    5  O1  UNL     1      28.339  -6.183  46.995  1.00  0.00    -0.332 OA
BRANCH   5   6
HETATM    6  C5  UNL     1      27.984  -5.835  48.342  1.00  0.00     0.135 C 
HETATM    7  C4  UNL     1      28.393  -6.953  49.250  1.00  0.00     0.062 C 
HETATM    8  C2  UNL     1      28.493  -6.567  50.690  1.00  0.00     0.021 C 
HETATM    9  C1  UNL     1      27.211  -6.927  51.426  1.00  0.00     0.037 C 
HETATM   10  C3  UNL     1      29.603  -7.338  51.368  1.00  0.00     0.037 C 
HETATM   11  N13 UNL     1      28.729  -5.174  50.916  1.00  0.00    -0.405 N 
HETATM   12  C18 UNL     1      29.355  -4.456  49.868  1.00  0.00     0.021 C 
ATOM     13  H13 UNL     1      28.460  -4.721  51.789  1.00  0.00     0.154 HD
HETATM   14  C17 UNL     1      28.511  -4.494  48.646  1.00  0.00     0.062 C 
HETATM   15  C19 UNL     1      29.396  -2.988  50.357  1.00  0.00     0.037 C 
HETATM   16  C20 UNL     1      30.800  -4.799  49.614  1.00  0.00     0.037 C 
ENDBRANCH   5   6
ENDBRANCH   2   5
BRANCH   3  17
HETATM   17  N10 UNL     1      31.776  -5.781  46.058  1.00  0.00    -0.270 N 
ATOM     18  H10 UNL     1      32.366  -6.371  46.643  1.00  0.00     0.190 HD
BRANCH  17  19
HETATM   19  C14 UNL     1      32.323  -5.150  44.923  1.00  0.00     0.190 C 
HETATM   20  N11 UNL     1      33.510  -4.646  44.860  1.00  0.00    -0.360 N 
HETATM   21  C15 UNL     1      33.764  -4.076  43.568  1.00  0.00     0.142 C 
ATOM     22  H11 UNL     1      34.181  -4.651  45.629  1.00  0.00     0.162 HD
HETATM   23  C16 UNL     1      32.379  -3.934  42.973  1.00  0.00     0.142 C 
HETATM   24  N12 UNL     1      31.659  -4.967  43.681  1.00  0.00    -0.360 N 
ATOM     25  H12 UNL     1      30.834  -5.469  43.352  1.00  0.00     0.162 HD
ENDBRANCH  17  19
ENDBRANCH   3  17
ENDBRANCH   1   2
BRANCH   1  26
HETATM   26  C8  UNL     1      29.553  -8.796  45.595  1.00  0.00     0.130 C 
BRANCH  26  27
HETATM   27  N1  UNL     1      30.010  -8.248  44.334  1.00  0.00    -0.360 N 
HETATM   28  C9  UNL     1      29.624  -8.886  43.129  1.00  0.00     0.227 C 
HETATM   29  O2  UNL     1      28.881  -9.938  43.192  1.00  0.00    -0.273 OA
ATOM     30  H1  UNL     1      30.600  -7.417  44.314  1.00  0.00     0.162 HD
BRANCH  28  31
HETATM   31  C10 UNL     1      29.987  -8.478  41.767  1.00  0.00     0.185 C 
BRANCH  31  32
HETATM   32  S1  UNL     1      28.985  -9.198  40.468  1.00  0.00    -0.082 SA
BRANCH  32  33
HETATM   33  C11 UNL     1      29.845  -9.324  38.932  1.00  0.00     0.182 A 
HETATM   34  N2  UNL     1      30.604 -10.302  38.476  1.00  0.00    -0.261 N 
HETATM   35  N3  UNL     1      31.055  -9.986  37.265  1.00  0.00    -0.004 NA
ATOM     36  H2  UNL     1      30.813 -11.167  38.975  1.00  0.00     0.186 HD
HETATM   37  N4  UNL     1      30.585  -8.795  36.935  1.00  0.00    -0.216 N 
HETATM   38  N5  UNL     1      29.855  -8.390  37.936  1.00  0.00    -0.198 N 
ATOM     39  H4  UNL     1      30.760  -8.291  36.066  1.00  0.00     0.206 HD
BRANCH  38  40
HETATM   40  C12 UNL     1      29.143  -7.164  38.043  1.00  0.00     0.198 A 
HETATM   41  N6  UNL     1      29.547  -6.017  38.618  1.00  0.00    -0.220 N 
HETATM   42  O3  UNL     1      28.611  -5.124  38.513  1.00  0.00    -0.153 OA
ATOM     43  H6  UNL     1      30.450  -5.872  39.068  1.00  0.00     0.198 HD
HETATM   44  N7  UNL     1      27.592  -5.632  37.886  1.00  0.00    -0.222 N 
HETATM   45  C13 UNL     1      27.871  -6.901  37.572  1.00  0.00     0.169 A 
ATOM     46  H7  UNL     1      26.723  -5.143  37.669  1.00  0.00     0.198 HD
BRANCH  45  47
HETATM   47  N8  UNL     1      27.153  -7.749  36.961  1.00  0.00    -0.381 N 
ATOM     48  H82 UNL     1      27.378  -8.307  36.137  1.00  0.00     0.157 HD
ATOM     49  H81 UNL     1      26.202  -7.993  37.236  1.00  0.00     0.157 HD
ENDBRANCH  45  47
ENDBRANCH  38  40
ENDBRANCH  32  33
ENDBRANCH  31  32
ENDBRANCH  28  31
ENDBRANCH  26  27
ENDBRANCH   1  26
TORSDOF 12
ENDMDL
MODEL 4
REMARK VINA RESULT: -7.612305367      0.961      1.676
REMARK  12 active torsions:
REMARK  status: ('A' for Active; 'I' for Inactive)
REMARK    1  A    between atoms: C5_5  and  O1_6 
REMARK    2  A    between atoms: O1_6  and  C6_7 
REMARK    3  A    between atoms: C6_7  and  C7_8 
REMARK    4  A    between atoms: C7_8  and  C8_9 
REMARK    5  A    between atoms: C8_9  and  N1_10 
REMARK       I    between atoms: N1_10  and  C9_12 
REMARK    6  A    between atoms: C9_12  and  C10_14 
REMARK    7  A    between atoms: C10_14  and  S1_15 
REMARK    8  A    between atoms: S1_15  and  C11_16 
REMARK    9  A    between atoms: N5_22  and  C12_23 
REMARK   10  A    between atoms: C13_29  and  N8_30 
REMARK   11  A    between atoms: N9_33  and  N10_35 
REMARK   12  A    between atoms: N10_35  and  C14_37 
ROOT
HETATM    1  C7  UNL     1      30.455  -9.133  48.115  1.00  0.00     0.105 C 
ENDROOT
BRANCH   1   2
HETATM    2  C6  UNL     1      29.756  -8.879  46.841  1.00  0.00     0.134 C 
HETATM    3  N9  UNL     1      30.228  -8.072  45.935  1.00  0.00    -0.281 N 
ATOM      4  H9  UNL     1      29.692  -7.942  45.077  1.00  0.00     0.189 HD
BRANCH   2   5
HETATM    5  O1  UNL     1      28.543  -9.474  46.501  1.00  0.00    -0.332 OA
BRANCH   5   6
HETATM    6  C5  UNL     1      28.517 -10.840  46.061  1.00  0.00     0.135 C 
HETATM    7  C4  UNL     1      27.705 -11.642  47.030  1.00  0.00     0.062 C 
HETATM    8  C2  UNL     1      27.226 -12.951  46.494  1.00  0.00     0.021 C 
HETATM    9  C1  UNL     1      28.164 -14.073  46.916  1.00  0.00     0.037 C 
HETATM   10  C3  UNL     1      25.870 -13.294  47.067  1.00  0.00     0.037 C 
HETATM   11  N13 UNL     1      27.123 -13.006  45.068  1.00  0.00    -0.405 N 
HETATM   12  C18 UNL     1      26.946 -11.773  44.394  1.00  0.00     0.021 C 
ATOM     13  H13 UNL     1      27.173 -13.890  44.561  1.00  0.00     0.154 HD
HETATM   14  C17 UNL     1      28.108 -10.881  44.646  1.00  0.00     0.062 C 
HETATM   15  C19 UNL     1      26.958 -12.133  42.889  1.00  0.00     0.037 C 
HETATM   16  C20 UNL     1      25.614 -11.101  44.601  1.00  0.00     0.037 C 
ENDBRANCH   5   6
ENDBRANCH   2   5
BRANCH   3  17
HETATM   17  N10 UNL     1      31.420  -7.379  46.075  1.00  0.00    -0.270 N 
ATOM     18  H10 UNL     1      32.135  -7.724  46.715  1.00  0.00     0.190 HD
BRANCH  17  19
HETATM   19  C14 UNL     1      31.649  -6.201  45.338  1.00  0.00     0.190 C 
HETATM   20  N11 UNL     1      30.818  -5.685  44.494  1.00  0.00    -0.360 N 
HETATM   21  C15 UNL     1      31.348  -4.486  43.911  1.00  0.00     0.142 C 
ATOM     22  H11 UNL     1      29.904  -6.078  44.272  1.00  0.00     0.162 HD
HETATM   23  C16 UNL     1      32.828  -4.575  44.218  1.00  0.00     0.142 C 
HETATM   24  N12 UNL     1      32.822  -5.402  45.404  1.00  0.00    -0.360 N 
ATOM     25  H12 UNL     1      33.523  -5.410  46.144  1.00  0.00     0.162 HD
ENDBRANCH  17  19
ENDBRANCH   3  17
ENDBRANCH   1   2
BRANCH   1  26
HETATM   26  C8  UNL     1      29.495  -9.249  49.279  1.00  0.00     0.130 C 
BRANCH  26  27
HETATM   27  N1  UNL     1      29.900  -8.375  50.360  1.00  0.00    -0.360 N 
HETATM   28  C9  UNL     1      29.041  -7.316  50.745  1.00  0.00     0.227 C 
HETATM   29  O2  UNL     1      27.925  -7.160  50.116  1.00  0.00    -0.273 OA
ATOM     30  H1  UNL     1      30.789  -8.519  50.837  1.00  0.00     0.162 HD
BRANCH  28  31
HETATM   31  C10 UNL     1      29.281  -6.336  51.810  1.00  0.00     0.185 C 
BRANCH  31  32
HETATM   32  S1  UNL     1      28.371  -4.801  51.646  1.00  0.00    -0.082 SA
BRANCH  32  33
HETATM   33  C11 UNL     1      29.328  -3.515  50.907  1.00  0.00     0.182 A 
HETATM   34  N2  UNL     1      29.968  -2.514  51.481  1.00  0.00    -0.261 N 
HETATM   35  N3  UNL     1      30.567  -1.778  50.548  1.00  0.00    -0.004 NA
ATOM     36  H2  UNL     1      29.999  -2.332  52.484  1.00  0.00     0.186 HD
HETATM   37  N4  UNL     1      30.312  -2.306  49.363  1.00  0.00    -0.216 N 
HETATM   38  N5  UNL     1      29.566  -3.354  49.572  1.00  0.00    -0.198 N 
ATOM     39  H4  UNL     1      30.637  -1.960  48.460  1.00  0.00     0.206 HD
BRANCH  38  40
HETATM   40  C12 UNL     1      29.038  -4.246  48.598  1.00  0.00     0.198 A 
HETATM   41  N6  UNL     1      29.628  -5.326  48.058  1.00  0.00    -0.220 N 
HETATM   42  O3  UNL     1      28.823  -5.880  47.204  1.00  0.00    -0.153 OA
ATOM     43  H6  UNL     1      30.565  -5.660  48.284  1.00  0.00     0.198 HD
HETATM   44  N7  UNL     1      27.711  -5.208  47.153  1.00  0.00    -0.222 N 
HETATM   45  C13 UNL     1      27.794  -4.179  48.002  1.00  0.00     0.169 A 
ATOM     46  H7  UNL     1      26.909  -5.430  46.563  1.00  0.00     0.198 HD
BRANCH  45  47
HETATM   47  N8  UNL     1      26.934  -3.284  48.257  1.00  0.00    -0.381 N 
ATOM     48  H82 UNL     1      26.834  -2.708  49.094  1.00  0.00     0.157 HD
ATOM     49  H81 UNL     1      26.188  -3.011  47.617  1.00  0.00     0.157 HD
ENDBRANCH  45  47
ENDBRANCH  38  40
ENDBRANCH  32  33
ENDBRANCH  31  32
ENDBRANCH  28  31
ENDBRANCH  26  27
ENDBRANCH   1  26
TORSDOF 12
ENDMDL
MODEL 5
REMARK VINA RESULT: -7.548694559      4.193      5.870
REMARK  12 active torsions:
REMARK  status: ('A' for Active; 'I' for Inactive)
REMARK    1  A    between atoms: C5_5  and  O1_6 
REMARK    2  A    between atoms: O1_6  and  C6_7 
REMARK    3  A    between atoms: C6_7  and  C7_8 
REMARK    4  A    between atoms: C7_8  and  C8_9 
REMARK    5  A    between atoms: C8_9  and  N1_10 
REMARK       I    between atoms: N1_10  and  C9_12 
REMARK    6  A    between atoms: C9_12  and  C10_14 
REMARK    7  A    between atoms: C10_14  and  S1_15 
REMARK    8  A    between atoms: S1_15  and  C11_16 
REMARK    9  A    between atoms: N5_22  and  C12_23 
REMARK   10  A    between atoms: C13_29  and  N8_30 
REMARK   11  A    between atoms: N9_33  and  N10_35 
REMARK   12  A    between atoms: N10_35  and  C14_37 
ROOT
HETATM    1  C7  UNL     1      27.750 -10.095  52.937  1.00  0.00     0.105 C 
ENDROOT
BRANCH   1   2
HETATM    2  C6  UNL     1      27.305 -10.893  51.779  1.00  0.00     0.134 C 
HETATM    3  N9  UNL     1      27.851 -10.780  50.603  1.00  0.00    -0.281 N 
ATOM      4  H9  UNL     1      27.494 -11.363  49.846  1.00  0.00     0.189 HD
BRANCH   2   5
HETATM    5  O1  UNL     1      26.272 -11.827  51.842  1.00  0.00    -0.332 OA
BRANCH   5   6
HETATM    6  C5  UNL     1      25.524 -11.981  53.058  1.00  0.00     0.135 C 
HETATM    7  C4  UNL     1      24.269 -11.171  52.955  1.00  0.00     0.062 C 
HETATM    8  C2  UNL     1      23.204 -11.565  53.926  1.00  0.00     0.021 C 
HETATM    9  C1  UNL     1      23.247 -10.667  55.154  1.00  0.00     0.037 C 
HETATM   10  C3  UNL     1      21.835 -11.380  53.313  1.00  0.00     0.037 C 
HETATM   11  N13 UNL     1      23.294 -12.915  54.391  1.00  0.00    -0.405 N 
HETATM   12  C18 UNL     1      23.964 -13.835  53.547  1.00  0.00     0.021 C 
ATOM     13  H13 UNL     1      22.897 -13.201  55.285  1.00  0.00     0.154 HD
HETATM   14  C17 UNL     1      25.376 -13.417  53.351  1.00  0.00     0.062 C 
HETATM   15  C19 UNL     1      23.981 -15.165  54.339  1.00  0.00     0.037 C 
HETATM   16  C20 UNL     1      23.254 -14.181  52.265  1.00  0.00     0.037 C 
ENDBRANCH   5   6
ENDBRANCH   2   5
BRANCH   3  17
HETATM   17  N10 UNL     1      28.893  -9.910  50.324  1.00  0.00    -0.270 N 
ATOM     18  H10 UNL     1      29.239  -9.283  51.050  1.00  0.00     0.190 HD
BRANCH  17  19
HETATM   19  C14 UNL     1      29.477  -9.886  49.042  1.00  0.00     0.190 C 
HETATM   20  N11 UNL     1      30.382  -9.048  48.660  1.00  0.00    -0.360 N 
HETATM   21  C15 UNL     1      30.769  -9.288  47.299  1.00  0.00     0.142 C 
ATOM     22  H11 UNL     1      30.772  -8.312  49.248  1.00  0.00     0.162 HD
HETATM   23  C16 UNL     1      29.644 -10.148  46.764  1.00  0.00     0.142 C 
HETATM   24  N12 UNL     1      29.163 -10.771  47.976  1.00  0.00    -0.360 N 
ATOM     25  H12 UNL     1      28.690 -11.671  48.051  1.00  0.00     0.162 HD
ENDBRANCH  17  19
ENDBRANCH   3  17
ENDBRANCH   1   2
BRANCH   1  26
HETATM   26  C8  UNL     1      27.007  -8.780  53.042  1.00  0.00     0.130 C 
BRANCH  26  27
HETATM   27  N1  UNL     1      27.933  -7.691  53.274  1.00  0.00    -0.360 N 
HETATM   28  C9  UNL     1      28.368  -6.913  52.173  1.00  0.00     0.227 C 
HETATM   29  O2  UNL     1      27.929  -7.202  50.995  1.00  0.00    -0.273 OA
ATOM     30  H1  UNL     1      28.267  -7.487  54.216  1.00  0.00     0.162 HD
BRANCH  28  31
HETATM   31  C10 UNL     1      29.297  -5.779  52.214  1.00  0.00     0.185 C 
BRANCH  31  32
HETATM   32  S1  UNL     1      28.558  -4.182  51.881  1.00  0.00    -0.082 SA
BRANCH  32  33
HETATM   33  C11 UNL     1      29.521  -3.200  50.774  1.00  0.00     0.182 A 
HETATM   34  N2  UNL     1      30.240  -2.122  51.023  1.00  0.00    -0.261 N 
HETATM   35  N3  UNL     1      30.810  -1.699  49.896  1.00  0.00    -0.004 NA
ATOM     36  H2  UNL     1      30.343  -1.680  51.936  1.00  0.00     0.186 HD
HETATM   37  N4  UNL     1      30.456  -2.509  48.913  1.00  0.00    -0.216 N 
HETATM   38  N5  UNL     1      29.679  -3.416  49.435  1.00  0.00    -0.198 N 
ATOM     39  H4  UNL     1      30.737  -2.438  47.935  1.00  0.00     0.206 HD
BRANCH  38  40
HETATM   40  C12 UNL     1      29.051  -4.503  48.767  1.00  0.00     0.198 A 
HETATM   41  N6  UNL     1      29.515  -5.755  48.603  1.00  0.00    -0.220 N 
HETATM   42  O3  UNL     1      28.649  -6.455  47.936  1.00  0.00    -0.153 OA
ATOM     43  H6  UNL     1      30.410  -6.100  48.949  1.00  0.00     0.198 HD
HETATM   44  N7  UNL     1      27.619  -5.716  47.648  1.00  0.00    -0.222 N 
HETATM   45  C13 UNL     1      27.820  -4.491  48.142  1.00  0.00     0.169 A 
ATOM     46  H7  UNL     1      26.795  -6.022  47.130  1.00  0.00     0.198 HD
BRANCH  45  47
HETATM   47  N8  UNL     1      27.066  -3.473  48.083  1.00  0.00    -0.381 N 
ATOM     48  H82 UNL     1      26.293  -3.209  48.695  1.00  0.00     0.157 HD
ATOM     49  H81 UNL     1      27.144  -2.747  47.371  1.00  0.00     0.157 HD
ENDBRANCH  45  47
ENDBRANCH  38  40
ENDBRANCH  32  33
ENDBRANCH  31  32
ENDBRANCH  28  31
ENDBRANCH  26  27
ENDBRANCH   1  26
TORSDOF 12
ENDMDL
