MODEL 1
REMARK VINA RESULT: -8.490728913      0.000      0.000
REMARK  10 active torsions:
REMARK  status: ('A' for Active; 'I' for Inactive)
REMARK    1  A    between atoms: C2_2  and  C3_7 
REMARK    2  A    between atoms: N1_3  and  O1_5 
REMARK       I    between atoms: C3_7  and  N2_9 
REMARK    3  A    between atoms: N2_9  and  C4_11 
REMARK    4  A    between atoms: C6_13  and  S1_14 
REMARK    5  A    between atoms: S1_14  and  C7_15 
REMARK    6  A    between atoms: C9_17  and  N3_18 
REMARK    7  A    between atoms: N3_18  and  C10_20 
REMARK    8  A    between atoms: C13_28  and  C14_29 
REMARK    9  A    between atoms: C15_33  and  C16_34 
REMARK   10  A    between atoms: N7_41  and  O8_43 
ROOT
HETATM    1  C4  UNL     1      29.849  -6.181  48.582  1.00  0.00     0.170 C 
HETATM    2  C5  UNL     1      29.954  -6.249  50.036  1.00  0.00     0.097 C 
HETATM    3  C6  UNL     1      29.660  -4.961  50.842  1.00  0.00     0.016 C 
HETATM    4  C15 UNL     1      30.174  -3.917  50.110  1.00  0.00     0.114 C 
HETATM    5  N6  UNL     1      30.575  -4.432  48.907  1.00  0.00    -0.159 NA
HETATM    6  C17 UNL     1      30.846  -5.191  47.885  1.00  0.00     0.246 C 
HETATM    7  O7  UNL     1      31.455  -5.392  46.807  1.00  0.00    -0.276 OA
HETATM    8  C18 UNL     1      29.118  -4.993  48.190  1.00  0.00     0.129 C 
HETATM    9  N7  UNL     1      28.163  -4.529  47.658  1.00  0.00    -0.258 N 
ATOM     10  H7  UNL     1      28.142  -3.509  47.666  1.00  0.00     0.195 HD
ENDROOT
BRANCH   3  11
HETATM   11  S1  UNL     1      28.844  -5.197  52.277  1.00  0.00    -0.085 SA
BRANCH  11  12
HETATM   12  C7  UNL     1      28.055  -6.614  52.862  1.00  0.00     0.049 A 
HETATM   13  C8  UNL     1      28.171  -7.910  52.387  1.00  0.00     0.057 A 
HETATM   14  C9  UNL     1      27.447  -8.865  52.963  1.00  0.00     0.059 A 
HETATM   15  C13 UNL     1      26.624  -8.518  53.996  1.00  0.00     0.109 A 
HETATM   16  S2  UNL     1      26.906  -6.815  54.124  1.00  0.00    -0.074 SA
BRANCH  14  17
HETATM   17  N3  UNL     1      27.523 -10.249  52.509  1.00  0.00    -0.343 N 
ATOM     18  H3  UNL     1      28.181 -10.896  52.945  1.00  0.00     0.167 HD
BRANCH  17  19
HETATM   19  C10 UNL     1      26.673 -10.694  51.454  1.00  0.00     0.104 C 
HETATM   20  N4  UNL     1      25.551 -11.284  51.662  1.00  0.00    -0.355 N 
HETATM   21  C11 UNL     1      24.920 -11.613  50.397  1.00  0.00     0.356 C 
ATOM     22  H4  UNL     1      25.161 -11.490  52.582  1.00  0.00     0.162 HD
HETATM   23  N5  UNL     1      25.932 -11.435  49.393  1.00  0.00    -0.053 N 
HETATM   24  C12 UNL     1      26.921 -10.561  50.003  1.00  0.00     0.309 C 
ATOM     25  H52 UNL     1      26.318 -12.310  49.037  1.00  0.00     0.279 HD
ATOM     26  H51 UNL     1      25.574 -11.093  48.501  1.00  0.00     0.279 HD
ENDBRANCH  17  19
ENDBRANCH  14  17
BRANCH  15  27
HETATM   27  C14 UNL     1      25.708  -9.299  54.838  1.00  0.00     0.219 C 
HETATM   28  O3  UNL     1      25.080  -8.682  55.732  1.00  0.00    -0.643 OA
HETATM   29  O4  UNL     1      25.534 -10.627  54.674  1.00  0.00    -0.643 OA
ENDBRANCH  15  27
ENDBRANCH  11  12
ENDBRANCH   3  11
BRANCH   4  30
HETATM   30  C16 UNL     1      30.137  -2.518  50.552  1.00  0.00     0.223 C 
HETATM   31  O5  UNL     1      29.354  -1.997  51.317  1.00  0.00    -0.643 OA
HETATM   32  O6  UNL     1      31.123  -1.632  50.048  1.00  0.00    -0.643 OA
ENDBRANCH   4  30
BRANCH   1  33
HETATM   33  N2  UNL     1      29.683  -7.418  47.931  1.00  0.00    -0.332 N 
HETATM   34  C3  UNL     1      28.559  -8.140  47.561  1.00  0.00     0.266 C 
HETATM   35  O2  UNL     1      27.399  -7.750  47.781  1.00  0.00    -0.266 OA
ATOM     36  H2  UNL     1      30.562  -7.871  47.683  1.00  0.00     0.164 HD
BRANCH  34  37
HETATM   37  C2  UNL     1      28.701  -9.420  46.879  1.00  0.00     0.095 C 
HETATM   38  C1  UNL     1      27.489 -10.072  46.263  1.00  0.00     0.076 C 
HETATM   39  N1  UNL     1      29.852  -9.985  46.804  1.00  0.00    -0.268 N 
ATOM     40  H1  UNL     1      30.669  -9.538  47.222  1.00  0.00     0.194 HD
BRANCH  39  41
HETATM   41  O1  UNL     1      29.984 -11.192  46.161  1.00  0.00    -0.290 OA
ATOM     42  H1  UNL     1      30.252 -11.216  45.249  1.00  0.00     0.244 HD
ENDBRANCH  39  41
ENDBRANCH  34  37
ENDBRANCH   1  33
BRANCH   9  43
HETATM   43  O8  UNL     1      27.103  -5.091  47.046  1.00  0.00    -0.289 OA
ATOM     44  H8  UNL     1      26.467  -4.750  46.428  1.00  0.00     0.244 HD
ENDBRANCH   9  43
TORSDOF 10
ENDMDL
MODEL 2
REMARK VINA RESULT: -8.478401212      2.678      4.257
REMARK  10 active torsions:
REMARK  status: ('A' for Active; 'I' for Inactive)
REMARK    1  A    between atoms: C2_2  and  C3_7 
REMARK    2  A    between atoms: N1_3  and  O1_5 
REMARK       I    between atoms: C3_7  and  N2_9 
REMARK    3  A    between atoms: N2_9  and  C4_11 
REMARK    4  A    between atoms: C6_13  and  S1_14 
REMARK    5  A    between atoms: S1_14  and  C7_15 
REMARK    6  A    between atoms: C9_17  and  N3_18 
REMARK    7  A    between atoms: N3_18  and  C10_20 
REMARK    8  A    between atoms: C13_28  and  C14_29 
REMARK    9  A    between atoms: C15_33  and  C16_34 
REMARK   10  A    between atoms: N7_41  and  O8_43 
ROOT
HETATM    1  C4  UNL     1      30.285  -4.563  49.104  1.00  0.00     0.170 C 
HETATM    2  C5  UNL     1      30.536  -5.644  50.051  1.00  0.00     0.097 C 
HETATM    3  C6  UNL     1      29.526  -5.842  51.207  1.00  0.00     0.016 C 
HETATM    4  C15 UNL     1      29.138  -4.584  51.605  1.00  0.00     0.114 C 
HETATM    5  N6  UNL     1      29.673  -3.698  50.708  1.00  0.00    -0.159 NA
HETATM    6  C17 UNL     1      30.291  -3.120  49.720  1.00  0.00     0.246 C 
HETATM    7  O7  UNL     1      30.780  -2.093  49.191  1.00  0.00    -0.276 OA
HETATM    8  C18 UNL     1      28.915  -4.107  49.221  1.00  0.00     0.129 C 
HETATM    9  N7  UNL     1      27.853  -3.966  48.707  1.00  0.00    -0.258 N 
ATOM     10  H7  UNL     1      27.153  -3.541  49.315  1.00  0.00     0.195 HD
ENDROOT
BRANCH   3  11
HETATM   11  S1  UNL     1      29.211  -7.430  51.606  1.00  0.00    -0.085 SA
BRANCH  11  12
HETATM   12  C7  UNL     1      28.284  -8.606  50.752  1.00  0.00     0.049 A 
HETATM   13  C8  UNL     1      28.042  -8.672  49.390  1.00  0.00     0.057 A 
HETATM   14  C9  UNL     1      27.269  -9.651  48.929  1.00  0.00     0.059 A 
HETATM   15  C13 UNL     1      26.752 -10.542  49.825  1.00  0.00     0.109 A 
HETATM   16  S2  UNL     1      27.388  -9.956  51.323  1.00  0.00    -0.074 SA
BRANCH  14  17
HETATM   17  N3  UNL     1      26.975  -9.776  47.505  1.00  0.00    -0.343 N 
ATOM     18  H3  UNL     1      26.212  -9.241  47.091  1.00  0.00     0.167 HD
BRANCH  17  19
HETATM   19  C10 UNL     1      27.760 -10.650  46.696  1.00  0.00     0.104 C 
HETATM   20  N4  UNL     1      27.283 -11.708  46.146  1.00  0.00    -0.355 N 
HETATM   21  C11 UNL     1      28.320 -12.386  45.390  1.00  0.00     0.356 C 
ATOM     22  H4  UNL     1      26.317 -12.025  46.228  1.00  0.00     0.162 HD
HETATM   23  N5  UNL     1      29.561 -11.787  45.798  1.00  0.00    -0.053 N 
HETATM   24  C12 UNL     1      29.192 -10.501  46.364  1.00  0.00     0.309 C 
ATOM     25  H52 UNL     1      30.114 -12.371  46.426  1.00  0.00     0.279 HD
ATOM     26  H51 UNL     1      30.255 -11.726  45.053  1.00  0.00     0.279 HD
ENDBRANCH  17  19
ENDBRANCH  14  17
BRANCH  15  27
HETATM   27  C14 UNL     1      25.881 -11.715  49.665  1.00  0.00     0.219 C 
HETATM   28  O3  UNL     1      26.298 -12.647  48.935  1.00  0.00    -0.643 OA
HETATM   29  O4  UNL     1      24.678 -11.807  50.269  1.00  0.00    -0.643 OA
ENDBRANCH  15  27
ENDBRANCH  11  12
ENDBRANCH   3  11
BRANCH   4  30
HETATM   30  C16 UNL     1      28.210  -4.332  52.714  1.00  0.00     0.223 C 
HETATM   31  O5  UNL     1      27.270  -5.010  53.070  1.00  0.00    -0.643 OA
HETATM   32  O6  UNL     1      28.402  -3.162  53.492  1.00  0.00    -0.643 OA
ENDBRANCH   4  30
BRANCH   1  33
HETATM   33  N2  UNL     1      30.936  -4.685  47.863  1.00  0.00    -0.332 N 
HETATM   34  C3  UNL     1      30.707  -5.491  46.758  1.00  0.00     0.266 C 
HETATM   35  O2  UNL     1      29.783  -6.322  46.704  1.00  0.00    -0.266 OA
ATOM     36  H2  UNL     1      31.732  -4.057  47.754  1.00  0.00     0.164 HD
BRANCH  34  37
HETATM   37  C2  UNL     1      31.566  -5.389  45.585  1.00  0.00     0.095 C 
HETATM   38  C1  UNL     1      30.971  -5.574  44.211  1.00  0.00     0.076 C 
HETATM   39  N1  UNL     1      32.819  -5.144  45.725  1.00  0.00    -0.268 N 
ATOM     40  H1  UNL     1      33.214  -5.019  46.657  1.00  0.00     0.194 HD
BRANCH  39  41
HETATM   41  O1  UNL     1      33.626  -5.048  44.617  1.00  0.00    -0.290 OA
ATOM     42  H1  UNL     1      34.434  -4.551  44.661  1.00  0.00     0.244 HD
ENDBRANCH  39  41
ENDBRANCH  34  37
ENDBRANCH   1  33
BRANCH   9  43
HETATM   43  O8  UNL     1      27.397  -4.260  47.473  1.00  0.00    -0.289 OA
ATOM     44  H8  UNL     1      26.524  -4.421  47.137  1.00  0.00     0.244 HD
ENDBRANCH   9  43
TORSDOF 10
ENDMDL
MODEL 3
REMARK VINA RESULT: -8.423957943      2.615      4.439
REMARK  10 active torsions:
REMARK  status: ('A' for Active; 'I' for Inactive)
REMARK    1  A    between atoms: C2_2  and  C3_7 
REMARK    2  A    between atoms: N1_3  and  O1_5 
REMARK       I    between atoms: C3_7  and  N2_9 
REMARK    3  A    between atoms: N2_9  and  C4_11 
REMARK    4  A    between atoms: C6_13  and  S1_14 
REMARK    5  A    between atoms: S1_14  and  C7_15 
REMARK    6  A    between atoms: C9_17  and  N3_18 
REMARK    7  A    between atoms: N3_18  and  C10_20 
REMARK    8  A    between atoms: C13_28  and  C14_29 
REMARK    9  A    between atoms: C15_33  and  C16_34 
REMARK   10  A    between atoms: N7_41  and  O8_43 
ROOT
HETATM    1  C4  UNL     1      30.272  -4.471  49.102  1.00  0.00     0.170 C 
HETATM    2  C5  UNL     1      30.497  -5.590  50.011  1.00  0.00     0.097 C 
HETATM    3  C6  UNL     1      29.490  -5.796  51.167  1.00  0.00     0.016 C 
HETATM    4  C15 UNL     1      29.142  -4.541  51.609  1.00  0.00     0.114 C 
HETATM    5  N6  UNL     1      29.696  -3.642  50.738  1.00  0.00    -0.159 NA
HETATM    6  C17 UNL     1      30.325  -3.051  49.764  1.00  0.00     0.246 C 
HETATM    7  O7  UNL     1      30.840  -2.021  49.265  1.00  0.00    -0.276 OA
HETATM    8  C18 UNL     1      28.916  -3.979  49.244  1.00  0.00     0.129 C 
HETATM    9  N7  UNL     1      27.856  -3.791  48.743  1.00  0.00    -0.258 N 
ATOM     10  H7  UNL     1      27.173  -3.365  49.370  1.00  0.00     0.195 HD
ENDROOT
BRANCH   3  11
HETATM   11  S1  UNL     1      29.131  -7.387  51.516  1.00  0.00    -0.085 SA
BRANCH  11  12
HETATM   12  C7  UNL     1      28.726  -8.674  50.444  1.00  0.00     0.049 A 
HETATM   13  C8  UNL     1      27.611  -9.496  50.486  1.00  0.00     0.057 A 
HETATM   14  C9  UNL     1      27.498 -10.459  49.575  1.00  0.00     0.059 A 
HETATM   15  C13 UNL     1      28.489 -10.588  48.645  1.00  0.00     0.109 A 
HETATM   16  S2  UNL     1      29.573  -9.316  49.095  1.00  0.00    -0.074 SA
BRANCH  14  17
HETATM   17  N3  UNL     1      26.350 -11.358  49.565  1.00  0.00    -0.343 N 
ATOM     18  H3  UNL     1      25.577 -11.195  48.919  1.00  0.00     0.167 HD
BRANCH  17  19
HETATM   19  C10 UNL     1      26.313 -12.467  50.462  1.00  0.00     0.104 C 
HETATM   20  N4  UNL     1      27.133 -13.452  50.388  1.00  0.00    -0.355 N 
HETATM   21  C11 UNL     1      26.845 -14.419  51.432  1.00  0.00     0.356 C 
ATOM     22  H4  UNL     1      27.878 -13.542  49.697  1.00  0.00     0.162 HD
HETATM   23  N5  UNL     1      25.556 -14.060  51.957  1.00  0.00    -0.053 N 
HETATM   24  C12 UNL     1      25.369 -12.669  51.581  1.00  0.00     0.309 C 
ATOM     25  H52 UNL     1      24.801 -14.675  51.652  1.00  0.00     0.279 HD
ATOM     26  H51 UNL     1      25.454 -14.234  52.957  1.00  0.00     0.279 HD
ENDBRANCH  17  19
ENDBRANCH  14  17
BRANCH  15  27
HETATM   27  C14 UNL     1      28.679 -11.518  47.524  1.00  0.00     0.219 C 
HETATM   28  O3  UNL     1      29.344 -11.108  46.542  1.00  0.00    -0.643 OA
HETATM   29  O4  UNL     1      28.169 -12.767  47.529  1.00  0.00    -0.643 OA
ENDBRANCH  15  27
ENDBRANCH  11  12
ENDBRANCH   3  11
BRANCH   4  30
HETATM   30  C16 UNL     1      28.229  -4.299  52.733  1.00  0.00     0.223 C 
HETATM   31  O5  UNL     1      27.299  -4.983  53.100  1.00  0.00    -0.643 OA
HETATM   32  O6  UNL     1      28.427  -3.131  53.513  1.00  0.00    -0.643 OA
ENDBRANCH   4  30
BRANCH   1  33
HETATM   33  N2  UNL     1      30.910  -4.571  47.852  1.00  0.00    -0.332 N 
HETATM   34  C3  UNL     1      30.858  -5.522  46.844  1.00  0.00     0.266 C 
HETATM   35  O2  UNL     1      30.155  -6.545  46.913  1.00  0.00    -0.266 OA
ATOM     36  H2  UNL     1      31.534  -3.791  47.647  1.00  0.00     0.164 HD
BRANCH  34  37
HETATM   37  C2  UNL     1      31.647  -5.350  45.631  1.00  0.00     0.095 C 
HETATM   38  C1  UNL     1      30.974  -5.462  44.286  1.00  0.00     0.076 C 
HETATM   39  N1  UNL     1      32.905  -5.105  45.712  1.00  0.00    -0.268 N 
ATOM     40  H1  UNL     1      33.353  -5.030  46.625  1.00  0.00     0.194 HD
BRANCH  39  41
HETATM   41  O1  UNL     1      33.647  -4.943  44.566  1.00  0.00    -0.290 OA
ATOM     42  H1  UNL     1      33.489  -5.504  43.816  1.00  0.00     0.244 HD
ENDBRANCH  39  41
ENDBRANCH  34  37
ENDBRANCH   1  33
BRANCH   9  43
HETATM   43  O8  UNL     1      27.383  -4.031  47.504  1.00  0.00    -0.289 OA
ATOM     44  H8  UNL     1      26.761  -4.666  47.170  1.00  0.00     0.244 HD
ENDBRANCH   9  43
TORSDOF 10
ENDMDL
MODEL 4
REMARK VINA RESULT: -8.396717651      2.591      4.417
REMARK  10 active torsions:
REMARK  status: ('A' for Active; 'I' for Inactive)
REMARK    1  A    between atoms: C2_2  and  C3_7 
REMARK    2  A    between atoms: N1_3  and  O1_5 
REMARK       I    between atoms: C3_7  and  N2_9 
REMARK    3  A    between atoms: N2_9  and  C4_11 
REMARK    4  A    between atoms: C6_13  and  S1_14 
REMARK    5  A    between atoms: S1_14  and  C7_15 
REMARK    6  A    between atoms: C9_17  and  N3_18 
REMARK    7  A    between atoms: N3_18  and  C10_20 
REMARK    8  A    between atoms: C13_28  and  C14_29 
REMARK    9  A    between atoms: C15_33  and  C16_34 
REMARK   10  A    between atoms: N7_41  and  O8_43 
ROOT
HETATM    1  C4  UNL     1      30.264  -4.475  49.118  1.00  0.00     0.170 C 
HETATM    2  C5  UNL     1      30.483  -5.612  50.006  1.00  0.00     0.097 C 
HETATM    3  C6  UNL     1      29.472  -5.837  51.156  1.00  0.00     0.016 C 
HETATM    4  C15 UNL     1      29.126  -4.590  51.621  1.00  0.00     0.114 C 
HETATM    5  N6  UNL     1      29.685  -3.676  50.767  1.00  0.00    -0.159 NA
HETATM    6  C17 UNL     1      30.318  -3.067  49.807  1.00  0.00     0.246 C 
HETATM    7  O7  UNL     1      30.837  -2.030  49.329  1.00  0.00    -0.276 OA
HETATM    8  C18 UNL     1      28.909  -3.983  49.266  1.00  0.00     0.129 C 
HETATM    9  N7  UNL     1      27.850  -3.782  48.765  1.00  0.00    -0.258 N 
ATOM     10  H7  UNL     1      27.167  -3.367  49.398  1.00  0.00     0.195 HD
ENDROOT
BRANCH   3  11
HETATM   11  S1  UNL     1      29.108  -7.433  51.474  1.00  0.00    -0.085 SA
BRANCH  11  12
HETATM   12  C7  UNL     1      28.684  -8.694  50.378  1.00  0.00     0.049 A 
HETATM   13  C8  UNL     1      27.477  -9.367  50.282  1.00  0.00     0.057 A 
HETATM   14  C9  UNL     1      27.360 -10.338  49.381  1.00  0.00     0.059 A 
HETATM   15  C13 UNL     1      28.440 -10.622  48.595  1.00  0.00     0.109 A 
HETATM   16  S2  UNL     1      29.612  -9.484  49.166  1.00  0.00    -0.074 SA
BRANCH  14  17
HETATM   17  N3  UNL     1      26.117 -11.084  49.230  1.00  0.00    -0.343 N 
ATOM     18  H3  UNL     1      25.626 -11.088  48.335  1.00  0.00     0.167 HD
BRANCH  17  19
HETATM   19  C10 UNL     1      25.589 -11.810  50.339  1.00  0.00     0.104 C 
HETATM   20  N4  UNL     1      24.394 -11.643  50.778  1.00  0.00    -0.355 N 
HETATM   21  C11 UNL     1      24.153 -12.519  51.909  1.00  0.00     0.356 C 
ATOM     22  H4  UNL     1      23.714 -10.990  50.388  1.00  0.00     0.162 HD
HETATM   23  N5  UNL     1      25.441 -13.016  52.306  1.00  0.00    -0.053 N 
HETATM   24  C12 UNL     1      26.292 -12.833  51.141  1.00  0.00     0.309 C 
ATOM     25  H52 UNL     1      25.806 -12.585  53.155  1.00  0.00     0.279 HD
ATOM     26  H51 UNL     1      25.424 -13.974  52.658  1.00  0.00     0.279 HD
ENDBRANCH  17  19
ENDBRANCH  14  17
BRANCH  15  27
HETATM   27  C14 UNL     1      28.655 -11.607  47.525  1.00  0.00     0.219 C 
HETATM   28  O3  UNL     1      28.148 -12.744  47.680  1.00  0.00    -0.643 OA
HETATM   29  O4  UNL     1      29.363 -11.320  46.413  1.00  0.00    -0.643 OA
ENDBRANCH  15  27
ENDBRANCH  11  12
ENDBRANCH   3  11
BRANCH   4  30
HETATM   30  C16 UNL     1      28.211  -4.366  52.746  1.00  0.00     0.223 C 
HETATM   31  O5  UNL     1      27.283  -5.060  53.103  1.00  0.00    -0.643 OA
HETATM   32  O6  UNL     1      28.401  -3.207  53.541  1.00  0.00    -0.643 OA
ENDBRANCH   4  30
BRANCH   1  33
HETATM   33  N2  UNL     1      30.905  -4.553  47.868  1.00  0.00    -0.332 N 
HETATM   34  C3  UNL     1      30.907  -5.518  46.872  1.00  0.00     0.266 C 
HETATM   35  O2  UNL     1      30.264  -6.579  46.955  1.00  0.00    -0.266 OA
ATOM     36  H2  UNL     1      31.482  -3.740  47.652  1.00  0.00     0.164 HD
BRANCH  34  37
HETATM   37  C2  UNL     1      31.683  -5.315  45.655  1.00  0.00     0.095 C 
HETATM   38  C1  UNL     1      30.996  -5.388  44.315  1.00  0.00     0.076 C 
HETATM   39  N1  UNL     1      32.943  -5.076  45.729  1.00  0.00    -0.268 N 
ATOM     40  H1  UNL     1      33.402  -5.027  46.639  1.00  0.00     0.194 HD
BRANCH  39  41
HETATM   41  O1  UNL     1      33.673  -4.885  44.580  1.00  0.00    -0.290 OA
ATOM     42  H1  UNL     1      33.388  -5.284  43.766  1.00  0.00     0.244 HD
ENDBRANCH  39  41
ENDBRANCH  34  37
ENDBRANCH   1  33
BRANCH   9  43
HETATM   43  O8  UNL     1      27.380  -3.997  47.521  1.00  0.00    -0.289 OA
ATOM     44  H8  UNL     1      26.527  -4.260  47.197  1.00  0.00     0.244 HD
ENDBRANCH   9  43
TORSDOF 10
ENDMDL
MODEL 5
REMARK VINA RESULT: -8.320268231      2.588      4.116
REMARK  10 active torsions:
REMARK  status: ('A' for Active; 'I' for Inactive)
REMARK    1  A    between atoms: C2_2  and  C3_7 
REMARK    2  A    between atoms: N1_3  and  O1_5 
REMARK       I    between atoms: C3_7  and  N2_9 
REMARK    3  A    between atoms: N2_9  and  C4_11 
REMARK    4  A    between atoms: C6_13  and  S1_14 
REMARK    5  A    between atoms: S1_14  and  C7_15 
REMARK    6  A    between atoms: C9_17  and  N3_18 
REMARK    7  A    between atoms: N3_18  and  C10_20 
REMARK    8  A    between atoms: C13_28  and  C14_29 
REMARK    9  A    between atoms: C15_33  and  C16_34 
REMARK   10  A    between atoms: N7_41  and  O8_43 
ROOT
HETATM    1  C4  UNL     1      30.286  -4.508  49.119  1.00  0.00     0.170 C 
HETATM    2  C5  UNL     1      30.548  -5.568  50.086  1.00  0.00     0.097 C 
HETATM    3  C6  UNL     1      29.541  -5.754  51.246  1.00  0.00     0.016 C 
HETATM    4  C15 UNL     1      29.141  -4.492  51.621  1.00  0.00     0.114 C 
HETATM    5  N6  UNL     1      29.666  -3.619  50.706  1.00  0.00    -0.159 NA
HETATM    6  C17 UNL     1      30.278  -3.054  49.706  1.00  0.00     0.246 C 
HETATM    7  O7  UNL     1      30.756  -2.032  49.157  1.00  0.00    -0.276 OA
HETATM    8  C18 UNL     1      28.911  -4.063  49.228  1.00  0.00     0.129 C 
HETATM    9  N7  UNL     1      27.848  -3.943  48.713  1.00  0.00    -0.258 N 
ATOM     10  H7  UNL     1      27.144  -3.513  49.313  1.00  0.00     0.195 HD
ENDROOT
BRANCH   3  11
HETATM   11  S1  UNL     1      29.243  -7.337  51.676  1.00  0.00    -0.085 SA
BRANCH  11  12
HETATM   12  C7  UNL     1      28.456  -8.580  50.779  1.00  0.00     0.049 A 
HETATM   13  C8  UNL     1      28.068  -9.834  51.224  1.00  0.00     0.057 A 
HETATM   14  C9  UNL     1      27.497 -10.666  50.358  1.00  0.00     0.059 A 
HETATM   15  C13 UNL     1      27.321 -10.241  49.073  1.00  0.00     0.109 A 
HETATM   16  S2  UNL     1      27.984  -8.644  49.128  1.00  0.00    -0.074 SA
BRANCH  14  17
HETATM   17  N3  UNL     1      27.066 -12.000  50.763  1.00  0.00    -0.343 N 
ATOM     18  H3  UNL     1      27.603 -12.820  50.478  1.00  0.00     0.167 HD
BRANCH  17  19
HETATM   19  C10 UNL     1      25.892 -12.152  51.558  1.00  0.00     0.104 C 
HETATM   20  N4  UNL     1      24.716 -11.864  51.129  1.00  0.00    -0.355 N 
HETATM   21  C11 UNL     1      23.732 -12.124  52.164  1.00  0.00     0.356 C 
ATOM     22  H4  UNL     1      24.505 -11.505  50.198  1.00  0.00     0.162 HD
HETATM   23  N5  UNL     1      24.476 -12.309  53.379  1.00  0.00    -0.053 N 
HETATM   24  C12 UNL     1      25.823 -12.645  52.950  1.00  0.00     0.309 C 
ATOM     25  H52 UNL     1      24.432 -11.513  54.015  1.00  0.00     0.279 HD
ATOM     26  H51 UNL     1      24.064 -12.991  54.016  1.00  0.00     0.279 HD
ENDBRANCH  17  19
ENDBRANCH  14  17
BRANCH  15  27
HETATM   27  C14 UNL     1      26.740 -10.885  47.887  1.00  0.00     0.219 C 
HETATM   28  O3  UNL     1      25.706 -11.576  48.056  1.00  0.00    -0.643 OA
HETATM   29  O4  UNL     1      27.279 -10.753  46.657  1.00  0.00    -0.643 OA
ENDBRANCH  15  27
ENDBRANCH  11  12
ENDBRANCH   3  11
BRANCH   4  30
HETATM   30  C16 UNL     1      28.212  -4.228  52.726  1.00  0.00     0.223 C 
HETATM   31  O5  UNL     1      27.259  -4.890  53.074  1.00  0.00    -0.643 OA
HETATM   32  O6  UNL     1      28.420  -3.064  53.509  1.00  0.00    -0.643 OA
ENDBRANCH   4  30
BRANCH   1  33
HETATM   33  N2  UNL     1      30.936  -4.647  47.879  1.00  0.00    -0.332 N 
HETATM   34  C3  UNL     1      30.696  -5.456  46.778  1.00  0.00     0.266 C 
HETATM   35  O2  UNL     1      29.759  -6.271  46.727  1.00  0.00    -0.266 OA
ATOM     36  H2  UNL     1      31.743  -4.033  47.768  1.00  0.00     0.164 HD
BRANCH  34  37
HETATM   37  C2  UNL     1      31.559  -5.375  45.606  1.00  0.00     0.095 C 
HETATM   38  C1  UNL     1      30.980  -5.640  44.239  1.00  0.00     0.076 C 
HETATM   39  N1  UNL     1      32.801  -5.078  45.741  1.00  0.00    -0.268 N 
ATOM     40  H1  UNL     1      33.185  -4.899  46.669  1.00  0.00     0.194 HD
BRANCH  39  41
HETATM   41  O1  UNL     1      33.612  -5.003  44.634  1.00  0.00    -0.290 OA
ATOM     42  H1  UNL     1      33.491  -4.301  44.005  1.00  0.00     0.244 HD
ENDBRANCH  39  41
ENDBRANCH  34  37
ENDBRANCH   1  33
BRANCH   9  43
HETATM   43  O8  UNL     1      27.393  -4.266  47.486  1.00  0.00    -0.289 OA
ATOM     44  H8  UNL     1      27.752  -4.808  46.793  1.00  0.00     0.244 HD
ENDBRANCH   9  43
TORSDOF 10
ENDMDL
