MODEL 1
REMARK VINA RESULT: -8.492368618      0.000      0.000
REMARK  2 active torsions:
REMARK  status: ('A' for Active; 'I' for Inactive)
REMARK    1  A    between atoms: C9_10  and  C10_11 
REMARK       I    between atoms: C10_11  and  N2_13 
REMARK       I    between atoms: N2_13  and  C11_15 
REMARK       I    between atoms: C11_15  and  N4_26 
REMARK    2  A    between atoms: N3_16  and  C12_18 
REMARK       I    between atoms: N5_29  and  C22_30 
ROOT
HETATM    1  C10 UNL     1       0.899  14.108 -60.220  1.00  0.00     0.268 C 
HETATM    2  O1  UNL     1       1.940  14.492 -60.879  1.00  0.00    -0.270 OA
HETATM    3  N2  UNL     1       0.463  14.970 -59.225  1.00  0.00    -0.158 N 
ATOM      4  H2  UNL     1      -0.359  14.673 -58.700  1.00  0.00     0.187 HD
HETATM    5  C11 UNL     1       1.024  16.206 -58.857  1.00  0.00     0.679 C 
HETATM    6  N3  UNL     1       0.548  16.875 -57.961  1.00  0.00    -0.216 N 
ATOM      7  H3  UNL     1       1.163  17.689 -57.936  1.00  0.00     0.178 HD
HETATM    8  N4  UNL     1       2.200  16.726 -59.529  1.00  0.00    -0.215 N 
HETATM    9  C20 UNL     1       3.528  16.377 -59.083  1.00  0.00     0.161 C 
HETATM   10  C21 UNL     1       4.287  17.679 -58.792  1.00  0.00     0.146 C 
HETATM   11  N5  UNL     1       4.265  18.467 -60.021  1.00  0.00    -0.353 N 
HETATM   12  C22 UNL     1       5.237  19.503 -60.176  1.00  0.00     0.184 C 
HETATM   13  N6  UNL     1       5.487  19.945 -61.357  1.00  0.00    -0.374 N 
ATOM     14  H61 UNL     1       6.181  20.685 -61.468  1.00  0.00     0.158 HD
ATOM     15  H62 UNL     1       5.016  19.586 -62.188  1.00  0.00     0.158 HD
HETATM   16  N7  UNL     1       5.890  20.001 -59.024  1.00  0.00    -0.064 NA
HETATM   17  C23 UNL     1       3.328  18.242 -61.074  1.00  0.00     0.146 C 
HETATM   18  C24 UNL     1       2.029  17.652 -60.605  1.00  0.00     0.161 C 
ENDROOT
BRANCH   6  19
HETATM   19  C12 UNL     1      -0.351  17.146 -56.970  1.00  0.00     0.052 C 
HETATM   20  C13 UNL     1      -1.420  18.218 -57.303  1.00  0.00     0.036 C 
HETATM   21  C14 UNL     1      -2.607  17.723 -56.559  1.00  0.00    -0.011 C 
HETATM   22  C15 UNL     1      -2.283  17.779 -55.084  1.00  0.00     0.010 C 
HETATM   23  C19 UNL     1      -2.501  16.210 -56.803  1.00  0.00     0.012 C 
HETATM   24  C16 UNL     1      -1.061  16.886 -55.021  1.00  0.00    -0.005 C 
HETATM   25  C17 UNL     1       0.197  17.514 -55.582  1.00  0.00     0.037 C 
HETATM   26  C18 UNL     1      -1.102  16.038 -56.269  1.00  0.00     0.019 C 
ENDBRANCH   6  19
BRANCH   1  27
HETATM   27  C9  UNL     1       0.297  12.787 -60.614  1.00  0.00     0.289 C 
HETATM   28  C2  UNL     1       0.300  11.860 -59.453  1.00  0.00    -0.009 C 
HETATM   29  C1  UNL     1       1.089  12.385 -58.264  1.00  0.00     0.017 C 
HETATM   30  C3  UNL     1      -1.112  11.645 -58.869  1.00  0.00     0.017 C 
HETATM   31  C4  UNL     1       0.915  10.558 -59.869  1.00  0.00     0.019 C 
HETATM   32  C5  UNL     1       1.287  10.455 -61.303  1.00  0.00     0.038 C 
HETATM   33  C6  UNL     1       2.073  11.697 -61.772  1.00  0.00     0.244 C 
HETATM   34  C8  UNL     1       0.310  11.024 -62.253  1.00  0.00     0.244 C 
HETATM   35  N1  UNL     1       0.789  12.343 -61.841  1.00  0.00    -0.057 N 
HETATM   36  C7  UNL     1       0.543  13.213 -62.984  1.00  0.00     0.273 C 
ENDBRANCH   1  27
TORSDOF 2
ENDMDL
MODEL 2
REMARK VINA RESULT: -7.300182072      2.558      6.106
REMARK  2 active torsions:
REMARK  status: ('A' for Active; 'I' for Inactive)
REMARK    1  A    between atoms: C9_10  and  C10_11 
REMARK       I    between atoms: C10_11  and  N2_13 
REMARK       I    between atoms: N2_13  and  C11_15 
REMARK       I    between atoms: C11_15  and  N4_26 
REMARK    2  A    between atoms: N3_16  and  C12_18 
REMARK       I    between atoms: N5_29  and  C22_30 
ROOT
HETATM    1  C10 UNL     1       0.011  14.897 -59.560  1.00  0.00     0.268 C 
HETATM    2  O1  UNL     1       0.252  16.096 -59.148  1.00  0.00    -0.270 OA
HETATM    3  N2  UNL     1       0.040  14.713 -60.934  1.00  0.00    -0.158 N 
ATOM      4  H2  UNL     1      -0.150  13.768 -61.267  1.00  0.00     0.187 HD
HETATM    5  C11 UNL     1       0.303  15.680 -61.922  1.00  0.00     0.679 C 
HETATM    6  N3  UNL     1       0.300  15.395 -63.103  1.00  0.00    -0.216 N 
ATOM      7  H3  UNL     1       0.517  16.286 -63.551  1.00  0.00     0.178 HD
HETATM    8  N4  UNL     1       0.579  17.059 -61.567  1.00  0.00    -0.215 N 
HETATM    9  C20 UNL     1      -0.491  18.014 -61.400  1.00  0.00     0.161 C 
HETATM   10  C21 UNL     1      -0.221  19.198 -62.340  1.00  0.00     0.146 C 
HETATM   11  N5  UNL     1       1.097  19.722 -61.991  1.00  0.00    -0.353 N 
HETATM   12  C22 UNL     1       1.420  21.055 -62.392  1.00  0.00     0.184 C 
HETATM   13  N6  UNL     1       2.382  21.664 -61.795  1.00  0.00    -0.374 N 
ATOM     14  H61 UNL     1       2.613  22.616 -62.081  1.00  0.00     0.158 HD
ATOM     15  H62 UNL     1       2.925  21.231 -61.048  1.00  0.00     0.158 HD
HETATM   16  N7  UNL     1       0.667  21.655 -63.428  1.00  0.00    -0.064 NA
HETATM   17  C23 UNL     1       2.067  18.970 -61.263  1.00  0.00     0.146 C 
HETATM   18  C24 UNL     1       1.939  17.485 -61.450  1.00  0.00     0.161 C 
ENDROOT
BRANCH   6  19
HETATM   19  C12 UNL     1       0.170  14.547 -64.166  1.00  0.00     0.052 C 
HETATM   20  C13 UNL     1       1.384  13.624 -64.444  1.00  0.00     0.036 C 
HETATM   21  C14 UNL     1       0.732  12.389 -64.952  1.00  0.00    -0.011 C 
HETATM   22  C15 UNL     1       0.050  12.730 -66.257  1.00  0.00     0.010 C 
HETATM   23  C19 UNL     1      -0.489  12.295 -64.024  1.00  0.00     0.012 C 
HETATM   24  C16 UNL     1      -0.897  13.826 -65.812  1.00  0.00    -0.005 C 
HETATM   25  C17 UNL     1      -0.222  15.150 -65.523  1.00  0.00     0.037 C 
HETATM   26  C18 UNL     1      -1.046  13.664 -64.319  1.00  0.00     0.019 C 
ENDBRANCH   6  19
BRANCH   1  27
HETATM   27  C9  UNL     1      -0.268  13.862 -58.505  1.00  0.00     0.289 C 
HETATM   28  C2  UNL     1      -0.016  12.502 -59.048  1.00  0.00    -0.009 C 
HETATM   29  C1  UNL     1       0.234  12.488 -60.547  1.00  0.00     0.017 C 
HETATM   30  C3  UNL     1       1.268  11.869 -58.473  1.00  0.00     0.017 C 
HETATM   31  C4  UNL     1      -1.211  11.639 -58.776  1.00  0.00     0.019 C 
HETATM   32  C5  UNL     1      -2.295  12.275 -57.986  1.00  0.00     0.038 C 
HETATM   33  C6  UNL     1      -2.645  13.674 -58.534  1.00  0.00     0.244 C 
HETATM   34  C8  UNL     1      -1.846  13.107 -56.851  1.00  0.00     0.244 C 
HETATM   35  N1  UNL     1      -1.466  14.117 -57.838  1.00  0.00    -0.057 N 
HETATM   36  C7  UNL     1      -1.549  15.390 -57.133  1.00  0.00     0.273 C 
ENDBRANCH   1  27
TORSDOF 2
ENDMDL
MODEL 3
REMARK VINA RESULT: -7.269808954      2.368      2.880
REMARK  2 active torsions:
REMARK  status: ('A' for Active; 'I' for Inactive)
REMARK    1  A    between atoms: C9_10  and  C10_11 
REMARK       I    between atoms: C10_11  and  N2_13 
REMARK       I    between atoms: N2_13  and  C11_15 
REMARK       I    between atoms: C11_15  and  N4_26 
REMARK    2  A    between atoms: N3_16  and  C12_18 
REMARK       I    between atoms: N5_29  and  C22_30 
ROOT
HETATM    1  C10 UNL     1       0.042  14.988 -61.987  1.00  0.00     0.268 C 
HETATM    2  O1  UNL     1       0.374  15.772 -62.956  1.00  0.00    -0.270 OA
HETATM    3  N2  UNL     1      -0.117  15.593 -60.749  1.00  0.00    -0.158 N 
ATOM      4  H2  UNL     1      -0.380  14.980 -59.978  1.00  0.00     0.187 HD
HETATM    5  C11 UNL     1       0.043  16.954 -60.435  1.00  0.00     0.679 C 
HETATM    6  N3  UNL     1      -0.126  17.367 -59.304  1.00  0.00    -0.216 N 
ATOM      7  H3  UNL     1       0.061  18.366 -59.398  1.00  0.00     0.178 HD
HETATM    8  N4  UNL     1       0.423  17.919 -61.450  1.00  0.00    -0.215 N 
HETATM    9  C20 UNL     1       1.811  18.176 -61.750  1.00  0.00     0.161 C 
HETATM   10  C21 UNL     1       2.062  19.681 -61.579  1.00  0.00     0.146 C 
HETATM   11  N5  UNL     1       1.129  20.369 -62.468  1.00  0.00    -0.353 N 
HETATM   12  C22 UNL     1       1.419  21.719 -62.836  1.00  0.00     0.184 C 
HETATM   13  N6  UNL     1       0.851  22.211 -63.879  1.00  0.00    -0.374 N 
ATOM     14  H61 UNL     1       1.058  23.175 -64.142  1.00  0.00     0.158 HD
ATOM     15  H62 UNL     1       0.200  21.676 -64.453  1.00  0.00     0.158 HD
HETATM   16  N7  UNL     1       2.322  22.462 -62.040  1.00  0.00    -0.064 NA
HETATM   17  C23 UNL     1      -0.047  19.753 -62.991  1.00  0.00     0.146 C 
HETATM   18  C24 UNL     1      -0.600  18.670 -62.108  1.00  0.00     0.161 C 
ENDROOT
BRANCH   6  19
HETATM   19  C12 UNL     1      -0.425  17.240 -57.978  1.00  0.00     0.052 C 
HETATM   20  C13 UNL     1      -1.687  18.001 -57.496  1.00  0.00     0.036 C 
HETATM   21  C14 UNL     1      -2.218  17.099 -56.443  1.00  0.00    -0.011 C 
HETATM   22  C15 UNL     1      -1.204  17.048 -55.324  1.00  0.00     0.010 C 
HETATM   23  C19 UNL     1      -1.983  15.723 -57.085  1.00  0.00     0.012 C 
HETATM   24  C16 UNL     1       0.016  16.535 -56.061  1.00  0.00    -0.005 C 
HETATM   25  C17 UNL     1       0.677  17.560 -56.957  1.00  0.00     0.037 C 
HETATM   26  C18 UNL     1      -0.503  15.883 -57.319  1.00  0.00     0.019 C 
ENDBRANCH   6  19
BRANCH   1  27
HETATM   27  C9  UNL     1      -0.131  13.532 -62.321  1.00  0.00     0.289 C 
HETATM   28  C2  UNL     1       0.744  12.703 -61.454  1.00  0.00    -0.009 C 
HETATM   29  C1  UNL     1       1.726  13.521 -60.630  1.00  0.00     0.017 C 
HETATM   30  C3  UNL     1      -0.053  11.930 -60.382  1.00  0.00     0.017 C 
HETATM   31  C4  UNL     1       1.538  11.767 -62.313  1.00  0.00     0.019 C 
HETATM   32  C5  UNL     1       1.228  11.810 -63.764  1.00  0.00     0.038 C 
HETATM   33  C6  UNL     1       1.187  13.260 -64.289  1.00  0.00     0.244 C 
HETATM   34  C8  UNL     1      -0.207  11.913 -64.101  1.00  0.00     0.244 C 
HETATM   35  N1  UNL     1      -0.124  13.317 -63.700  1.00  0.00    -0.057 N 
HETATM   36  C7  UNL     1      -1.167  13.994 -64.460  1.00  0.00     0.273 C 
ENDBRANCH   1  27
TORSDOF 2
ENDMDL
MODEL 4
REMARK VINA RESULT: -7.257813369      1.945      2.328
REMARK  2 active torsions:
REMARK  status: ('A' for Active; 'I' for Inactive)
REMARK    1  A    between atoms: C9_10  and  C10_11 
REMARK       I    between atoms: C10_11  and  N2_13 
REMARK       I    between atoms: N2_13  and  C11_15 
REMARK       I    between atoms: C11_15  and  N4_26 
REMARK    2  A    between atoms: N3_16  and  C12_18 
REMARK       I    between atoms: N5_29  and  C22_30 
ROOT
HETATM    1  C10 UNL     1       0.148  14.100 -60.766  1.00  0.00     0.268 C 
HETATM    2  O1  UNL     1       0.424  14.719 -61.863  1.00  0.00    -0.270 OA
HETATM    3  N2  UNL     1      -0.064  14.902 -59.655  1.00  0.00    -0.158 N 
ATOM      4  H2  UNL     1      -0.283  14.419 -58.784  1.00  0.00     0.187 HD
HETATM    5  C11 UNL     1      -0.011  16.306 -59.592  1.00  0.00     0.679 C 
HETATM    6  N3  UNL     1      -0.217  16.901 -58.552  1.00  0.00    -0.216 N 
ATOM      7  H3  UNL     1      -0.107  17.878 -58.826  1.00  0.00     0.178 HD
HETATM    8  N4  UNL     1       0.299  17.100 -60.766  1.00  0.00    -0.215 N 
HETATM    9  C20 UNL     1       1.666  17.404 -61.119  1.00  0.00     0.161 C 
HETATM   10  C21 UNL     1       1.799  18.930 -61.224  1.00  0.00     0.146 C 
HETATM   11  N5  UNL     1       0.821  19.374 -62.213  1.00  0.00    -0.353 N 
HETATM   12  C22 UNL     1       1.008  20.654 -62.820  1.00  0.00     0.184 C 
HETATM   13  N6  UNL     1       0.410  20.906 -63.930  1.00  0.00    -0.374 N 
ATOM     14  H61 UNL     1       0.544  21.820 -64.363  1.00  0.00     0.158 HD
ATOM     15  H62 UNL     1      -0.194  20.228 -64.393  1.00  0.00     0.158 HD
HETATM   16  N7  UNL     1       1.848  21.595 -62.178  1.00  0.00    -0.064 NA
HETATM   17  C23 UNL     1      -0.302  18.585 -62.607  1.00  0.00     0.146 C 
HETATM   18  C24 UNL     1      -0.775  17.640 -61.540  1.00  0.00     0.161 C 
ENDROOT
BRANCH   6  19
HETATM   19  C12 UNL     1      -0.513  16.992 -57.223  1.00  0.00     0.052 C 
HETATM   20  C13 UNL     1      -1.537  18.089 -56.833  1.00  0.00     0.036 C 
HETATM   21  C14 UNL     1      -2.256  17.462 -55.694  1.00  0.00    -0.011 C 
HETATM   22  C15 UNL     1      -1.264  17.277 -54.568  1.00  0.00     0.010 C 
HETATM   23  C19 UNL     1      -2.382  16.012 -56.185  1.00  0.00     0.012 C 
HETATM   24  C16 UNL     1      -0.224  16.403 -55.238  1.00  0.00    -0.005 C 
HETATM   25  C17 UNL     1       0.653  17.132 -56.233  1.00  0.00     0.037 C 
HETATM   26  C18 UNL     1      -0.913  15.773 -56.424  1.00  0.00     0.019 C 
ENDBRANCH   6  19
BRANCH   1  27
HETATM   27  C9  UNL     1       0.089  12.598 -60.832  1.00  0.00     0.289 C 
HETATM   28  C2  UNL     1       0.292  12.020 -59.479  1.00  0.00    -0.009 C 
HETATM   29  C1  UNL     1       0.719  13.047 -58.443  1.00  0.00     0.017 C 
HETATM   30  C3  UNL     1      -1.009  11.443 -58.885  1.00  0.00     0.017 C 
HETATM   31  C4  UNL     1       1.363  10.973 -59.551  1.00  0.00     0.019 C 
HETATM   32  C5  UNL     1       1.897  10.695 -60.908  1.00  0.00     0.038 C 
HETATM   33  C6  UNL     1       2.245  11.999 -61.655  1.00  0.00     0.244 C 
HETATM   34  C8  UNL     1       0.888  10.642 -61.986  1.00  0.00     0.244 C 
HETATM   35  N1  UNL     1       0.832  12.101 -61.904  1.00  0.00    -0.057 N 
HETATM   36  C7  UNL     1       0.419  12.543 -63.230  1.00  0.00     0.273 C 
ENDBRANCH   1  27
TORSDOF 2
ENDMDL
MODEL 5
REMARK VINA RESULT: -7.130845454      2.127      3.098
REMARK  2 active torsions:
REMARK  status: ('A' for Active; 'I' for Inactive)
REMARK    1  A    between atoms: C9_10  and  C10_11 
REMARK       I    between atoms: C10_11  and  N2_13 
REMARK       I    between atoms: N2_13  and  C11_15 
REMARK       I    between atoms: C11_15  and  N4_26 
REMARK    2  A    between atoms: N3_16  and  C12_18 
REMARK       I    between atoms: N5_29  and  C22_30 
ROOT
HETATM    1  C10 UNL     1       1.012  14.132 -60.508  1.00  0.00     0.268 C 
HETATM    2  O1  UNL     1       1.233  14.701 -61.644  1.00  0.00    -0.270 OA
HETATM    3  N2  UNL     1       0.526  14.956 -59.504  1.00  0.00    -0.158 N 
ATOM      4  H2  UNL     1       0.349  14.513 -58.603  1.00  0.00     0.187 HD
HETATM    5  C11 UNL     1       0.248  16.332 -59.586  1.00  0.00     0.679 C 
HETATM    6  N3  UNL     1      -0.179  16.950 -58.630  1.00  0.00    -0.216 N 
ATOM      7  H3  UNL     1      -0.275  17.897 -58.998  1.00  0.00     0.178 HD
HETATM    8  N4  UNL     1       0.467  17.070 -60.816  1.00  0.00    -0.215 N 
HETATM    9  C20 UNL     1       1.752  17.659 -61.111  1.00  0.00     0.161 C 
HETATM   10  C21 UNL     1       1.538  19.158 -61.367  1.00  0.00     0.146 C 
HETATM   11  N5  UNL     1       0.574  19.267 -62.459  1.00  0.00    -0.353 N 
HETATM   12  C22 UNL     1       0.513  20.497 -63.184  1.00  0.00     0.184 C 
HETATM   13  N6  UNL     1      -0.028  20.501 -64.350  1.00  0.00    -0.374 N 
ATOM     14  H61 UNL     1      -0.071  21.379 -64.868  1.00  0.00     0.158 HD
ATOM     15  H62 UNL     1      -0.417  19.660 -64.777  1.00  0.00     0.158 HD
HETATM   16  N7  UNL     1       1.054  21.663 -62.593  1.00  0.00    -0.064 NA
HETATM   17  C23 UNL     1      -0.298  18.203 -62.838  1.00  0.00     0.146 C 
HETATM   18  C24 UNL     1      -0.631  17.269 -61.710  1.00  0.00     0.161 C 
ENDROOT
BRANCH   6  19
HETATM   19  C12 UNL     1      -0.603  17.083 -57.340  1.00  0.00     0.052 C 
HETATM   20  C13 UNL     1      -1.700  18.151 -57.097  1.00  0.00     0.036 C 
HETATM   21  C14 UNL     1      -2.499  17.543 -56.002  1.00  0.00    -0.011 C 
HETATM   22  C15 UNL     1      -1.611  17.447 -54.782  1.00  0.00     0.010 C 
HETATM   23  C19 UNL     1      -2.522  16.069 -56.436  1.00  0.00     0.012 C 
HETATM   24  C16 UNL     1      -0.480  16.591 -55.312  1.00  0.00    -0.005 C 
HETATM   25  C17 UNL     1       0.459  17.314 -56.254  1.00  0.00     0.037 C 
HETATM   26  C18 UNL     1      -1.030  15.883 -56.526  1.00  0.00     0.019 C 
ENDBRANCH   6  19
BRANCH   1  27
HETATM   27  C9  UNL     1       1.308  12.660 -60.419  1.00  0.00     0.289 C 
HETATM   28  C2  UNL     1       1.030  12.005 -61.723  1.00  0.00    -0.009 C 
HETATM   29  C1  UNL     1       0.327  12.916 -62.717  1.00  0.00     0.017 C 
HETATM   30  C3  UNL     1       2.321  11.605 -62.467  1.00  0.00     0.017 C 
HETATM   31  C4  UNL     1       0.149  10.814 -61.495  1.00  0.00     0.019 C 
HETATM   32  C5  UNL     1      -0.166  10.514 -60.075  1.00  0.00     0.038 C 
HETATM   33  C6  UNL     1      -0.614  11.780 -59.316  1.00  0.00     0.244 C 
HETATM   34  C8  UNL     1       0.964  10.654 -59.134  1.00  0.00     0.244 C 
HETATM   35  N1  UNL     1       0.787  12.100 -59.252  1.00  0.00    -0.057 N 
HETATM   36  C7  UNL     1       1.287  12.651 -57.998  1.00  0.00     0.273 C 
ENDBRANCH   1  27
TORSDOF 2
ENDMDL
