MODEL 1
REMARK VINA RESULT: -5.770449299      0.000      0.000
REMARK  2 active torsions:
REMARK  status: ('A' for Active; 'I' for Inactive)
REMARK    1  A    between atoms: C2_2  and  N1_3 
REMARK    2  A    between atoms: C7_8  and  N2_9 
REMARK       I    between atoms: N2_9  and  C8_11 
REMARK       I    between atoms: C8_11  and  N3_13 
REMARK       I    between atoms: N6_21  and  C12_23 
REMARK       I    between atoms: C12_23  and  N7_25 
ROOT
HETATM    1  N2  UNL     1      -0.591  13.352 -59.564  1.00  0.00    -0.329 N 
ATOM      2  H2  UNL     1      -0.425  13.032 -60.518  1.00  0.00     0.165 HD
HETATM    3  C8  UNL     1      -0.674  14.745 -59.331  1.00  0.00     0.319 C 
HETATM    4  O1  UNL     1      -0.878  15.152 -58.166  1.00  0.00    -0.247 OA
HETATM    5  N3  UNL     1      -0.535  15.688 -60.377  1.00  0.00    -0.324 N 
HETATM    6  C9  UNL     1      -0.295  15.439 -61.791  1.00  0.00     0.187 C 
HETATM    7  C10 UNL     1       0.501  16.603 -62.228  1.00  0.00     0.055 A 
HETATM    8  N4  UNL     1       1.332  17.059 -63.178  1.00  0.00    -0.301 N 
ATOM      9  H4  UNL     1       1.656  16.548 -63.998  1.00  0.00     0.186 HD
HETATM   10  N5  UNL     1       1.647  18.294 -62.846  1.00  0.00    -0.285 N 
ATOM     11  H5  UNL     1       2.270  18.890 -63.391  1.00  0.00     0.188 HD
HETATM   12  C11 UNL     1       1.054  18.674 -61.707  1.00  0.00     0.134 A 
HETATM   13  N6  UNL     1       1.129  19.802 -61.086  1.00  0.00    -0.293 N 
ATOM     14  H6  UNL     1       0.616  19.955 -60.217  1.00  0.00     0.172 HD
HETATM   15  C12 UNL     1       1.942  20.827 -61.639  1.00  0.00     0.324 C 
HETATM   16  O2  UNL     1       3.157  20.832 -61.354  1.00  0.00    -0.247 OA
HETATM   17  N7  UNL     1       1.424  21.826 -62.489  1.00  0.00    -0.334 N 
HETATM   18  C13 UNL     1       2.272  22.851 -63.033  1.00  0.00     0.128 C 
HETATM   19  C14 UNL     1       1.406  23.984 -63.562  1.00  0.00     0.024 C 
HETATM   20  C15 UNL     1       0.311  24.337 -62.576  1.00  0.00    -0.015 C 
HETATM   21  C16 UNL     1      -0.512  25.441 -63.231  1.00  0.00     0.010 C 
HETATM   22  C17 UNL     1      -0.545  23.145 -62.260  1.00  0.00     0.024 C 
HETATM   23  C18 UNL     1       0.012  21.870 -62.858  1.00  0.00     0.128 C 
HETATM   24  C19 UNL     1       0.318  17.599 -61.304  1.00  0.00     0.031 A 
HETATM   25  C20 UNL     1      -0.606  17.127 -60.224  1.00  0.00     0.172 C 
ENDROOT
BRANCH   1  26
HETATM   26  C7  UNL     1      -0.729  12.355 -58.524  1.00  0.00     0.188 C 
HETATM   27  C6  UNL     1      -2.241  11.974 -58.416  1.00  0.00     0.115 C 
HETATM   28  C5  UNL     1      -2.236  10.625 -58.766  1.00  0.00    -0.179 C 
HETATM   29  C4  UNL     1      -2.347   9.272 -59.102  1.00  0.00     0.100 C 
HETATM   30  C3  UNL     1      -0.861   8.871 -59.360  1.00  0.00     0.137 C 
HETATM   31  N1  UNL     1       0.077   9.932 -59.349  1.00  0.00    -0.350 N 
HETATM   32  C21 UNL     1       0.172  11.254 -58.825  1.00  0.00     0.243 C 
HETATM   33  O3  UNL     1       1.376  11.563 -58.539  1.00  0.00    -0.271 OA
BRANCH  31  34
HETATM   34  C2  UNL     1       1.294   9.553 -60.088  1.00  0.00     0.121 C 
HETATM   35  C1  UNL     1       1.597  10.491 -61.206  1.00  0.00     0.026 C 
ENDBRANCH  31  34
ENDBRANCH   1  26
TORSDOF 2
ENDMDL
MODEL 2
REMARK VINA RESULT: -5.503720854      2.655      3.760
REMARK  2 active torsions:
REMARK  status: ('A' for Active; 'I' for Inactive)
REMARK    1  A    between atoms: C2_2  and  N1_3 
REMARK    2  A    between atoms: C7_8  and  N2_9 
REMARK       I    between atoms: N2_9  and  C8_11 
REMARK       I    between atoms: C8_11  and  N3_13 
REMARK       I    between atoms: N6_21  and  C12_23 
REMARK       I    between atoms: C12_23  and  N7_25 
ROOT
HETATM    1  N2  UNL     1       1.066  16.762 -57.889  1.00  0.00    -0.329 N 
ATOM      2  H2  UNL     1       2.072  16.817 -58.045  1.00  0.00     0.165 HD
HETATM    3  C8  UNL     1       0.210  17.391 -58.822  1.00  0.00     0.319 C 
HETATM    4  O1  UNL     1      -1.027  17.331 -58.644  1.00  0.00    -0.247 OA
HETATM    5  N3  UNL     1       0.712  18.085 -59.950  1.00  0.00    -0.324 N 
HETATM    6  C9  UNL     1       2.098  18.277 -60.346  1.00  0.00     0.187 C 
HETATM    7  C10 UNL     1       2.098  19.594 -61.015  1.00  0.00     0.055 A 
HETATM    8  N4  UNL     1       2.874  20.616 -61.407  1.00  0.00    -0.301 N 
ATOM      9  H4  UNL     1       3.882  20.697 -61.282  1.00  0.00     0.186 HD
HETATM   10  N5  UNL     1       2.080  21.495 -61.984  1.00  0.00    -0.285 N 
ATOM     11  H5  UNL     1       2.401  22.379 -62.380  1.00  0.00     0.188 HD
HETATM   12  C11 UNL     1       0.803  21.092 -61.989  1.00  0.00     0.134 A 
HETATM   13  N6  UNL     1      -0.237  21.687 -62.463  1.00  0.00    -0.293 N 
ATOM     14  H6  UNL     1      -1.160  21.257 -62.397  1.00  0.00     0.172 HD
HETATM   15  C12 UNL     1      -0.070  22.956 -63.081  1.00  0.00     0.324 C 
HETATM   16  O2  UNL     1      -0.085  23.969 -62.354  1.00  0.00    -0.247 OA
HETATM   17  N7  UNL     1       0.109  23.101 -64.471  1.00  0.00    -0.334 N 
HETATM   18  C13 UNL     1       0.275  24.398 -65.067  1.00  0.00     0.128 C 
HETATM   19  C14 UNL     1       0.048  24.290 -66.567  1.00  0.00     0.024 C 
HETATM   20  C15 UNL     1      -1.182  23.457 -66.871  1.00  0.00    -0.015 C 
HETATM   21  C16 UNL     1      -1.279  23.381 -68.392  1.00  0.00     0.010 C 
HETATM   22  C17 UNL     1      -1.076  22.085 -66.271  1.00  0.00     0.024 C 
HETATM   23  C18 UNL     1       0.135  21.951 -65.371  1.00  0.00     0.128 C 
HETATM   24  C19 UNL     1       0.804  19.875 -61.371  1.00  0.00     0.031 A 
HETATM   25  C20 UNL     1      -0.095  18.754 -60.950  1.00  0.00     0.172 C 
ENDROOT
BRANCH   1  26
HETATM   26  C7  UNL     1       0.594  16.043 -56.725  1.00  0.00     0.188 C 
HETATM   27  C6  UNL     1      -0.915  16.397 -56.516  1.00  0.00     0.115 C 
HETATM   28  C5  UNL     1      -1.539  15.164 -56.690  1.00  0.00    -0.179 C 
HETATM   29  C4  UNL     1      -2.267  13.979 -56.845  1.00  0.00     0.100 C 
HETATM   30  C3  UNL     1      -1.141  12.929 -57.099  1.00  0.00     0.137 C 
HETATM   31  N1  UNL     1       0.166  13.448 -57.258  1.00  0.00    -0.350 N 
HETATM   32  C21 UNL     1       0.883  14.630 -56.913  1.00  0.00     0.243 C 
HETATM   33  O3  UNL     1       2.119  14.391 -56.710  1.00  0.00    -0.271 OA
BRANCH  31  34
HETATM   34  C2  UNL     1       1.019  12.490 -57.983  1.00  0.00     0.121 C 
HETATM   35  C1  UNL     1       0.388  12.005 -59.243  1.00  0.00     0.026 C 
ENDBRANCH  31  34
ENDBRANCH   1  26
TORSDOF 2
ENDMDL
MODEL 3
REMARK VINA RESULT: -3.082601404      2.848      4.136
REMARK  2 active torsions:
REMARK  status: ('A' for Active; 'I' for Inactive)
REMARK    1  A    between atoms: C2_2  and  N1_3 
REMARK    2  A    between atoms: C7_8  and  N2_9 
REMARK       I    between atoms: N2_9  and  C8_11 
REMARK       I    between atoms: C8_11  and  N3_13 
REMARK       I    between atoms: N6_21  and  C12_23 
REMARK       I    between atoms: C12_23  and  N7_25 
ROOT
HETATM    1  N2  UNL     1       0.041  15.853 -59.878  1.00  0.00    -0.329 N 
ATOM      2  H2  UNL     1       1.057  15.929 -59.848  1.00  0.00     0.165 HD
HETATM    3  C8  UNL     1      -0.664  16.669 -60.793  1.00  0.00     0.319 C 
HETATM    4  O1  UNL     1      -1.912  16.585 -60.841  1.00  0.00    -0.247 OA
HETATM    5  N3  UNL     1       0.000  17.573 -61.655  1.00  0.00    -0.324 N 
HETATM    6  C9  UNL     1       1.428  17.830 -61.767  1.00  0.00     0.187 C 
HETATM    7  C10 UNL     1       1.506  19.256 -62.144  1.00  0.00     0.055 A 
HETATM    8  N4  UNL     1       2.310  20.329 -62.184  1.00  0.00    -0.301 N 
ATOM      9  H4  UNL     1       3.281  20.372 -61.878  1.00  0.00     0.186 HD
HETATM   10  N5  UNL     1       1.601  21.315 -62.694  1.00  0.00    -0.285 N 
ATOM     11  H5  UNL     1       1.961  22.258 -62.842  1.00  0.00     0.188 HD
HETATM   12  C11 UNL     1       0.353  20.933 -62.995  1.00  0.00     0.134 A 
HETATM   13  N6  UNL     1      -0.609  21.624 -63.506  1.00  0.00    -0.293 N 
ATOM     14  H6  UNL     1      -1.519  21.198 -63.683  1.00  0.00     0.172 HD
HETATM   15  C12 UNL     1      -0.374  22.990 -63.815  1.00  0.00     0.324 C 
HETATM   16  O2  UNL     1      -0.534  23.833 -62.910  1.00  0.00    -0.247 OA
HETATM   17  N7  UNL     1       0.030  23.415 -65.097  1.00  0.00    -0.334 N 
HETATM   18  C13 UNL     1       0.261  24.805 -65.379  1.00  0.00     0.128 C 
HETATM   19  C14 UNL     1       0.288  25.009 -66.886  1.00  0.00     0.024 C 
HETATM   20  C15 UNL     1      -0.853  24.268 -67.555  1.00  0.00    -0.015 C 
HETATM   21  C16 UNL     1      -0.695  24.506 -69.054  1.00  0.00     0.010 C 
HETATM   22  C17 UNL     1      -0.814  22.801 -67.238  1.00  0.00     0.024 C 
HETATM   23  C18 UNL     1       0.234  22.474 -66.194  1.00  0.00     0.128 C 
HETATM   24  C19 UNL     1       0.282  19.616 -62.646  1.00  0.00     0.031 A 
HETATM   25  C20 UNL     1      -0.646  18.442 -62.619  1.00  0.00     0.172 C 
ENDROOT
BRANCH   1  26
HETATM   26  C7  UNL     1      -0.600  14.916 -58.980  1.00  0.00     0.188 C 
HETATM   27  C6  UNL     1      -0.419  13.479 -59.571  1.00  0.00     0.115 C 
HETATM   28  C5  UNL     1       0.347  12.847 -58.593  1.00  0.00    -0.179 C 
HETATM   29  C4  UNL     1       1.114  12.118 -57.678  1.00  0.00     0.100 C 
HETATM   30  C3  UNL     1       1.329  13.150 -56.528  1.00  0.00     0.137 C 
HETATM   31  N1  UNL     1       0.876  14.467 -56.784  1.00  0.00    -0.350 N 
HETATM   32  C21 UNL     1      -0.054  15.115 -57.647  1.00  0.00     0.243 C 
HETATM   33  O3  UNL     1      -0.550  16.159 -57.107  1.00  0.00    -0.271 OA
BRANCH  31  34
HETATM   34  C2  UNL     1       1.566  15.430 -55.909  1.00  0.00     0.121 C 
HETATM   35  C1  UNL     1       2.967  15.025 -55.606  1.00  0.00     0.026 C 
ENDBRANCH  31  34
ENDBRANCH   1  26
TORSDOF 2
ENDMDL
MODEL 4
REMARK VINA RESULT: -2.818926848      1.863      2.409
REMARK  2 active torsions:
REMARK  status: ('A' for Active; 'I' for Inactive)
REMARK    1  A    between atoms: C2_2  and  N1_3 
REMARK    2  A    between atoms: C7_8  and  N2_9 
REMARK       I    between atoms: N2_9  and  C8_11 
REMARK       I    between atoms: C8_11  and  N3_13 
REMARK       I    between atoms: N6_21  and  C12_23 
REMARK       I    between atoms: C12_23  and  N7_25 
ROOT
HETATM    1  N2  UNL     1       0.847  14.667 -58.498  1.00  0.00    -0.329 N 
ATOM      2  H2  UNL     1       1.859  14.794 -58.495  1.00  0.00     0.165 HD
HETATM    3  C8  UNL     1       0.074  15.487 -59.354  1.00  0.00     0.319 C 
HETATM    4  O1  UNL     1      -1.168  15.342 -59.369  1.00  0.00    -0.247 OA
HETATM    5  N3  UNL     1       0.666  16.462 -60.192  1.00  0.00    -0.324 N 
HETATM    6  C9  UNL     1       2.075  16.795 -60.332  1.00  0.00     0.187 C 
HETATM    7  C10 UNL     1       2.070  18.239 -60.645  1.00  0.00     0.055 A 
HETATM    8  N4  UNL     1       2.819  19.352 -60.657  1.00  0.00    -0.301 N 
ATOM      9  H4  UNL     1       3.796  19.431 -60.378  1.00  0.00     0.186 HD
HETATM   10  N5  UNL     1       2.047  20.323 -61.100  1.00  0.00    -0.285 N 
ATOM     11  H5  UNL     1       2.354  21.290 -61.215  1.00  0.00     0.188 HD
HETATM   12  C11 UNL     1       0.811  19.893 -61.382  1.00  0.00     0.134 A 
HETATM   13  N6  UNL     1      -0.200  20.555 -61.832  1.00  0.00    -0.293 N 
ATOM     14  H6  UNL     1      -1.093  20.092 -62.003  1.00  0.00     0.172 HD
HETATM   15  C12 UNL     1      -0.043  21.945 -62.084  1.00  0.00     0.324 C 
HETATM   16  O2  UNL     1      -0.216  22.737 -61.136  1.00  0.00    -0.247 OA
HETATM   17  N7  UNL     1       0.300  22.448 -63.356  1.00  0.00    -0.334 N 
HETATM   18  C13 UNL     1       0.452  23.859 -63.580  1.00  0.00     0.128 C 
HETATM   19  C14 UNL     1       0.422  24.132 -65.076  1.00  0.00     0.024 C 
HETATM   20  C15 UNL     1      -0.702  23.365 -65.745  1.00  0.00    -0.015 C 
HETATM   21  C16 UNL     1      -0.602  23.678 -67.235  1.00  0.00     0.010 C 
HETATM   22  C17 UNL     1      -0.579  21.889 -65.498  1.00  0.00     0.024 C 
HETATM   23  C18 UNL     1       0.516  21.568 -64.502  1.00  0.00     0.128 C 
HETATM   24  C19 UNL     1       0.816  18.559 -61.094  1.00  0.00     0.031 A 
HETATM   25  C20 UNL     1      -0.052  17.339 -61.095  1.00  0.00     0.172 C 
ENDROOT
BRANCH   1  26
HETATM   26  C7  UNL     1       0.282  13.659 -57.628  1.00  0.00     0.188 C 
HETATM   27  C6  UNL     1      -1.122  14.159 -57.155  1.00  0.00     0.115 C 
HETATM   28  C5  UNL     1      -1.978  13.202 -57.695  1.00  0.00    -0.179 C 
HETATM   29  C4  UNL     1      -2.927  12.300 -58.189  1.00  0.00     0.100 C 
HETATM   30  C3  UNL     1      -2.035  11.245 -58.915  1.00  0.00     0.137 C 
HETATM   31  N1  UNL     1      -0.657  11.558 -59.009  1.00  0.00    -0.350 N 
HETATM   32  C21 UNL     1       0.286  12.389 -58.337  1.00  0.00     0.243 C 
HETATM   33  O3  UNL     1       1.458  11.887 -58.360  1.00  0.00    -0.271 OA
BRANCH  31  34
HETATM   34  C2  UNL     1      -0.030  10.809 -60.111  1.00  0.00     0.121 C 
HETATM   35  C1  UNL     1       0.315  11.680 -61.269  1.00  0.00     0.026 C 
ENDBRANCH  31  34
ENDBRANCH   1  26
TORSDOF 2
ENDMDL
MODEL 5
REMARK VINA RESULT: -2.779094753      3.689     10.638
REMARK  2 active torsions:
REMARK  status: ('A' for Active; 'I' for Inactive)
REMARK    1  A    between atoms: C2_2  and  N1_3 
REMARK    2  A    between atoms: C7_8  and  N2_9 
REMARK       I    between atoms: N2_9  and  C8_11 
REMARK       I    between atoms: C8_11  and  N3_13 
REMARK       I    between atoms: N6_21  and  C12_23 
REMARK       I    between atoms: C12_23  and  N7_25 
ROOT
HETATM    1  N2  UNL     1      -0.419  21.702 -64.977  1.00  0.00    -0.329 N 
ATOM      2  H2  UNL     1      -0.090  20.993 -65.633  1.00  0.00     0.165 HD
HETATM    3  C8  UNL     1      -0.313  21.431 -63.592  1.00  0.00     0.319 C 
HETATM    4  O1  UNL     1      -0.713  22.291 -62.776  1.00  0.00    -0.247 OA
HETATM    5  N3  UNL     1       0.233  20.219 -63.106  1.00  0.00    -0.324 N 
HETATM    6  C9  UNL     1       0.752  19.094 -63.869  1.00  0.00     0.187 C 
HETATM    7  C10 UNL     1       0.448  17.921 -63.024  1.00  0.00     0.055 A 
HETATM    8  N4  UNL     1       0.306  16.587 -63.024  1.00  0.00    -0.301 N 
ATOM      9  H4  UNL     1       0.410  15.964 -63.825  1.00  0.00     0.186 HD
HETATM   10  N5  UNL     1       0.008  16.237 -61.790  1.00  0.00    -0.285 N 
ATOM     11  H5  UNL     1      -0.158  15.274 -61.494  1.00  0.00     0.188 HD
HETATM   12  C11 UNL     1      -0.054  17.293 -60.970  1.00  0.00     0.134 A 
HETATM   13  N6  UNL     1      -0.317  17.330 -59.708  1.00  0.00    -0.293 N 
ATOM     14  H6  UNL     1      -0.329  18.217 -59.203  1.00  0.00     0.172 HD
HETATM   15  C12 UNL     1      -0.588  16.109 -59.035  1.00  0.00     0.324 C 
HETATM   16  O2  UNL     1      -1.759  15.678 -59.049  1.00  0.00    -0.247 OA
HETATM   17  N7  UNL     1       0.412  15.378 -58.362  1.00  0.00    -0.334 N 
HETATM   18  C13 UNL     1       0.106  14.145 -57.690  1.00  0.00     0.128 C 
HETATM   19  C14 UNL     1       1.244  13.799 -56.743  1.00  0.00     0.024 C 
HETATM   20  C15 UNL     1       1.682  15.016 -55.952  1.00  0.00    -0.015 C 
HETATM   21  C16 UNL     1       2.848  14.560 -55.080  1.00  0.00     0.010 C 
HETATM   22  C17 UNL     1       2.097  16.137 -56.859  1.00  0.00     0.024 C 
HETATM   23  C18 UNL     1       1.799  15.833 -58.313  1.00  0.00     0.128 C 
HETATM   24  C19 UNL     1       0.227  18.376 -61.750  1.00  0.00     0.031 A 
HETATM   25  C20 UNL     1       0.377  19.865 -61.709  1.00  0.00     0.172 C 
ENDROOT
BRANCH   1  26
HETATM   26  C7  UNL     1      -0.970  22.927 -65.515  1.00  0.00     0.188 C 
HETATM   27  C6  UNL     1       0.131  24.034 -65.421  1.00  0.00     0.115 C 
HETATM   28  C5  UNL     1       0.357  24.346 -66.760  1.00  0.00    -0.179 C 
HETATM   29  C4  UNL     1       0.662  24.737 -68.068  1.00  0.00     0.100 C 
HETATM   30  C3  UNL     1      -0.319  23.866 -68.913  1.00  0.00     0.137 C 
HETATM   31  N1  UNL     1      -1.055  22.891 -68.197  1.00  0.00    -0.350 N 
HETATM   32  C21 UNL     1      -1.468  22.654 -66.854  1.00  0.00     0.243 C 
HETATM   33  O3  UNL     1      -2.580  22.032 -66.805  1.00  0.00    -0.271 OA
BRANCH  31  34
HETATM   34  C2  UNL     1      -1.522  21.827 -69.103  1.00  0.00     0.121 C 
HETATM   35  C1  UNL     1      -1.538  20.488 -68.450  1.00  0.00     0.026 C 
ENDBRANCH  31  34
ENDBRANCH   1  26
TORSDOF 2
ENDMDL
