MODEL 1
REMARK VINA RESULT: -6.339146658      0.000      0.000
REMARK  1 active torsions:
REMARK  status: ('A' for Active; 'I' for Inactive)
REMARK    1  A    between atoms: N1_6  and  C4_7 
ROOT
HETATM    1  F1  UNL     1       3.018  16.106  45.553  1.00  0.00    -0.206 F 
HETATM    2  C1  UNL     1       2.756  14.988  44.744  1.00  0.00     0.246 C 
HETATM    3  F2  UNL     1       1.420  15.166  44.343  1.00  0.00    -0.206 F 
HETATM    4  C2  UNL     1       3.594  15.154  43.519  1.00  0.00     0.099 C 
HETATM    5  C3  UNL     1       3.707  13.870  42.710  1.00  0.00     0.129 C 
HETATM    6  N1  UNL     1       4.263  12.891  43.611  1.00  0.00    -0.375 N 
HETATM    7  C8  UNL     1       3.804  12.697  44.954  1.00  0.00     0.129 C 
HETATM    8  C9  UNL     1       2.928  13.742  45.505  1.00  0.00     0.099 C 
ENDROOT
BRANCH   6   9
HETATM    9  C4  UNL     1       5.349  12.035  43.183  1.00  0.00     0.071 A 
HETATM   10  C5  UNL     1       6.613  11.981  43.694  1.00  0.00     0.037 A 
HETATM   11  C6  UNL     1       7.470  11.105  43.137  1.00  0.00     0.010 A 
HETATM   12  C7  UNL     1       6.999  10.345  42.105  1.00  0.00     0.052 A 
HETATM   13  S1  UNL     1       5.388  10.863  41.939  1.00  0.00    -0.084 SA
ENDBRANCH   6   9
TORSDOF 1
ENDMDL
MODEL 2
REMARK VINA RESULT: -5.983810218      0.859      1.118
REMARK  1 active torsions:
REMARK  status: ('A' for Active; 'I' for Inactive)
REMARK    1  A    between atoms: N1_6  and  C4_7 
ROOT
HETATM    1  F1  UNL     1       3.157  16.140  45.330  1.00  0.00    -0.206 F 
HETATM    2  C1  UNL     1       2.839  15.020  44.544  1.00  0.00     0.246 C 
HETATM    3  F2  UNL     1       1.501  15.237  44.172  1.00  0.00    -0.206 F 
HETATM    4  C2  UNL     1       3.652  15.141  43.297  1.00  0.00     0.099 C 
HETATM    5  C3  UNL     1       3.704  13.844  42.504  1.00  0.00     0.129 C 
HETATM    6  N1  UNL     1       4.248  12.860  43.406  1.00  0.00    -0.375 N 
HETATM    7  C8  UNL     1       3.816  12.700  44.763  1.00  0.00     0.129 C 
HETATM    8  C9  UNL     1       2.989  13.780  45.319  1.00  0.00     0.099 C 
ENDROOT
BRANCH   6   9
HETATM    9  C4  UNL     1       5.295  11.962  42.965  1.00  0.00     0.071 A 
HETATM   10  C5  UNL     1       5.239  11.064  41.939  1.00  0.00     0.037 A 
HETATM   11  C6  UNL     1       6.337  10.321  41.705  1.00  0.00     0.010 A 
HETATM   12  C7  UNL     1       7.415  10.531  42.517  1.00  0.00     0.052 A 
HETATM   13  S1  UNL     1       6.877  11.747  43.577  1.00  0.00    -0.084 SA
ENDBRANCH   6   9
TORSDOF 1
ENDMDL
MODEL 3
REMARK VINA RESULT: -5.816296863      4.002      5.542
REMARK  1 active torsions:
REMARK  status: ('A' for Active; 'I' for Inactive)
REMARK    1  A    between atoms: N1_6  and  C4_7 
ROOT
HETATM    1  F1  UNL     1       5.582   7.639  44.391  1.00  0.00    -0.206 F 
HETATM    2  C1  UNL     1       6.127   8.931  44.454  1.00  0.00     0.246 C 
HETATM    3  F2  UNL     1       7.511   8.720  44.329  1.00  0.00    -0.206 F 
HETATM    4  C2  UNL     1       5.689   9.630  43.210  1.00  0.00     0.099 C 
HETATM    5  C3  UNL     1       5.885  11.137  43.286  1.00  0.00     0.129 C 
HETATM    6  N1  UNL     1       5.131  11.569  44.436  1.00  0.00    -0.375 N 
HETATM    7  C8  UNL     1       5.174  10.909  45.707  1.00  0.00     0.129 C 
HETATM    8  C9  UNL     1       5.793   9.575  45.733  1.00  0.00     0.099 C 
ENDROOT
BRANCH   6   9
HETATM    9  C4  UNL     1       4.266  12.727  44.353  1.00  0.00     0.071 A 
HETATM   10  C5  UNL     1       4.091  13.556  43.284  1.00  0.00     0.037 A 
HETATM   11  C6  UNL     1       3.233  14.583  43.430  1.00  0.00     0.010 A 
HETATM   12  C7  UNL     1       2.610  14.706  44.639  1.00  0.00     0.052 A 
HETATM   13  S1  UNL     1       3.229  13.400  45.535  1.00  0.00    -0.084 SA
ENDBRANCH   6   9
TORSDOF 1
ENDMDL
MODEL 4
REMARK VINA RESULT: -5.731344775      1.975      2.144
REMARK  1 active torsions:
REMARK  status: ('A' for Active; 'I' for Inactive)
REMARK    1  A    between atoms: N1_6  and  C4_7 
ROOT
HETATM    1  F1  UNL     1       4.133  15.741  43.544  1.00  0.00    -0.206 F 
HETATM    2  C1  UNL     1       3.687  14.426  43.334  1.00  0.00     0.246 C 
HETATM    3  F2  UNL     1       2.575  14.577  42.487  1.00  0.00    -0.206 F 
HETATM    4  C2  UNL     1       4.746  13.749  42.529  1.00  0.00     0.099 C 
HETATM    5  C3  UNL     1       4.597  12.235  42.522  1.00  0.00     0.129 C 
HETATM    6  N1  UNL     1       4.636  11.834  43.906  1.00  0.00    -0.375 N 
HETATM    7  C8  UNL     1       3.898  12.489  44.944  1.00  0.00     0.129 C 
HETATM    8  C9  UNL     1       3.311  13.794  44.607  1.00  0.00     0.099 C 
ENDROOT
BRANCH   6   9
HETATM    9  C4  UNL     1       5.456  10.714  44.321  1.00  0.00     0.071 A 
HETATM   10  C5  UNL     1       5.633  10.243  45.590  1.00  0.00     0.037 A 
HETATM   11  C6  UNL     1       6.449   9.184  45.748  1.00  0.00     0.010 A 
HETATM   12  C7  UNL     1       7.031   8.672  44.624  1.00  0.00     0.052 A 
HETATM   13  S1  UNL     1       6.431   9.669  43.383  1.00  0.00    -0.084 SA
ENDBRANCH   6   9
TORSDOF 1
ENDMDL
MODEL 5
REMARK VINA RESULT: -5.692950431      3.793      5.655
REMARK  1 active torsions:
REMARK  status: ('A' for Active; 'I' for Inactive)
REMARK    1  A    between atoms: N1_6  and  C4_7 
ROOT
HETATM    1  F1  UNL     1       8.415  10.109  42.038  1.00  0.00    -0.206 F 
HETATM    2  C1  UNL     1       7.110   9.922  42.520  1.00  0.00     0.246 C 
HETATM    3  F2  UNL     1       7.022   8.534  42.729  1.00  0.00    -0.206 F 
HETATM    4  C2  UNL     1       7.068  10.558  43.870  1.00  0.00     0.099 C 
HETATM    5  C3  UNL     1       5.649  10.765  44.376  1.00  0.00     0.129 C 
HETATM    6  N1  UNL     1       4.996  11.578  43.380  1.00  0.00    -0.375 N 
HETATM    7  C8  UNL     1       5.085  11.332  41.971  1.00  0.00     0.129 C 
HETATM    8  C9  UNL     1       6.120  10.383  41.536  1.00  0.00     0.099 C 
ENDROOT
BRANCH   6   9
HETATM    9  C4  UNL     1       4.198  12.720  43.774  1.00  0.00     0.071 A 
HETATM   10  C5  UNL     1       3.879  13.809  43.016  1.00  0.00     0.037 A 
HETATM   11  C6  UNL     1       3.122  14.763  43.591  1.00  0.00     0.010 A 
HETATM   12  C7  UNL     1       2.737  14.557  44.885  1.00  0.00     0.052 A 
HETATM   13  S1  UNL     1       3.433  13.053  45.267  1.00  0.00    -0.084 SA
ENDBRANCH   6   9
TORSDOF 1
ENDMDL
