MODEL 1
REMARK VINA RESULT: -6.424720753      0.000      0.000
REMARK  1 active torsions:
REMARK  status: ('A' for Active; 'I' for Inactive)
REMARK    1  A    between atoms: N1_9  and  C7_10 
ROOT
HETATM    1  F1  UNL     1       7.772  12.236  43.201  1.00  0.00    -0.182 F 
HETATM    2  C1  UNL     1       7.290  10.953  43.294  1.00  0.00     0.325 C 
HETATM    3  F2  UNL     1       7.767  10.484  44.529  1.00  0.00    -0.182 F 
HETATM    4  C2  UNL     1       7.815  10.036  42.200  1.00  0.00     0.104 C 
HETATM    5  C3  UNL     1       6.913   8.830  42.040  1.00  0.00     0.008 C 
HETATM    6  C4  UNL     1       6.673   8.114  43.321  1.00  0.00     0.002 C 
HETATM    7  C5  UNL     1       5.659   8.696  44.230  1.00  0.00     0.020 C 
HETATM    8  C6  UNL     1       4.957   9.921  43.759  1.00  0.00     0.130 C 
HETATM    9  N1  UNL     1       5.843  10.961  43.267  1.00  0.00    -0.305 N 
ENDROOT
BRANCH   9  10
HETATM   10  C7  UNL     1       5.149  12.072  42.702  1.00  0.00     0.107 A 
HETATM   11  C8  UNL     1       4.424  12.921  43.540  1.00  0.00     0.048 A 
HETATM   12  C9  UNL     1       3.725  14.005  43.081  1.00  0.00     0.005 A 
HETATM   13  C10 UNL     1       3.759  14.241  41.718  1.00  0.00     0.017 A 
HETATM   14  C11 UNL     1       4.483  13.387  40.920  1.00  0.00     0.089 A 
HETATM   15  N2  UNL     1       5.157  12.337  41.389  1.00  0.00    -0.352 N 
ATOM     16  H2  UNL     1       5.677  11.736  40.750  1.00  0.00     0.166 HD
ENDBRANCH   9  10
TORSDOF 1
ENDMDL
MODEL 2
REMARK VINA RESULT: -6.305905992      0.717      1.219
REMARK  1 active torsions:
REMARK  status: ('A' for Active; 'I' for Inactive)
REMARK    1  A    between atoms: N1_9  and  C7_10 
ROOT
HETATM    1  F1  UNL     1       7.736  12.237  43.246  1.00  0.00    -0.182 F 
HETATM    2  C1  UNL     1       7.266  10.949  43.313  1.00  0.00     0.325 C 
HETATM    3  F2  UNL     1       7.797  10.440  44.510  1.00  0.00    -0.182 F 
HETATM    4  C2  UNL     1       7.752  10.075  42.167  1.00  0.00     0.104 C 
HETATM    5  C3  UNL     1       6.853   8.868  42.001  1.00  0.00     0.008 C 
HETATM    6  C4  UNL     1       6.670   8.105  43.265  1.00  0.00     0.002 C 
HETATM    7  C5  UNL     1       5.690   8.647  44.234  1.00  0.00     0.020 C 
HETATM    8  C6  UNL     1       4.961   9.882  43.836  1.00  0.00     0.130 C 
HETATM    9  N1  UNL     1       5.819  10.946  43.345  1.00  0.00    -0.305 N 
ENDROOT
BRANCH   9  10
HETATM   10  C7  UNL     1       5.095  12.070  42.849  1.00  0.00     0.107 A 
HETATM   11  C8  UNL     1       5.018  12.278  41.472  1.00  0.00     0.048 A 
HETATM   12  C9  UNL     1       4.349  13.333  40.911  1.00  0.00     0.005 A 
HETATM   13  C10 UNL     1       3.734  14.217  41.780  1.00  0.00     0.017 A 
HETATM   14  C11 UNL     1       3.828  13.984  43.132  1.00  0.00     0.089 A 
HETATM   15  N2  UNL     1       4.484  12.949  43.655  1.00  0.00    -0.352 N 
ATOM     16  H2  UNL     1       4.522  12.825  44.667  1.00  0.00     0.166 HD
ENDBRANCH   9  10
TORSDOF 1
ENDMDL
MODEL 3
REMARK VINA RESULT: -6.123430537      1.782      2.672
REMARK  1 active torsions:
REMARK  status: ('A' for Active; 'I' for Inactive)
REMARK    1  A    between atoms: N1_9  and  C7_10 
ROOT
HETATM    1  F1  UNL     1       7.136  12.668  43.751  1.00  0.00    -0.182 F 
HETATM    2  C1  UNL     1       6.939  11.366  43.361  1.00  0.00     0.325 C 
HETATM    3  F2  UNL     1       8.195  10.757  43.515  1.00  0.00    -0.182 F 
HETATM    4  C2  UNL     1       6.521  11.234  41.905  1.00  0.00     0.104 C 
HETATM    5  C3  UNL     1       5.853   9.898  41.662  1.00  0.00     0.008 C 
HETATM    6  C4  UNL     1       6.674   8.748  42.128  1.00  0.00     0.002 C 
HETATM    7  C5  UNL     1       6.643   8.451  43.579  1.00  0.00     0.020 C 
HETATM    8  C6  UNL     1       5.768   9.311  44.423  1.00  0.00     0.130 C 
HETATM    9  N1  UNL     1       5.951  10.735  44.208  1.00  0.00    -0.305 N 
ENDROOT
BRANCH   9  10
HETATM   10  C7  UNL     1       5.017  11.538  44.930  1.00  0.00     0.107 A 
HETATM   11  C8  UNL     1       4.249  12.476  44.241  1.00  0.00     0.048 A 
HETATM   12  C9  UNL     1       3.335  13.290  44.855  1.00  0.00     0.005 A 
HETATM   13  C10 UNL     1       3.193  13.150  46.224  1.00  0.00     0.017 A 
HETATM   14  C11 UNL     1       3.965  12.216  46.874  1.00  0.00     0.089 A 
HETATM   15  N2  UNL     1       4.849  11.434  46.255  1.00  0.00    -0.352 N 
ATOM     16  H2  UNL     1       5.395  10.758  46.788  1.00  0.00     0.166 HD
ENDBRANCH   9  10
TORSDOF 1
ENDMDL
MODEL 4
REMARK VINA RESULT: -6.093311219      1.800      2.668
REMARK  1 active torsions:
REMARK  status: ('A' for Active; 'I' for Inactive)
REMARK    1  A    between atoms: N1_9  and  C7_10 
ROOT
HETATM    1  F1  UNL     1       5.132  10.627  45.561  1.00  0.00    -0.182 F 
HETATM    2  C1  UNL     1       5.701  10.453  44.323  1.00  0.00     0.325 C 
HETATM    3  F2  UNL     1       5.524   9.088  44.041  1.00  0.00    -0.182 F 
HETATM    4  C2  UNL     1       7.191  10.755  44.301  1.00  0.00     0.104 C 
HETATM    5  C3  UNL     1       7.657  11.032  42.888  1.00  0.00     0.008 C 
HETATM    6  C4  UNL     1       7.276   9.957  41.932  1.00  0.00     0.002 C 
HETATM    7  C5  UNL     1       5.884   9.974  41.430  1.00  0.00     0.020 C 
HETATM    8  C6  UNL     1       5.010  11.083  41.904  1.00  0.00     0.130 C 
HETATM    9  N1  UNL     1       5.025  11.276  43.343  1.00  0.00    -0.305 N 
ENDROOT
BRANCH   9  10
HETATM   10  C7  UNL     1       4.285  12.421  43.766  1.00  0.00     0.107 A 
HETATM   11  C8  UNL     1       4.119  13.488  42.883  1.00  0.00     0.048 A 
HETATM   12  C9  UNL     1       3.430  14.626  43.209  1.00  0.00     0.005 A 
HETATM   13  C10 UNL     1       2.887  14.687  44.480  1.00  0.00     0.017 A 
HETATM   14  C11 UNL     1       3.068  13.618  45.325  1.00  0.00     0.089 A 
HETATM   15  N2  UNL     1       3.743  12.519  44.986  1.00  0.00    -0.352 N 
ATOM     16  H2  UNL     1       3.846  11.756  45.655  1.00  0.00     0.166 HD
ENDBRANCH   9  10
TORSDOF 1
ENDMDL
MODEL 5
REMARK VINA RESULT: -6.079638543      2.153      5.360
REMARK  1 active torsions:
REMARK  status: ('A' for Active; 'I' for Inactive)
REMARK    1  A    between atoms: N1_9  and  C7_10 
ROOT
HETATM    1  F1  UNL     1       5.615   8.439  44.916  1.00  0.00    -0.182 F 
HETATM    2  C1  UNL     1       5.926   9.590  44.234  1.00  0.00     0.325 C 
HETATM    3  F2  UNL     1       6.339  10.491  45.230  1.00  0.00    -0.182 F 
HETATM    4  C2  UNL     1       4.735  10.196  43.508  1.00  0.00     0.104 C 
HETATM    5  C3  UNL     1       5.201  11.127  42.409  1.00  0.00     0.008 C 
HETATM    6  C4  UNL     1       6.160  12.156  42.892  1.00  0.00     0.002 C 
HETATM    7  C5  UNL     1       7.567  11.727  43.064  1.00  0.00     0.020 C 
HETATM    8  C6  UNL     1       7.890  10.318  42.706  1.00  0.00     0.130 C 
HETATM    9  N1  UNL     1       6.993   9.337  43.290  1.00  0.00    -0.305 N 
ENDROOT
BRANCH   9  10
HETATM   10  C7  UNL     1       7.238   8.008  42.834  1.00  0.00     0.107 A 
HETATM   11  C8  UNL     1       6.785   7.626  41.572  1.00  0.00     0.048 A 
HETATM   12  C9  UNL     1       6.973   6.369  41.059  1.00  0.00     0.005 A 
HETATM   13  C10 UNL     1       7.645   5.461  41.858  1.00  0.00     0.017 A 
HETATM   14  C11 UNL     1       8.079   5.869  43.097  1.00  0.00     0.089 A 
HETATM   15  N2  UNL     1       7.886   7.098  43.575  1.00  0.00    -0.352 N 
ATOM     16  H2  UNL     1       8.230   7.346  44.503  1.00  0.00     0.166 HD
ENDBRANCH   9  10
TORSDOF 1
ENDMDL
