MODEL 1
REMARK VINA RESULT: -5.742874745      0.000      0.000
REMARK  3 active torsions:
REMARK  status: ('A' for Active; 'I' for Inactive)
REMARK    1  A    between atoms: C2_2  and  N1_3 
REMARK    2  A    between atoms: C5_8  and  C6_9 
REMARK    3  A    between atoms: C6_9  and  C9_12 
ROOT
HETATM    1  N1  UNL     1       4.011  12.736  44.631  1.00  0.00    -0.345 N 
HETATM    2  C3  UNL     1       3.473  13.168  45.797  1.00  0.00     0.109 A 
HETATM    3  C4  UNL     1       3.898  12.326  46.794  1.00  0.00     0.106 A 
HETATM    4  N2  UNL     1       4.672  11.422  46.203  1.00  0.00    -0.353 N 
ATOM      5  H2  UNL     1       5.140  10.657  46.689  1.00  0.00     0.166 HD
HETATM    6  C5  UNL     1       4.761  11.650  44.860  1.00  0.00     0.100 A 
ENDROOT
BRANCH   6   7
HETATM    7  C6  UNL     1       5.530  10.857  43.872  1.00  0.00     0.109 C 
HETATM    8  C7  UNL     1       4.821  10.681  42.553  1.00  0.00     0.032 C 
HETATM    9  C8  UNL     1       6.033   9.549  44.407  1.00  0.00     0.032 C 
BRANCH   7  10
HETATM   10  C9  UNL     1       6.791  11.678  43.550  1.00  0.00     0.401 C 
HETATM   11  F1  UNL     1       6.958  12.670  44.482  1.00  0.00    -0.170 F 
HETATM   12  F2  UNL     1       7.886  10.813  43.496  1.00  0.00    -0.170 F 
HETATM   13  F3  UNL     1       6.606  12.206  42.279  1.00  0.00    -0.170 F 
ENDBRANCH   7  10
ENDBRANCH   6   7
BRANCH   1  14
HETATM   14  C2  UNL     1       3.779  13.381  43.338  1.00  0.00     0.125 C 
HETATM   15  C1  UNL     1       3.374  14.834  43.545  1.00  0.00     0.027 C 
ENDBRANCH   1  14
TORSDOF 3
ENDMDL
MODEL 2
REMARK VINA RESULT: -5.566417299      1.358      2.056
REMARK  3 active torsions:
REMARK  status: ('A' for Active; 'I' for Inactive)
REMARK    1  A    between atoms: C2_2  and  N1_3 
REMARK    2  A    between atoms: C5_8  and  C6_9 
REMARK    3  A    between atoms: C6_9  and  C9_12 
ROOT
HETATM    1  N1  UNL     1       4.284  12.716  44.509  1.00  0.00    -0.345 N 
HETATM    2  C3  UNL     1       3.489  13.053  45.554  1.00  0.00     0.109 A 
HETATM    3  C4  UNL     1       3.835  12.258  46.618  1.00  0.00     0.106 A 
HETATM    4  N2  UNL     1       4.818  11.475  46.185  1.00  0.00    -0.353 N 
ATOM      5  H2  UNL     1       5.287  10.771  46.754  1.00  0.00     0.166 HD
HETATM    6  C5  UNL     1       5.117  11.736  44.879  1.00  0.00     0.100 A 
ENDROOT
BRANCH   6   7
HETATM    7  C6  UNL     1       6.152  11.069  44.054  1.00  0.00     0.109 C 
HETATM    8  C7  UNL     1       6.960  10.044  44.809  1.00  0.00     0.032 C 
HETATM    9  C8  UNL     1       7.034  12.023  43.304  1.00  0.00     0.032 C 
BRANCH   7  10
HETATM   10  C9  UNL     1       5.396  10.277  42.973  1.00  0.00     0.401 C 
HETATM   11  F1  UNL     1       4.084  10.119  43.337  1.00  0.00    -0.170 F 
HETATM   12  F2  UNL     1       5.530  10.943  41.753  1.00  0.00    -0.170 F 
HETATM   13  F3  UNL     1       6.039   9.051  42.859  1.00  0.00    -0.170 F 
ENDBRANCH   7  10
ENDBRANCH   6   7
BRANCH   1  14
HETATM   14  C2  UNL     1       4.206  13.346  43.190  1.00  0.00     0.125 C 
HETATM   15  C1  UNL     1       3.267  14.544  43.238  1.00  0.00     0.027 C 
ENDBRANCH   1  14
TORSDOF 3
ENDMDL
MODEL 3
REMARK VINA RESULT: -5.543393792      1.471      2.137
REMARK  3 active torsions:
REMARK  status: ('A' for Active; 'I' for Inactive)
REMARK    1  A    between atoms: C2_2  and  N1_3 
REMARK    2  A    between atoms: C5_8  and  C6_9 
REMARK    3  A    between atoms: C6_9  and  C9_12 
ROOT
HETATM    1  N1  UNL     1       3.919  13.074  44.634  1.00  0.00    -0.345 N 
HETATM    2  C3  UNL     1       3.452  13.033  45.906  1.00  0.00     0.109 A 
HETATM    3  C4  UNL     1       4.170  12.081  46.586  1.00  0.00     0.106 A 
HETATM    4  N2  UNL     1       5.037  11.583  45.711  1.00  0.00    -0.353 N 
ATOM      5  H2  UNL     1       5.714  10.850  45.924  1.00  0.00     0.166 HD
HETATM    6  C5  UNL     1       4.905  12.179  44.491  1.00  0.00     0.100 A 
ENDROOT
BRANCH   6   7
HETATM    7  C6  UNL     1       5.694  11.891  43.270  1.00  0.00     0.109 C 
HETATM    8  C7  UNL     1       7.186  11.925  43.491  1.00  0.00     0.032 C 
HETATM    9  C8  UNL     1       5.294  12.716  42.083  1.00  0.00     0.032 C 
BRANCH   7  10
HETATM   10  C9  UNL     1       5.373  10.437  42.883  1.00  0.00     0.401 C 
HETATM   11  F1  UNL     1       6.208   9.577  43.549  1.00  0.00    -0.170 F 
HETATM   12  F2  UNL     1       4.027  10.187  43.160  1.00  0.00    -0.170 F 
HETATM   13  F3  UNL     1       5.546  10.345  41.508  1.00  0.00    -0.170 F 
ENDBRANCH   7  10
ENDBRANCH   6   7
BRANCH   1  14
HETATM   14  C2  UNL     1       3.394  13.969  43.602  1.00  0.00     0.125 C 
HETATM   15  C1  UNL     1       2.579  15.084  44.243  1.00  0.00     0.027 C 
ENDBRANCH   1  14
TORSDOF 3
ENDMDL
MODEL 4
REMARK VINA RESULT: -5.536634466      1.245      2.416
REMARK  3 active torsions:
REMARK  status: ('A' for Active; 'I' for Inactive)
REMARK    1  A    between atoms: C2_2  and  N1_3 
REMARK    2  A    between atoms: C5_8  and  C6_9 
REMARK    3  A    between atoms: C6_9  and  C9_12 
ROOT
HETATM    1  N1  UNL     1       4.225  12.759  44.079  1.00  0.00    -0.345 N 
HETATM    2  C3  UNL     1       3.599  13.928  43.797  1.00  0.00     0.109 A 
HETATM    3  C4  UNL     1       3.770  14.183  42.459  1.00  0.00     0.106 A 
HETATM    4  N2  UNL     1       4.487  13.171  41.982  1.00  0.00    -0.353 N 
ATOM      5  H2  UNL     1       4.777  13.078  41.009  1.00  0.00     0.166 HD
HETATM    6  C5  UNL     1       4.785  12.271  42.965  1.00  0.00     0.100 A 
ENDROOT
BRANCH   6   7
HETATM    7  C6  UNL     1       5.564  11.020  42.818  1.00  0.00     0.109 C 
HETATM    8  C7  UNL     1       5.839  10.642  41.384  1.00  0.00     0.032 C 
HETATM    9  C8  UNL     1       5.005   9.865  43.595  1.00  0.00     0.032 C 
BRANCH   7  10
HETATM   10  C9  UNL     1       6.945  11.297  43.438  1.00  0.00     0.401 C 
HETATM   11  F1  UNL     1       7.058  12.624  43.763  1.00  0.00    -0.170 F 
HETATM   12  F2  UNL     1       7.114  10.464  44.546  1.00  0.00    -0.170 F 
HETATM   13  F3  UNL     1       7.888  10.929  42.486  1.00  0.00    -0.170 F 
ENDBRANCH   7  10
ENDBRANCH   6   7
BRANCH   1  14
HETATM   14  C2  UNL     1       4.267  12.159  45.414  1.00  0.00     0.125 C 
HETATM   15  C1  UNL     1       3.026  12.554  46.202  1.00  0.00     0.027 C 
ENDBRANCH   1  14
TORSDOF 3
ENDMDL
MODEL 5
REMARK VINA RESULT: -5.514689552      1.296      1.878
REMARK  3 active torsions:
REMARK  status: ('A' for Active; 'I' for Inactive)
REMARK    1  A    between atoms: C2_2  and  N1_3 
REMARK    2  A    between atoms: C5_8  and  C6_9 
REMARK    3  A    between atoms: C6_9  and  C9_12 
ROOT
HETATM    1  N1  UNL     1       4.172  12.735  44.548  1.00  0.00    -0.345 N 
HETATM    2  C3  UNL     1       3.581  12.968  45.745  1.00  0.00     0.109 A 
HETATM    3  C4  UNL     1       4.084  12.062  46.645  1.00  0.00     0.106 A 
HETATM    4  N2  UNL     1       4.954  11.318  45.969  1.00  0.00    -0.353 N 
ATOM      5  H2  UNL     1       5.494  10.554  46.372  1.00  0.00     0.166 HD
HETATM    6  C5  UNL     1       5.029  11.712  44.664  1.00  0.00     0.100 A 
ENDROOT
BRANCH   6   7
HETATM    7  C6  UNL     1       5.884  11.125  43.606  1.00  0.00     0.109 C 
HETATM    8  C7  UNL     1       7.158  11.893  43.361  1.00  0.00     0.032 C 
HETATM    9  C8  UNL     1       5.155  10.843  42.326  1.00  0.00     0.032 C 
BRANCH   7  10
HETATM   10  C9  UNL     1       6.333   9.749  44.130  1.00  0.00     0.401 C 
HETATM   11  F1  UNL     1       7.074   9.899  45.274  1.00  0.00    -0.170 F 
HETATM   12  F2  UNL     1       5.201   8.956  44.334  1.00  0.00    -0.170 F 
HETATM   13  F3  UNL     1       7.082   9.164  43.117  1.00  0.00    -0.170 F 
ENDBRANCH   7  10
ENDBRANCH   6   7
BRANCH   1  14
HETATM   14  C2  UNL     1       3.884  13.500  43.334  1.00  0.00     0.125 C 
HETATM   15  C1  UNL     1       3.073  14.741  43.681  1.00  0.00     0.027 C 
ENDBRANCH   1  14
TORSDOF 3
ENDMDL
