MODEL 1
REMARK VINA RESULT: -4.858199984      0.000      0.000
REMARK  2 active torsions:
REMARK  status: ('A' for Active; 'I' for Inactive)
REMARK    1  A    between atoms: C1_4  and  C2_5 
REMARK    2  A    between atoms: C1_4  and  N2_8 
ROOT
HETATM    1  N1  UNL     1       6.369   8.959  46.201  1.00  0.00    -0.381 N 
ATOM      2  H11 UNL     1       5.916   9.811  46.530  1.00  0.00     0.157 HD
ATOM      3  H12 UNL     1       6.578   8.186  46.833  1.00  0.00     0.157 HD
HETATM    4  C1  UNL     1       6.683   8.853  44.965  1.00  0.00     0.163 C 
ENDROOT
BRANCH   4   5
HETATM    5  C2  UNL     1       7.325   7.642  44.498  1.00  0.00     0.261 C 
HETATM    6  O1  UNL     1       8.338   7.224  45.110  1.00  0.00    -0.276 OA
HETATM    7 BR1  UNL     1       6.658   6.677  42.972  1.00  0.00     0.000 Br
ENDBRANCH   4   5
BRANCH   4   8
HETATM    8  N2  UNL     1       6.392   9.933  44.082  1.00  0.00    -0.316 N 
HETATM    9  C3  UNL     1       5.281  10.694  44.106  1.00  0.00     0.098 A 
HETATM   10  C4  UNL     1       5.321  11.651  43.111  1.00  0.00     0.019 A 
HETATM   11  C5  UNL     1       6.510  11.458  42.457  1.00  0.00     0.019 A 
HETATM   12  C6  UNL     1       7.159  10.403  43.061  1.00  0.00     0.098 A 
ENDBRANCH   4   8
TORSDOF 2
ENDMDL
MODEL 2
REMARK VINA RESULT: -4.828695490      0.104      1.151
REMARK  2 active torsions:
REMARK  status: ('A' for Active; 'I' for Inactive)
REMARK    1  A    between atoms: C1_4  and  C2_5 
REMARK    2  A    between atoms: C1_4  and  N2_8 
ROOT
HETATM    1  N1  UNL     1       6.344   8.970  46.221  1.00  0.00    -0.381 N 
ATOM      2  H11 UNL     1       5.870   9.808  46.559  1.00  0.00     0.157 HD
ATOM      3  H12 UNL     1       6.596   8.209  46.852  1.00  0.00     0.157 HD
HETATM    4  C1  UNL     1       6.630   8.870  44.978  1.00  0.00     0.163 C 
ENDROOT
BRANCH   4   5
HETATM    5  C2  UNL     1       7.302   7.680  44.500  1.00  0.00     0.261 C 
HETATM    6  O1  UNL     1       8.321   7.277  45.114  1.00  0.00    -0.276 OA
HETATM    7 BR1  UNL     1       6.666   6.718  42.959  1.00  0.00     0.000 Br
ENDBRANCH   4   5
BRANCH   4   8
HETATM    8  N2  UNL     1       6.279   9.934  44.098  1.00  0.00    -0.316 N 
HETATM    9  C3  UNL     1       7.057  10.437  43.120  1.00  0.00     0.098 A 
HETATM   10  C4  UNL     1       6.410  11.461  42.458  1.00  0.00     0.019 A 
HETATM   11  C5  UNL     1       5.185  11.580  43.062  1.00  0.00     0.019 A 
HETATM   12  C6  UNL     1       5.116  10.639  44.066  1.00  0.00     0.098 A 
ENDBRANCH   4   8
TORSDOF 2
ENDMDL
MODEL 3
REMARK VINA RESULT: -4.812598683      3.106      3.870
REMARK  2 active torsions:
REMARK  status: ('A' for Active; 'I' for Inactive)
REMARK    1  A    between atoms: C1_4  and  C2_5 
REMARK    2  A    between atoms: C1_4  and  N2_8 
ROOT
HETATM    1  N1  UNL     1       4.916  10.931  45.688  1.00  0.00    -0.381 N 
ATOM      2  H11 UNL     1       4.427  11.489  46.387  1.00  0.00     0.157 HD
ATOM      3  H12 UNL     1       5.503  10.139  45.951  1.00  0.00     0.157 HD
HETATM    4  C1  UNL     1       4.790  11.228  44.450  1.00  0.00     0.163 C 
ENDROOT
BRANCH   4   5
HETATM    5  C2  UNL     1       5.484  10.435  43.456  1.00  0.00     0.261 C 
HETATM    6  O1  UNL     1       4.947   9.375  43.050  1.00  0.00    -0.276 OA
HETATM    7 BR1  UNL     1       7.194  10.973  42.757  1.00  0.00     0.000 Br
ENDBRANCH   4   5
BRANCH   4   8
HETATM    8  N2  UNL     1       3.970  12.334  44.082  1.00  0.00    -0.316 N 
HETATM    9  C3  UNL     1       3.922  12.909  42.865  1.00  0.00     0.098 A 
HETATM   10  C4  UNL     1       3.021  13.956  42.853  1.00  0.00     0.019 A 
HETATM   11  C5  UNL     1       2.503  14.015  44.121  1.00  0.00     0.019 A 
HETATM   12  C6  UNL     1       3.092  13.015  44.865  1.00  0.00     0.098 A 
ENDBRANCH   4   8
TORSDOF 2
ENDMDL
MODEL 4
REMARK VINA RESULT: -4.798457555      3.040      3.660
REMARK  2 active torsions:
REMARK  status: ('A' for Active; 'I' for Inactive)
REMARK    1  A    between atoms: C1_4  and  C2_5 
REMARK    2  A    between atoms: C1_4  and  N2_8 
ROOT
HETATM    1  N1  UNL     1       4.822  10.985  45.773  1.00  0.00    -0.381 N 
ATOM      2  H11 UNL     1       4.284  11.575  46.408  1.00  0.00     0.157 HD
ATOM      3  H12 UNL     1       5.384  10.206  46.115  1.00  0.00     0.157 HD
HETATM    4  C1  UNL     1       4.792  11.226  44.517  1.00  0.00     0.163 C 
ENDROOT
BRANCH   4   5
HETATM    5  C2  UNL     1       5.556  10.388  43.616  1.00  0.00     0.261 C 
HETATM    6  O1  UNL     1       5.103   9.254  43.321  1.00  0.00    -0.276 OA
HETATM    7 BR1  UNL     1       7.230  10.977  42.873  1.00  0.00     0.000 Br
ENDBRANCH   4   5
BRANCH   4   8
HETATM    8  N2  UNL     1       4.008  12.316  44.038  1.00  0.00    -0.316 N 
HETATM    9  C3  UNL     1       3.155  13.055  44.773  1.00  0.00     0.098 A 
HETATM   10  C4  UNL     1       2.559  14.030  43.997  1.00  0.00     0.019 A 
HETATM   11  C5  UNL     1       3.076  13.871  42.738  1.00  0.00     0.019 A 
HETATM   12  C6  UNL     1       3.963  12.818  42.775  1.00  0.00     0.098 A 
ENDBRANCH   4   8
TORSDOF 2
ENDMDL
MODEL 5
REMARK VINA RESULT: -4.788716287      3.751      4.317
REMARK  2 active torsions:
REMARK  status: ('A' for Active; 'I' for Inactive)
REMARK    1  A    between atoms: C1_4  and  C2_5 
REMARK    2  A    between atoms: C1_4  and  N2_8 
ROOT
HETATM    1  N1  UNL     1       8.061   4.364  42.111  1.00  0.00    -0.381 N 
ATOM      2  H11 UNL     1       7.049   4.316  42.231  1.00  0.00     0.157 HD
ATOM      3  H12 UNL     1       8.622   3.525  41.962  1.00  0.00     0.157 HD
HETATM    4  C1  UNL     1       8.643   5.503  42.148  1.00  0.00     0.163 C 
ENDROOT
BRANCH   4   5
HETATM    5  C2  UNL     1      10.080   5.571  41.978  1.00  0.00     0.261 C 
HETATM    6  O1  UNL     1      10.780   5.977  42.938  1.00  0.00    -0.276 OA
HETATM    7 BR1  UNL     1      10.920   5.055  40.326  1.00  0.00     0.000 Br
ENDBRANCH   4   5
BRANCH   4   8
HETATM    8  N2  UNL     1       7.860   6.675  42.357  1.00  0.00    -0.316 N 
HETATM    9  C3  UNL     1       6.790   6.774  43.169  1.00  0.00     0.098 A 
HETATM   10  C4  UNL     1       6.266   8.051  43.136  1.00  0.00     0.019 A 
HETATM   11  C5  UNL     1       7.055   8.755  42.263  1.00  0.00     0.019 A 
HETATM   12  C6  UNL     1       8.029   7.901  41.793  1.00  0.00     0.098 A 
ENDBRANCH   4   8
TORSDOF 2
ENDMDL
