MODEL 1
REMARK VINA RESULT: -7.424833531      0.000      0.000
REMARK  2 active torsions:
REMARK  status: ('A' for Active; 'I' for Inactive)
REMARK    1  A    between atoms: C4_6  and  C5_7 
REMARK    2  A    between atoms: C8_10  and  O1_11 
ROOT
HETATM    1  N1  UNL     1       3.040  15.008  38.877  1.00  0.00    -0.191 NA
HETATM    2  C1  UNL     1       3.421  14.205  39.614  1.00  0.00     0.110 C 
HETATM    3  C2  UNL     1       3.892  13.168  40.577  1.00  0.00     0.125 C 
HETATM    4  C3  UNL     1       4.494  12.019  40.023  1.00  0.00     0.110 C 
HETATM    5  N2  UNL     1       4.992  11.078  39.516  1.00  0.00    -0.191 NA
HETATM    6  C4  UNL     1       3.700  13.439  41.816  1.00  0.00     0.045 C 
ENDROOT
BRANCH   6   7
HETATM    7  C5  UNL     1       3.988  12.744  43.051  1.00  0.00    -0.031 A 
HETATM    8  C6  UNL     1       3.133  12.961  44.145  1.00  0.00     0.014 A 
HETATM    9  C7  UNL     1       3.294  12.367  45.371  1.00  0.00     0.040 A 
HETATM   10  C8  UNL     1       4.353  11.515  45.531  1.00  0.00     0.104 A 
HETATM   11  C9  UNL     1       5.244  11.239  44.521  1.00  0.00     0.150 A 
HETATM   12  F1  UNL     1       6.295  10.394  44.672  1.00  0.00    -0.203 F 
HETATM   13  C10 UNL     1       5.018  11.881  43.296  1.00  0.00     0.056 A 
BRANCH  10  14
HETATM   14  O1  UNL     1       4.526  10.905  46.780  1.00  0.00    -0.358 OA
ATOM     15  H1  UNL     1       4.946  10.053  46.808  1.00  0.00     0.217 HD
ENDBRANCH  10  14
ENDBRANCH   6   7
TORSDOF 2
ENDMDL
MODEL 2
REMARK VINA RESULT: -7.392478554      1.204      1.742
REMARK  2 active torsions:
REMARK  status: ('A' for Active; 'I' for Inactive)
REMARK    1  A    between atoms: C4_6  and  C5_7 
REMARK    2  A    between atoms: C8_10  and  O1_11 
ROOT
HETATM    1  N1  UNL     1       3.089  15.110  38.797  1.00  0.00    -0.191 NA
HETATM    2  C1  UNL     1       3.426  14.281  39.526  1.00  0.00     0.110 C 
HETATM    3  C2  UNL     1       3.841  13.212  40.479  1.00  0.00     0.125 C 
HETATM    4  C3  UNL     1       4.366  12.032  39.914  1.00  0.00     0.110 C 
HETATM    5  N2  UNL     1       4.802  11.064  39.398  1.00  0.00    -0.191 NA
HETATM    6  C4  UNL     1       3.675  13.486  41.721  1.00  0.00     0.045 C 
ENDROOT
BRANCH   6   7
HETATM    7  C5  UNL     1       3.931  12.768  42.950  1.00  0.00    -0.031 A 
HETATM    8  C6  UNL     1       5.080  11.960  43.015  1.00  0.00     0.014 A 
HETATM    9  C7  UNL     1       5.437  11.227  44.119  1.00  0.00     0.040 A 
HETATM   10  C8  UNL     1       4.622  11.290  45.216  1.00  0.00     0.104 A 
HETATM   11  C9  UNL     1       3.477  12.052  45.249  1.00  0.00     0.150 A 
HETATM   12  F1  UNL     1       2.666  12.121  46.334  1.00  0.00    -0.203 F 
HETATM   13  C10 UNL     1       3.174  12.774  44.088  1.00  0.00     0.056 A 
BRANCH  10  14
HETATM   14  O1  UNL     1       4.979  10.545  46.346  1.00  0.00    -0.358 OA
ATOM     15  H1  UNL     1       4.325  10.417  47.024  1.00  0.00     0.217 HD
ENDBRANCH  10  14
ENDBRANCH   6   7
TORSDOF 2
ENDMDL
MODEL 3
REMARK VINA RESULT: -7.105138753      3.568      4.974
REMARK  2 active torsions:
REMARK  status: ('A' for Active; 'I' for Inactive)
REMARK    1  A    between atoms: C4_6  and  C5_7 
REMARK    2  A    between atoms: C8_10  and  O1_11 
ROOT
HETATM    1  N1  UNL     1       8.158   8.107  41.965  1.00  0.00    -0.191 NA
HETATM    2  C1  UNL     1       7.436   8.779  42.565  1.00  0.00     0.110 C 
HETATM    3  C2  UNL     1       6.488   9.645  43.323  1.00  0.00     0.125 C 
HETATM    4  C3  UNL     1       6.364   9.387  44.704  1.00  0.00     0.110 C 
HETATM    5  N2  UNL     1       6.295   9.137  45.855  1.00  0.00    -0.191 NA
HETATM    6  C4  UNL     1       5.883  10.540  42.631  1.00  0.00     0.045 C 
ENDROOT
BRANCH   6   7
HETATM    7  C5  UNL     1       4.911  11.563  42.944  1.00  0.00    -0.031 A 
HETATM    8  C6  UNL     1       4.573  12.482  41.935  1.00  0.00     0.014 A 
HETATM    9  C7  UNL     1       3.668  13.500  42.101  1.00  0.00     0.040 A 
HETATM   10  C8  UNL     1       3.063  13.622  43.322  1.00  0.00     0.104 A 
HETATM   11  C9  UNL     1       3.328  12.772  44.370  1.00  0.00     0.150 A 
HETATM   12  F1  UNL     1       2.730  12.886  45.583  1.00  0.00    -0.203 F 
HETATM   13  C10 UNL     1       4.262  11.756  44.130  1.00  0.00     0.056 A 
BRANCH  10  14
HETATM   14  O1  UNL     1       2.139  14.659  43.499  1.00  0.00    -0.358 OA
ATOM     15  H1  UNL     1       1.253  14.528  43.180  1.00  0.00     0.217 HD
ENDBRANCH  10  14
ENDBRANCH   6   7
TORSDOF 2
ENDMDL
MODEL 4
REMARK VINA RESULT: -6.998191689      3.249      4.182
REMARK  2 active torsions:
REMARK  status: ('A' for Active; 'I' for Inactive)
REMARK    1  A    between atoms: C4_6  and  C5_7 
REMARK    2  A    between atoms: C8_10  and  O1_11 
ROOT
HETATM    1  N1  UNL     1       2.887  14.224  42.385  1.00  0.00    -0.191 NA
HETATM    2  C1  UNL     1       3.338  13.376  43.026  1.00  0.00     0.110 C 
HETATM    3  C2  UNL     1       3.940  12.287  43.848  1.00  0.00     0.125 C 
HETATM    4  C3  UNL     1       3.463  12.154  45.168  1.00  0.00     0.110 C 
HETATM    5  N2  UNL     1       3.032  12.079  46.264  1.00  0.00    -0.191 NA
HETATM    6  C4  UNL     1       4.834  11.581  43.257  1.00  0.00     0.045 C 
ENDROOT
BRANCH   6   7
HETATM    7  C5  UNL     1       5.653  10.460  43.659  1.00  0.00    -0.031 A 
HETATM    8  C6  UNL     1       5.614  10.063  45.007  1.00  0.00     0.014 A 
HETATM    9  C7  UNL     1       6.342   9.018  45.518  1.00  0.00     0.040 A 
HETATM   10  C8  UNL     1       7.153   8.327  44.659  1.00  0.00     0.104 A 
HETATM   11  C9  UNL     1       7.259   8.639  43.324  1.00  0.00     0.150 A 
HETATM   12  F1  UNL     1       8.060   7.957  42.467  1.00  0.00    -0.203 F 
HETATM   13  C10 UNL     1       6.488   9.717  42.872  1.00  0.00     0.056 A 
BRANCH  10  14
HETATM   14  O1  UNL     1       7.899   7.259  45.173  1.00  0.00    -0.358 OA
ATOM     15  H1  UNL     1       8.845   7.291  45.084  1.00  0.00     0.217 HD
ENDBRANCH  10  14
ENDBRANCH   6   7
TORSDOF 2
ENDMDL
MODEL 5
REMARK VINA RESULT: -6.988777723      3.415      4.923
REMARK  2 active torsions:
REMARK  status: ('A' for Active; 'I' for Inactive)
REMARK    1  A    between atoms: C4_6  and  C5_7 
REMARK    2  A    between atoms: C8_10  and  O1_11 
ROOT
HETATM    1  N1  UNL     1       7.545   7.469  43.717  1.00  0.00    -0.191 NA
HETATM    2  C1  UNL     1       7.203   8.556  43.526  1.00  0.00     0.110 C 
HETATM    3  C2  UNL     1       6.751   9.958  43.300  1.00  0.00     0.125 C 
HETATM    4  C3  UNL     1       7.730  10.875  42.866  1.00  0.00     0.110 C 
HETATM    5  N2  UNL     1       8.582  11.606  42.502  1.00  0.00    -0.191 NA
HETATM    6  C4  UNL     1       5.507  10.180  43.525  1.00  0.00     0.045 C 
ENDROOT
BRANCH   6   7
HETATM    7  C5  UNL     1       4.666  11.352  43.440  1.00  0.00    -0.031 A 
HETATM    8  C6  UNL     1       4.009  11.779  44.607  1.00  0.00     0.014 A 
HETATM    9  C7  UNL     1       3.182  12.873  44.662  1.00  0.00     0.040 A 
HETATM   10  C8  UNL     1       2.990  13.585  43.509  1.00  0.00     0.104 A 
HETATM   11  C9  UNL     1       3.589  13.246  42.319  1.00  0.00     0.150 A 
HETATM   12  F1  UNL     1       3.404  13.948  41.172  1.00  0.00    -0.203 F 
HETATM   13  C10 UNL     1       4.419  12.118  42.336  1.00  0.00     0.056 A 
BRANCH  10  14
HETATM   14  O1  UNL     1       2.148  14.702  43.557  1.00  0.00    -0.358 OA
ATOM     15  H1  UNL     1       1.578  14.801  44.311  1.00  0.00     0.217 HD
ENDBRANCH  10  14
ENDBRANCH   6   7
TORSDOF 2
ENDMDL
