MODEL 1
REMARK VINA RESULT: -6.480390863      0.000      0.000
REMARK  2 active torsions:
REMARK  status: ('A' for Active; 'I' for Inactive)
REMARK    1  A    between atoms: N1_1  and  C1_4 
REMARK    2  A    between atoms: N2_8  and  C4_9 
ROOT
HETATM    1  C1  UNL     1       6.970  10.186  43.647  1.00  0.00     0.228 A 
HETATM    2  O1  UNL     1       7.613   9.130  44.022  1.00  0.00    -0.290 OA
HETATM    3  C2  UNL     1       6.981   8.516  44.976  1.00  0.00     0.163 A 
HETATM    4  C3  UNL     1       5.837   9.246  45.229  1.00  0.00     0.125 A 
HETATM    5  N2  UNL     1       5.852  10.304  44.370  1.00  0.00    -0.287 N 
ENDROOT
BRANCH   5   6
HETATM    6  C4  UNL     1       4.874  11.334  44.262  1.00  0.00     0.042 A 
HETATM    7  C5  UNL     1       4.055  11.649  45.334  1.00  0.00     0.033 A 
HETATM    8  C6  UNL     1       3.099  12.643  45.255  1.00  0.00     0.044 A 
HETATM    9  C7  UNL     1       2.915  13.371  44.099  1.00  0.00     0.116 A 
HETATM   10  F1  UNL     1       1.994  14.351  43.975  1.00  0.00    -0.206 F 
HETATM   11  C8  UNL     1       3.721  13.068  43.026  1.00  0.00     0.044 A 
HETATM   12  C9  UNL     1       4.669  12.074  43.121  1.00  0.00     0.033 A 
ENDBRANCH   5   6
BRANCH   1  13
HETATM   13  N1  UNL     1       7.313  11.028  42.722  1.00  0.00    -0.365 N 
ATOM     14  H12 UNL     1       7.296  10.805  41.727  1.00  0.00     0.159 HD
ATOM     15  H11 UNL     1       7.635  11.988  42.847  1.00  0.00     0.159 HD
ENDBRANCH   1  13
TORSDOF 2
ENDMDL
MODEL 2
REMARK VINA RESULT: -6.459119254      1.004      1.029
REMARK  2 active torsions:
REMARK  status: ('A' for Active; 'I' for Inactive)
REMARK    1  A    between atoms: N1_1  and  C1_4 
REMARK    2  A    between atoms: N2_8  and  C4_9 
ROOT
HETATM    1  C1  UNL     1       7.188  10.264  43.065  1.00  0.00     0.228 A 
HETATM    2  O1  UNL     1       7.695   9.080  43.149  1.00  0.00    -0.290 OA
HETATM    3  C2  UNL     1       6.779   8.200  43.419  1.00  0.00     0.163 A 
HETATM    4  C3  UNL     1       5.585   8.886  43.514  1.00  0.00     0.125 A 
HETATM    5  N2  UNL     1       5.870  10.199  43.285  1.00  0.00    -0.287 N 
ENDROOT
BRANCH   5   6
HETATM    6  C4  UNL     1       4.952  11.288  43.281  1.00  0.00     0.042 A 
HETATM    7  C5  UNL     1       4.240  11.618  44.422  1.00  0.00     0.033 A 
HETATM    8  C6  UNL     1       3.344  12.669  44.445  1.00  0.00     0.044 A 
HETATM    9  C7  UNL     1       3.115  13.441  43.327  1.00  0.00     0.116 A 
HETATM   10  F1  UNL     1       2.249  14.477  43.301  1.00  0.00    -0.206 F 
HETATM   11  C8  UNL     1       3.815  13.124  42.185  1.00  0.00     0.044 A 
HETATM   12  C9  UNL     1       4.705  12.073  42.179  1.00  0.00     0.033 A 
ENDBRANCH   5   6
BRANCH   1  13
HETATM   13  N1  UNL     1       7.813  11.372  42.811  1.00  0.00    -0.365 N 
ATOM     14  H12 UNL     1       8.573  11.732  43.389  1.00  0.00     0.159 HD
ATOM     15  H11 UNL     1       7.646  12.014  42.036  1.00  0.00     0.159 HD
ENDBRANCH   1  13
TORSDOF 2
ENDMDL
MODEL 3
REMARK VINA RESULT: -6.424603417      1.037      1.685
REMARK  2 active torsions:
REMARK  status: ('A' for Active; 'I' for Inactive)
REMARK    1  A    between atoms: N1_1  and  C1_4 
REMARK    2  A    between atoms: N2_8  and  C4_9 
ROOT
HETATM    1  C1  UNL     1       7.221  10.115  43.028  1.00  0.00     0.228 A 
HETATM    2  O1  UNL     1       7.718   8.926  43.111  1.00  0.00    -0.290 OA
HETATM    3  C2  UNL     1       6.798   8.058  43.408  1.00  0.00     0.163 A 
HETATM    4  C3  UNL     1       5.614   8.758  43.523  1.00  0.00     0.125 A 
HETATM    5  N2  UNL     1       5.908  10.066  43.277  1.00  0.00    -0.287 N 
ENDROOT
BRANCH   5   6
HETATM    6  C4  UNL     1       5.002  11.164  43.282  1.00  0.00     0.042 A 
HETATM    7  C5  UNL     1       4.758  11.886  42.124  1.00  0.00     0.033 A 
HETATM    8  C6  UNL     1       3.885  12.956  42.102  1.00  0.00     0.044 A 
HETATM    9  C7  UNL     1       3.213  13.358  43.237  1.00  0.00     0.116 A 
HETATM   10  F1  UNL     1       2.351  14.397  43.264  1.00  0.00    -0.206 F 
HETATM   11  C8  UNL     1       3.447  12.651  44.394  1.00  0.00     0.044 A 
HETATM   12  C9  UNL     1       4.321  11.586  44.399  1.00  0.00     0.033 A 
ENDBRANCH   5   6
BRANCH   1  13
HETATM   13  N1  UNL     1       7.853  11.214  42.751  1.00  0.00    -0.365 N 
ATOM     14  H12 UNL     1       8.003  11.960  43.429  1.00  0.00     0.159 HD
ATOM     15  H11 UNL     1       8.271  11.479  41.859  1.00  0.00     0.159 HD
ENDBRANCH   1  13
TORSDOF 2
ENDMDL
MODEL 4
REMARK VINA RESULT: -6.396317133      0.957      2.032
REMARK  2 active torsions:
REMARK  status: ('A' for Active; 'I' for Inactive)
REMARK    1  A    between atoms: N1_1  and  C1_4 
REMARK    2  A    between atoms: N2_8  and  C4_9 
ROOT
HETATM    1  C1  UNL     1       5.926   9.456  44.962  1.00  0.00     0.228 A 
HETATM    2  O1  UNL     1       6.708   8.538  44.499  1.00  0.00    -0.290 OA
HETATM    3  C2  UNL     1       6.805   8.618  43.207  1.00  0.00     0.163 A 
HETATM    4  C3  UNL     1       6.015   9.680  42.815  1.00  0.00     0.125 A 
HETATM    5  N2  UNL     1       5.466  10.198  43.949  1.00  0.00    -0.287 N 
ENDROOT
BRANCH   5   6
HETATM    6  C4  UNL     1       4.578  11.307  44.043  1.00  0.00     0.042 A 
HETATM    7  C5  UNL     1       4.416  12.177  42.977  1.00  0.00     0.033 A 
HETATM    8  C6  UNL     1       3.563  13.261  43.042  1.00  0.00     0.044 A 
HETATM    9  C7  UNL     1       2.828  13.529  44.177  1.00  0.00     0.116 A 
HETATM   10  F1  UNL     1       1.982  14.576  44.288  1.00  0.00    -0.206 F 
HETATM   11  C8  UNL     1       2.980  12.674  45.245  1.00  0.00     0.044 A 
HETATM   12  C9  UNL     1       3.835  11.598  45.163  1.00  0.00     0.033 A 
ENDBRANCH   5   6
BRANCH   1  13
HETATM   13  N1  UNL     1       5.606   9.665  46.202  1.00  0.00    -0.365 N 
ATOM     14  H12 UNL     1       5.890  10.496  46.720  1.00  0.00     0.159 HD
ATOM     15  H11 UNL     1       5.053   9.061  46.809  1.00  0.00     0.159 HD
ENDBRANCH   1  13
TORSDOF 2
ENDMDL
MODEL 5
REMARK VINA RESULT: -6.352882603      3.351      4.822
REMARK  2 active torsions:
REMARK  status: ('A' for Active; 'I' for Inactive)
REMARK    1  A    between atoms: N1_1  and  C1_4 
REMARK    2  A    between atoms: N2_8  and  C4_9 
ROOT
HETATM    1  C1  UNL     1       4.179  11.506  45.700  1.00  0.00     0.228 A 
HETATM    2  O1  UNL     1       3.258  12.301  46.133  1.00  0.00    -0.290 OA
HETATM    3  C2  UNL     1       2.823  13.071  45.182  1.00  0.00     0.163 A 
HETATM    4  C3  UNL     1       3.530  12.735  44.045  1.00  0.00     0.125 A 
HETATM    5  N2  UNL     1       4.387  11.736  44.399  1.00  0.00    -0.287 N 
ENDROOT
BRANCH   5   6
HETATM    6  C4  UNL     1       5.321  11.068  43.556  1.00  0.00     0.042 A 
HETATM    7  C5  UNL     1       6.632  11.507  43.464  1.00  0.00     0.033 A 
HETATM    8  C6  UNL     1       7.557  10.878  42.654  1.00  0.00     0.044 A 
HETATM    9  C7  UNL     1       7.217   9.778  41.896  1.00  0.00     0.116 A 
HETATM   10  F1  UNL     1       8.085   9.131  41.090  1.00  0.00    -0.206 F 
HETATM   11  C8  UNL     1       5.917   9.332  41.977  1.00  0.00     0.044 A 
HETATM   12  C9  UNL     1       5.007   9.971  42.789  1.00  0.00     0.033 A 
ENDBRANCH   5   6
BRANCH   1  13
HETATM   13  N1  UNL     1       4.829  10.611  46.378  1.00  0.00    -0.365 N 
ATOM     14  H12 UNL     1       5.139  10.752  47.339  1.00  0.00     0.159 HD
ATOM     15  H11 UNL     1       5.112   9.682  46.065  1.00  0.00     0.159 HD
ENDBRANCH   1  13
TORSDOF 2
ENDMDL
