MODEL 1
REMARK VINA RESULT: -7.364066270      0.000      0.000
REMARK  7 active torsions:
REMARK  status: ('A' for Active; 'I' for Inactive)
REMARK    1  A    between atoms: O1_2  and  C2_3 
REMARK    2  A    between atoms: C2_3  and  O3_5 
REMARK    3  A    between atoms: O3_5  and  N1_6 
REMARK    4  A    between atoms: C3_8  and  C4_9 
REMARK    5  A    between atoms: C8_13  and  O4_14 
REMARK    6  A    between atoms: C9_16  and  C10_17 
REMARK    7  A    between atoms: C11_18  and  C12_19 
ROOT
HETATM    1  C4  UNL     1       4.129  12.749  46.108  1.00  0.00    -0.006 A 
HETATM    2  C5  UNL     1       3.436  13.734  46.864  1.00  0.00     0.014 A 
HETATM    3  C6  UNL     1       2.787  14.773  46.259  1.00  0.00     0.004 A 
HETATM    4  C7  UNL     1       2.788  14.894  44.895  1.00  0.00     0.037 A 
HETATM    5  C8  UNL     1       3.452  13.965  44.110  1.00  0.00     0.076 A 
HETATM    6  C9  UNL     1       4.123  12.896  44.761  1.00  0.00     0.009 A 
ENDROOT
BRANCH   1   7
HETATM    7  C3  UNL     1       4.553  11.567  46.836  1.00  0.00     0.127 C 
HETATM    8  N1  UNL     1       5.745  11.308  47.179  1.00  0.00    -0.266 N 
ATOM      9  H1  UNL     1       6.496  11.958  46.943  1.00  0.00     0.194 HD
BRANCH   8  10
HETATM   10  O3  UNL     1       6.027  10.163  47.865  1.00  0.00    -0.175 OA
BRANCH  10  11
HETATM   11  C2  UNL     1       6.955   9.276  47.312  1.00  0.00     0.428 C 
HETATM   12  O2  UNL     1       7.924   8.822  47.976  1.00  0.00    -0.227 OA
BRANCH  11  13
HETATM   13  O1  UNL     1       6.844   8.855  45.994  1.00  0.00    -0.302 OA
HETATM   14  C1  UNL     1       5.955   7.877  45.543  1.00  0.00     0.215 C 
ENDBRANCH  11  13
ENDBRANCH  10  11
ENDBRANCH   8  10
ENDBRANCH   1   7
BRANCH   6  15
HETATM   15  C10 UNL     1       5.015  12.148  43.883  1.00  0.00     0.015 C 
HETATM   16  C11 UNL     1       4.869  10.949  43.390  1.00  0.00     0.002 C 
BRANCH  16  17
HETATM   17  C12 UNL     1       5.896  10.389  42.516  1.00  0.00     0.019 C 
HETATM   18  C13 UNL     1       5.697  10.168  41.230  1.00  0.00     0.008 C 
HETATM   19  C14 UNL     1       4.394  10.491  40.626  1.00  0.00     0.062 C 
HETATM   20 CL1  UNL     1       6.954   9.499  40.240  1.00  0.00    -0.089 Cl
ENDBRANCH  16  17
ENDBRANCH   6  15
BRANCH   5  21
HETATM   21  O4  UNL     1       3.461  14.078  42.739  1.00  0.00    -0.360 OA
ATOM     22  H4  UNL     1       3.639  13.324  42.190  1.00  0.00     0.217 HD
ENDBRANCH   5  21
TORSDOF 7
ENDMDL
MODEL 2
REMARK VINA RESULT: -7.223687818      2.400      5.692
REMARK  7 active torsions:
REMARK  status: ('A' for Active; 'I' for Inactive)
REMARK    1  A    between atoms: O1_2  and  C2_3 
REMARK    2  A    between atoms: C2_3  and  O3_5 
REMARK    3  A    between atoms: O3_5  and  N1_6 
REMARK    4  A    between atoms: C3_8  and  C4_9 
REMARK    5  A    between atoms: C8_13  and  O4_14 
REMARK    6  A    between atoms: C9_16  and  C10_17 
REMARK    7  A    between atoms: C11_18  and  C12_19 
ROOT
HETATM    1  C4  UNL     1       4.147  13.039  45.225  1.00  0.00    -0.006 A 
HETATM    2  C5  UNL     1       3.173  13.724  46.002  1.00  0.00     0.014 A 
HETATM    3  C6  UNL     1       2.980  13.433  47.324  1.00  0.00     0.004 A 
HETATM    4  C7  UNL     1       3.729  12.466  47.940  1.00  0.00     0.037 A 
HETATM    5  C8  UNL     1       4.689  11.765  47.227  1.00  0.00     0.076 A 
HETATM    6  C9  UNL     1       4.869  12.080  45.855  1.00  0.00     0.009 A 
ENDROOT
BRANCH   1   7
HETATM    7  C3  UNL     1       4.436  13.606  43.920  1.00  0.00     0.127 C 
HETATM    8  N1  UNL     1       3.569  14.026  43.097  1.00  0.00    -0.266 N 
ATOM      9  H1  UNL     1       2.578  13.979  43.333  1.00  0.00     0.194 HD
BRANCH   8  10
HETATM   10  O3  UNL     1       3.959  14.541  41.895  1.00  0.00    -0.175 OA
BRANCH  10  11
HETATM   11  C2  UNL     1       2.982  14.742  40.916  1.00  0.00     0.428 C 
HETATM   12  O2  UNL     1       2.373  15.837  40.794  1.00  0.00    -0.227 OA
BRANCH  11  13
HETATM   13  O1  UNL     1       2.642  13.729  40.028  1.00  0.00    -0.302 OA
HETATM   14  C1  UNL     1       1.890  13.910  38.866  1.00  0.00     0.215 C 
ENDBRANCH  11  13
ENDBRANCH  10  11
ENDBRANCH   8  10
ENDBRANCH   1   7
BRANCH   6  15
HETATM   15  C10 UNL     1       5.685  11.109  45.137  1.00  0.00     0.015 C 
HETATM   16  C11 UNL     1       5.318  10.014  44.530  1.00  0.00     0.002 C 
BRANCH  16  17
HETATM   17  C12 UNL     1       6.313   9.181  43.860  1.00  0.00     0.019 C 
HETATM   18  C13 UNL     1       6.569   7.939  44.228  1.00  0.00     0.008 C 
HETATM   19  C14 UNL     1       5.836   7.345  45.357  1.00  0.00     0.062 C 
HETATM   20 CL1  UNL     1       7.763   6.998  43.394  1.00  0.00    -0.089 Cl
ENDBRANCH  16  17
ENDBRANCH   6  15
BRANCH   5  21
HETATM   21  O4  UNL     1       5.445  10.790  47.836  1.00  0.00    -0.360 OA
ATOM     22  H4  UNL     1       5.177   9.878  47.809  1.00  0.00     0.217 HD
ENDBRANCH   5  21
TORSDOF 7
ENDMDL
MODEL 3
REMARK VINA RESULT: -7.222364209      2.932      5.908
REMARK  7 active torsions:
REMARK  status: ('A' for Active; 'I' for Inactive)
REMARK    1  A    between atoms: O1_2  and  C2_3 
REMARK    2  A    between atoms: C2_3  and  O3_5 
REMARK    3  A    between atoms: O3_5  and  N1_6 
REMARK    4  A    between atoms: C3_8  and  C4_9 
REMARK    5  A    between atoms: C8_13  and  O4_14 
REMARK    6  A    between atoms: C9_16  and  C10_17 
REMARK    7  A    between atoms: C11_18  and  C12_19 
ROOT
HETATM    1  C4  UNL     1       4.046  13.254  45.589  1.00  0.00    -0.006 A 
HETATM    2  C5  UNL     1       2.884  13.566  46.347  1.00  0.00     0.014 A 
HETATM    3  C6  UNL     1       2.659  13.008  47.573  1.00  0.00     0.004 A 
HETATM    4  C7  UNL     1       3.557  12.123  48.110  1.00  0.00     0.037 A 
HETATM    5  C8  UNL     1       4.704  11.780  47.411  1.00  0.00     0.076 A 
HETATM    6  C9  UNL     1       4.914  12.369  46.137  1.00  0.00     0.009 A 
ENDROOT
BRANCH   1   7
HETATM    7  C3  UNL     1       4.300  14.095  44.434  1.00  0.00     0.127 C 
HETATM    8  N1  UNL     1       3.504  14.265  43.463  1.00  0.00    -0.266 N 
ATOM      9  H1  UNL     1       2.601  13.789  43.455  1.00  0.00     0.194 HD
BRANCH   8  10
HETATM   10  O3  UNL     1       3.851  15.083  42.428  1.00  0.00    -0.175 OA
BRANCH  10  11
HETATM   11  C2  UNL     1       3.297  14.827  41.170  1.00  0.00     0.428 C 
HETATM   12  O2  UNL     1       3.192  13.659  40.711  1.00  0.00    -0.227 OA
BRANCH  11  13
HETATM   13  O1  UNL     1       2.834  15.862  40.369  1.00  0.00    -0.302 OA
HETATM   14  C1  UNL     1       2.626  15.770  38.991  1.00  0.00     0.215 C 
ENDBRANCH  11  13
ENDBRANCH  10  11
ENDBRANCH   8  10
ENDBRANCH   1   7
BRANCH   6  15
HETATM   15  C10 UNL     1       5.983  11.737  45.373  1.00  0.00     0.015 C 
HETATM   16  C11 UNL     1       7.246  12.057  45.306  1.00  0.00     0.002 C 
BRANCH  16  17
HETATM   17  C12 UNL     1       8.155  11.274  44.473  1.00  0.00     0.019 C 
HETATM   18  C13 UNL     1       9.339  11.718  44.095  1.00  0.00     0.008 C 
HETATM   19  C14 UNL     1       9.787  13.055  44.517  1.00  0.00     0.062 C 
HETATM   20 CL1  UNL     1      10.375  10.744  43.103  1.00  0.00    -0.089 Cl
ENDBRANCH  16  17
ENDBRANCH   6  15
BRANCH   5  21
HETATM   21  O4  UNL     1       5.611  10.890  47.940  1.00  0.00    -0.360 OA
ATOM     22  H4  UNL     1       6.256  10.467  47.386  1.00  0.00     0.217 HD
ENDBRANCH   5  21
TORSDOF 7
ENDMDL
MODEL 4
REMARK VINA RESULT: -7.175381635      1.234      1.664
REMARK  7 active torsions:
REMARK  status: ('A' for Active; 'I' for Inactive)
REMARK    1  A    between atoms: O1_2  and  C2_3 
REMARK    2  A    between atoms: C2_3  and  O3_5 
REMARK    3  A    between atoms: O3_5  and  N1_6 
REMARK    4  A    between atoms: C3_8  and  C4_9 
REMARK    5  A    between atoms: C8_13  and  O4_14 
REMARK    6  A    between atoms: C9_16  and  C10_17 
REMARK    7  A    between atoms: C11_18  and  C12_19 
ROOT
HETATM    1  C4  UNL     1       4.259  12.709  45.485  1.00  0.00    -0.006 A 
HETATM    2  C5  UNL     1       3.501  13.785  46.022  1.00  0.00     0.014 A 
HETATM    3  C6  UNL     1       2.939  14.735  45.215  1.00  0.00     0.004 A 
HETATM    4  C7  UNL     1       3.093  14.672  43.856  1.00  0.00     0.037 A 
HETATM    5  C8  UNL     1       3.827  13.647  43.281  1.00  0.00     0.076 A 
HETATM    6  C9  UNL     1       4.405  12.674  44.139  1.00  0.00     0.009 A 
ENDROOT
BRANCH   1   7
HETATM    7  C3  UNL     1       4.582  11.634  46.407  1.00  0.00     0.127 C 
HETATM    8  N1  UNL     1       5.687  11.498  47.012  1.00  0.00    -0.266 N 
ATOM      9  H1  UNL     1       6.434  12.176  46.868  1.00  0.00     0.194 HD
BRANCH   8  10
HETATM   10  O3  UNL     1       5.877  10.445  47.859  1.00  0.00    -0.175 OA
BRANCH  10  11
HETATM   11  C2  UNL     1       6.674   9.383  47.420  1.00  0.00     0.428 C 
HETATM   12  O2  UNL     1       7.782   9.113  47.955  1.00  0.00    -0.227 OA
BRANCH  11  13
HETATM   13  O1  UNL     1       6.270   8.575  46.366  1.00  0.00    -0.302 OA
HETATM   14  C1  UNL     1       7.047   7.564  45.795  1.00  0.00     0.215 C 
ENDBRANCH  11  13
ENDBRANCH  10  11
ENDBRANCH   8  10
ENDBRANCH   1   7
BRANCH   6  15
HETATM   15  C10 UNL     1       5.378  11.816  43.473  1.00  0.00     0.015 C 
HETATM   16  C11 UNL     1       5.524  10.523  43.552  1.00  0.00     0.002 C 
BRANCH  16  17
HETATM   17  C12 UNL     1       6.574   9.857  42.785  1.00  0.00     0.019 C 
HETATM   18  C13 UNL     1       7.851   9.929  43.110  1.00  0.00     0.008 C 
HETATM   19  C14 UNL     1       8.262  10.705  44.292  1.00  0.00     0.062 C 
HETATM   20 CL1  UNL     1       9.054   9.118  42.161  1.00  0.00    -0.089 Cl
ENDBRANCH  16  17
ENDBRANCH   6  15
BRANCH   5  21
HETATM   21  O4  UNL     1       3.990  13.577  41.917  1.00  0.00    -0.360 OA
ATOM     22  H4  UNL     1       4.765  13.176  41.539  1.00  0.00     0.217 HD
ENDBRANCH   5  21
TORSDOF 7
ENDMDL
MODEL 5
REMARK VINA RESULT: -7.174939141      2.141      5.410
REMARK  7 active torsions:
REMARK  status: ('A' for Active; 'I' for Inactive)
REMARK    1  A    between atoms: O1_2  and  C2_3 
REMARK    2  A    between atoms: C2_3  and  O3_5 
REMARK    3  A    between atoms: O3_5  and  N1_6 
REMARK    4  A    between atoms: C3_8  and  C4_9 
REMARK    5  A    between atoms: C8_13  and  O4_14 
REMARK    6  A    between atoms: C9_16  and  C10_17 
REMARK    7  A    between atoms: C11_18  and  C12_19 
ROOT
HETATM    1  C4  UNL     1       3.884  13.577  45.248  1.00  0.00    -0.006 A 
HETATM    2  C5  UNL     1       2.987  14.083  46.228  1.00  0.00     0.014 A 
HETATM    3  C6  UNL     1       2.916  13.540  47.479  1.00  0.00     0.004 A 
HETATM    4  C7  UNL     1       3.715  12.482  47.825  1.00  0.00     0.037 A 
HETATM    5  C8  UNL     1       4.604  11.947  46.906  1.00  0.00     0.076 A 
HETATM    6  C9  UNL     1       4.657  12.525  45.610  1.00  0.00     0.009 A 
ENDROOT
BRANCH   1   7
HETATM    7  C3  UNL     1       4.053  14.390  44.057  1.00  0.00     0.127 C 
HETATM    8  N1  UNL     1       3.500  14.172  42.938  1.00  0.00    -0.266 N 
ATOM      9  H1  UNL     1       2.879  13.371  42.824  1.00  0.00     0.194 HD
BRANCH   8  10
HETATM   10  O3  UNL     1       3.733  15.008  41.885  1.00  0.00    -0.175 OA
BRANCH  10  11
HETATM   11  C2  UNL     1       2.860  14.955  40.795  1.00  0.00     0.428 C 
HETATM   12  O2  UNL     1       2.233  15.969  40.390  1.00  0.00    -0.227 OA
BRANCH  11  13
HETATM   13  O1  UNL     1       2.647  13.767  40.107  1.00  0.00    -0.302 OA
HETATM   14  C1  UNL     1       1.915  13.653  38.924  1.00  0.00     0.215 C 
ENDBRANCH  11  13
ENDBRANCH  10  11
ENDBRANCH   8  10
ENDBRANCH   1   7
BRANCH   6  15
HETATM   15  C10 UNL     1       5.402  11.724  44.646  1.00  0.00     0.015 C 
HETATM   16  C11 UNL     1       4.957  10.848  43.788  1.00  0.00     0.002 C 
BRANCH  16  17
HETATM   17  C12 UNL     1       5.889  10.156  42.901  1.00  0.00     0.019 C 
HETATM   18  C13 UNL     1       5.803  10.218  41.585  1.00  0.00     0.008 C 
HETATM   19  C14 UNL     1       4.733  11.011  40.960  1.00  0.00     0.062 C 
HETATM   20 CL1  UNL     1       6.939   9.373  40.583  1.00  0.00    -0.089 Cl
ENDBRANCH  16  17
ENDBRANCH   6  15
BRANCH   5  21
HETATM   21  O4  UNL     1       5.409  10.884  47.243  1.00  0.00    -0.360 OA
ATOM     22  H4  UNL     1       6.356  10.966  47.225  1.00  0.00     0.217 HD
ENDBRANCH   5  21
TORSDOF 7
ENDMDL
