MODEL 1
REMARK VINA RESULT: -7.765569995      0.000      0.000
REMARK  5 active torsions:
REMARK  status: ('A' for Active; 'I' for Inactive)
REMARK    1  A    between atoms: C2_2  and  O1_3 
REMARK    2  A    between atoms: C2_2  and  C11_18 
REMARK    3  A    between atoms: O1_3  and  C3_4 
REMARK       I    between atoms: C3_4  and  N1_6 
REMARK    4  A    between atoms: N1_6  and  C4_8 
REMARK    5  A    between atoms: C8_13  and  S1_14 
ROOT
HETATM    1  S1  UNL     1       9.546   7.494  43.294  1.00  0.00    -0.011 SA
HETATM    2  C9  UNL     1      10.579   6.388  44.180  1.00  0.00     0.139 C 
HETATM    3  N2  UNL     1      11.274   5.664  44.759  1.00  0.00    -0.184 NA
ENDROOT
BRANCH   1   4
HETATM    4  C8  UNL     1       7.980   7.611  44.135  1.00  0.00     0.020 A 
HETATM    5  C7  UNL     1       7.268   6.461  44.398  1.00  0.00     0.061 A 
HETATM    6  C6  UNL     1       6.045   6.537  45.052  1.00  0.00     0.119 A 
HETATM    7  C5  UNL     1       5.541   7.790  45.444  1.00  0.00     0.072 A 
HETATM    8  F1  UNL     1       5.342   5.410  45.312  1.00  0.00    -0.206 F 
HETATM    9  C4  UNL     1       6.229   8.951  45.194  1.00  0.00     0.041 A 
HETATM   10  C10 UNL     1       7.445   8.802  44.536  1.00  0.00     0.049 A 
BRANCH   9  11
HETATM   11  N1  UNL     1       5.745  10.213  45.576  1.00  0.00    -0.303 N 
HETATM   12  C3  UNL     1       5.721  10.791  46.851  1.00  0.00     0.365 C 
HETATM   13  O2  UNL     1       6.137  10.273  47.903  1.00  0.00    -0.238 OA
ATOM     14  H1  UNL     1       5.360  10.784  44.825  1.00  0.00     0.171 HD
BRANCH  12  15
HETATM   15  O1  UNL     1       5.184  12.082  47.014  1.00  0.00    -0.292 OA
BRANCH  15  16
HETATM   16  C2  UNL     1       3.878  12.363  46.560  1.00  0.00     0.186 C 
HETATM   17  C1  UNL     1       3.310  13.409  47.507  1.00  0.00     0.047 C 
BRANCH  16  18
HETATM   18  C11 UNL     1       3.927  12.994  45.215  1.00  0.00     0.081 A 
HETATM   19  C12 UNL     1       3.432  14.253  44.955  1.00  0.00     0.037 A 
HETATM   20  C13 UNL     1       3.640  14.527  43.605  1.00  0.00     0.027 A 
HETATM   21  C14 UNL     1       4.260  13.396  43.116  1.00  0.00     0.142 A 
HETATM   22  O3  UNL     1       4.401  12.533  44.102  1.00  0.00    -0.324 OA
ENDBRANCH  16  18
ENDBRANCH  15  16
ENDBRANCH  12  15
ENDBRANCH   9  11
ENDBRANCH   1   4
TORSDOF 5
ENDMDL
MODEL 2
REMARK VINA RESULT: -7.553229242      1.149      1.236
REMARK  5 active torsions:
REMARK  status: ('A' for Active; 'I' for Inactive)
REMARK    1  A    between atoms: C2_2  and  O1_3 
REMARK    2  A    between atoms: C2_2  and  C11_18 
REMARK    3  A    between atoms: O1_3  and  C3_4 
REMARK       I    between atoms: C3_4  and  N1_6 
REMARK    4  A    between atoms: N1_6  and  C4_8 
REMARK    5  A    between atoms: C8_13  and  S1_14 
ROOT
HETATM    1  S1  UNL     1      10.116   9.020  42.322  1.00  0.00    -0.011 SA
HETATM    2  C9  UNL     1      11.270   7.717  42.535  1.00  0.00     0.139 C 
HETATM    3  N2  UNL     1      12.043   6.865  42.672  1.00  0.00    -0.184 NA
ENDROOT
BRANCH   1   4
HETATM    4  C8  UNL     1       8.668   8.667  43.299  1.00  0.00     0.020 A 
HETATM    5  C7  UNL     1       8.225   7.367  43.401  1.00  0.00     0.061 A 
HETATM    6  C6  UNL     1       7.097   7.077  44.158  1.00  0.00     0.119 A 
HETATM    7  C5  UNL     1       6.415   8.114  44.817  1.00  0.00     0.072 A 
HETATM    8  F1  UNL     1       6.657   5.800  44.261  1.00  0.00    -0.206 F 
HETATM    9  C4  UNL     1       6.834   9.418  44.732  1.00  0.00     0.041 A 
HETATM   10  C10 UNL     1       7.968   9.637  43.958  1.00  0.00     0.049 A 
BRANCH   9  11
HETATM   11  N1  UNL     1       6.168  10.470  45.381  1.00  0.00    -0.303 N 
HETATM   12  C3  UNL     1       6.027  10.700  46.755  1.00  0.00     0.365 C 
HETATM   13  O2  UNL     1       6.481   9.991  47.671  1.00  0.00    -0.238 OA
ATOM     14  H1  UNL     1       5.728  11.158  44.771  1.00  0.00     0.171 HD
BRANCH  12  15
HETATM   15  O1  UNL     1       5.311  11.829  47.197  1.00  0.00    -0.292 OA
BRANCH  15  16
HETATM   16  C2  UNL     1       3.959  11.993  46.826  1.00  0.00     0.186 C 
HETATM   17  C1  UNL     1       3.290  12.743  47.968  1.00  0.00     0.047 C 
BRANCH  16  18
HETATM   18  C11 UNL     1       3.857  12.868  45.629  1.00  0.00     0.081 A 
HETATM   19  C12 UNL     1       3.343  14.145  45.670  1.00  0.00     0.037 A 
HETATM   20  C13 UNL     1       3.397  14.673  44.383  1.00  0.00     0.027 A 
HETATM   21  C14 UNL     1       3.951  13.665  43.621  1.00  0.00     0.142 A 
HETATM   22  O3  UNL     1       4.199  12.634  44.403  1.00  0.00    -0.324 OA
ENDBRANCH  16  18
ENDBRANCH  15  16
ENDBRANCH  12  15
ENDBRANCH   9  11
ENDBRANCH   1   4
TORSDOF 5
ENDMDL
MODEL 3
REMARK VINA RESULT: -7.472927203      3.747      5.127
REMARK  5 active torsions:
REMARK  status: ('A' for Active; 'I' for Inactive)
REMARK    1  A    between atoms: C2_2  and  O1_3 
REMARK    2  A    between atoms: C2_2  and  C11_18 
REMARK    3  A    between atoms: O1_3  and  C3_4 
REMARK       I    between atoms: C3_4  and  N1_6 
REMARK    4  A    between atoms: N1_6  and  C4_8 
REMARK    5  A    between atoms: C8_13  and  S1_14 
ROOT
HETATM    1  S1  UNL     1       8.408   5.118  39.833  1.00  0.00    -0.011 SA
HETATM    2  C9  UNL     1       9.396   5.292  38.395  1.00  0.00     0.139 C 
HETATM    3  N2  UNL     1      10.036   5.408  37.436  1.00  0.00    -0.184 NA
ENDROOT
BRANCH   1   4
HETATM    4  C8  UNL     1       9.367   5.620  41.249  1.00  0.00     0.020 A 
HETATM    5  C7  UNL     1      10.690   5.247  41.334  1.00  0.00     0.061 A 
HETATM    6  C6  UNL     1      11.449   5.631  42.432  1.00  0.00     0.119 A 
HETATM    7  C5  UNL     1      10.861   6.399  43.451  1.00  0.00     0.072 A 
HETATM    8  F1  UNL     1      12.750   5.267  42.520  1.00  0.00    -0.206 F 
HETATM    9  C4  UNL     1       9.544   6.784  43.393  1.00  0.00     0.041 A 
HETATM   10  C10 UNL     1       8.844   6.365  42.267  1.00  0.00     0.049 A 
BRANCH   9  11
HETATM   11  N1  UNL     1       8.936   7.551  44.399  1.00  0.00    -0.303 N 
HETATM   12  C3  UNL     1       8.516   7.148  45.673  1.00  0.00     0.365 C 
HETATM   13  O2  UNL     1       8.611   6.004  46.152  1.00  0.00    -0.238 OA
ATOM     14  H1  UNL     1       8.778   8.533  44.172  1.00  0.00     0.171 HD
BRANCH  12  15
HETATM   15  O1  UNL     1       7.921   8.090  46.534  1.00  0.00    -0.292 OA
BRANCH  15  16
HETATM   16  C2  UNL     1       6.813   8.844  46.094  1.00  0.00     0.186 C 
HETATM   17  C1  UNL     1       5.961   9.114  47.326  1.00  0.00     0.047 C 
BRANCH  16  18
HETATM   18  C11 UNL     1       7.260  10.170  45.592  1.00  0.00     0.081 A 
HETATM   19  C12 UNL     1       6.544  11.330  45.785  1.00  0.00     0.037 A 
HETATM   20  C13 UNL     1       7.246  12.374  45.189  1.00  0.00     0.027 A 
HETATM   21  C14 UNL     1       8.369  11.775  44.658  1.00  0.00     0.142 A 
HETATM   22  O3  UNL     1       8.323  10.485  44.924  1.00  0.00    -0.324 OA
ENDBRANCH  16  18
ENDBRANCH  15  16
ENDBRANCH  12  15
ENDBRANCH   9  11
ENDBRANCH   1   4
TORSDOF 5
ENDMDL
MODEL 4
REMARK VINA RESULT: -7.343111809      3.588      7.392
REMARK  5 active torsions:
REMARK  status: ('A' for Active; 'I' for Inactive)
REMARK    1  A    between atoms: C2_2  and  O1_3 
REMARK    2  A    between atoms: C2_2  and  C11_18 
REMARK    3  A    between atoms: O1_3  and  C3_4 
REMARK       I    between atoms: C3_4  and  N1_6 
REMARK    4  A    between atoms: N1_6  and  C4_8 
REMARK    5  A    between atoms: C8_13  and  S1_14 
ROOT
HETATM    1  S1  UNL     1       4.320  12.889  41.838  1.00  0.00    -0.011 SA
HETATM    2  C9  UNL     1       3.566  14.431  41.481  1.00  0.00     0.139 C 
HETATM    3  N2  UNL     1       3.063  15.444  41.231  1.00  0.00    -0.184 NA
ENDROOT
BRANCH   1   4
HETATM    4  C8  UNL     1       4.380  12.677  43.607  1.00  0.00     0.020 A 
HETATM    5  C7  UNL     1       3.761  13.604  44.417  1.00  0.00     0.061 A 
HETATM    6  C6  UNL     1       3.800  13.453  45.797  1.00  0.00     0.119 A 
HETATM    7  C5  UNL     1       4.470  12.353  46.359  1.00  0.00     0.072 A 
HETATM    8  F1  UNL     1       3.194  14.361  46.598  1.00  0.00    -0.206 F 
HETATM    9  C4  UNL     1       5.094  11.415  45.575  1.00  0.00     0.041 A 
HETATM   10  C10 UNL     1       5.017  11.628  44.204  1.00  0.00     0.049 A 
BRANCH   9  11
HETATM   11  N1  UNL     1       5.770  10.308  46.114  1.00  0.00    -0.303 N 
HETATM   12  C3  UNL     1       7.108   9.933  45.947  1.00  0.00     0.365 C 
HETATM   13  O2  UNL     1       7.962  10.534  45.271  1.00  0.00    -0.238 OA
ATOM     14  H1  UNL     1       5.210   9.694  46.707  1.00  0.00     0.171 HD
BRANCH  12  15
HETATM   15  O1  UNL     1       7.586   8.772  46.584  1.00  0.00    -0.292 OA
BRANCH  15  16
HETATM   16  C2  UNL     1       7.417   7.513  45.970  1.00  0.00     0.186 C 
HETATM   17  C1  UNL     1       6.304   7.683  44.946  1.00  0.00     0.047 C 
BRANCH  16  18
HETATM   18  C11 UNL     1       8.638   7.145  45.208  1.00  0.00     0.081 A 
HETATM   19  C12 UNL     1       8.749   7.294  43.843  1.00  0.00     0.037 A 
HETATM   20  C13 UNL     1      10.015   6.855  43.463  1.00  0.00     0.027 A 
HETATM   21  C14 UNL     1      10.609   6.455  44.642  1.00  0.00     0.142 A 
HETATM   22  O3  UNL     1       9.757   6.648  45.629  1.00  0.00    -0.324 OA
ENDBRANCH  16  18
ENDBRANCH  15  16
ENDBRANCH  12  15
ENDBRANCH   9  11
ENDBRANCH   1   4
TORSDOF 5
ENDMDL
MODEL 5
REMARK VINA RESULT: -7.337808472      3.986      7.370
REMARK  5 active torsions:
REMARK  status: ('A' for Active; 'I' for Inactive)
REMARK    1  A    between atoms: C2_2  and  O1_3 
REMARK    2  A    between atoms: C2_2  and  C11_18 
REMARK    3  A    between atoms: O1_3  and  C3_4 
REMARK       I    between atoms: C3_4  and  N1_6 
REMARK    4  A    between atoms: N1_6  and  C4_8 
REMARK    5  A    between atoms: C8_13  and  S1_14 
ROOT
HETATM    1  S1  UNL     1       2.987  14.004  46.831  1.00  0.00    -0.011 SA
HETATM    2  C9  UNL     1       3.688  12.984  48.074  1.00  0.00     0.139 C 
HETATM    3  N2  UNL     1       4.139  12.313  48.903  1.00  0.00    -0.184 NA
ENDROOT
BRANCH   1   4
HETATM    4  C8  UNL     1       3.718  13.579  45.262  1.00  0.00     0.020 A 
HETATM    5  C7  UNL     1       3.224  14.153  44.112  1.00  0.00     0.061 A 
HETATM    6  C6  UNL     1       3.783  13.830  42.882  1.00  0.00     0.119 A 
HETATM    7  C5  UNL     1       4.852  12.919  42.820  1.00  0.00     0.072 A 
HETATM    8  F1  UNL     1       3.302  14.392  41.748  1.00  0.00    -0.206 F 
HETATM    9  C4  UNL     1       5.362  12.332  43.951  1.00  0.00     0.041 A 
HETATM   10  C10 UNL     1       4.755  12.700  45.147  1.00  0.00     0.049 A 
BRANCH   9  11
HETATM   11  N1  UNL     1       6.429  11.420  43.913  1.00  0.00    -0.303 N 
HETATM   12  C3  UNL     1       7.723  11.565  44.427  1.00  0.00     0.365 C 
HETATM   13  O2  UNL     1       8.170  12.558  45.028  1.00  0.00    -0.238 OA
ATOM     14  H1  UNL     1       6.235  10.533  43.448  1.00  0.00     0.171 HD
BRANCH  12  15
HETATM   15  O1  UNL     1       8.648  10.513  44.278  1.00  0.00    -0.292 OA
BRANCH  15  16
HETATM   16  C2  UNL     1       8.369   9.453  43.388  1.00  0.00     0.186 C 
HETATM   17  C1  UNL     1       9.665   9.167  42.644  1.00  0.00     0.047 C 
BRANCH  16  18
HETATM   18  C11 UNL     1       8.037   8.220  44.147  1.00  0.00     0.081 A 
HETATM   19  C12 UNL     1       6.835   7.559  44.023  1.00  0.00     0.037 A 
HETATM   20  C13 UNL     1       6.860   6.455  44.871  1.00  0.00     0.027 A 
HETATM   21  C14 UNL     1       8.101   6.511  45.473  1.00  0.00     0.142 A 
HETATM   22  O3  UNL     1       8.744   7.565  45.011  1.00  0.00    -0.324 OA
ENDBRANCH  16  18
ENDBRANCH  15  16
ENDBRANCH  12  15
ENDBRANCH   9  11
ENDBRANCH   1   4
TORSDOF 5
ENDMDL
