MODEL 1
REMARK VINA RESULT: -8.058283944      0.000      0.000
REMARK  4 active torsions:
REMARK  status: ('A' for Active; 'I' for Inactive)
REMARK    1  A    between atoms: N1_2  and  C1_4 
REMARK    2  A    between atoms: C5_8  and  C6_9 
REMARK    3  A    between atoms: N2_11  and  O3_13 
REMARK    4  A    between atoms: O3_13  and  C7_14 
ROOT
HETATM    1  C6  UNL     1       6.539  11.144  45.857  1.00  0.00     0.112 C 
HETATM    2  S1  UNL     1       7.890  11.846  44.936  1.00  0.00    -0.030 SA
HETATM    3  N2  UNL     1       6.602   9.915  46.311  1.00  0.00    -0.253 N 
ATOM      4  H2  UNL     1       5.827   9.513  46.839  1.00  0.00     0.195 HD
ENDROOT
BRANCH   1   5
HETATM    5  C5  UNL     1       5.354  11.954  46.106  1.00  0.00     0.002 A 
HETATM    6  C4  UNL     1       4.592  11.666  47.213  1.00  0.00     0.014 A 
HETATM    7  C3  UNL     1       3.479  12.412  47.464  1.00  0.00     0.003 A 
HETATM    8  C2  UNL     1       3.126  13.438  46.618  1.00  0.00     0.036 A 
HETATM    9  C1  UNL     1       3.873  13.756  45.491  1.00  0.00     0.103 A 
HETATM   10  C13 UNL     1       4.992  12.992  45.256  1.00  0.00     0.050 A 
BRANCH   9  11
HETATM   11  N1  UNL     1       3.484  14.822  44.636  1.00  0.00    -0.116 N 
HETATM   12  O1  UNL     1       2.898  14.553  43.574  1.00  0.00    -0.532 OA
HETATM   13  O2  UNL     1       3.773  16.103  45.026  1.00  0.00    -0.532 OA
ENDBRANCH   9  11
ENDBRANCH   1   5
BRANCH   3  14
HETATM   14  O3  UNL     1       7.717   9.191  46.063  1.00  0.00    -0.237 OA
BRANCH  14  15
HETATM   15  C7  UNL     1       7.785   8.116  45.197  1.00  0.00     0.099 A 
HETATM   16  C8  UNL     1       7.259   8.099  43.936  1.00  0.00     0.041 A 
HETATM   17  C9  UNL     1       7.344   7.010  43.096  1.00  0.00     0.026 A 
HETATM   18  C10 UNL     1       7.986   5.870  43.526  1.00  0.00     0.034 A 
HETATM   19 CL1  UNL     1       8.124   4.445  42.490  1.00  0.00    -0.084 Cl
HETATM   20  C11 UNL     1       8.520   5.879  44.798  1.00  0.00     0.026 A 
HETATM   21  C12 UNL     1       8.428   6.975  45.628  1.00  0.00     0.041 A 
ENDBRANCH  14  15
ENDBRANCH   3  14
TORSDOF 4
ENDMDL
MODEL 2
REMARK VINA RESULT: -7.969786809      1.587      1.856
REMARK  4 active torsions:
REMARK  status: ('A' for Active; 'I' for Inactive)
REMARK    1  A    between atoms: N1_2  and  C1_4 
REMARK    2  A    between atoms: C5_8  and  C6_9 
REMARK    3  A    between atoms: N2_11  and  O3_13 
REMARK    4  A    between atoms: O3_13  and  C7_14 
ROOT
HETATM    1  C6  UNL     1       6.137  10.949  46.189  1.00  0.00     0.112 C 
HETATM    2  S1  UNL     1       6.318   9.582  47.314  1.00  0.00    -0.030 SA
HETATM    3  N2  UNL     1       6.970  11.109  45.188  1.00  0.00    -0.253 N 
ATOM      4  H2  UNL     1       6.865  11.894  44.543  1.00  0.00     0.195 HD
ENDROOT
BRANCH   1   5
HETATM    5  C5  UNL     1       5.048  11.895  46.391  1.00  0.00     0.002 A 
HETATM    6  C4  UNL     1       4.288  11.776  47.530  1.00  0.00     0.014 A 
HETATM    7  C3  UNL     1       3.264  12.652  47.738  1.00  0.00     0.003 A 
HETATM    8  C2  UNL     1       2.997  13.639  46.818  1.00  0.00     0.036 A 
HETATM    9  C1  UNL     1       3.746  13.788  45.656  1.00  0.00     0.103 A 
HETATM   10  C13 UNL     1       4.774  12.894  45.466  1.00  0.00     0.050 A 
BRANCH   9  11
HETATM   11  N1  UNL     1       3.447  14.818  44.725  1.00  0.00    -0.116 N 
HETATM   12  O1  UNL     1       2.966  14.506  43.623  1.00  0.00    -0.532 OA
HETATM   13  O2  UNL     1       3.703  16.113  45.088  1.00  0.00    -0.532 OA
ENDBRANCH   9  11
ENDBRANCH   1   5
BRANCH   3  14
HETATM   14  O3  UNL     1       7.970  10.213  45.029  1.00  0.00    -0.237 OA
BRANCH  14  15
HETATM   15  C7  UNL     1       8.140   9.408  43.918  1.00  0.00     0.099 A 
HETATM   16  C8  UNL     1       9.083   9.610  42.950  1.00  0.00     0.041 A 
HETATM   17  C9  UNL     1       9.228   8.787  41.853  1.00  0.00     0.026 A 
HETATM   18  C10 UNL     1       8.393   7.703  41.703  1.00  0.00     0.034 A 
HETATM   19 CL1  UNL     1       8.535   6.617  40.316  1.00  0.00    -0.084 Cl
HETATM   20  C11 UNL     1       7.438   7.493  42.677  1.00  0.00     0.026 A 
HETATM   21  C12 UNL     1       7.304   8.322  43.769  1.00  0.00     0.041 A 
ENDBRANCH  14  15
ENDBRANCH   3  14
TORSDOF 4
ENDMDL
MODEL 3
REMARK VINA RESULT: -7.960635248      1.605      1.909
REMARK  4 active torsions:
REMARK  status: ('A' for Active; 'I' for Inactive)
REMARK    1  A    between atoms: N1_2  and  C1_4 
REMARK    2  A    between atoms: C5_8  and  C6_9 
REMARK    3  A    between atoms: N2_11  and  O3_13 
REMARK    4  A    between atoms: O3_13  and  C7_14 
ROOT
HETATM    1  C6  UNL     1       6.144  10.957  46.179  1.00  0.00     0.112 C 
HETATM    2  S1  UNL     1       6.328   9.592  47.305  1.00  0.00    -0.030 SA
HETATM    3  N2  UNL     1       6.974  11.119  45.176  1.00  0.00    -0.253 N 
ATOM      4  H2  UNL     1       6.867  11.902  44.532  1.00  0.00     0.195 HD
ENDROOT
BRANCH   1   5
HETATM    5  C5  UNL     1       5.053  11.901  46.383  1.00  0.00     0.002 A 
HETATM    6  C4  UNL     1       4.295  11.781  47.523  1.00  0.00     0.014 A 
HETATM    7  C3  UNL     1       3.270  12.656  47.732  1.00  0.00     0.003 A 
HETATM    8  C2  UNL     1       3.001  13.643  46.813  1.00  0.00     0.036 A 
HETATM    9  C1  UNL     1       3.747  13.793  45.650  1.00  0.00     0.103 A 
HETATM   10  C13 UNL     1       4.776  12.901  45.458  1.00  0.00     0.050 A 
BRANCH   9  11
HETATM   11  N1  UNL     1       3.445  14.822  44.719  1.00  0.00    -0.116 N 
HETATM   12  O1  UNL     1       2.966  14.509  43.616  1.00  0.00    -0.532 OA
HETATM   13  O2  UNL     1       3.698  16.118  45.083  1.00  0.00    -0.532 OA
ENDBRANCH   9  11
ENDBRANCH   1   5
BRANCH   3  14
HETATM   14  O3  UNL     1       7.975  10.224  45.016  1.00  0.00    -0.237 OA
BRANCH  14  15
HETATM   15  C7  UNL     1       8.112   9.377  43.933  1.00  0.00     0.099 A 
HETATM   16  C8  UNL     1       7.346   8.268  43.711  1.00  0.00     0.041 A 
HETATM   17  C9  UNL     1       7.508   7.443  42.619  1.00  0.00     0.026 A 
HETATM   18  C10 UNL     1       8.484   7.729  41.691  1.00  0.00     0.034 A 
HETATM   19 CL1  UNL     1       8.735   6.705  40.273  1.00  0.00    -0.084 Cl
HETATM   20  C11 UNL     1       9.262   8.848  41.907  1.00  0.00     0.026 A 
HETATM   21  C12 UNL     1       9.090   9.665  43.004  1.00  0.00     0.041 A 
ENDBRANCH  14  15
ENDBRANCH   3  14
TORSDOF 4
ENDMDL
MODEL 4
REMARK VINA RESULT: -7.880392771      3.985      8.037
REMARK  4 active torsions:
REMARK  status: ('A' for Active; 'I' for Inactive)
REMARK    1  A    between atoms: N1_2  and  C1_4 
REMARK    2  A    between atoms: C5_8  and  C6_9 
REMARK    3  A    between atoms: N2_11  and  O3_13 
REMARK    4  A    between atoms: O3_13  and  C7_14 
ROOT
HETATM    1  C6  UNL     1       6.678   9.321  43.045  1.00  0.00     0.112 C 
HETATM    2  S1  UNL     1       6.541   9.335  41.271  1.00  0.00    -0.030 SA
HETATM    3  N2  UNL     1       6.210  10.316  43.762  1.00  0.00    -0.253 N 
ATOM      4  H2  UNL     1       6.289  10.307  44.780  1.00  0.00     0.195 HD
ENDROOT
BRANCH   1   5
HETATM    5  C5  UNL     1       7.318   8.188  43.698  1.00  0.00     0.002 A 
HETATM    6  C4  UNL     1       6.526   7.315  44.406  1.00  0.00     0.014 A 
HETATM    7  C3  UNL     1       7.106   6.247  45.024  1.00  0.00     0.003 A 
HETATM    8  C2  UNL     1       8.464   6.049  44.940  1.00  0.00     0.036 A 
HETATM    9  C1  UNL     1       9.294   6.912  44.233  1.00  0.00     0.103 A 
HETATM   10  C13 UNL     1       8.689   7.982  43.617  1.00  0.00     0.050 A 
BRANCH   9  11
HETATM   11  N1  UNL     1      10.694   6.681  44.164  1.00  0.00    -0.116 N 
HETATM   12  O1  UNL     1      11.365   7.323  43.339  1.00  0.00    -0.532 OA
HETATM   13  O2  UNL     1      11.240   5.756  45.014  1.00  0.00    -0.532 OA
ENDBRANCH   9  11
ENDBRANCH   1   5
BRANCH   3  14
HETATM   14  O3  UNL     1       5.622  11.352  43.124  1.00  0.00    -0.237 OA
BRANCH  14  15
HETATM   15  C7  UNL     1       4.844  12.318  43.734  1.00  0.00     0.099 A 
HETATM   16  C8  UNL     1       4.250  13.362  43.084  1.00  0.00     0.041 A 
HETATM   17  C9  UNL     1       3.480  14.310  43.724  1.00  0.00     0.026 A 
HETATM   18  C10 UNL     1       3.284  14.221  45.084  1.00  0.00     0.034 A 
HETATM   19 CL1  UNL     1       2.306  15.409  45.952  1.00  0.00    -0.084 Cl
HETATM   20  C11 UNL     1       3.880  13.169  45.747  1.00  0.00     0.026 A 
HETATM   21  C12 UNL     1       4.649  12.228  45.096  1.00  0.00     0.041 A 
ENDBRANCH  14  15
ENDBRANCH   3  14
TORSDOF 4
ENDMDL
MODEL 5
REMARK VINA RESULT: -7.843633039      3.962      8.104
REMARK  4 active torsions:
REMARK  status: ('A' for Active; 'I' for Inactive)
REMARK    1  A    between atoms: N1_2  and  C1_4 
REMARK    2  A    between atoms: C5_8  and  C6_9 
REMARK    3  A    between atoms: N2_11  and  O3_13 
REMARK    4  A    between atoms: O3_13  and  C7_14 
ROOT
HETATM    1  C6  UNL     1       6.694   9.342  43.147  1.00  0.00     0.112 C 
HETATM    2  S1  UNL     1       6.494   9.423  41.381  1.00  0.00    -0.030 SA
HETATM    3  N2  UNL     1       6.275  10.319  43.916  1.00  0.00    -0.253 N 
ATOM      4  H2  UNL     1       6.390  10.272  44.929  1.00  0.00     0.195 HD
ENDROOT
BRANCH   1   5
HETATM    5  C5  UNL     1       7.332   8.173  43.736  1.00  0.00     0.002 A 
HETATM    6  C4  UNL     1       6.534   7.241  44.355  1.00  0.00     0.014 A 
HETATM    7  C3  UNL     1       7.112   6.139  44.912  1.00  0.00     0.003 A 
HETATM    8  C2  UNL     1       8.475   5.965  44.854  1.00  0.00     0.036 A 
HETATM    9  C1  UNL     1       9.311   6.886  44.235  1.00  0.00     0.103 A 
HETATM   10  C13 UNL     1       8.709   7.991  43.680  1.00  0.00     0.050 A 
BRANCH   9  11
HETATM   11  N1  UNL     1      10.716   6.679  44.189  1.00  0.00    -0.116 N 
HETATM   12  O1  UNL     1      11.222   5.844  44.958  1.00  0.00    -0.532 OA
HETATM   13  O2  UNL     1      11.450   7.412  43.296  1.00  0.00    -0.532 OA
ENDBRANCH   9  11
ENDBRANCH   1   5
BRANCH   3  14
HETATM   14  O3  UNL     1       5.687  11.390  43.337  1.00  0.00    -0.237 OA
BRANCH  14  15
HETATM   15  C7  UNL     1       4.895  12.311  43.998  1.00  0.00     0.099 A 
HETATM   16  C8  UNL     1       4.581  12.253  45.327  1.00  0.00     0.041 A 
HETATM   17  C9  UNL     1       3.788  13.189  45.957  1.00  0.00     0.026 A 
HETATM   18  C10 UNL     1       3.276  14.243  45.233  1.00  0.00     0.034 A 
HETATM   19 CL1  UNL     1       2.254  15.469  45.991  1.00  0.00    -0.084 Cl
HETATM   20  C11 UNL     1       3.590  14.307  43.892  1.00  0.00     0.026 A 
HETATM   21  C12 UNL     1       4.383  13.366  43.273  1.00  0.00     0.041 A 
ENDBRANCH  14  15
ENDBRANCH   3  14
TORSDOF 4
ENDMDL
