MODEL 1
REMARK VINA RESULT: -8.461595909      0.000      0.000
REMARK  4 active torsions:
REMARK  status: ('A' for Active; 'I' for Inactive)
REMARK    1  A    between atoms: C2_3  and  N2_4 
REMARK    2  A    between atoms: C3_6  and  C4_7 
REMARK    3  A    between atoms: C12_18  and  O1_19 
REMARK    4  A    between atoms: O1_19  and  C13_20 
ROOT
HETATM    1  N1  UNL     1       8.363  10.281  44.454  1.00  0.00    -0.095 NA
HETATM    2  C1  UNL     1       7.659   9.061  44.657  1.00  0.00     0.124 A 
HETATM    3  C2  UNL     1       6.378   9.120  45.180  1.00  0.00     0.062 A 
HETATM    4  C10 UNL     1       5.662   7.956  45.376  1.00  0.00     0.048 A 
HETATM    5  C11 UNL     1       6.271   6.771  45.035  1.00  0.00     0.092 A 
HETATM    6  N3  UNL     1       7.507   6.734  44.532  1.00  0.00    -0.345 N 
ATOM      7  H3  UNL     1       7.919   5.832  44.293  1.00  0.00     0.167 HD
HETATM    8  C12 UNL     1       8.225   7.861  44.332  1.00  0.00     0.174 A 
ENDROOT
BRANCH   3   9
HETATM    9  N2  UNL     1       5.811  10.380  45.510  1.00  0.00    -0.363 N 
HETATM   10  C3  UNL     1       4.820  10.800  44.810  1.00  0.00     0.099 C 
ATOM     11  H2  UNL     1       6.182  10.935  46.281  1.00  0.00     0.165 HD
BRANCH  10  12
HETATM   12  C4  UNL     1       4.231  12.089  45.138  1.00  0.00    -0.021 A 
HETATM   13  C5  UNL     1       4.146  13.053  44.159  1.00  0.00     0.016 A 
HETATM   14  C6  UNL     1       3.593  14.283  44.436  1.00  0.00     0.043 A 
HETATM   15  C7  UNL     1       3.134  14.516  45.714  1.00  0.00     0.116 A 
HETATM   16  F1  UNL     1       2.585  15.740  45.988  1.00  0.00    -0.206 F 
HETATM   17  C8  UNL     1       3.204  13.574  46.717  1.00  0.00     0.043 A 
HETATM   18  C9  UNL     1       3.759  12.350  46.419  1.00  0.00     0.016 A 
ENDBRANCH  10  12
ENDBRANCH   3   9
BRANCH   8  19
HETATM   19  O1  UNL     1       9.532   7.741  43.796  1.00  0.00    -0.292 OA
BRANCH  19  20
HETATM   20  C13 UNL     1       9.649   7.100  42.587  1.00  0.00     0.077 A 
HETATM   21  C14 UNL     1      10.203   5.867  42.490  1.00  0.00     0.037 A 
HETATM   22  C15 UNL     1      10.311   5.233  41.256  1.00  0.00     0.003 A 
HETATM   23  C16 UNL     1       9.841   5.899  40.147  1.00  0.00     0.000 A 
HETATM   24  C17 UNL     1       9.280   7.149  40.244  1.00  0.00     0.003 A 
HETATM   25  C18 UNL     1       9.187   7.746  41.471  1.00  0.00     0.037 A 
ENDBRANCH  19  20
ENDBRANCH   8  19
TORSDOF 4
ENDMDL
MODEL 2
REMARK VINA RESULT: -8.446489626      0.601      1.180
REMARK  4 active torsions:
REMARK  status: ('A' for Active; 'I' for Inactive)
REMARK    1  A    between atoms: C2_3  and  N2_4 
REMARK    2  A    between atoms: C3_6  and  C4_7 
REMARK    3  A    between atoms: C12_18  and  O1_19 
REMARK    4  A    between atoms: O1_19  and  C13_20 
ROOT
HETATM    1  N1  UNL     1       8.142  10.236  44.014  1.00  0.00    -0.095 NA
HETATM    2  C1  UNL     1       7.554   9.016  44.453  1.00  0.00     0.124 A 
HETATM    3  C2  UNL     1       6.222   9.026  44.831  1.00  0.00     0.062 A 
HETATM    4  C10 UNL     1       5.617   7.858  45.249  1.00  0.00     0.048 A 
HETATM    5  C11 UNL     1       6.386   6.718  45.270  1.00  0.00     0.092 A 
HETATM    6  N3  UNL     1       7.669   6.727  44.902  1.00  0.00    -0.345 N 
ATOM      7  H3  UNL     1       8.201   5.857  44.933  1.00  0.00     0.167 HD
HETATM    8  C12 UNL     1       8.281   7.859  44.490  1.00  0.00     0.174 A 
ENDROOT
BRANCH   3   9
HETATM    9  N2  UNL     1       5.488  10.241  44.784  1.00  0.00    -0.363 N 
HETATM   10  C3  UNL     1       5.199  10.818  45.895  1.00  0.00     0.099 C 
ATOM     11  H2  UNL     1       5.199  10.645  43.893  1.00  0.00     0.165 HD
BRANCH  10  12
HETATM   12  C4  UNL     1       4.447  12.063  45.860  1.00  0.00    -0.021 A 
HETATM   13  C5  UNL     1       3.711  12.429  46.963  1.00  0.00     0.016 A 
HETATM   14  C6  UNL     1       2.988  13.601  46.963  1.00  0.00     0.043 A 
HETATM   15  C7  UNL     1       3.026  14.387  45.833  1.00  0.00     0.116 A 
HETATM   16  F1  UNL     1       2.307  15.553  45.834  1.00  0.00    -0.206 F 
HETATM   17  C8  UNL     1       3.754  14.051  44.711  1.00  0.00     0.043 A 
HETATM   18  C9  UNL     1       4.470  12.875  44.732  1.00  0.00     0.016 A 
ENDBRANCH  10  12
ENDBRANCH   3   9
BRANCH   8  19
HETATM   19  O1  UNL     1       9.646   7.790  44.117  1.00  0.00    -0.292 OA
BRANCH  19  20
HETATM   20  C13 UNL     1       9.956   6.991  43.043  1.00  0.00     0.077 A 
HETATM   21  C14 UNL     1      10.754   5.904  43.176  1.00  0.00     0.037 A 
HETATM   22  C15 UNL     1      11.054   5.107  42.076  1.00  0.00     0.003 A 
HETATM   23  C16 UNL     1      10.518   5.460  40.860  1.00  0.00     0.000 A 
HETATM   24  C17 UNL     1       9.710   6.562  40.723  1.00  0.00     0.003 A 
HETATM   25  C18 UNL     1       9.432   7.326  41.823  1.00  0.00     0.037 A 
ENDBRANCH  19  20
ENDBRANCH   8  19
TORSDOF 4
ENDMDL
MODEL 3
REMARK VINA RESULT: -8.365751227      0.586      1.151
REMARK  4 active torsions:
REMARK  status: ('A' for Active; 'I' for Inactive)
REMARK    1  A    between atoms: C2_3  and  N2_4 
REMARK    2  A    between atoms: C3_6  and  C4_7 
REMARK    3  A    between atoms: C12_18  and  O1_19 
REMARK    4  A    between atoms: O1_19  and  C13_20 
ROOT
HETATM    1  N1  UNL     1       8.100  10.219  43.953  1.00  0.00    -0.095 NA
HETATM    2  C1  UNL     1       7.525   8.996  44.402  1.00  0.00     0.124 A 
HETATM    3  C2  UNL     1       6.199   9.002  44.804  1.00  0.00     0.062 A 
HETATM    4  C10 UNL     1       5.607   7.831  45.232  1.00  0.00     0.048 A 
HETATM    5  C11 UNL     1       6.381   6.694  45.240  1.00  0.00     0.092 A 
HETATM    6  N3  UNL     1       7.657   6.708  44.850  1.00  0.00    -0.345 N 
ATOM      7  H3  UNL     1       8.193   5.841  44.872  1.00  0.00     0.167 HD
HETATM    8  C12 UNL     1       8.257   7.843  44.427  1.00  0.00     0.174 A 
ENDROOT
BRANCH   3   9
HETATM    9  N2  UNL     1       5.460  10.213  44.769  1.00  0.00    -0.363 N 
HETATM   10  C3  UNL     1       5.240  10.821  45.879  1.00  0.00     0.099 C 
ATOM     11  H2  UNL     1       5.112  10.590  43.888  1.00  0.00     0.165 HD
BRANCH  10  12
HETATM   12  C4  UNL     1       4.484  12.063  45.858  1.00  0.00    -0.021 A 
HETATM   13  C5  UNL     1       4.536  12.857  44.736  1.00  0.00     0.016 A 
HETATM   14  C6  UNL     1       3.831  14.039  44.682  1.00  0.00     0.043 A 
HETATM   15  C7  UNL     1       3.080  14.397  45.780  1.00  0.00     0.116 A 
HETATM   16  F1  UNL     1       2.380  15.573  45.726  1.00  0.00    -0.206 F 
HETATM   17  C8  UNL     1       3.005  13.625  46.920  1.00  0.00     0.043 A 
HETATM   18  C9  UNL     1       3.717  12.447  46.952  1.00  0.00     0.016 A 
ENDBRANCH  10  12
ENDBRANCH   3   9
BRANCH   8  19
HETATM   19  O1  UNL     1       9.616   7.780  44.030  1.00  0.00    -0.292 OA
BRANCH  19  20
HETATM   20  C13 UNL     1       9.904   7.016  42.925  1.00  0.00     0.077 A 
HETATM   21  C14 UNL     1       9.409   7.326  41.702  1.00  0.00     0.037 A 
HETATM   22  C15 UNL     1       9.712   6.541  40.595  1.00  0.00     0.003 A 
HETATM   23  C16 UNL     1      10.526   5.447  40.785  1.00  0.00     0.000 A 
HETATM   24  C17 UNL     1      11.029   5.132  42.023  1.00  0.00     0.003 A 
HETATM   25  C18 UNL     1      10.712   5.924  43.093  1.00  0.00     0.037 A 
ENDBRANCH  19  20
ENDBRANCH   8  19
TORSDOF 4
ENDMDL
MODEL 4
REMARK VINA RESULT: -8.171984303      1.273      1.948
REMARK  4 active torsions:
REMARK  status: ('A' for Active; 'I' for Inactive)
REMARK    1  A    between atoms: C2_3  and  N2_4 
REMARK    2  A    between atoms: C3_6  and  C4_7 
REMARK    3  A    between atoms: C12_18  and  O1_19 
REMARK    4  A    between atoms: O1_19  and  C13_20 
ROOT
HETATM    1  N1  UNL     1       6.558   9.521  42.008  1.00  0.00    -0.095 NA
HETATM    2  C1  UNL     1       6.591   8.623  43.112  1.00  0.00     0.124 A 
HETATM    3  C2  UNL     1       5.920   8.980  44.270  1.00  0.00     0.062 A 
HETATM    4  C10 UNL     1       5.921   8.127  45.355  1.00  0.00     0.048 A 
HETATM    5  C11 UNL     1       6.604   6.940  45.228  1.00  0.00     0.092 A 
HETATM    6  N3  UNL     1       7.246   6.614  44.105  1.00  0.00    -0.345 N 
ATOM      7  H3  UNL     1       7.740   5.723  44.056  1.00  0.00     0.167 HD
HETATM    8  C12 UNL     1       7.258   7.434  43.031  1.00  0.00     0.174 A 
ENDROOT
BRANCH   3   9
HETATM    9  N2  UNL     1       5.234  10.222  44.330  1.00  0.00    -0.363 N 
HETATM   10  C3  UNL     1       5.126  10.801  45.471  1.00  0.00     0.099 C 
ATOM     11  H2  UNL     1       4.838  10.643  43.489  1.00  0.00     0.165 HD
BRANCH  10  12
HETATM   12  C4  UNL     1       4.426  12.073  45.546  1.00  0.00    -0.021 A 
HETATM   13  C5  UNL     1       3.758  12.401  46.703  1.00  0.00     0.016 A 
HETATM   14  C6  UNL     1       3.085  13.599  46.807  1.00  0.00     0.043 A 
HETATM   15  C7  UNL     1       3.102  14.448  45.723  1.00  0.00     0.116 A 
HETATM   16  F1  UNL     1       2.433  15.638  45.827  1.00  0.00    -0.206 F 
HETATM   17  C8  UNL     1       3.761  14.151  44.549  1.00  0.00     0.043 A 
HETATM   18  C9  UNL     1       4.428  12.949  44.467  1.00  0.00     0.016 A 
ENDBRANCH  10  12
ENDBRANCH   3   9
BRANCH   8  19
HETATM   19  O1  UNL     1       7.964   7.019  41.874  1.00  0.00    -0.292 OA
BRANCH  19  20
HETATM   20  C13 UNL     1       9.298   6.733  42.031  1.00  0.00     0.077 A 
HETATM   21  C14 UNL     1      10.192   7.693  42.375  1.00  0.00     0.037 A 
HETATM   22  C15 UNL     1      11.539   7.383  42.530  1.00  0.00     0.003 A 
HETATM   23  C16 UNL     1      11.928   6.080  42.323  1.00  0.00     0.000 A 
HETATM   24  C17 UNL     1      11.024   5.106  41.975  1.00  0.00     0.003 A 
HETATM   25  C18 UNL     1       9.705   5.442  41.829  1.00  0.00     0.037 A 
ENDBRANCH  19  20
ENDBRANCH   8  19
TORSDOF 4
ENDMDL
MODEL 5
REMARK VINA RESULT: -8.134982774      1.273      1.664
REMARK  4 active torsions:
REMARK  status: ('A' for Active; 'I' for Inactive)
REMARK    1  A    between atoms: C2_3  and  N2_4 
REMARK    2  A    between atoms: C3_6  and  C4_7 
REMARK    3  A    between atoms: C12_18  and  O1_19 
REMARK    4  A    between atoms: O1_19  and  C13_20 
ROOT
HETATM    1  N1  UNL     1       6.492   9.578  42.065  1.00  0.00    -0.095 NA
HETATM    2  C1  UNL     1       6.548   8.647  43.140  1.00  0.00     0.124 A 
HETATM    3  C2  UNL     1       5.864   8.946  44.306  1.00  0.00     0.062 A 
HETATM    4  C10 UNL     1       5.886   8.058  45.363  1.00  0.00     0.048 A 
HETATM    5  C11 UNL     1       6.605   6.896  45.200  1.00  0.00     0.092 A 
HETATM    6  N3  UNL     1       7.258   6.625  44.069  1.00  0.00    -0.345 N 
ATOM      7  H3  UNL     1       7.778   5.751  43.992  1.00  0.00     0.167 HD
HETATM    8  C12 UNL     1       7.250   7.480  43.022  1.00  0.00     0.174 A 
ENDROOT
BRANCH   3   9
HETATM    9  N2  UNL     1       5.142  10.165  44.404  1.00  0.00    -0.363 N 
HETATM   10  C3  UNL     1       5.179  10.803  45.519  1.00  0.00     0.099 C 
ATOM     11  H2  UNL     1       4.610  10.524  43.612  1.00  0.00     0.165 HD
BRANCH  10  12
HETATM   12  C4  UNL     1       4.443  12.053  45.632  1.00  0.00    -0.021 A 
HETATM   13  C5  UNL     1       4.425  12.916  44.561  1.00  0.00     0.016 A 
HETATM   14  C6  UNL     1       3.738  14.107  44.635  1.00  0.00     0.043 A 
HETATM   15  C7  UNL     1       3.078  14.404  45.807  1.00  0.00     0.116 A 
HETATM   16  F1  UNL     1       2.395  15.589  45.879  1.00  0.00    -0.206 F 
HETATM   17  C8  UNL     1       3.075  13.562  46.898  1.00  0.00     0.043 A 
HETATM   18  C9  UNL     1       3.768  12.376  46.803  1.00  0.00     0.016 A 
ENDBRANCH  10  12
ENDBRANCH   3   9
BRANCH   8  19
HETATM   19  O1  UNL     1       7.970   7.124  41.854  1.00  0.00    -0.292 OA
BRANCH  19  20
HETATM   20  C13 UNL     1       9.296   6.805  42.018  1.00  0.00     0.077 A 
HETATM   21  C14 UNL     1      10.205   7.733  42.405  1.00  0.00     0.037 A 
HETATM   22  C15 UNL     1      11.543   7.390  42.566  1.00  0.00     0.003 A 
HETATM   23  C16 UNL     1      11.908   6.087  42.319  1.00  0.00     0.000 A 
HETATM   24  C17 UNL     1      10.989   5.145  41.926  1.00  0.00     0.003 A 
HETATM   25  C18 UNL     1       9.679   5.513  41.776  1.00  0.00     0.037 A 
ENDBRANCH  19  20
ENDBRANCH   8  19
TORSDOF 4
ENDMDL
