MODEL 1
REMARK VINA RESULT: -8.387687442      0.000      0.000
REMARK  10 active torsions:
REMARK  status: ('A' for Active; 'I' for Inactive)
REMARK    1  A    between atoms: C2_2  and  C3_4 
REMARK    2  A    between atoms: C3_4  and  O3_6 
REMARK    3  A    between atoms: O3_6  and  C4_7 
REMARK    4  A    between atoms: C4_7  and  C7_10 
REMARK    5  A    between atoms: C7_10  and  C8_11 
REMARK    6  A    between atoms: C8_11  and  C9_12 
REMARK    7  A    between atoms: C8_11  and  C13_16 
REMARK    8  A    between atoms: C9_12  and  C10_13 
REMARK    9  A    between atoms: C15_20  and  C16_21 
REMARK   10  A    between atoms: C19_26  and  C20_27 
ROOT
HETATM    1  C13 UNL     1      10.111  41.305  58.030  1.00  0.00     0.004 A 
HETATM    2  C14 UNL     1       9.110  41.713  58.888  1.00  0.00     0.104 A 
HETATM    3  N1  UNL     1       8.686  40.889  59.763  1.00  0.00    -0.358 N 
ATOM      4  H1  UNL     1       7.946  41.167  60.408  1.00  0.00     0.166 HD
HETATM    5  C15 UNL     1       9.214  39.648  59.835  1.00  0.00     0.092 A 
HETATM    6  S2  UNL     1      10.349  39.711  58.592  1.00  0.00    -0.074 SA
ENDROOT
BRANCH   1   7
HETATM    7  C8  UNL     1      10.749  42.100  56.928  1.00  0.00     0.030 C 
BRANCH   7   8
HETATM    8  C7  UNL     1      11.993  42.789  57.474  1.00  0.00     0.047 C 
BRANCH   8   9
HETATM    9  C4  UNL     1      13.279  42.515  56.811  1.00  0.00     0.064 C 
HETATM   10  C5  UNL     1      13.995  41.558  57.832  1.00  0.00     0.046 C 
HETATM   11  C6  UNL     1      13.321  41.820  55.520  1.00  0.00     0.046 C 
BRANCH   9  12
HETATM   12  O3  UNL     1      14.095  43.700  56.734  1.00  0.00    -0.305 OA
BRANCH  12  13
HETATM   13  C3  UNL     1      13.568  44.948  56.638  1.00  0.00     0.329 C 
HETATM   14  O2  UNL     1      13.515  45.685  57.677  1.00  0.00    -0.256 OA
BRANCH  13  15
HETATM   15  C2  UNL     1      13.042  45.530  55.414  1.00  0.00     0.220 C 
HETATM   16  C1  UNL     1      13.650  45.217  54.116  1.00  0.00     0.103 C 
HETATM   17  O1  UNL     1      12.066  46.298  55.476  1.00  0.00    -0.287 OA
ENDBRANCH  13  15
ENDBRANCH  12  13
ENDBRANCH   9  12
ENDBRANCH   8   9
ENDBRANCH   7   8
BRANCH   7  18
HETATM   18  C9  UNL     1       9.826  43.224  56.566  1.00  0.00     0.014 C 
BRANCH  18  19
HETATM   19  C10 UNL     1       9.763  43.736  55.201  1.00  0.00    -0.022 C 
HETATM   20  C11 UNL     1       9.392  42.873  54.058  1.00  0.00     0.009 C 
HETATM   21  C12 UNL     1       8.703  44.880  55.221  1.00  0.00     0.009 C 
ENDBRANCH  18  19
ENDBRANCH   7  18
ENDBRANCH   1   7
BRANCH   5  22
HETATM   22  C16 UNL     1       8.767  38.638  60.829  1.00  0.00     0.057 A 
HETATM   23  S1  UNL     1       7.495  37.481  60.523  1.00  0.00    -0.074 SA
HETATM   24  C17 UNL     1       7.502  36.674  62.006  1.00  0.00     0.076 A 
HETATM   25 CL1  UNL     1       6.494  35.321  62.557  1.00  0.00    -0.076 Cl
HETATM   26  C18 UNL     1       8.481  37.313  62.697  1.00  0.00     0.051 A 
HETATM   27  C19 UNL     1       9.137  38.331  62.086  1.00  0.00     0.062 A 
BRANCH  27  28
HETATM   28  C20 UNL     1      10.218  39.059  62.812  1.00  0.00     0.210 C 
HETATM   29  O4  UNL     1      11.079  39.757  62.278  1.00  0.00    -0.644 OA
HETATM   30  O5  UNL     1      10.315  38.978  64.211  1.00  0.00    -0.644 OA
ENDBRANCH  27  28
ENDBRANCH   5  22
TORSDOF 10
ENDMDL
MODEL 2
REMARK VINA RESULT: -8.146552823      2.528      2.873
REMARK  10 active torsions:
REMARK  status: ('A' for Active; 'I' for Inactive)
REMARK    1  A    between atoms: C2_2  and  C3_4 
REMARK    2  A    between atoms: C3_4  and  O3_6 
REMARK    3  A    between atoms: O3_6  and  C4_7 
REMARK    4  A    between atoms: C4_7  and  C7_10 
REMARK    5  A    between atoms: C7_10  and  C8_11 
REMARK    6  A    between atoms: C8_11  and  C9_12 
REMARK    7  A    between atoms: C8_11  and  C13_16 
REMARK    8  A    between atoms: C9_12  and  C10_13 
REMARK    9  A    between atoms: C15_20  and  C16_21 
REMARK   10  A    between atoms: C19_26  and  C20_27 
ROOT
HETATM    1  C13 UNL     1      10.322  40.977  56.995  1.00  0.00     0.004 A 
HETATM    2  C14 UNL     1      10.368  39.647  56.627  1.00  0.00     0.104 A 
HETATM    3  N1  UNL     1       9.686  38.806  57.298  1.00  0.00    -0.358 N 
ATOM      4  H1  UNL     1       9.704  37.818  57.047  1.00  0.00     0.166 HD
HETATM    5  C15 UNL     1       8.938  39.223  58.343  1.00  0.00     0.092 A 
HETATM    6  S2  UNL     1       9.256  40.877  58.324  1.00  0.00    -0.074 SA
ENDROOT
BRANCH   1   7
HETATM    7  C8  UNL     1      11.046  42.126  56.357  1.00  0.00     0.030 C 
BRANCH   7   8
HETATM    8  C7  UNL     1      12.134  42.612  57.307  1.00  0.00     0.047 C 
BRANCH   8   9
HETATM    9  C4  UNL     1      13.535  42.471  56.878  1.00  0.00     0.064 C 
HETATM   10  C5  UNL     1      14.161  41.602  58.029  1.00  0.00     0.046 C 
HETATM   11  C6  UNL     1      13.869  41.774  55.631  1.00  0.00     0.046 C 
BRANCH   9  12
HETATM   12  O3  UNL     1      14.226  43.735  56.910  1.00  0.00    -0.305 OA
BRANCH  12  13
HETATM   13  C3  UNL     1      13.586  44.924  56.764  1.00  0.00     0.329 C 
HETATM   14  O2  UNL     1      13.388  45.656  57.789  1.00  0.00    -0.256 OA
BRANCH  13  15
HETATM   15  C2  UNL     1      13.092  45.445  55.501  1.00  0.00     0.220 C 
HETATM   16  C1  UNL     1      13.728  45.063  54.235  1.00  0.00     0.103 C 
HETATM   17  O1  UNL     1      12.120  46.221  55.500  1.00  0.00    -0.287 OA
ENDBRANCH  13  15
ENDBRANCH  12  13
ENDBRANCH   9  12
ENDBRANCH   8   9
ENDBRANCH   7   8
BRANCH   7  18
HETATM   18  C9  UNL     1      10.095  43.281  56.255  1.00  0.00     0.014 C 
BRANCH  18  19
HETATM   19  C10 UNL     1       9.704  43.822  54.958  1.00  0.00    -0.022 C 
HETATM   20  C11 UNL     1       9.072  42.981  53.917  1.00  0.00     0.009 C 
HETATM   21  C12 UNL     1       8.677  44.956  55.258  1.00  0.00     0.009 C 
ENDBRANCH  18  19
ENDBRANCH   7  18
ENDBRANCH   1   7
BRANCH   5  22
HETATM   22  C16 UNL     1       8.118  38.298  59.169  1.00  0.00     0.057 A 
HETATM   23  S1  UNL     1       8.316  38.115  60.895  1.00  0.00    -0.074 SA
HETATM   24  C17 UNL     1       7.118  36.959  61.181  1.00  0.00     0.076 A 
HETATM   25 CL1  UNL     1       6.633  36.194  62.707  1.00  0.00    -0.076 Cl
HETATM   26  C18 UNL     1       6.599  36.745  59.945  1.00  0.00     0.051 A 
HETATM   27  C19 UNL     1       7.118  37.440  58.901  1.00  0.00     0.062 A 
BRANCH  27  28
HETATM   28  C20 UNL     1       6.575  37.232  57.528  1.00  0.00     0.210 C 
HETATM   29  O4  UNL     1       7.253  37.166  56.504  1.00  0.00    -0.644 OA
HETATM   30  O5  UNL     1       5.191  37.096  57.322  1.00  0.00    -0.644 OA
ENDBRANCH  27  28
ENDBRANCH   5  22
TORSDOF 10
ENDMDL
MODEL 3
REMARK VINA RESULT: -8.119749835      1.753      2.991
REMARK  10 active torsions:
REMARK  status: ('A' for Active; 'I' for Inactive)
REMARK    1  A    between atoms: C2_2  and  C3_4 
REMARK    2  A    between atoms: C3_4  and  O3_6 
REMARK    3  A    between atoms: O3_6  and  C4_7 
REMARK    4  A    between atoms: C4_7  and  C7_10 
REMARK    5  A    between atoms: C7_10  and  C8_11 
REMARK    6  A    between atoms: C8_11  and  C9_12 
REMARK    7  A    between atoms: C8_11  and  C13_16 
REMARK    8  A    between atoms: C9_12  and  C10_13 
REMARK    9  A    between atoms: C15_20  and  C16_21 
REMARK   10  A    between atoms: C19_26  and  C20_27 
ROOT
HETATM    1  C13 UNL     1      10.160  42.517  56.541  1.00  0.00     0.004 A 
HETATM    2  C14 UNL     1      10.301  41.160  56.333  1.00  0.00     0.104 A 
HETATM    3  N1  UNL     1      10.232  40.380  57.338  1.00  0.00    -0.358 N 
ATOM      4  H1  UNL     1      10.334  39.373  57.210  1.00  0.00     0.166 HD
HETATM    5  C15 UNL     1      10.025  40.886  58.573  1.00  0.00     0.092 A 
HETATM    6  S2  UNL     1       9.933  42.533  58.233  1.00  0.00    -0.074 SA
ENDROOT
BRANCH   1   7
HETATM    7  C8  UNL     1      10.216  43.609  55.513  1.00  0.00     0.030 C 
BRANCH   7   8
HETATM    8  C7  UNL     1      11.175  44.691  55.993  1.00  0.00     0.047 C 
BRANCH   8   9
HETATM    9  C4  UNL     1      12.432  44.875  55.251  1.00  0.00     0.064 C 
HETATM   10  C5  UNL     1      12.263  43.891  54.036  1.00  0.00     0.046 C 
HETATM   11  C6  UNL     1      12.770  46.175  54.662  1.00  0.00     0.046 C 
BRANCH   9  12
HETATM   12  O3  UNL     1      13.564  44.392  56.001  1.00  0.00    -0.305 OA
BRANCH  12  13
HETATM   13  C3  UNL     1      13.601  44.403  57.359  1.00  0.00     0.329 C 
HETATM   14  O2  UNL     1      13.561  45.518  57.976  1.00  0.00    -0.256 OA
BRANCH  13  15
HETATM   15  C2  UNL     1      13.685  43.214  58.191  1.00  0.00     0.220 C 
HETATM   16  C1  UNL     1      13.757  41.880  57.585  1.00  0.00     0.103 C 
HETATM   17  O1  UNL     1      13.696  43.337  59.430  1.00  0.00    -0.287 OA
ENDBRANCH  13  15
ENDBRANCH  12  13
ENDBRANCH   9  12
ENDBRANCH   8   9
ENDBRANCH   7   8
BRANCH   7  18
HETATM   18  C9  UNL     1       8.878  44.285  55.475  1.00  0.00     0.014 C 
BRANCH  18  19
HETATM   19  C10 UNL     1       8.596  45.444  56.315  1.00  0.00    -0.022 C 
HETATM   20  C11 UNL     1       8.144  46.733  55.745  1.00  0.00     0.009 C 
HETATM   21  C12 UNL     1       7.465  45.001  57.292  1.00  0.00     0.009 C 
ENDBRANCH  18  19
ENDBRANCH   7  18
ENDBRANCH   1   7
BRANCH   5  22
HETATM   22  C16 UNL     1       9.933  40.036  59.789  1.00  0.00     0.057 A 
HETATM   23  S1  UNL     1       8.628  38.913  60.082  1.00  0.00    -0.074 SA
HETATM   24  C17 UNL     1       9.128  38.305  61.576  1.00  0.00     0.076 A 
HETATM   25 CL1  UNL     1       8.357  37.085  62.611  1.00  0.00    -0.076 Cl
HETATM   26  C18 UNL     1      10.282  38.979  61.810  1.00  0.00     0.051 A 
HETATM   27  C19 UNL     1      10.700  39.877  60.882  1.00  0.00     0.062 A 
BRANCH  27  28
HETATM   28  C20 UNL     1      11.963  40.639  61.102  1.00  0.00     0.210 C 
HETATM   29  O4  UNL     1      13.057  40.343  60.624  1.00  0.00    -0.644 OA
HETATM   30  O5  UNL     1      11.969  41.789  61.910  1.00  0.00    -0.644 OA
ENDBRANCH  27  28
ENDBRANCH   5  22
TORSDOF 10
ENDMDL
MODEL 4
REMARK VINA RESULT: -8.114996097      1.290      2.461
REMARK  10 active torsions:
REMARK  status: ('A' for Active; 'I' for Inactive)
REMARK    1  A    between atoms: C2_2  and  C3_4 
REMARK    2  A    between atoms: C3_4  and  O3_6 
REMARK    3  A    between atoms: O3_6  and  C4_7 
REMARK    4  A    between atoms: C4_7  and  C7_10 
REMARK    5  A    between atoms: C7_10  and  C8_11 
REMARK    6  A    between atoms: C8_11  and  C9_12 
REMARK    7  A    between atoms: C8_11  and  C13_16 
REMARK    8  A    between atoms: C9_12  and  C10_13 
REMARK    9  A    between atoms: C15_20  and  C16_21 
REMARK   10  A    between atoms: C19_26  and  C20_27 
ROOT
HETATM    1  C13 UNL     1      10.005  41.507  57.832  1.00  0.00     0.004 A 
HETATM    2  C14 UNL     1       9.570  41.988  59.050  1.00  0.00     0.104 A 
HETATM    3  N1  UNL     1       9.187  41.154  59.933  1.00  0.00    -0.358 N 
ATOM      4  H1  UNL     1       8.861  41.485  60.841  1.00  0.00     0.166 HD
HETATM    5  C15 UNL     1       9.212  39.830  59.667  1.00  0.00     0.092 A 
HETATM    6  S2  UNL     1       9.810  39.831  58.093  1.00  0.00    -0.074 SA
ENDROOT
BRANCH   1   7
HETATM    7  C8  UNL     1      10.488  42.302  56.654  1.00  0.00     0.030 C 
BRANCH   7   8
HETATM    8  C7  UNL     1      11.557  43.281  57.125  1.00  0.00     0.047 C 
BRANCH   8   9
HETATM    9  C4  UNL     1      12.898  43.173  56.529  1.00  0.00     0.064 C 
HETATM   10  C5  UNL     1      12.727  41.994  55.503  1.00  0.00     0.046 C 
HETATM   11  C6  UNL     1      13.468  44.285  55.762  1.00  0.00     0.046 C 
BRANCH   9  12
HETATM   12  O3  UNL     1      13.869  42.723  57.495  1.00  0.00    -0.305 OA
BRANCH  12  13
HETATM   13  C3  UNL     1      13.747  42.969  58.826  1.00  0.00     0.329 C 
HETATM   14  O2  UNL     1      14.152  44.082  59.295  1.00  0.00    -0.256 OA
BRANCH  13  15
HETATM   15  C2  UNL     1      13.176  42.039  59.786  1.00  0.00     0.220 C 
HETATM   16  C1  UNL     1      13.256  40.591  59.564  1.00  0.00     0.103 C 
HETATM   17  O1  UNL     1      12.617  42.483  60.805  1.00  0.00    -0.287 OA
ENDBRANCH  13  15
ENDBRANCH  12  13
ENDBRANCH   9  12
ENDBRANCH   8   9
ENDBRANCH   7   8
BRANCH   7  18
HETATM   18  C9  UNL     1       9.362  43.174  56.185  1.00  0.00     0.014 C 
BRANCH  18  19
HETATM   19  C10 UNL     1       9.324  44.595  56.513  1.00  0.00    -0.022 C 
HETATM   20  C11 UNL     1       9.430  45.642  55.472  1.00  0.00     0.009 C 
HETATM   21  C12 UNL     1       7.950  44.838  57.210  1.00  0.00     0.009 C 
ENDBRANCH  18  19
ENDBRANCH   7  18
ENDBRANCH   1   7
BRANCH   5  22
HETATM   22  C16 UNL     1       8.781  38.801  60.650  1.00  0.00     0.057 A 
HETATM   23  S1  UNL     1       7.523  37.632  60.331  1.00  0.00    -0.074 SA
HETATM   24  C17 UNL     1       7.544  36.807  61.804  1.00  0.00     0.076 A 
HETATM   25 CL1  UNL     1       6.554  35.434  62.340  1.00  0.00    -0.076 Cl
HETATM   26  C18 UNL     1       8.515  37.450  62.501  1.00  0.00     0.051 A 
HETATM   27  C19 UNL     1       9.157  38.484  61.902  1.00  0.00     0.062 A 
BRANCH  27  28
HETATM   28  C20 UNL     1      10.229  39.217  62.635  1.00  0.00     0.210 C 
HETATM   29  O4  UNL     1      11.062  39.957  62.112  1.00  0.00    -0.644 OA
HETATM   30  O5  UNL     1      10.351  39.093  64.029  1.00  0.00    -0.644 OA
ENDBRANCH  27  28
ENDBRANCH   5  22
TORSDOF 10
ENDMDL
MODEL 5
REMARK VINA RESULT: -8.056998560      3.717      7.756
REMARK  10 active torsions:
REMARK  status: ('A' for Active; 'I' for Inactive)
REMARK    1  A    between atoms: C2_2  and  C3_4 
REMARK    2  A    between atoms: C3_4  and  O3_6 
REMARK    3  A    between atoms: O3_6  and  C4_7 
REMARK    4  A    between atoms: C4_7  and  C7_10 
REMARK    5  A    between atoms: C7_10  and  C8_11 
REMARK    6  A    between atoms: C8_11  and  C9_12 
REMARK    7  A    between atoms: C8_11  and  C13_16 
REMARK    8  A    between atoms: C9_12  and  C10_13 
REMARK    9  A    between atoms: C15_20  and  C16_21 
REMARK   10  A    between atoms: C19_26  and  C20_27 
ROOT
HETATM    1  C13 UNL     1       9.673  40.615  57.912  1.00  0.00     0.004 A 
HETATM    2  C14 UNL     1       9.524  41.986  57.854  1.00  0.00     0.104 A 
HETATM    3  N1  UNL     1      10.136  42.627  56.938  1.00  0.00    -0.358 N 
ATOM      4  H1  UNL     1      10.042  43.640  56.875  1.00  0.00     0.166 HD
HETATM    5  C15 UNL     1      10.909  41.964  56.051  1.00  0.00     0.092 A 
HETATM    6  S2  UNL     1      10.722  40.378  56.586  1.00  0.00    -0.074 SA
ENDROOT
BRANCH   1   7
HETATM    7  C8  UNL     1       9.058  39.671  58.903  1.00  0.00     0.030 C 
BRANCH   7   8
HETATM    8  C7  UNL     1      10.170  38.988  59.689  1.00  0.00     0.047 C 
BRANCH   8   9
HETATM    9  C4  UNL     1      10.255  39.255  61.134  1.00  0.00     0.064 C 
HETATM   10  C5  UNL     1       9.293  40.485  61.314  1.00  0.00     0.046 C 
HETATM   11  C6  UNL     1       9.805  38.255  62.107  1.00  0.00     0.046 C 
BRANCH   9  12
HETATM   12  O3  UNL     1      11.568  39.717  61.508  1.00  0.00    -0.305 OA
BRANCH  12  13
HETATM   13  C3  UNL     1      12.050  40.932  61.140  1.00  0.00     0.329 C 
HETATM   14  O2  UNL     1      11.972  41.908  61.956  1.00  0.00    -0.256 OA
BRANCH  13  15
HETATM   15  C2  UNL     1      12.664  41.220  59.854  1.00  0.00     0.220 C 
HETATM   16  C1  UNL     1      13.539  40.237  59.206  1.00  0.00     0.103 C 
HETATM   17  O1  UNL     1      12.440  42.313  59.304  1.00  0.00    -0.287 OA
ENDBRANCH  13  15
ENDBRANCH  12  13
ENDBRANCH   9  12
ENDBRANCH   8   9
ENDBRANCH   7   8
BRANCH   7  18
HETATM   18  C9  UNL     1       8.399  38.558  58.143  1.00  0.00     0.014 C 
BRANCH  18  19
HETATM   19  C10 UNL     1       7.588  37.557  58.827  1.00  0.00    -0.022 C 
HETATM   20  C11 UNL     1       6.773  37.890  60.017  1.00  0.00     0.009 C 
HETATM   21  C12 UNL     1       6.577  37.025  57.766  1.00  0.00     0.009 C 
ENDBRANCH  18  19
ENDBRANCH   7  18
ENDBRANCH   1   7
BRANCH   5  22
HETATM   22  C16 UNL     1      11.650  42.646  54.958  1.00  0.00     0.057 A 
HETATM   23  S1  UNL     1      12.224  41.828  53.526  1.00  0.00    -0.074 SA
HETATM   24  C17 UNL     1      12.945  43.137  52.739  1.00  0.00     0.076 A 
HETATM   25 CL1  UNL     1      13.789  43.187  51.178  1.00  0.00    -0.076 Cl
HETATM   26  C18 UNL     1      12.727  44.167  53.596  1.00  0.00     0.051 A 
HETATM   27  C19 UNL     1      12.054  43.912  54.747  1.00  0.00     0.062 A 
BRANCH  27  28
HETATM   28  C20 UNL     1      11.794  45.017  55.715  1.00  0.00     0.210 C 
HETATM   29  O4  UNL     1      12.630  45.496  56.479  1.00  0.00    -0.644 OA
HETATM   30  O5  UNL     1      10.516  45.594  55.809  1.00  0.00    -0.644 OA
ENDBRANCH  27  28
ENDBRANCH   5  22
TORSDOF 10
ENDMDL
