MODEL 1
REMARK VINA RESULT: -8.966545590      0.000      0.000
REMARK  8 active torsions:
REMARK  status: ('A' for Active; 'I' for Inactive)
REMARK    1  A    between atoms: C3_4  and  N2_5 
REMARK    2  A    between atoms: C4_7  and  C5_8 
REMARK    3  A    between atoms: C10_17  and  S1_18 
REMARK    4  A    between atoms: S1_18  and  S2_19 
REMARK    5  A    between atoms: S2_19  and  C11_20 
REMARK    6  A    between atoms: C11_20  and  C12_21 
REMARK    7  A    between atoms: C12_21  and  C13_22 
REMARK    8  A    between atoms: C13_22  and  C14_23 
ROOT
HETATM    1  N1  UNL     1      13.334  46.688  54.679  1.00  0.00    -0.191 NA
HETATM    2  C1  UNL     1      13.336  45.693  55.279  1.00  0.00     0.109 C 
HETATM    3  C2  UNL     1      13.344  44.453  56.012  1.00  0.00     0.156 A 
HETATM    4  C3  UNL     1      13.281  43.220  55.396  1.00  0.00     0.133 A 
HETATM    5  N4  UNL     1      13.292  42.090  56.142  1.00  0.00    -0.321 N 
ATOM      6  H4  UNL     1      13.244  41.191  55.663  1.00  0.00     0.169 HD
HETATM    7  C10 UNL     1      13.362  42.100  57.483  1.00  0.00     0.159 A 
HETATM    8  N5  UNL     1      13.424  43.313  58.086  1.00  0.00    -0.302 N 
ATOM      9  H5  UNL     1      13.478  43.355  59.103  1.00  0.00     0.171 HD
HETATM   10  C20 UNL     1      13.417  44.463  57.388  1.00  0.00     0.272 A 
HETATM   11  O1  UNL     1      13.475  45.595  57.968  1.00  0.00    -0.266 OA
ENDROOT
BRANCH   4  12
HETATM   12  N2  UNL     1      13.207  43.209  53.989  1.00  0.00    -0.350 N 
HETATM   13  C4  UNL     1      14.067  42.693  53.203  1.00  0.00     0.102 C 
ATOM     14  H2  UNL     1      12.394  43.653  53.562  1.00  0.00     0.166 HD
BRANCH  13  15
HETATM   15  C5  UNL     1      13.876  42.747  51.763  1.00  0.00    -0.005 A 
HETATM   16  C6  UNL     1      14.931  42.441  50.915  1.00  0.00     0.015 A 
HETATM   17  C7  UNL     1      14.814  42.474  49.546  1.00  0.00     0.018 A 
HETATM   18  C8  UNL     1      13.588  42.828  49.019  1.00  0.00     0.087 A 
HETATM   19  N3  UNL     1      12.558  43.128  49.847  1.00  0.00    -0.374 N 
HETATM   20  C9  UNL     1      12.681  43.093  51.189  1.00  0.00     0.100 A 
ATOM     21  H3  UNL     1      11.659  43.388  49.441  1.00  0.00     0.164 HD
ENDBRANCH  13  15
ENDBRANCH   4  12
BRANCH   7  22
HETATM   22  S1  UNL     1      13.377  40.614  58.480  1.00  0.00    -0.021 SA
BRANCH  22  23
HETATM   23  S2  UNL     1      11.389  39.855  58.504  1.00  0.00    -0.089 SA
BRANCH  23  24
HETATM   24  C11 UNL     1      10.488  40.798  59.788  1.00  0.00     0.086 C 
BRANCH  24  25
HETATM   25  C12 UNL     1       9.046  40.268  59.738  1.00  0.00     0.011 C 
BRANCH  25  26
HETATM   26  C13 UNL     1       8.903  39.076  60.657  1.00  0.00     0.007 C 
BRANCH  26  27
HETATM   27  C14 UNL     1       8.092  38.019  59.949  1.00  0.00     0.004 C 
HETATM   28  C15 UNL     1       7.844  38.400  58.495  1.00  0.00     0.006 C 
HETATM   29  C16 UNL     1       7.231  37.172  57.829  1.00  0.00     0.000 C 
HETATM   30  C17 UNL     1       5.852  36.890  58.403  1.00  0.00     0.002 C 
HETATM   31  C18 UNL     1       5.618  37.753  59.600  1.00  0.00     0.020 C 
HETATM   32  C19 UNL     1       6.762  37.773  60.581  1.00  0.00     0.086 C 
HETATM   33 CL1  UNL     1       6.755  36.195  61.429  1.00  0.00    -0.125 Cl
ENDBRANCH  26  27
ENDBRANCH  25  26
ENDBRANCH  24  25
ENDBRANCH  23  24
ENDBRANCH  22  23
ENDBRANCH   7  22
TORSDOF 8
ENDMDL
MODEL 2
REMARK VINA RESULT: -8.848007191      4.845      8.723
REMARK  8 active torsions:
REMARK  status: ('A' for Active; 'I' for Inactive)
REMARK    1  A    between atoms: C3_4  and  N2_5 
REMARK    2  A    between atoms: C4_7  and  C5_8 
REMARK    3  A    between atoms: C10_17  and  S1_18 
REMARK    4  A    between atoms: S1_18  and  S2_19 
REMARK    5  A    between atoms: S2_19  and  C11_20 
REMARK    6  A    between atoms: C11_20  and  C12_21 
REMARK    7  A    between atoms: C12_21  and  C13_22 
REMARK    8  A    between atoms: C13_22  and  C14_23 
ROOT
HETATM    1  N1  UNL     1       7.775  36.703  62.866  1.00  0.00    -0.191 NA
HETATM    2  C1  UNL     1       8.536  37.478  62.453  1.00  0.00     0.109 C 
HETATM    3  C2  UNL     1       9.470  38.439  61.927  1.00  0.00     0.156 A 
HETATM    4  C3  UNL     1       9.587  38.710  60.579  1.00  0.00     0.133 A 
HETATM    5  N4  UNL     1      10.486  39.626  60.149  1.00  0.00    -0.321 N 
ATOM      6  H4  UNL     1      10.552  39.809  59.148  1.00  0.00     0.169 HD
HETATM    7  C10 UNL     1      11.293  40.305  60.980  1.00  0.00     0.159 A 
HETATM    8  N5  UNL     1      11.177  40.037  62.304  1.00  0.00    -0.302 N 
ATOM      9  H5  UNL     1      11.775  40.536  62.962  1.00  0.00     0.171 HD
HETATM   10  C20 UNL     1      10.299  39.137  62.780  1.00  0.00     0.272 A 
HETATM   11  O1  UNL     1      10.200  38.895  64.026  1.00  0.00    -0.266 OA
ENDROOT
BRANCH   4  12
HETATM   12  N2  UNL     1       8.740  37.998  59.706  1.00  0.00    -0.350 N 
HETATM   13  C4  UNL     1       7.770  38.492  59.043  1.00  0.00     0.102 C 
ATOM     14  H2  UNL     1       8.919  37.000  59.596  1.00  0.00     0.166 HD
BRANCH  13  15
HETATM   15  C5  UNL     1       6.968  37.649  58.173  1.00  0.00    -0.005 A 
HETATM   16  C6  UNL     1       7.421  37.344  56.897  1.00  0.00     0.015 A 
HETATM   17  C7  UNL     1       6.710  36.554  56.027  1.00  0.00     0.018 A 
HETATM   18  C8  UNL     1       5.497  36.056  56.465  1.00  0.00     0.087 A 
HETATM   19  N3  UNL     1       5.054  36.354  57.709  1.00  0.00    -0.374 N 
HETATM   20  C9  UNL     1       5.760  37.131  58.557  1.00  0.00     0.100 A 
ATOM     21  H3  UNL     1       4.157  35.979  58.016  1.00  0.00     0.164 HD
ENDBRANCH  13  15
ENDBRANCH   4  12
BRANCH   7  22
HETATM   22  S1  UNL     1      12.485  41.518  60.423  1.00  0.00    -0.021 SA
BRANCH  22  23
HETATM   23  S2  UNL     1      13.649  40.600  58.896  1.00  0.00    -0.089 SA
BRANCH  23  24
HETATM   24  C11 UNL     1      14.222  41.946  57.798  1.00  0.00     0.086 C 
BRANCH  24  25
HETATM   25  C12 UNL     1      13.460  41.739  56.479  1.00  0.00     0.011 C 
BRANCH  25  26
HETATM   26  C13 UNL     1      12.280  40.821  56.703  1.00  0.00     0.007 C 
BRANCH  26  27
HETATM   27  C14 UNL     1      11.029  41.527  56.240  1.00  0.00     0.004 C 
HETATM   28  C15 UNL     1      11.158  41.976  54.791  1.00  0.00     0.006 C 
HETATM   29  C16 UNL     1       9.773  42.456  54.367  1.00  0.00     0.000 C 
HETATM   30  C17 UNL     1       9.388  43.710  55.135  1.00  0.00     0.002 C 
HETATM   31  C18 UNL     1      10.375  43.953  56.230  1.00  0.00     0.020 C 
HETATM   32  C19 UNL     1      10.696  42.733  57.055  1.00  0.00     0.086 C 
HETATM   33 CL1  UNL     1       9.271  42.411  58.094  1.00  0.00    -0.125 Cl
ENDBRANCH  26  27
ENDBRANCH  25  26
ENDBRANCH  24  25
ENDBRANCH  23  24
ENDBRANCH  22  23
ENDBRANCH   7  22
TORSDOF 8
ENDMDL
MODEL 3
REMARK VINA RESULT: -8.806665381      4.866      9.614
REMARK  8 active torsions:
REMARK  status: ('A' for Active; 'I' for Inactive)
REMARK    1  A    between atoms: C3_4  and  N2_5 
REMARK    2  A    between atoms: C4_7  and  C5_8 
REMARK    3  A    between atoms: C10_17  and  S1_18 
REMARK    4  A    between atoms: S1_18  and  S2_19 
REMARK    5  A    between atoms: S2_19  and  C11_20 
REMARK    6  A    between atoms: C11_20  and  C12_21 
REMARK    7  A    between atoms: C12_21  and  C13_22 
REMARK    8  A    between atoms: C13_22  and  C14_23 
ROOT
HETATM    1  N1  UNL     1       7.805  36.607  62.808  1.00  0.00    -0.191 NA
HETATM    2  C1  UNL     1       8.552  37.417  62.438  1.00  0.00     0.109 C 
HETATM    3  C2  UNL     1       9.469  38.422  61.967  1.00  0.00     0.156 A 
HETATM    4  C3  UNL     1       9.594  38.755  60.634  1.00  0.00     0.133 A 
HETATM    5  N4  UNL     1      10.475  39.709  60.255  1.00  0.00    -0.321 N 
ATOM      6  H4  UNL     1      10.549  39.937  59.263  1.00  0.00     0.169 HD
HETATM    7  C10 UNL     1      11.257  40.370  61.124  1.00  0.00     0.159 A 
HETATM    8  N5  UNL     1      11.132  40.042  62.434  1.00  0.00    -0.302 N 
ATOM      9  H5  UNL     1      11.711  40.525  63.121  1.00  0.00     0.171 HD
HETATM   10  C20 UNL     1      10.270  39.101  62.860  1.00  0.00     0.272 A 
HETATM   11  O1  UNL     1      10.164  38.802  64.093  1.00  0.00    -0.266 OA
ENDROOT
BRANCH   4  12
HETATM   12  N2  UNL     1       8.775  38.062  59.720  1.00  0.00    -0.350 N 
HETATM   13  C4  UNL     1       7.687  38.496  59.218  1.00  0.00     0.102 C 
ATOM     14  H2  UNL     1       9.079  37.130  59.436  1.00  0.00     0.166 HD
BRANCH  13  15
HETATM   15  C5  UNL     1       6.929  37.683  58.283  1.00  0.00    -0.005 A 
HETATM   16  C6  UNL     1       7.453  37.403  57.029  1.00  0.00     0.015 A 
HETATM   17  C7  UNL     1       6.787  36.640  56.100  1.00  0.00     0.018 A 
HETATM   18  C8  UNL     1       5.547  36.144  56.455  1.00  0.00     0.087 A 
HETATM   19  N3  UNL     1       5.035  36.417  57.679  1.00  0.00    -0.374 N 
HETATM   20  C9  UNL     1       5.697  37.167  58.584  1.00  0.00     0.100 A 
ATOM     21  H3  UNL     1       4.118  36.043  57.924  1.00  0.00     0.164 HD
ENDBRANCH  13  15
ENDBRANCH   4  12
BRANCH   7  22
HETATM   22  S1  UNL     1      12.426  41.634  60.636  1.00  0.00    -0.021 SA
BRANCH  22  23
HETATM   23  S2  UNL     1      12.310  41.811  58.519  1.00  0.00    -0.089 SA
BRANCH  23  24
HETATM   24  C11 UNL     1      13.947  42.402  57.955  1.00  0.00     0.086 C 
BRANCH  24  25
HETATM   25  C12 UNL     1      13.697  43.815  57.406  1.00  0.00     0.011 C 
BRANCH  25  26
HETATM   26  C13 UNL     1      12.282  43.922  56.884  1.00  0.00     0.007 C 
BRANCH  26  27
HETATM   27  C14 UNL     1      12.335  44.092  55.385  1.00  0.00     0.004 C 
HETATM   28  C15 UNL     1      12.074  42.770  54.675  1.00  0.00     0.006 C 
HETATM   29  C16 UNL     1      11.920  43.103  53.195  1.00  0.00     0.000 C 
HETATM   30  C17 UNL     1      13.236  43.605  52.623  1.00  0.00     0.002 C 
HETATM   31  C18 UNL     1      14.210  43.840  53.732  1.00  0.00     0.020 C 
HETATM   32  C19 UNL     1      13.645  44.613  54.897  1.00  0.00     0.086 C 
HETATM   33 CL1  UNL     1      13.482  46.317  54.367  1.00  0.00    -0.125 Cl
ENDBRANCH  26  27
ENDBRANCH  25  26
ENDBRANCH  24  25
ENDBRANCH  23  24
ENDBRANCH  22  23
ENDBRANCH   7  22
TORSDOF 8
ENDMDL
MODEL 4
REMARK VINA RESULT: -8.779519539      4.803      9.520
REMARK  8 active torsions:
REMARK  status: ('A' for Active; 'I' for Inactive)
REMARK    1  A    between atoms: C3_4  and  N2_5 
REMARK    2  A    between atoms: C4_7  and  C5_8 
REMARK    3  A    between atoms: C10_17  and  S1_18 
REMARK    4  A    between atoms: S1_18  and  S2_19 
REMARK    5  A    between atoms: S2_19  and  C11_20 
REMARK    6  A    between atoms: C11_20  and  C12_21 
REMARK    7  A    between atoms: C12_21  and  C13_22 
REMARK    8  A    between atoms: C13_22  and  C14_23 
ROOT
HETATM    1  N1  UNL     1       7.655  36.652  63.059  1.00  0.00    -0.191 NA
HETATM    2  C1  UNL     1       8.414  37.412  62.616  1.00  0.00     0.109 C 
HETATM    3  C2  UNL     1       9.346  38.356  62.054  1.00  0.00     0.156 A 
HETATM    4  C3  UNL     1       9.413  38.626  60.702  1.00  0.00     0.133 A 
HETATM    5  N4  UNL     1      10.312  39.525  60.237  1.00  0.00    -0.321 N 
ATOM      6  H4  UNL     1      10.342  39.708  59.234  1.00  0.00     0.169 HD
HETATM    7  C10 UNL     1      11.166  40.187  61.035  1.00  0.00     0.159 A 
HETATM    8  N5  UNL     1      11.097  39.919  62.363  1.00  0.00    -0.302 N 
ATOM      9  H5  UNL     1      11.732  40.405  62.996  1.00  0.00     0.171 HD
HETATM   10  C20 UNL     1      10.222  39.035  62.873  1.00  0.00     0.272 A 
HETATM   11  O1  UNL     1      10.169  38.794  64.122  1.00  0.00    -0.266 OA
ENDROOT
BRANCH   4  12
HETATM   12  N2  UNL     1       8.518  37.933  59.864  1.00  0.00    -0.350 N 
HETATM   13  C4  UNL     1       7.991  38.390  58.798  1.00  0.00     0.102 C 
ATOM     14  H2  UNL     1       8.270  36.981  60.135  1.00  0.00     0.166 HD
BRANCH  13  15
HETATM   15  C5  UNL     1       7.078  37.572  58.017  1.00  0.00    -0.005 A 
HETATM   16  C6  UNL     1       7.408  37.219  56.716  1.00  0.00     0.015 A 
HETATM   17  C7  UNL     1       6.589  36.449  55.926  1.00  0.00     0.018 A 
HETATM   18  C8  UNL     1       5.395  36.022  56.474  1.00  0.00     0.087 A 
HETATM   19  N3  UNL     1       5.072  36.366  57.743  1.00  0.00    -0.374 N 
HETATM   20  C9  UNL     1       5.883  37.123  58.511  1.00  0.00     0.100 A 
ATOM     21  H3  UNL     1       4.186  36.043  58.132  1.00  0.00     0.164 HD
ENDBRANCH  13  15
ENDBRANCH   4  12
BRANCH   7  22
HETATM   22  S1  UNL     1      12.358  41.377  60.432  1.00  0.00    -0.021 SA
BRANCH  22  23
HETATM   23  S2  UNL     1      13.634  40.351  59.072  1.00  0.00    -0.089 SA
BRANCH  23  24
HETATM   24  C11 UNL     1      13.967  41.510  57.696  1.00  0.00     0.086 C 
BRANCH  24  25
HETATM   25  C12 UNL     1      12.691  42.356  57.566  1.00  0.00     0.011 C 
BRANCH  25  26
HETATM   26  C13 UNL     1      12.041  42.106  56.224  1.00  0.00     0.007 C 
BRANCH  26  27
HETATM   27  C14 UNL     1      12.225  43.333  55.366  1.00  0.00     0.004 C 
HETATM   28  C15 UNL     1      13.500  43.236  54.538  1.00  0.00     0.006 C 
HETATM   29  C16 UNL     1      13.460  44.400  53.553  1.00  0.00     0.000 C 
HETATM   30  C17 UNL     1      13.571  45.724  54.291  1.00  0.00     0.002 C 
HETATM   31  C18 UNL     1      13.448  45.492  55.763  1.00  0.00     0.020 C 
HETATM   32  C19 UNL     1      12.298  44.599  56.154  1.00  0.00     0.086 C 
HETATM   33 CL1  UNL     1      10.796  45.553  55.943  1.00  0.00    -0.125 Cl
ENDBRANCH  26  27
ENDBRANCH  25  26
ENDBRANCH  24  25
ENDBRANCH  23  24
ENDBRANCH  22  23
ENDBRANCH   7  22
TORSDOF 8
ENDMDL
MODEL 5
REMARK VINA RESULT: -8.713196100      2.850      4.458
REMARK  8 active torsions:
REMARK  status: ('A' for Active; 'I' for Inactive)
REMARK    1  A    between atoms: C3_4  and  N2_5 
REMARK    2  A    between atoms: C4_7  and  C5_8 
REMARK    3  A    between atoms: C10_17  and  S1_18 
REMARK    4  A    between atoms: S1_18  and  S2_19 
REMARK    5  A    between atoms: S2_19  and  C11_20 
REMARK    6  A    between atoms: C11_20  and  C12_21 
REMARK    7  A    between atoms: C12_21  and  C13_22 
REMARK    8  A    between atoms: C13_22  and  C14_23 
ROOT
HETATM    1  N1  UNL     1      13.453  45.666  54.394  1.00  0.00    -0.191 NA
HETATM    2  C1  UNL     1      13.437  44.748  55.107  1.00  0.00     0.109 C 
HETATM    3  C2  UNL     1      13.402  43.611  55.989  1.00  0.00     0.156 A 
HETATM    4  C3  UNL     1      12.278  43.252  56.705  1.00  0.00     0.133 A 
HETATM    5  N4  UNL     1      12.310  42.171  57.518  1.00  0.00    -0.321 N 
ATOM      6  H4  UNL     1      11.467  41.927  58.035  1.00  0.00     0.169 HD
HETATM    7  C10 UNL     1      13.403  41.405  57.674  1.00  0.00     0.159 A 
HETATM    8  N5  UNL     1      14.506  41.759  56.970  1.00  0.00    -0.302 N 
ATOM      9  H5  UNL     1      15.353  41.198  57.066  1.00  0.00     0.171 HD
HETATM   10  C20 UNL     1      14.524  42.825  56.149  1.00  0.00     0.272 A 
HETATM   11  O1  UNL     1      15.567  43.146  55.495  1.00  0.00    -0.266 OA
ENDROOT
BRANCH   4  12
HETATM   12  N2  UNL     1      11.132  44.055  56.542  1.00  0.00    -0.350 N 
HETATM   13  C4  UNL     1       9.926  43.672  56.699  1.00  0.00     0.102 C 
ATOM     14  H2  UNL     1      11.279  45.028  56.274  1.00  0.00     0.166 HD
BRANCH  13  15
HETATM   15  C5  UNL     1       8.826  44.599  56.501  1.00  0.00    -0.005 A 
HETATM   16  C6  UNL     1       7.768  44.619  57.399  1.00  0.00     0.015 A 
HETATM   17  C7  UNL     1       6.699  45.471  57.267  1.00  0.00     0.018 A 
HETATM   18  C8  UNL     1       6.701  46.333  56.187  1.00  0.00     0.087 A 
HETATM   19  N3  UNL     1       7.733  46.315  55.309  1.00  0.00    -0.374 N 
HETATM   20  C9  UNL     1       8.779  45.474  55.448  1.00  0.00     0.100 A 
ATOM     21  H3  UNL     1       7.719  46.958  54.518  1.00  0.00     0.164 HD
ENDBRANCH  13  15
ENDBRANCH   4  12
BRANCH   7  22
HETATM   22  S1  UNL     1      13.458  39.973  58.746  1.00  0.00    -0.021 SA
BRANCH  22  23
HETATM   23  S2  UNL     1      11.457  39.285  58.977  1.00  0.00    -0.089 SA
BRANCH  23  24
HETATM   24  C11 UNL     1      10.600  40.518  60.022  1.00  0.00     0.086 C 
BRANCH  24  25
HETATM   25  C12 UNL     1       9.111  40.148  59.940  1.00  0.00     0.011 C 
BRANCH  25  26
HETATM   26  C13 UNL     1       8.822  38.970  60.842  1.00  0.00     0.007 C 
BRANCH  26  27
HETATM   27  C14 UNL     1       8.035  37.948  60.058  1.00  0.00     0.004 C 
HETATM   28  C15 UNL     1       7.850  38.390  58.613  1.00  0.00     0.006 C 
HETATM   29  C16 UNL     1       7.259  37.194  57.873  1.00  0.00     0.000 C 
HETATM   30  C17 UNL     1       5.855  36.899  58.376  1.00  0.00     0.002 C 
HETATM   31  C18 UNL     1       5.576  37.715  59.597  1.00  0.00     0.020 C 
HETATM   32  C19 UNL     1       6.678  37.687  60.624  1.00  0.00     0.086 C 
HETATM   33 CL1  UNL     1       6.627  36.076  61.407  1.00  0.00    -0.125 Cl
ENDBRANCH  26  27
ENDBRANCH  25  26
ENDBRANCH  24  25
ENDBRANCH  23  24
ENDBRANCH  22  23
ENDBRANCH   7  22
TORSDOF 8
ENDMDL
