MODEL 1
REMARK VINA RESULT: -7.840147863      0.000      0.000
REMARK  10 active torsions:
REMARK  status: ('A' for Active; 'I' for Inactive)
REMARK    1  A    between atoms: C2_2  and  C3_3 
REMARK    2  A    between atoms: C3_3  and  S1_4 
REMARK    3  A    between atoms: S1_4  and  C4_5 
REMARK    4  A    between atoms: C5_6  and  C6_7 
REMARK    5  A    between atoms: C9_11  and  C10_12 
REMARK    6  A    between atoms: C10_12  and  O1_14 
REMARK    7  A    between atoms: C14_21  and  N2_22 
REMARK    8  A    between atoms: C19_27  and  C20_28 
REMARK    9  A    between atoms: C20_28  and  O3_30 
REMARK   10  A    between atoms: O3_30  and  C21_31 
ROOT
HETATM    1  C4  UNL     1      10.581  40.997  56.545  1.00  0.00     0.056 A 
HETATM    2  C5  UNL     1      10.145  39.715  56.407  1.00  0.00     0.003 A 
HETATM    3  C12 UNL     1      10.446  39.020  55.218  1.00  0.00     0.031 A 
HETATM    4  C13 UNL     1      11.155  39.584  54.191  1.00  0.00     0.090 A 
HETATM    5  N1  UNL     1      11.563  40.834  54.346  1.00  0.00    -0.351 N 
ATOM      6  H1  UNL     1      12.092  41.285  53.601  1.00  0.00     0.166 HD
HETATM    7  C14 UNL     1      11.284  41.531  55.496  1.00  0.00     0.121 A 
ENDROOT
BRANCH   7   8
HETATM    8  N2  UNL     1      11.759  42.845  55.482  1.00  0.00    -0.352 N 
HETATM    9  C15 UNL     1      10.992  43.931  54.950  1.00  0.00     0.125 C 
HETATM   10  C16 UNL     1      11.137  45.100  55.923  1.00  0.00     0.020 C 
HETATM   11  C17 UNL     1      12.556  45.590  55.832  1.00  0.00     0.004 C 
HETATM   12  C18 UNL     1      13.471  44.486  55.383  1.00  0.00     0.035 C 
HETATM   13  C19 UNL     1      13.047  43.165  56.031  1.00  0.00     0.185 C 
BRANCH  13  14
HETATM   14  C20 UNL     1      14.093  42.167  55.881  1.00  0.00     0.281 C 
HETATM   15  O2  UNL     1      14.620  41.913  54.780  1.00  0.00    -0.263 OA
BRANCH  14  16
HETATM   16  O3  UNL     1      14.588  41.415  56.963  1.00  0.00    -0.320 OA
BRANCH  16  17
HETATM   17  C21 UNL     1      13.981  41.501  58.245  1.00  0.00     0.174 C 
HETATM   18  C22 UNL     1      13.648  40.143  58.797  1.00  0.00     0.034 C 
ENDBRANCH  16  17
ENDBRANCH  14  16
ENDBRANCH  13  14
ENDBRANCH   7   8
BRANCH   1  19
HETATM   19  S1  UNL     1      10.301  41.893  58.006  1.00  0.00    -0.125 SA
BRANCH  19  20
HETATM   20  C3  UNL     1       8.887  42.949  58.106  1.00  0.00     0.079 C 
BRANCH  20  21
HETATM   21  C2  UNL     1       7.968  42.711  59.293  1.00  0.00     0.006 C 
HETATM   22  C1  UNL     1       6.949  43.846  59.281  1.00  0.00     0.006 C 
ENDBRANCH  20  21
ENDBRANCH  19  20
ENDBRANCH   1  19
BRANCH   2  23
HETATM   23  C6  UNL     1       9.266  39.011  57.351  1.00  0.00     0.020 A 
HETATM   24  C7  UNL     1       9.125  38.998  58.693  1.00  0.00     0.063 A 
HETATM   25  C8  UNL     1       8.143  38.265  59.242  1.00  0.00     0.133 A 
HETATM   26  F1  UNL     1       7.916  38.185  60.610  1.00  0.00    -0.205 F 
HETATM   27  C9  UNL     1       7.332  37.567  58.398  1.00  0.00     0.050 A 
HETATM   28  S2  UNL     1       7.961  37.952  56.872  1.00  0.00    -0.088 SA
BRANCH  27  29
HETATM   29  C10 UNL     1       6.168  36.674  58.709  1.00  0.00     0.157 C 
HETATM   30  C11 UNL     1       5.720  36.001  57.419  1.00  0.00     0.045 C 
BRANCH  29  31
HETATM   31  O1  UNL     1       5.131  37.482  59.166  1.00  0.00    -0.391 OA
ATOM     32  H1  UNL     1       4.464  36.912  59.530  1.00  0.00     0.210 HD
ENDBRANCH  29  31
ENDBRANCH  27  29
ENDBRANCH   2  23
TORSDOF 10
ENDMDL
MODEL 2
REMARK VINA RESULT: -7.789330117      1.738      2.234
REMARK  10 active torsions:
REMARK  status: ('A' for Active; 'I' for Inactive)
REMARK    1  A    between atoms: C2_2  and  C3_3 
REMARK    2  A    between atoms: C3_3  and  S1_4 
REMARK    3  A    between atoms: S1_4  and  C4_5 
REMARK    4  A    between atoms: C5_6  and  C6_7 
REMARK    5  A    between atoms: C9_11  and  C10_12 
REMARK    6  A    between atoms: C10_12  and  O1_14 
REMARK    7  A    between atoms: C14_21  and  N2_22 
REMARK    8  A    between atoms: C19_27  and  C20_28 
REMARK    9  A    between atoms: C20_28  and  O3_30 
REMARK   10  A    between atoms: O3_30  and  C21_31 
ROOT
HETATM    1  C4  UNL     1       9.917  40.894  57.371  1.00  0.00     0.056 A 
HETATM    2  C5  UNL     1       9.573  39.589  57.541  1.00  0.00     0.003 A 
HETATM    3  C12 UNL     1       9.734  38.699  56.460  1.00  0.00     0.031 A 
HETATM    4  C13 UNL     1      10.217  39.094  55.241  1.00  0.00     0.090 A 
HETATM    5  N1  UNL     1      10.540  40.371  55.099  1.00  0.00    -0.351 N 
ATOM      6  H1  UNL     1      10.902  40.700  54.205  1.00  0.00     0.166 HD
HETATM    7  C14 UNL     1      10.394  41.257  56.137  1.00  0.00     0.121 A 
ENDROOT
BRANCH   7   8
HETATM    8  N2  UNL     1      10.750  42.567  55.809  1.00  0.00    -0.352 N 
HETATM    9  C15 UNL     1       9.827  43.483  55.209  1.00  0.00     0.125 C 
HETATM   10  C16 UNL     1      10.008  44.826  55.915  1.00  0.00     0.020 C 
HETATM   11  C17 UNL     1      11.353  45.367  55.519  1.00  0.00     0.004 C 
HETATM   12  C18 UNL     1      12.287  44.250  55.148  1.00  0.00     0.035 C 
HETATM   13  C19 UNL     1      12.070  43.059  56.085  1.00  0.00     0.185 C 
BRANCH  13  14
HETATM   14  C20 UNL     1      13.166  42.112  55.965  1.00  0.00     0.281 C 
HETATM   15  O2  UNL     1      13.399  41.493  54.907  1.00  0.00    -0.263 OA
BRANCH  14  16
HETATM   16  O3  UNL     1      14.042  41.823  57.027  1.00  0.00    -0.320 OA
BRANCH  16  17
HETATM   17  C21 UNL     1      13.540  41.543  58.326  1.00  0.00     0.174 C 
HETATM   18  C22 UNL     1      13.265  40.078  58.516  1.00  0.00     0.034 C 
ENDBRANCH  16  17
ENDBRANCH  14  16
ENDBRANCH  13  14
ENDBRANCH   7   8
BRANCH   1  19
HETATM   19  S1  UNL     1       9.805  42.034  58.677  1.00  0.00    -0.125 SA
BRANCH  19  20
HETATM   20  C3  UNL     1       8.207  42.532  59.244  1.00  0.00     0.079 C 
BRANCH  20  21
HETATM   21  C2  UNL     1       7.584  43.711  58.515  1.00  0.00     0.006 C 
HETATM   22  C1  UNL     1       6.713  44.436  59.536  1.00  0.00     0.006 C 
ENDBRANCH  20  21
ENDBRANCH  19  20
ENDBRANCH   1  19
BRANCH   2  23
HETATM   23  C6  UNL     1       8.920  39.031  58.734  1.00  0.00     0.020 A 
HETATM   24  C7  UNL     1       7.689  38.552  59.010  1.00  0.00     0.063 A 
HETATM   25  C8  UNL     1       7.443  38.041  60.227  1.00  0.00     0.133 A 
HETATM   26  F1  UNL     1       6.211  37.525  60.609  1.00  0.00    -0.205 F 
HETATM   27  C9  UNL     1       8.467  38.035  61.126  1.00  0.00     0.050 A 
HETATM   28  S2  UNL     1       9.736  38.738  60.251  1.00  0.00    -0.088 SA
BRANCH  27  29
HETATM   29  C10 UNL     1       8.496  37.537  62.540  1.00  0.00     0.157 C 
HETATM   30  C11 UNL     1       9.932  37.169  62.891  1.00  0.00     0.045 C 
BRANCH  29  31
HETATM   31  O1  UNL     1       7.721  36.383  62.595  1.00  0.00    -0.391 OA
ATOM     32  H1  UNL     1       7.598  36.164  63.511  1.00  0.00     0.210 HD
ENDBRANCH  29  31
ENDBRANCH  27  29
ENDBRANCH   2  23
TORSDOF 10
ENDMDL
MODEL 3
REMARK VINA RESULT: -7.780152419      2.884      4.708
REMARK  10 active torsions:
REMARK  status: ('A' for Active; 'I' for Inactive)
REMARK    1  A    between atoms: C2_2  and  C3_3 
REMARK    2  A    between atoms: C3_3  and  S1_4 
REMARK    3  A    between atoms: S1_4  and  C4_5 
REMARK    4  A    between atoms: C5_6  and  C6_7 
REMARK    5  A    between atoms: C9_11  and  C10_12 
REMARK    6  A    between atoms: C10_12  and  O1_14 
REMARK    7  A    between atoms: C14_21  and  N2_22 
REMARK    8  A    between atoms: C19_27  and  C20_28 
REMARK    9  A    between atoms: C20_28  and  O3_30 
REMARK   10  A    between atoms: O3_30  and  C21_31 
ROOT
HETATM    1  C4  UNL     1      12.199  42.335  57.380  1.00  0.00     0.056 A 
HETATM    2  C5  UNL     1      12.358  42.260  58.729  1.00  0.00     0.003 A 
HETATM    3  C12 UNL     1      13.528  42.793  59.306  1.00  0.00     0.031 A 
HETATM    4  C13 UNL     1      14.517  43.381  58.563  1.00  0.00     0.090 A 
HETATM    5  N1  UNL     1      14.342  43.438  57.252  1.00  0.00    -0.351 N 
ATOM      6  H1  UNL     1      15.059  43.868  56.668  1.00  0.00     0.166 HD
HETATM    7  C14 UNL     1      13.211  42.927  56.666  1.00  0.00     0.121 A 
ENDROOT
BRANCH   7   8
HETATM    8  N2  UNL     1      13.201  43.040  55.274  1.00  0.00    -0.352 N 
HETATM    9  C15 UNL     1      13.857  42.092  54.424  1.00  0.00     0.125 C 
HETATM   10  C16 UNL     1      12.907  41.799  53.264  1.00  0.00     0.020 C 
HETATM   11  C17 UNL     1      12.831  43.040  52.419  1.00  0.00     0.004 C 
HETATM   12  C18 UNL     1      13.128  44.262  53.241  1.00  0.00     0.035 C 
HETATM   13  C19 UNL     1      12.502  44.117  54.631  1.00  0.00     0.185 C 
BRANCH  13  14
HETATM   14  C20 UNL     1      12.489  45.397  55.318  1.00  0.00     0.281 C 
HETATM   15  O2  UNL     1      13.511  46.103  55.432  1.00  0.00    -0.263 OA
BRANCH  14  16
HETATM   16  O3  UNL     1      11.328  45.935  55.904  1.00  0.00    -0.320 OA
BRANCH  16  17
HETATM   17  C21 UNL     1      10.051  45.374  55.632  1.00  0.00     0.174 C 
HETATM   18  C22 UNL     1       8.937  46.299  56.037  1.00  0.00     0.034 C 
ENDBRANCH  16  17
ENDBRANCH  14  16
ENDBRANCH  13  14
ENDBRANCH   7   8
BRANCH   1  19
HETATM   19  S1  UNL     1      10.756  41.755  56.607  1.00  0.00    -0.125 SA
BRANCH  19  20
HETATM   20  C3  UNL     1      10.759  40.140  55.888  1.00  0.00     0.079 C 
BRANCH  20  21
HETATM   21  C2  UNL     1       9.646  39.212  56.344  1.00  0.00     0.006 C 
HETATM   22  C1  UNL     1      10.081  38.649  57.693  1.00  0.00     0.006 C 
ENDBRANCH  20  21
ENDBRANCH  19  20
ENDBRANCH   1  19
BRANCH   2  23
HETATM   23  C6  UNL     1      11.461  41.549  59.651  1.00  0.00     0.020 A 
HETATM   24  C7  UNL     1      10.136  41.583  59.906  1.00  0.00     0.063 A 
HETATM   25  C8  UNL     1       9.619  40.720  60.796  1.00  0.00     0.133 A 
HETATM   26  F1  UNL     1       8.271  40.676  61.129  1.00  0.00    -0.205 F 
HETATM   27  C9  UNL     1      10.474  39.847  61.398  1.00  0.00     0.050 A 
HETATM   28  S2  UNL     1      11.968  40.253  60.707  1.00  0.00    -0.088 SA
BRANCH  27  29
HETATM   29  C10 UNL     1      10.196  38.783  62.417  1.00  0.00     0.157 C 
HETATM   30  C11 UNL     1       9.160  37.825  61.842  1.00  0.00     0.045 C 
BRANCH  29  31
HETATM   31  O1  UNL     1       9.646  39.404  63.534  1.00  0.00    -0.391 OA
ATOM     32  H1  UNL     1       8.805  39.762  63.277  1.00  0.00     0.210 HD
ENDBRANCH  29  31
ENDBRANCH  27  29
ENDBRANCH   2  23
TORSDOF 10
ENDMDL
MODEL 4
REMARK VINA RESULT: -7.729485324      3.157      6.875
REMARK  10 active torsions:
REMARK  status: ('A' for Active; 'I' for Inactive)
REMARK    1  A    between atoms: C2_2  and  C3_3 
REMARK    2  A    between atoms: C3_3  and  S1_4 
REMARK    3  A    between atoms: S1_4  and  C4_5 
REMARK    4  A    between atoms: C5_6  and  C6_7 
REMARK    5  A    between atoms: C9_11  and  C10_12 
REMARK    6  A    between atoms: C10_12  and  O1_14 
REMARK    7  A    between atoms: C14_21  and  N2_22 
REMARK    8  A    between atoms: C19_27  and  C20_28 
REMARK    9  A    between atoms: C20_28  and  O3_30 
REMARK   10  A    between atoms: O3_30  and  C21_31 
ROOT
HETATM    1  C4  UNL     1       9.687  41.079  57.852  1.00  0.00     0.056 A 
HETATM    2  C5  UNL     1      10.232  41.481  56.671  1.00  0.00     0.003 A 
HETATM    3  C12 UNL     1      10.556  40.506  55.707  1.00  0.00     0.031 A 
HETATM    4  C13 UNL     1      10.351  39.168  55.910  1.00  0.00     0.090 A 
HETATM    5  N1  UNL     1       9.825  38.801  57.068  1.00  0.00    -0.351 N 
ATOM      6  H1  UNL     1       9.659  37.812  57.253  1.00  0.00     0.166 HD
HETATM    7  C14 UNL     1       9.499  39.731  58.023  1.00  0.00     0.121 A 
ENDROOT
BRANCH   7   8
HETATM    8  N2  UNL     1       8.985  39.173  59.196  1.00  0.00    -0.352 N 
HETATM    9  C15 UNL     1       7.589  38.898  59.365  1.00  0.00     0.125 C 
HETATM   10  C16 UNL     1       7.481  37.522  60.019  1.00  0.00     0.020 C 
HETATM   11  C17 UNL     1       7.990  37.650  61.428  1.00  0.00     0.004 C 
HETATM   12  C18 UNL     1       8.972  38.782  61.537  1.00  0.00     0.035 C 
HETATM   13  C19 UNL     1       9.853  38.827  60.285  1.00  0.00     0.185 C 
BRANCH  13  14
HETATM   14  C20 UNL     1      11.006  39.684  60.507  1.00  0.00     0.281 C 
HETATM   15  O2  UNL     1      11.065  40.491  61.456  1.00  0.00    -0.263 OA
BRANCH  14  16
HETATM   16  O3  UNL     1      12.138  39.668  59.671  1.00  0.00    -0.320 OA
BRANCH  16  17
HETATM   17  C21 UNL     1      12.961  40.818  59.542  1.00  0.00     0.174 C 
HETATM   18  C22 UNL     1      14.000  40.645  58.469  1.00  0.00     0.034 C 
ENDBRANCH  16  17
ENDBRANCH  14  16
ENDBRANCH  13  14
ENDBRANCH   7   8
BRANCH   1  19
HETATM   19  S1  UNL     1       9.205  42.229  59.061  1.00  0.00    -0.125 SA
BRANCH  19  20
HETATM   20  C3  UNL     1       7.486  42.590  59.262  1.00  0.00     0.079 C 
BRANCH  20  21
HETATM   21  C2  UNL     1       7.147  44.039  59.569  1.00  0.00     0.006 C 
HETATM   22  C1  UNL     1       6.885  44.713  58.226  1.00  0.00     0.006 C 
ENDBRANCH  20  21
ENDBRANCH  19  20
ENDBRANCH   1  19
BRANCH   2  23
HETATM   23  C6  UNL     1      10.636  42.856  56.348  1.00  0.00     0.020 A 
HETATM   24  C7  UNL     1       9.980  43.999  56.057  1.00  0.00     0.063 A 
HETATM   25  C8  UNL     1      10.682  45.129  55.873  1.00  0.00     0.133 A 
HETATM   26  F1  UNL     1      10.101  46.354  55.571  1.00  0.00    -0.205 F 
HETATM   27  C9  UNL     1      12.037  45.056  55.993  1.00  0.00     0.050 A 
HETATM   28  S2  UNL     1      12.290  43.420  56.358  1.00  0.00    -0.088 SA
BRANCH  27  29
HETATM   29  C10 UNL     1      13.071  46.131  55.847  1.00  0.00     0.157 C 
HETATM   30  C11 UNL     1      13.566  46.130  54.407  1.00  0.00     0.045 C 
BRANCH  29  31
HETATM   31  O1  UNL     1      14.138  45.803  56.678  1.00  0.00    -0.391 OA
ATOM     32  H1  UNL     1      13.911  45.000  57.131  1.00  0.00     0.210 HD
ENDBRANCH  29  31
ENDBRANCH  27  29
ENDBRANCH   2  23
TORSDOF 10
ENDMDL
MODEL 5
REMARK VINA RESULT: -7.584578708      1.798      2.926
REMARK  10 active torsions:
REMARK  status: ('A' for Active; 'I' for Inactive)
REMARK    1  A    between atoms: C2_2  and  C3_3 
REMARK    2  A    between atoms: C3_3  and  S1_4 
REMARK    3  A    between atoms: S1_4  and  C4_5 
REMARK    4  A    between atoms: C5_6  and  C6_7 
REMARK    5  A    between atoms: C9_11  and  C10_12 
REMARK    6  A    between atoms: C10_12  and  O1_14 
REMARK    7  A    between atoms: C14_21  and  N2_22 
REMARK    8  A    between atoms: C19_27  and  C20_28 
REMARK    9  A    between atoms: C20_28  and  O3_30 
REMARK   10  A    between atoms: O3_30  and  C21_31 
ROOT
HETATM    1  C4  UNL     1      10.631  40.735  56.893  1.00  0.00     0.056 A 
HETATM    2  C5  UNL     1      10.107  39.520  56.573  1.00  0.00     0.003 A 
HETATM    3  C12 UNL     1      10.395  38.968  55.310  1.00  0.00     0.031 A 
HETATM    4  C13 UNL     1      11.178  39.606  54.384  1.00  0.00     0.090 A 
HETATM    5  N1  UNL     1      11.672  40.788  54.716  1.00  0.00    -0.351 N 
ATOM      6  H1  UNL     1      12.258  41.292  54.051  1.00  0.00     0.166 HD
HETATM    7  C14 UNL     1      11.407  41.347  55.942  1.00  0.00     0.121 A 
ENDROOT
BRANCH   7   8
HETATM    8  N2  UNL     1      11.979  42.610  56.117  1.00  0.00    -0.352 N 
HETATM    9  C15 UNL     1      13.089  42.832  56.993  1.00  0.00     0.125 C 
HETATM   10  C16 UNL     1      14.061  43.755  56.259  1.00  0.00     0.020 C 
HETATM   11  C17 UNL     1      13.411  45.107  56.158  1.00  0.00     0.004 C 
HETATM   12  C18 UNL     1      11.914  44.981  56.190  1.00  0.00     0.035 C 
HETATM   13  C19 UNL     1      11.480  43.746  55.395  1.00  0.00     0.185 C 
BRANCH  13  14
HETATM   14  C20 UNL     1      10.051  43.787  55.135  1.00  0.00     0.281 C 
HETATM   15  O2  UNL     1       9.531  43.183  54.175  1.00  0.00    -0.263 OA
BRANCH  14  16
HETATM   16  O3  UNL     1       9.150  44.506  55.941  1.00  0.00    -0.320 OA
BRANCH  16  17
HETATM   17  C21 UNL     1       8.389  45.577  55.402  1.00  0.00     0.174 C 
HETATM   18  C22 UNL     1       7.172  45.873  56.234  1.00  0.00     0.034 C 
ENDBRANCH  16  17
ENDBRANCH  14  16
ENDBRANCH  13  14
ENDBRANCH   7   8
BRANCH   1  19
HETATM   19  S1  UNL     1      10.370  41.448  58.455  1.00  0.00    -0.125 SA
BRANCH  19  20
HETATM   20  C3  UNL     1       9.155  42.720  58.623  1.00  0.00     0.079 C 
BRANCH  20  21
HETATM   21  C2  UNL     1       7.986  42.401  59.539  1.00  0.00     0.006 C 
HETATM   22  C1  UNL     1       6.980  43.533  59.363  1.00  0.00     0.006 C 
ENDBRANCH  20  21
ENDBRANCH  19  20
ENDBRANCH   1  19
BRANCH   2  23
HETATM   23  C6  UNL     1       9.147  38.768  57.394  1.00  0.00     0.020 A 
HETATM   24  C7  UNL     1       8.928  38.630  58.718  1.00  0.00     0.063 A 
HETATM   25  C8  UNL     1       7.887  37.892  59.136  1.00  0.00     0.133 A 
HETATM   26  F1  UNL     1       7.578  37.689  60.475  1.00  0.00    -0.205 F 
HETATM   27  C9  UNL     1       7.099  37.317  58.185  1.00  0.00     0.050 A 
HETATM   28  S2  UNL     1       7.831  37.822  56.741  1.00  0.00    -0.088 SA
BRANCH  27  29
HETATM   29  C10 UNL     1       5.884  36.453  58.341  1.00  0.00     0.157 C 
HETATM   30  C11 UNL     1       5.432  36.004  56.958  1.00  0.00     0.045 C 
BRANCH  29  31
HETATM   31  O1  UNL     1       4.879  37.239  58.898  1.00  0.00    -0.391 OA
ATOM     32  H1  UNL     1       4.065  36.756  58.825  1.00  0.00     0.210 HD
ENDBRANCH  29  31
ENDBRANCH  27  29
ENDBRANCH   2  23
TORSDOF 10
ENDMDL
