MODEL 1
REMARK VINA RESULT: -8.645887066      0.000      0.000
REMARK  8 active torsions:
REMARK  status: ('A' for Active; 'I' for Inactive)
REMARK    1  A    between atoms: C2_2  and  C3_3 
REMARK    2  A    between atoms: C3_3  and  C4_4 
REMARK    3  A    between atoms: C4_4  and  C5_5 
REMARK    4  A    between atoms: N1_9  and  C8_10 
REMARK    5  A    between atoms: C11_18  and  O1_19 
REMARK    6  A    between atoms: O1_19  and  C12_20 
REMARK    7  A    between atoms: C12_20  and  C13_21 
REMARK    8  A    between atoms: N5_30  and  C21_32 
ROOT
HETATM    1  C5  UNL     1      11.080  40.508  60.013  1.00  0.00     0.052 C 
HETATM    2  C6  UNL     1      10.443  41.773  59.526  1.00  0.00     0.074 C 
HETATM    3  C7  UNL     1      10.328  41.830  58.001  1.00  0.00     0.274 C 
HETATM    4  F1  UNL     1       9.648  42.989  57.661  1.00  0.00    -0.227 F 
HETATM    5  N1  UNL     1      11.609  41.725  57.353  1.00  0.00    -0.332 N 
HETATM    6  C19 UNL     1      12.520  40.608  57.383  1.00  0.00     0.137 C 
HETATM    7  C20 UNL     1      13.586  40.734  58.452  1.00  0.00     0.094 C 
HETATM    8  S1  UNL     1      12.896  40.758  60.106  1.00  0.00    -0.163 SA
ENDROOT
BRANCH   5   9
HETATM    9  C8  UNL     1      12.054  42.840  56.568  1.00  0.00     0.159 A 
HETATM   10  N2  UNL     1      12.786  43.825  57.139  1.00  0.00    -0.326 N 
HETATM   11  C9  UNL     1      13.214  44.897  56.454  1.00  0.00     0.133 A 
ATOM     12  H2  UNL     1      13.022  43.750  58.129  1.00  0.00     0.168 HD
HETATM   13  N3  UNL     1      13.977  45.915  57.068  1.00  0.00    -0.081 NA
HETATM   14  C10 UNL     1      12.900  45.006  55.119  1.00  0.00     0.135 A 
HETATM   15  N4  UNL     1      12.178  44.057  54.511  1.00  0.00    -0.341 N 
HETATM   16  C11 UNL     1      11.752  42.974  55.223  1.00  0.00     0.187 A 
ATOM     17  H4  UNL     1      11.948  44.143  53.521  1.00  0.00     0.167 HD
BRANCH  16  18
HETATM   18  O1  UNL     1      11.012  41.970  54.656  1.00  0.00    -0.333 OA
BRANCH  18  19
HETATM   19  C12 UNL     1      11.290  41.217  53.518  1.00  0.00     0.182 C 
BRANCH  19  20
HETATM   20  C13 UNL     1      12.395  40.198  53.688  1.00  0.00     0.010 C 
HETATM   21  C14 UNL     1      13.678  40.663  53.044  1.00  0.00     0.007 C 
HETATM   22  C15 UNL     1      13.783  40.347  51.594  1.00  0.00     0.000 C 
HETATM   23  C16 UNL     1      13.639  38.841  51.403  1.00  0.00     0.000 C 
HETATM   24  C17 UNL     1      12.240  38.489  51.843  1.00  0.00     0.000 C 
HETATM   25  C18 UNL     1      11.978  38.829  53.267  1.00  0.00     0.007 C 
ENDBRANCH  19  20
ENDBRANCH  18  19
ENDBRANCH  16  18
ENDBRANCH   5   9
BRANCH   1  26
HETATM   26  C4  UNL     1      10.626  40.133  61.408  1.00  0.00     0.021 C 
BRANCH  26  27
HETATM   27  C3  UNL     1       9.143  39.817  61.329  1.00  0.00     0.053 C 
BRANCH  27  28
HETATM   28  C2  UNL     1       8.859  38.374  61.351  1.00  0.00    -0.022 C 
HETATM   29  C1  UNL     1       9.503  37.593  62.474  1.00  0.00     0.062 C 
HETATM   30  N5  UNL     1       8.155  37.707  60.558  1.00  0.00    -0.393 N 
ATOM     31  H5  UNL     1       8.097  36.710  60.763  1.00  0.00     0.159 HD
BRANCH  30  32
HETATM   32  C21 UNL     1       7.430  38.129  59.423  1.00  0.00     0.073 C 
HETATM   33  C22 UNL     1       6.389  37.172  58.960  1.00  0.00     0.031 C 
HETATM   34  C23 UNL     1       8.390  38.379  58.257  1.00  0.00     0.031 C 
ENDBRANCH  30  32
ENDBRANCH  27  28
ENDBRANCH  26  27
ENDBRANCH   1  26
TORSDOF 8
ENDMDL
MODEL 2
REMARK VINA RESULT: -8.570872742      1.220      1.782
REMARK  8 active torsions:
REMARK  status: ('A' for Active; 'I' for Inactive)
REMARK    1  A    between atoms: C2_2  and  C3_3 
REMARK    2  A    between atoms: C3_3  and  C4_4 
REMARK    3  A    between atoms: C4_4  and  C5_5 
REMARK    4  A    between atoms: N1_9  and  C8_10 
REMARK    5  A    between atoms: C11_18  and  O1_19 
REMARK    6  A    between atoms: O1_19  and  C12_20 
REMARK    7  A    between atoms: C12_20  and  C13_21 
REMARK    8  A    between atoms: N5_30  and  C21_32 
ROOT
HETATM    1  C5  UNL     1      11.146  40.470  60.054  1.00  0.00     0.052 C 
HETATM    2  C6  UNL     1      10.471  41.737  59.625  1.00  0.00     0.074 C 
HETATM    3  C7  UNL     1      10.251  41.811  58.113  1.00  0.00     0.274 C 
HETATM    4  F1  UNL     1       9.543  42.969  57.833  1.00  0.00    -0.227 F 
HETATM    5  N1  UNL     1      11.485  41.719  57.377  1.00  0.00    -0.332 N 
HETATM    6  C19 UNL     1      12.401  40.607  57.332  1.00  0.00     0.137 C 
HETATM    7  C20 UNL     1      13.538  40.728  58.327  1.00  0.00     0.094 C 
HETATM    8  S1  UNL     1      12.963  40.730  60.024  1.00  0.00    -0.163 SA
ENDROOT
BRANCH   5   9
HETATM    9  C8  UNL     1      11.869  42.845  56.576  1.00  0.00     0.159 A 
HETATM   10  N2  UNL     1      12.666  43.810  57.095  1.00  0.00    -0.326 N 
HETATM   11  C9  UNL     1      13.042  44.890  56.394  1.00  0.00     0.133 A 
ATOM     12  H2  UNL     1      12.992  43.711  58.056  1.00  0.00     0.168 HD
HETATM   13  N3  UNL     1      13.872  45.886  56.953  1.00  0.00    -0.081 NA
HETATM   14  C10 UNL     1      12.606  45.031  55.096  1.00  0.00     0.135 A 
HETATM   15  N4  UNL     1      11.817  44.104  54.540  1.00  0.00    -0.341 N 
HETATM   16  C11 UNL     1      11.444  43.011  55.268  1.00  0.00     0.187 A 
ATOM     17  H4  UNL     1      11.496  44.213  53.579  1.00  0.00     0.167 HD
BRANCH  16  18
HETATM   18  O1  UNL     1      10.641  42.028  54.753  1.00  0.00    -0.333 OA
BRANCH  18  19
HETATM   19  C12 UNL     1      10.883  41.177  53.678  1.00  0.00     0.182 C 
BRANCH  19  20
HETATM   20  C13 UNL     1       9.789  40.165  53.414  1.00  0.00     0.010 C 
HETATM   21  C14 UNL     1       9.142  39.705  54.697  1.00  0.00     0.007 C 
HETATM   22  C15 UNL     1       9.847  38.579  55.366  1.00  0.00     0.000 C 
HETATM   23  C16 UNL     1       9.938  37.405  54.398  1.00  0.00     0.000 C 
HETATM   24  C17 UNL     1      10.806  37.865  53.254  1.00  0.00     0.000 C 
HETATM   25  C18 UNL     1      10.247  39.045  52.541  1.00  0.00     0.007 C 
ENDBRANCH  19  20
ENDBRANCH  18  19
ENDBRANCH  16  18
ENDBRANCH   5   9
BRANCH   1  26
HETATM   26  C4  UNL     1      10.790  40.079  61.472  1.00  0.00     0.021 C 
BRANCH  26  27
HETATM   27  C3  UNL     1       9.302  39.779  61.497  1.00  0.00     0.053 C 
BRANCH  27  28
HETATM   28  C2  UNL     1       9.004  38.343  61.603  1.00  0.00    -0.022 C 
HETATM   29  C1  UNL     1       9.729  37.600  62.703  1.00  0.00     0.062 C 
HETATM   30  N5  UNL     1       8.230  37.655  60.899  1.00  0.00    -0.393 N 
ATOM     31  H5  UNL     1       8.177  36.668  61.150  1.00  0.00     0.159 HD
BRANCH  30  32
HETATM   32  C21 UNL     1       7.420  38.039  59.810  1.00  0.00     0.073 C 
HETATM   33  C22 UNL     1       6.438  37.010  59.372  1.00  0.00     0.031 C 
HETATM   34  C23 UNL     1       8.299  38.391  58.608  1.00  0.00     0.031 C 
ENDBRANCH  30  32
ENDBRANCH  27  28
ENDBRANCH  26  27
ENDBRANCH   1  26
TORSDOF 8
ENDMDL
MODEL 3
REMARK VINA RESULT: -8.542200156      0.984      1.532
REMARK  8 active torsions:
REMARK  status: ('A' for Active; 'I' for Inactive)
REMARK    1  A    between atoms: C2_2  and  C3_3 
REMARK    2  A    between atoms: C3_3  and  C4_4 
REMARK    3  A    between atoms: C4_4  and  C5_5 
REMARK    4  A    between atoms: N1_9  and  C8_10 
REMARK    5  A    between atoms: C11_18  and  O1_19 
REMARK    6  A    between atoms: O1_19  and  C12_20 
REMARK    7  A    between atoms: C12_20  and  C13_21 
REMARK    8  A    between atoms: N5_30  and  C21_32 
ROOT
HETATM    1  C5  UNL     1      11.049  40.549  60.118  1.00  0.00     0.052 C 
HETATM    2  C6  UNL     1      10.356  41.763  59.580  1.00  0.00     0.074 C 
HETATM    3  C7  UNL     1      10.297  41.783  58.051  1.00  0.00     0.274 C 
HETATM    4  F1  UNL     1       9.562  42.891  57.660  1.00  0.00    -0.227 F 
HETATM    5  N1  UNL     1      11.606  41.743  57.453  1.00  0.00    -0.332 N 
HETATM    6  C19 UNL     1      12.581  40.685  57.542  1.00  0.00     0.137 C 
HETATM    7  C20 UNL     1      13.595  40.898  58.648  1.00  0.00     0.094 C 
HETATM    8  S1  UNL     1      12.841  40.912  60.274  1.00  0.00    -0.163 SA
ENDROOT
BRANCH   5   9
HETATM    9  C8  UNL     1      12.013  42.868  56.661  1.00  0.00     0.159 A 
HETATM   10  N2  UNL     1      12.792  43.835  57.201  1.00  0.00    -0.326 N 
HETATM   11  C9  UNL     1      13.187  44.914  56.510  1.00  0.00     0.133 A 
ATOM     12  H2  UNL     1      13.089  43.739  58.172  1.00  0.00     0.168 HD
HETATM   13  N3  UNL     1      13.999  45.912  57.090  1.00  0.00    -0.081 NA
HETATM   14  C10 UNL     1      12.790  45.050  55.199  1.00  0.00     0.135 A 
HETATM   15  N4  UNL     1      12.020  44.121  54.622  1.00  0.00    -0.341 N 
HETATM   16  C11 UNL     1      11.627  43.029  55.341  1.00  0.00     0.187 A 
ATOM     17  H4  UNL     1      11.728  44.227  53.651  1.00  0.00     0.167 HD
BRANCH  16  18
HETATM   18  O1  UNL     1      10.841  42.044  54.805  1.00  0.00    -0.333 OA
BRANCH  18  19
HETATM   19  C12 UNL     1      11.162  41.107  53.826  1.00  0.00     0.182 C 
BRANCH  19  20
HETATM   20  C13 UNL     1      11.340  39.694  54.337  1.00  0.00     0.010 C 
HETATM   21  C14 UNL     1      11.678  38.741  53.216  1.00  0.00     0.007 C 
HETATM   22  C15 UNL     1      10.492  38.197  52.500  1.00  0.00     0.000 C 
HETATM   23  C16 UNL     1       9.585  37.495  53.504  1.00  0.00     0.000 C 
HETATM   24  C17 UNL     1       9.091  38.562  54.448  1.00  0.00     0.000 C 
HETATM   25  C18 UNL     1      10.193  39.244  55.179  1.00  0.00     0.007 C 
ENDBRANCH  19  20
ENDBRANCH  18  19
ENDBRANCH  16  18
ENDBRANCH   5   9
BRANCH   1  26
HETATM   26  C4  UNL     1      10.564  40.175  61.503  1.00  0.00     0.021 C 
BRANCH  26  27
HETATM   27  C3  UNL     1       9.094  39.816  61.384  1.00  0.00     0.053 C 
BRANCH  27  28
HETATM   28  C2  UNL     1       8.850  38.366  61.406  1.00  0.00    -0.022 C 
HETATM   29  C1  UNL     1       9.526  37.602  62.522  1.00  0.00     0.062 C 
HETATM   30  N5  UNL     1       8.158  37.681  60.618  1.00  0.00    -0.393 N 
ATOM     31  H5  UNL     1       8.130  36.682  60.823  1.00  0.00     0.159 HD
BRANCH  30  32
HETATM   32  C21 UNL     1       7.411  38.083  59.491  1.00  0.00     0.073 C 
HETATM   33  C22 UNL     1       6.425  37.079  59.009  1.00  0.00     0.031 C 
HETATM   34  C23 UNL     1       8.356  38.407  58.331  1.00  0.00     0.031 C 
ENDBRANCH  30  32
ENDBRANCH  27  28
ENDBRANCH  26  27
ENDBRANCH   1  26
TORSDOF 8
ENDMDL
MODEL 4
REMARK VINA RESULT: -8.405254967      0.670      1.063
REMARK  8 active torsions:
REMARK  status: ('A' for Active; 'I' for Inactive)
REMARK    1  A    between atoms: C2_2  and  C3_3 
REMARK    2  A    between atoms: C3_3  and  C4_4 
REMARK    3  A    between atoms: C4_4  and  C5_5 
REMARK    4  A    between atoms: N1_9  and  C8_10 
REMARK    5  A    between atoms: C11_18  and  O1_19 
REMARK    6  A    between atoms: O1_19  and  C12_20 
REMARK    7  A    between atoms: C12_20  and  C13_21 
REMARK    8  A    between atoms: N5_30  and  C21_32 
ROOT
HETATM    1  C5  UNL     1      10.815  40.559  60.125  1.00  0.00     0.052 C 
HETATM    2  C6  UNL     1      10.246  41.747  59.412  1.00  0.00     0.074 C 
HETATM    3  C7  UNL     1      10.422  41.668  57.894  1.00  0.00     0.274 C 
HETATM    4  F1  UNL     1       9.786  42.761  57.326  1.00  0.00    -0.227 F 
HETATM    5  N1  UNL     1      11.805  41.565  57.509  1.00  0.00    -0.332 N 
HETATM    6  C19 UNL     1      12.725  40.498  57.812  1.00  0.00     0.137 C 
HETATM    7  C20 UNL     1      13.564  40.764  59.046  1.00  0.00     0.094 C 
HETATM    8  S1  UNL     1      12.572  40.899  60.532  1.00  0.00    -0.163 SA
ENDROOT
BRANCH   5   9
HETATM    9  C8  UNL     1      12.359  42.628  56.721  1.00  0.00     0.159 A 
HETATM   10  N2  UNL     1      12.884  43.721  57.324  1.00  0.00    -0.326 N 
HETATM   11  C9  UNL     1      13.401  44.748  56.634  1.00  0.00     0.133 A 
ATOM     12  H2  UNL     1      12.887  43.764  58.343  1.00  0.00     0.168 HD
HETATM   13  N3  UNL     1      13.943  45.880  57.281  1.00  0.00    -0.081 NA
HETATM   14  C10 UNL     1      13.401  44.697  55.258  1.00  0.00     0.135 A 
HETATM   15  N4  UNL     1      12.893  43.639  54.617  1.00  0.00    -0.341 N 
HETATM   16  C11 UNL     1      12.372  42.602  55.336  1.00  0.00     0.187 A 
ATOM     17  H4  UNL     1      12.895  43.606  53.598  1.00  0.00     0.167 HD
BRANCH  16  18
HETATM   18  O1  UNL     1      11.840  41.491  54.737  1.00  0.00    -0.333 OA
BRANCH  18  19
HETATM   19  C12 UNL     1      12.496  40.366  54.244  1.00  0.00     0.182 C 
BRANCH  19  20
HETATM   20  C13 UNL     1      11.936  39.825  52.946  1.00  0.00     0.010 C 
HETATM   21  C14 UNL     1      12.046  38.322  52.882  1.00  0.00     0.007 C 
HETATM   22  C15 UNL     1      13.355  37.827  52.376  1.00  0.00     0.000 C 
HETATM   23  C16 UNL     1      13.604  38.411  50.990  1.00  0.00     0.000 C 
HETATM   24  C17 UNL     1      13.726  39.902  51.174  1.00  0.00     0.000 C 
HETATM   25  C18 UNL     1      12.500  40.517  51.750  1.00  0.00     0.007 C 
ENDBRANCH  19  20
ENDBRANCH  18  19
ENDBRANCH  16  18
ENDBRANCH   5   9
BRANCH   1  26
HETATM   26  C4  UNL     1      10.114  40.286  61.439  1.00  0.00     0.021 C 
BRANCH  26  27
HETATM   27  C3  UNL     1       8.698  39.847  61.112  1.00  0.00     0.053 C 
BRANCH  27  28
HETATM   28  C2  UNL     1       8.532  38.386  61.109  1.00  0.00    -0.022 C 
HETATM   29  C1  UNL     1       9.139  37.653  62.284  1.00  0.00     0.062 C 
HETATM   30  N5  UNL     1       7.956  37.669  60.258  1.00  0.00    -0.393 N 
ATOM     31  H5  UNL     1       7.963  36.669  60.458  1.00  0.00     0.159 HD
BRANCH  30  32
HETATM   32  C21 UNL     1       7.300  38.038  59.065  1.00  0.00     0.073 C 
HETATM   33  C22 UNL     1       6.265  37.075  58.603  1.00  0.00     0.031 C 
HETATM   34  C23 UNL     1       8.324  38.203  57.939  1.00  0.00     0.031 C 
ENDBRANCH  30  32
ENDBRANCH  27  28
ENDBRANCH  26  27
ENDBRANCH   1  26
TORSDOF 8
ENDMDL
MODEL 5
REMARK VINA RESULT: -8.320403872      0.922      1.347
REMARK  8 active torsions:
REMARK  status: ('A' for Active; 'I' for Inactive)
REMARK    1  A    between atoms: C2_2  and  C3_3 
REMARK    2  A    between atoms: C3_3  and  C4_4 
REMARK    3  A    between atoms: C4_4  and  C5_5 
REMARK    4  A    between atoms: N1_9  and  C8_10 
REMARK    5  A    between atoms: C11_18  and  O1_19 
REMARK    6  A    between atoms: O1_19  and  C12_20 
REMARK    7  A    between atoms: C12_20  and  C13_21 
REMARK    8  A    between atoms: N5_30  and  C21_32 
ROOT
HETATM    1  C5  UNL     1      10.897  40.588  59.965  1.00  0.00     0.052 C 
HETATM    2  C6  UNL     1      10.343  41.817  59.312  1.00  0.00     0.074 C 
HETATM    3  C7  UNL     1      10.499  41.802  57.790  1.00  0.00     0.274 C 
HETATM    4  F1  UNL     1       9.877  42.930  57.279  1.00  0.00    -0.227 F 
HETATM    5  N1  UNL     1      11.875  41.690  57.383  1.00  0.00    -0.332 N 
HETATM    6  C19 UNL     1      12.778  40.594  57.627  1.00  0.00     0.137 C 
HETATM    7  C20 UNL     1      13.637  40.790  58.861  1.00  0.00     0.094 C 
HETATM    8  S1  UNL     1      12.665  40.877  60.364  1.00  0.00    -0.163 SA
ENDROOT
BRANCH   5   9
HETATM    9  C8  UNL     1      12.440  42.776  56.635  1.00  0.00     0.159 A 
HETATM   10  N2  UNL     1      12.965  43.846  57.278  1.00  0.00    -0.326 N 
HETATM   11  C9  UNL     1      13.491  44.894  56.627  1.00  0.00     0.133 A 
ATOM     12  H2  UNL     1      12.959  43.855  58.298  1.00  0.00     0.168 HD
HETATM   13  N3  UNL     1      14.033  46.000  57.316  1.00  0.00    -0.081 NA
HETATM   14  C10 UNL     1      13.502  44.889  55.251  1.00  0.00     0.135 A 
HETATM   15  N4  UNL     1      12.994  43.854  54.571  1.00  0.00    -0.341 N 
HETATM   16  C11 UNL     1      12.463  42.796  55.250  1.00  0.00     0.187 A 
ATOM     17  H4  UNL     1      13.004  43.856  53.551  1.00  0.00     0.167 HD
BRANCH  16  18
HETATM   18  O1  UNL     1      11.931  41.708  54.610  1.00  0.00    -0.333 OA
BRANCH  18  19
HETATM   19  C12 UNL     1      12.583  40.726  53.869  1.00  0.00     0.182 C 
BRANCH  19  20
HETATM   20  C13 UNL     1      12.091  40.577  52.446  1.00  0.00     0.010 C 
HETATM   21  C14 UNL     1      13.180  40.063  51.537  1.00  0.00     0.007 C 
HETATM   22  C15 UNL     1      14.065  41.124  50.985  1.00  0.00     0.000 C 
HETATM   23  C16 UNL     1      13.213  42.137  50.229  1.00  0.00     0.000 C 
HETATM   24  C17 UNL     1      12.315  42.785  51.253  1.00  0.00     0.000 C 
HETATM   25  C18 UNL     1      11.424  41.813  51.941  1.00  0.00     0.007 C 
ENDBRANCH  19  20
ENDBRANCH  18  19
ENDBRANCH  16  18
ENDBRANCH   5   9
BRANCH   1  26
HETATM   26  C4  UNL     1      10.207  40.271  61.274  1.00  0.00     0.021 C 
BRANCH  26  27
HETATM   27  C3  UNL     1       8.774  39.891  60.948  1.00  0.00     0.053 C 
BRANCH  27  28
HETATM   28  C2  UNL     1       8.546  38.438  60.954  1.00  0.00    -0.022 C 
HETATM   29  C1  UNL     1       9.032  37.700  62.181  1.00  0.00     0.062 C 
HETATM   30  N5  UNL     1       8.004  37.732  60.072  1.00  0.00    -0.393 N 
ATOM     31  H5  UNL     1       7.953  36.736  60.286  1.00  0.00     0.159 HD
BRANCH  30  32
HETATM   32  C21 UNL     1       7.454  38.107  58.829  1.00  0.00     0.073 C 
HETATM   33  C22 UNL     1       6.509  37.118  58.243  1.00  0.00     0.031 C 
HETATM   34  C23 UNL     1       8.576  38.341  57.814  1.00  0.00     0.031 C 
ENDBRANCH  30  32
ENDBRANCH  27  28
ENDBRANCH  26  27
ENDBRANCH   1  26
TORSDOF 8
ENDMDL
