MODEL 1
REMARK VINA RESULT: -9.592713355      0.000      0.000
REMARK  9 active torsions:
REMARK  status: ('A' for Active; 'I' for Inactive)
REMARK    1  A    between atoms: C2_2  and  C3_3 
REMARK    2  A    between atoms: C2_2  and  C14_31 
REMARK    3  A    between atoms: C3_3  and  O1_4 
REMARK    4  A    between atoms: C3_3  and  C4_6 
REMARK    5  A    between atoms: C4_6  and  N1_7 
REMARK    6  A    between atoms: N4_16  and  C9_17 
REMARK    7  A    between atoms: C14_31  and  N10_32 
REMARK    8  A    between atoms: C14_31  and  C15_36 
REMARK       I    between atoms: C15_36  and  N11_38 
REMARK    9  A    between atoms: N11_38  and  C16_40 
ROOT
HETATM    1  C9  UNL     1      71.677  58.051  46.199  1.00  0.00     0.194 A 
HETATM    2  N5  UNL     1      71.146  58.640  47.310  1.00  0.00    -0.325 N 
ATOM      3  H5  UNL     1      70.389  59.314  47.196  1.00  0.00     0.168 HD
HETATM    4  C10 UNL     1      71.585  58.362  48.549  1.00  0.00     0.157 A 
HETATM    5  C11 UNL     1      70.992  59.009  49.693  1.00  0.00     0.121 C 
HETATM    6  N6  UNL     1      70.526  59.531  50.608  1.00  0.00    -0.190 NA
HETATM    7  C12 UNL     1      72.598  57.466  48.744  1.00  0.00     0.157 A 
HETATM    8  N7  UNL     1      73.095  57.141  50.043  1.00  0.00    -0.079 NA
HETATM    9  N8  UNL     1      73.148  56.866  47.677  1.00  0.00    -0.306 N 
ATOM     10  H8  UNL     1      73.905  56.193  47.803  1.00  0.00     0.170 HD
HETATM   11  C13 UNL     1      72.696  57.154  46.433  1.00  0.00     0.292 A 
HETATM   12  O2  UNL     1      73.243  56.566  45.468  1.00  0.00    -0.264 OA
ENDROOT
BRANCH   1  13
HETATM   13  N4  UNL     1      71.186  58.368  44.906  1.00  0.00    -0.252 N 
HETATM   14  C8  UNL     1      69.983  57.754  44.444  1.00  0.00     0.274 A 
HETATM   15  N3  UNL     1      69.533  58.230  43.169  1.00  0.00    -0.355 N 
HETATM   16  C7  UNL     1      70.236  59.169  42.351  1.00  0.00     0.152 A 
ATOM     17  H3  UNL     1      68.644  57.873  42.819  1.00  0.00     0.163 HD
HETATM   18  N1  UNL     1      70.028  59.712  41.141  1.00  0.00    -0.324 N 
HETATM   19  C6  UNL     1      71.422  59.665  42.865  1.00  0.00     0.166 A 
HETATM   20  C5  UNL     1      71.059  60.535  40.895  1.00  0.00     0.186 A 
HETATM   21  N2  UNL     1      71.911  60.517  41.932  1.00  0.00    -0.334 N 
ATOM     22  H2  UNL     1      72.777  61.051  42.005  1.00  0.00     0.168 HD
HETATM   23  N9  UNL     1      71.910  59.276  44.138  1.00  0.00    -0.277 N 
ATOM     24  H9  UNL     1      72.788  59.660  44.489  1.00  0.00     0.189 HD
BRANCH  18  25
HETATM   25  C4  UNL     1      68.873  59.432  40.290  1.00  0.00     0.163 C 
BRANCH  25  26
HETATM   26  C3  UNL     1      69.084  59.889  38.900  1.00  0.00     0.142 C 
BRANCH  26  27
HETATM   27  C2  UNL     1      69.466  58.904  37.879  1.00  0.00     0.052 C 
HETATM   28  C1  UNL     1      70.447  59.458  36.846  1.00  0.00     0.015 C 
BRANCH  27  29
HETATM   29  C14 UNL     1      68.393  58.130  37.207  1.00  0.00     0.280 C 
BRANCH  29  30
HETATM   30  N10 UNL     1      68.186  58.656  35.873  1.00  0.00    -0.066 N 
ATOM     31 3H10 UNL     1      68.201  59.675  35.854  1.00  0.00     0.275 HD
ATOM     32 2H10 UNL     1      68.985  58.487  35.263  1.00  0.00     0.275 HD
ATOM     33 1H10 UNL     1      67.321  58.275  35.491  1.00  0.00     0.275 HD
ENDBRANCH  29  30
BRANCH  29  34
HETATM   34  C15 UNL     1      68.784  56.689  37.063  1.00  0.00     0.249 C 
HETATM   35  O3  UNL     1      68.264  55.787  37.771  1.00  0.00    -0.271 OA
HETATM   36  N11 UNL     1      69.777  56.310  36.103  1.00  0.00    -0.348 N 
ATOM     37  H11 UNL     1      70.208  57.030  35.523  1.00  0.00     0.163 HD
BRANCH  36  38
HETATM   38  C16 UNL     1      70.176  54.954  35.936  1.00  0.00     0.150 C 
HETATM   39  C17 UNL     1      69.665  54.333  34.650  1.00  0.00     0.052 C 
HETATM   40  C18 UNL     1      70.692  53.241  34.433  1.00  0.00     0.123 C 
HETATM   41  N12 UNL     1      71.905  53.814  34.966  1.00  0.00    -0.380 N 
HETATM   42  C19 UNL     1      71.636  54.763  35.799  1.00  0.00     0.112 C 
ATOM     43  H12 UNL     1      72.846  53.510  34.719  1.00  0.00     0.160 HD
HETATM   44  N13 UNL     1      72.606  55.523  36.493  1.00  0.00    -0.086 NA
ENDBRANCH  36  38
ENDBRANCH  29  34
ENDBRANCH  27  29
ENDBRANCH  26  27
BRANCH  26  45
HETATM   45  O1  UNL     1      67.894  60.511  38.449  1.00  0.00    -0.393 OA
ATOM     46  H1  UNL     1      67.861  61.371  38.852  1.00  0.00     0.210 HD
ENDBRANCH  26  45
ENDBRANCH  25  26
ENDBRANCH  18  25
ENDBRANCH   1  13
TORSDOF 9
ENDMDL
MODEL 2
REMARK VINA RESULT: -9.424095858      2.283      3.883
REMARK  9 active torsions:
REMARK  status: ('A' for Active; 'I' for Inactive)
REMARK    1  A    between atoms: C2_2  and  C3_3 
REMARK    2  A    between atoms: C2_2  and  C14_31 
REMARK    3  A    between atoms: C3_3  and  O1_4 
REMARK    4  A    between atoms: C3_3  and  C4_6 
REMARK    5  A    between atoms: C4_6  and  N1_7 
REMARK    6  A    between atoms: N4_16  and  C9_17 
REMARK    7  A    between atoms: C14_31  and  N10_32 
REMARK    8  A    between atoms: C14_31  and  C15_36 
REMARK       I    between atoms: C15_36  and  N11_38 
REMARK    9  A    between atoms: N11_38  and  C16_40 
ROOT
HETATM    1  C9  UNL     1      71.608  58.096  45.957  1.00  0.00     0.194 A 
HETATM    2  N5  UNL     1      71.116  58.669  47.094  1.00  0.00    -0.325 N 
ATOM      3  H5  UNL     1      70.370  59.360  47.015  1.00  0.00     0.168 HD
HETATM    4  C10 UNL     1      71.581  58.355  48.316  1.00  0.00     0.157 A 
HETATM    5  C11 UNL     1      71.030  58.988  49.488  1.00  0.00     0.121 C 
HETATM    6  N6  UNL     1      70.599  59.498  50.427  1.00  0.00    -0.190 NA
HETATM    7  C12 UNL     1      72.581  57.436  48.465  1.00  0.00     0.157 A 
HETATM    8  N7  UNL     1      73.104  57.072  49.743  1.00  0.00    -0.079 NA
HETATM    9  N8  UNL     1      73.091  56.849  47.371  1.00  0.00    -0.306 N 
ATOM     10  H8  UNL     1      73.837  56.159  47.462  1.00  0.00     0.170 HD
HETATM   11  C13 UNL     1      72.614  57.173  46.146  1.00  0.00     0.292 A 
HETATM   12  O2  UNL     1      73.124  56.597  45.154  1.00  0.00    -0.264 OA
ENDROOT
BRANCH   1  13
HETATM   13  N4  UNL     1      71.090  58.450  44.685  1.00  0.00    -0.252 N 
HETATM   14  C8  UNL     1      69.839  57.909  44.262  1.00  0.00     0.274 A 
HETATM   15  N3  UNL     1      69.373  58.421  43.007  1.00  0.00    -0.355 N 
HETATM   16  C7  UNL     1      70.099  59.325  42.170  1.00  0.00     0.152 A 
ATOM     17  H3  UNL     1      68.453  58.117  42.686  1.00  0.00     0.163 HD
HETATM   18  N1  UNL     1      69.879  59.890  40.972  1.00  0.00    -0.324 N 
HETATM   19  C6  UNL     1      71.327  59.750  42.646  1.00  0.00     0.166 A 
HETATM   20  C5  UNL     1      70.946  60.657  40.695  1.00  0.00     0.186 A 
HETATM   21  N2  UNL     1      71.832  60.581  41.702  1.00  0.00    -0.334 N 
ATOM     22  H2  UNL     1      72.728  61.065  41.748  1.00  0.00     0.168 HD
HETATM   23  N9  UNL     1      71.837  59.323  43.898  1.00  0.00    -0.277 N 
ATOM     24  H9  UNL     1      72.747  59.654  44.220  1.00  0.00     0.189 HD
BRANCH  18  25
HETATM   25  C4  UNL     1      68.681  59.683  40.161  1.00  0.00     0.163 C 
BRANCH  25  26
HETATM   26  C3  UNL     1      69.007  59.459  38.737  1.00  0.00     0.142 C 
BRANCH  26  27
HETATM   27  C2  UNL     1      69.418  58.115  38.305  1.00  0.00     0.052 C 
HETATM   28  C1  UNL     1      69.947  58.079  36.871  1.00  0.00     0.015 C 
BRANCH  27  29
HETATM   29  C14 UNL     1      68.487  56.983  38.539  1.00  0.00     0.280 C 
BRANCH  29  30
HETATM   30  N10 UNL     1      68.896  55.852  37.732  1.00  0.00    -0.066 N 
ATOM     31 3H10 UNL     1      68.119  55.225  37.523  1.00  0.00     0.275 HD
ATOM     32 2H10 UNL     1      69.126  56.122  36.776  1.00  0.00     0.275 HD
ATOM     33 1H10 UNL     1      69.667  55.370  38.194  1.00  0.00     0.275 HD
ENDBRANCH  29  30
BRANCH  29  34
HETATM   34  C15 UNL     1      68.527  56.547  39.974  1.00  0.00     0.249 C 
HETATM   35  O3  UNL     1      69.614  56.403  40.592  1.00  0.00    -0.271 OA
HETATM   36  N11 UNL     1      67.307  56.283  40.675  1.00  0.00    -0.348 N 
ATOM     37  H11 UNL     1      66.419  56.394  40.187  1.00  0.00     0.163 HD
BRANCH  36  38
HETATM   38  C16 UNL     1      67.303  55.868  42.037  1.00  0.00     0.150 C 
HETATM   39  C17 UNL     1      66.148  56.442  42.834  1.00  0.00     0.052 C 
HETATM   40  C18 UNL     1      66.019  55.410  43.935  1.00  0.00     0.123 C 
HETATM   41  N12 UNL     1      66.393  54.179  43.281  1.00  0.00    -0.380 N 
HETATM   42  C19 UNL     1      67.104  54.415  42.229  1.00  0.00     0.112 C 
ATOM     43  H12 UNL     1      66.132  53.248  43.605  1.00  0.00     0.160 HD
HETATM   44  N13 UNL     1      67.626  53.420  41.370  1.00  0.00    -0.086 NA
ENDBRANCH  36  38
ENDBRANCH  29  34
ENDBRANCH  27  29
ENDBRANCH  26  27
BRANCH  26  45
HETATM   45  O1  UNL     1      67.880  59.817  37.958  1.00  0.00    -0.393 OA
ATOM     46  H1  UNL     1      68.186  60.412  37.284  1.00  0.00     0.210 HD
ENDBRANCH  26  45
ENDBRANCH  25  26
ENDBRANCH  18  25
ENDBRANCH   1  13
TORSDOF 9
ENDMDL
MODEL 3
REMARK VINA RESULT: -9.396544477      2.030      2.437
REMARK  9 active torsions:
REMARK  status: ('A' for Active; 'I' for Inactive)
REMARK    1  A    between atoms: C2_2  and  C3_3 
REMARK    2  A    between atoms: C2_2  and  C14_31 
REMARK    3  A    between atoms: C3_3  and  O1_4 
REMARK    4  A    between atoms: C3_3  and  C4_6 
REMARK    5  A    between atoms: C4_6  and  N1_7 
REMARK    6  A    between atoms: N4_16  and  C9_17 
REMARK    7  A    between atoms: C14_31  and  N10_32 
REMARK    8  A    between atoms: C14_31  and  C15_36 
REMARK       I    between atoms: C15_36  and  N11_38 
REMARK    9  A    between atoms: N11_38  and  C16_40 
ROOT
HETATM    1  C9  UNL     1      71.773  58.032  46.167  1.00  0.00     0.194 A 
HETATM    2  N5  UNL     1      71.191  58.658  47.231  1.00  0.00    -0.325 N 
ATOM      3  H5  UNL     1      70.460  59.348  47.057  1.00  0.00     0.168 HD
HETATM    4  C10 UNL     1      71.548  58.398  48.501  1.00  0.00     0.157 A 
HETATM    5  C11 UNL     1      70.904  59.086  49.592  1.00  0.00     0.121 C 
HETATM    6  N6  UNL     1      70.399  59.640  50.466  1.00  0.00    -0.190 NA
HETATM    7  C12 UNL     1      72.525  57.483  48.776  1.00  0.00     0.157 A 
HETATM    8  N7  UNL     1      72.935  57.176  50.108  1.00  0.00    -0.079 NA
HETATM    9  N8  UNL     1      73.121  56.845  47.757  1.00  0.00    -0.306 N 
ATOM     10  H8  UNL     1      73.852  56.157  47.942  1.00  0.00     0.170 HD
HETATM   11  C13 UNL     1      72.753  57.115  46.482  1.00  0.00     0.292 A 
HETATM   12  O2  UNL     1      73.341  56.492  45.565  1.00  0.00    -0.264 OA
ENDROOT
BRANCH   1  13
HETATM   13  N4  UNL     1      71.368  58.330  44.840  1.00  0.00    -0.252 N 
HETATM   14  C8  UNL     1      70.293  57.596  44.254  1.00  0.00     0.274 A 
HETATM   15  N3  UNL     1      69.909  58.057  42.953  1.00  0.00    -0.355 N 
HETATM   16  C7  UNL     1      70.568  59.097  42.224  1.00  0.00     0.152 A 
ATOM     17  H3  UNL     1      69.104  57.611  42.513  1.00  0.00     0.163 HD
HETATM   18  N1  UNL     1      70.409  59.650  41.012  1.00  0.00    -0.324 N 
HETATM   19  C6  UNL     1      71.634  59.710  42.859  1.00  0.00     0.166 A 
HETATM   20  C5  UNL     1      71.353  60.595  40.881  1.00  0.00     0.186 A 
HETATM   21  N2  UNL     1      72.103  60.642  41.994  1.00  0.00    -0.334 N 
ATOM     22  H2  UNL     1      72.889  61.271  42.160  1.00  0.00     0.168 HD
HETATM   23  N9  UNL     1      72.047  59.340  44.163  1.00  0.00    -0.277 N 
ATOM     24  H9  UNL     1      72.837  59.812  44.604  1.00  0.00     0.189 HD
BRANCH  18  25
HETATM   25  C4  UNL     1      69.377  59.266  40.050  1.00  0.00     0.163 C 
BRANCH  25  26
HETATM   26  C3  UNL     1      69.715  59.691  38.675  1.00  0.00     0.142 C 
BRANCH  26  27
HETATM   27  C2  UNL     1      69.406  58.789  37.556  1.00  0.00     0.052 C 
HETATM   28  C1  UNL     1      70.308  59.006  36.342  1.00  0.00     0.015 C 
BRANCH  27  29
HETATM   29  C14 UNL     1      67.991  58.652  37.129  1.00  0.00     0.280 C 
BRANCH  29  30
HETATM   30  N10 UNL     1      67.927  58.640  35.682  1.00  0.00    -0.066 N 
ATOM     31 3H10 UNL     1      67.242  59.303  35.321  1.00  0.00     0.275 HD
ATOM     32 2H10 UNL     1      68.760  59.044  35.255  1.00  0.00     0.275 HD
ATOM     33 1H10 UNL     1      67.750  57.688  35.360  1.00  0.00     0.275 HD
ENDBRANCH  29  30
BRANCH  29  34
HETATM   34  C15 UNL     1      67.412  57.355  37.613  1.00  0.00     0.249 C 
HETATM   35  O3  UNL     1      66.263  56.973  37.269  1.00  0.00    -0.271 OA
HETATM   36  N11 UNL     1      68.170  56.518  38.493  1.00  0.00    -0.348 N 
ATOM     37  H11 UNL     1      69.102  56.815  38.782  1.00  0.00     0.163 HD
BRANCH  36  38
HETATM   38  C16 UNL     1      67.657  55.281  38.975  1.00  0.00     0.150 C 
HETATM   39  C17 UNL     1      68.251  54.073  38.277  1.00  0.00     0.052 C 
HETATM   40  C18 UNL     1      68.058  53.007  39.336  1.00  0.00     0.123 C 
HETATM   41  N12 UNL     1      68.201  53.738  40.572  1.00  0.00    -0.380 N 
HETATM   42  C19 UNL     1      67.982  54.997  40.390  1.00  0.00     0.112 C 
ATOM     43  H12 UNL     1      68.442  53.317  41.469  1.00  0.00     0.160 HD
HETATM   44  N13 UNL     1      68.044  55.981  41.404  1.00  0.00    -0.086 NA
ENDBRANCH  36  38
ENDBRANCH  29  34
ENDBRANCH  27  29
ENDBRANCH  26  27
BRANCH  26  45
HETATM   45  O1  UNL     1      69.055  60.916  38.412  1.00  0.00    -0.393 OA
ATOM     46  H1  UNL     1      69.707  61.513  38.063  1.00  0.00     0.210 HD
ENDBRANCH  26  45
ENDBRANCH  25  26
ENDBRANCH  18  25
ENDBRANCH   1  13
TORSDOF 9
ENDMDL
MODEL 4
REMARK VINA RESULT: -9.342330397      2.480      4.791
REMARK  9 active torsions:
REMARK  status: ('A' for Active; 'I' for Inactive)
REMARK    1  A    between atoms: C2_2  and  C3_3 
REMARK    2  A    between atoms: C2_2  and  C14_31 
REMARK    3  A    between atoms: C3_3  and  O1_4 
REMARK    4  A    between atoms: C3_3  and  C4_6 
REMARK    5  A    between atoms: C4_6  and  N1_7 
REMARK    6  A    between atoms: N4_16  and  C9_17 
REMARK    7  A    between atoms: C14_31  and  N10_32 
REMARK    8  A    between atoms: C14_31  and  C15_36 
REMARK       I    between atoms: C15_36  and  N11_38 
REMARK    9  A    between atoms: N11_38  and  C16_40 
ROOT
HETATM    1  C9  UNL     1      71.607  58.126  45.871  1.00  0.00     0.194 A 
HETATM    2  N5  UNL     1      71.105  58.699  47.003  1.00  0.00    -0.325 N 
ATOM      3  H5  UNL     1      70.360  59.390  46.917  1.00  0.00     0.168 HD
HETATM    4  C10 UNL     1      71.557  58.383  48.229  1.00  0.00     0.157 A 
HETATM    5  C11 UNL     1      70.995  59.015  49.397  1.00  0.00     0.121 C 
HETATM    6  N6  UNL     1      70.554  59.525  50.331  1.00  0.00    -0.190 NA
HETATM    7  C12 UNL     1      72.555  57.463  48.387  1.00  0.00     0.157 A 
HETATM    8  N7  UNL     1      73.065  57.098  49.670  1.00  0.00    -0.079 NA
HETATM    9  N8  UNL     1      73.076  56.877  47.298  1.00  0.00    -0.306 N 
ATOM     10  H8  UNL     1      73.821  56.187  47.396  1.00  0.00     0.170 HD
HETATM   11  C13 UNL     1      72.611  57.203  46.068  1.00  0.00     0.292 A 
HETATM   12  O2  UNL     1      73.131  56.627  45.081  1.00  0.00    -0.264 OA
ENDROOT
BRANCH   1  13
HETATM   13  N4  UNL     1      71.102  58.482  44.593  1.00  0.00    -0.252 N 
HETATM   14  C8  UNL     1      69.847  57.956  44.165  1.00  0.00     0.274 A 
HETATM   15  N3  UNL     1      69.396  58.469  42.905  1.00  0.00    -0.355 N 
HETATM   16  C7  UNL     1      70.139  59.360  42.069  1.00  0.00     0.152 A 
ATOM     17  H3  UNL     1      68.474  58.176  42.579  1.00  0.00     0.163 HD
HETATM   18  N1  UNL     1      69.935  59.922  40.867  1.00  0.00    -0.324 N 
HETATM   19  C6  UNL     1      71.370  59.769  42.550  1.00  0.00     0.166 A 
HETATM   20  C5  UNL     1      71.013  60.673  40.594  1.00  0.00     0.186 A 
HETATM   21  N2  UNL     1      71.891  60.590  41.606  1.00  0.00    -0.334 N 
ATOM     22  H2  UNL     1      72.794  61.062  41.656  1.00  0.00     0.168 HD
HETATM   23  N9  UNL     1      71.866  59.342  43.807  1.00  0.00    -0.277 N 
ATOM     24  H9  UNL     1      72.778  59.661  44.134  1.00  0.00     0.189 HD
BRANCH  18  25
HETATM   25  C4  UNL     1      68.739  59.727  40.049  1.00  0.00     0.163 C 
BRANCH  25  26
HETATM   26  C3  UNL     1      68.991  58.829  38.903  1.00  0.00     0.142 C 
BRANCH  26  27
HETATM   27  C2  UNL     1      68.632  57.409  39.021  1.00  0.00     0.052 C 
HETATM   28  C1  UNL     1      68.863  56.620  37.732  1.00  0.00     0.015 C 
BRANCH  27  29
HETATM   29  C14 UNL     1      67.313  57.060  39.608  1.00  0.00     0.280 C 
BRANCH  29  30
HETATM   30  N10 UNL     1      66.714  55.989  38.839  1.00  0.00    -0.066 N 
ATOM     31 3H10 UNL     1      67.332  55.650  38.102  1.00  0.00     0.275 HD
ATOM     32 2H10 UNL     1      66.638  55.125  39.374  1.00  0.00     0.275 HD
ATOM     33 1H10 UNL     1      65.813  56.299  38.475  1.00  0.00     0.275 HD
ENDBRANCH  29  30
BRANCH  29  34
HETATM   34  C15 UNL     1      67.471  56.566  41.016  1.00  0.00     0.249 C 
HETATM   35  O3  UNL     1      68.503  55.950  41.390  1.00  0.00    -0.271 OA
HETATM   36  N11 UNL     1      66.429  56.790  41.973  1.00  0.00    -0.348 N 
ATOM     37  H11 UNL     1      65.587  57.287  41.683  1.00  0.00     0.163 HD
BRANCH  36  38
HETATM   38  C16 UNL     1      66.540  56.337  43.318  1.00  0.00     0.150 C 
HETATM   39  C17 UNL     1      66.105  57.373  44.336  1.00  0.00     0.052 C 
HETATM   40  C18 UNL     1      65.722  56.485  45.502  1.00  0.00     0.123 C 
HETATM   41  N12 UNL     1      65.211  55.297  44.860  1.00  0.00    -0.380 N 
HETATM   42  C19 UNL     1      65.654  55.201  43.652  1.00  0.00     0.112 C 
ATOM     43  H12 UNL     1      64.585  54.624  45.302  1.00  0.00     0.160 HD
HETATM   44  N13 UNL     1      65.339  54.150  42.759  1.00  0.00    -0.086 NA
ENDBRANCH  36  38
ENDBRANCH  29  34
ENDBRANCH  27  29
ENDBRANCH  26  27
BRANCH  26  45
HETATM   45  O1  UNL     1      68.301  59.337  37.776  1.00  0.00    -0.393 OA
ATOM     46  H1  UNL     1      68.815  60.063  37.440  1.00  0.00     0.210 HD
ENDBRANCH  26  45
ENDBRANCH  25  26
ENDBRANCH  18  25
ENDBRANCH   1  13
TORSDOF 9
ENDMDL
MODEL 5
REMARK VINA RESULT: -9.268556675      1.976      2.479
REMARK  9 active torsions:
REMARK  status: ('A' for Active; 'I' for Inactive)
REMARK    1  A    between atoms: C2_2  and  C3_3 
REMARK    2  A    between atoms: C2_2  and  C14_31 
REMARK    3  A    between atoms: C3_3  and  O1_4 
REMARK    4  A    between atoms: C3_3  and  C4_6 
REMARK    5  A    between atoms: C4_6  and  N1_7 
REMARK    6  A    between atoms: N4_16  and  C9_17 
REMARK    7  A    between atoms: C14_31  and  N10_32 
REMARK    8  A    between atoms: C14_31  and  C15_36 
REMARK       I    between atoms: C15_36  and  N11_38 
REMARK    9  A    between atoms: N11_38  and  C16_40 
ROOT
HETATM    1  C9  UNL     1      71.674  58.053  46.254  1.00  0.00     0.194 A 
HETATM    2  N5  UNL     1      71.148  58.650  47.363  1.00  0.00    -0.325 N 
ATOM      3  H5  UNL     1      70.400  59.333  47.246  1.00  0.00     0.168 HD
HETATM    4  C10 UNL     1      71.582  58.369  48.604  1.00  0.00     0.157 A 
HETATM    5  C11 UNL     1      70.995  59.026  49.745  1.00  0.00     0.121 C 
HETATM    6  N6  UNL     1      70.535  59.556  50.658  1.00  0.00    -0.190 NA
HETATM    7  C12 UNL     1      72.583  57.461  48.802  1.00  0.00     0.157 A 
HETATM    8  N7  UNL     1      73.074  57.133  50.102  1.00  0.00    -0.079 NA
HETATM    9  N8  UNL     1      73.127  56.852  47.737  1.00  0.00    -0.306 N 
ATOM     10  H8  UNL     1      73.875  56.170  47.865  1.00  0.00     0.170 HD
HETATM   11  C13 UNL     1      72.681  57.143  46.491  1.00  0.00     0.292 A 
HETATM   12  O2  UNL     1      73.222  56.546  45.529  1.00  0.00    -0.264 OA
ENDROOT
BRANCH   1  13
HETATM   13  N4  UNL     1      71.188  58.372  44.959  1.00  0.00    -0.252 N 
HETATM   14  C8  UNL     1      69.983  57.766  44.494  1.00  0.00     0.274 A 
HETATM   15  N3  UNL     1      69.540  58.246  43.218  1.00  0.00    -0.355 N 
HETATM   16  C7  UNL     1      70.252  59.180  42.401  1.00  0.00     0.152 A 
ATOM     17  H3  UNL     1      68.650  57.894  42.864  1.00  0.00     0.163 HD
HETATM   18  N1  UNL     1      70.051  59.725  41.191  1.00  0.00    -0.324 N 
HETATM   19  C6  UNL     1      71.439  59.669  42.920  1.00  0.00     0.166 A 
HETATM   20  C5  UNL     1      71.088  60.542  40.949  1.00  0.00     0.186 A 
HETATM   21  N2  UNL     1      71.937  60.518  41.989  1.00  0.00    -0.334 N 
ATOM     22  H2  UNL     1      72.805  61.047  42.065  1.00  0.00     0.168 HD
HETATM   23  N9  UNL     1      71.920  59.277  44.194  1.00  0.00    -0.277 N 
ATOM     24  H9  UNL     1      72.799  59.655  44.548  1.00  0.00     0.189 HD
BRANCH  18  25
HETATM   25  C4  UNL     1      68.896  59.452  40.337  1.00  0.00     0.163 C 
BRANCH  25  26
HETATM   26  C3  UNL     1      69.116  59.906  38.947  1.00  0.00     0.142 C 
BRANCH  26  27
HETATM   27  C2  UNL     1      69.375  58.903  37.905  1.00  0.00     0.052 C 
HETATM   28  C1  UNL     1      70.331  59.396  36.819  1.00  0.00     0.015 C 
BRANCH  27  29
HETATM   29  C14 UNL     1      68.217  58.204  37.293  1.00  0.00     0.280 C 
BRANCH  29  30
HETATM   30  N10 UNL     1      68.114  58.579  35.898  1.00  0.00    -0.066 N 
ATOM     31 3H10 UNL     1      67.192  58.946  35.663  1.00  0.00     0.275 HD
ATOM     32 2H10 UNL     1      68.662  59.411  35.680  1.00  0.00     0.275 HD
ATOM     33 1H10 UNL     1      68.372  57.782  35.315  1.00  0.00     0.275 HD
ENDBRANCH  29  30
BRANCH  29  34
HETATM   34  C15 UNL     1      68.404  56.717  37.345  1.00  0.00     0.249 C 
HETATM   35  O3  UNL     1      69.156  56.115  36.534  1.00  0.00    -0.271 OA
HETATM   36  N11 UNL     1      67.716  55.943  38.334  1.00  0.00    -0.348 N 
ATOM     37  H11 UNL     1      67.103  56.417  38.997  1.00  0.00     0.163 HD
BRANCH  36  38
HETATM   38  C16 UNL     1      67.866  54.530  38.417  1.00  0.00     0.150 C 
HETATM   39  C17 UNL     1      68.097  54.035  39.831  1.00  0.00     0.052 C 
HETATM   40  C18 UNL     1      67.593  52.610  39.720  1.00  0.00     0.123 C 
HETATM   41  N12 UNL     1      66.525  52.710  38.754  1.00  0.00    -0.380 N 
HETATM   42  C19 UNL     1      66.662  53.767  38.026  1.00  0.00     0.112 C 
ATOM     43  H12 UNL     1      65.765  52.037  38.659  1.00  0.00     0.160 HD
HETATM   44  N13 UNL     1      65.780  54.150  36.988  1.00  0.00    -0.086 NA
ENDBRANCH  36  38
ENDBRANCH  29  34
ENDBRANCH  27  29
ENDBRANCH  26  27
BRANCH  26  45
HETATM   45  O1  UNL     1      67.981  60.647  38.534  1.00  0.00    -0.393 OA
ATOM     46  H1  UNL     1      67.265  60.030  38.445  1.00  0.00     0.210 HD
ENDBRANCH  26  45
ENDBRANCH  25  26
ENDBRANCH  18  25
ENDBRANCH   1  13
TORSDOF 9
ENDMDL
