MODEL 1
REMARK VINA RESULT: -8.697456859      0.000      0.000
REMARK  15 active torsions:
REMARK  status: ('A' for Active; 'I' for Inactive)
REMARK    1  A    between atoms: O1_2  and  C2_3 
REMARK    2  A    between atoms: C2_3  and  C3_5 
REMARK    3  A    between atoms: C3_5  and  C4_6 
REMARK    4  A    between atoms: C3_5  and  N3_13 
REMARK    5  A    between atoms: C7_16  and  C8_17 
REMARK    6  A    between atoms: C9_20  and  C10_21 
REMARK    7  A    between atoms: C10_21  and  C11_22 
REMARK    8  A    between atoms: C11_22  and  N8_28 
REMARK    9  A    between atoms: N6_23  and  N7_25 
REMARK   10  A    between atoms: N8_28  and  C12_30 
REMARK   11  A    between atoms: C12_30  and  C13_31 
REMARK   12  A    between atoms: C16_34  and  N9_35 
REMARK   13  A    between atoms: C17_40  and  O3_41 
REMARK   14  A    between atoms: N12_46  and  N13_47 
REMARK   15  A    between atoms: C18_50  and  N14_51 
ROOT
HETATM    1  C8  UNL     1      68.926  56.081  42.486  1.00  0.00     0.220 A 
HETATM    2  N5  UNL     1      69.547  57.262  42.883  1.00  0.00    -0.320 N 
ATOM      3  H5  UNL     1      69.709  58.064  42.276  1.00  0.00     0.169 HD
HETATM    4  C9  UNL     1      69.902  57.198  44.174  1.00  0.00     0.111 A 
HETATM    5  N11 UNL     1      69.494  55.984  44.565  1.00  0.00    -0.246 N 
ATOM      6  H11 UNL     1      69.599  55.586  45.498  1.00  0.00     0.196 HD
HETATM    7  O4  UNL     1      68.924  55.385  43.506  1.00  0.00    -0.214 OA
ENDROOT
BRANCH   1   8
HETATM    8  C7  UNL     1      68.535  55.994  41.055  1.00  0.00     0.213 A 
HETATM    9  N4  UNL     1      69.281  55.876  39.983  1.00  0.00    -0.262 N 
HETATM   10  N3  UNL     1      68.513  55.909  38.868  1.00  0.00    -0.100 N 
ATOM     11  H4  UNL     1      70.296  55.773  39.988  1.00  0.00     0.189 HD
HETATM   12  C18 UNL     1      67.249  56.049  39.230  1.00  0.00     0.716 A 
HETATM   13  N12 UNL     1      67.273  56.096  40.629  1.00  0.00    -0.069 N 
BRANCH  10  14
HETATM   14  C3  UNL     1      68.998  55.802  37.517  1.00  0.00     0.277 C 
BRANCH  14  15
HETATM   15  C2  UNL     1      70.027  54.739  37.294  1.00  0.00     0.290 C 
HETATM   16  O2  UNL     1      70.193  53.739  37.964  1.00  0.00    -0.262 OA
BRANCH  15  17
HETATM   17  O1  UNL     1      70.893  54.908  36.190  1.00  0.00    -0.325 OA
HETATM   18  C1  UNL     1      70.903  54.133  35.035  1.00  0.00     0.213 C 
ENDBRANCH  15  17
ENDBRANCH  14  15
BRANCH  14  19
HETATM   19  C4  UNL     1      69.371  57.053  36.893  1.00  0.00     0.061 A 
HETATM   20  C5  UNL     1      68.611  57.977  36.182  1.00  0.00     0.116 A 
HETATM   21  N1  UNL     1      69.375  59.029  35.785  1.00  0.00    -0.360 N 
HETATM   22  C6  UNL     1      70.602  58.753  36.253  1.00  0.00     0.180 A 
ATOM     23  H1  UNL     1      69.082  59.846  35.251  1.00  0.00     0.166 HD
HETATM   24  N2  UNL     1      70.603  57.605  36.891  1.00  0.00    -0.352 N 
ATOM     25  H2  UNL     1      71.425  57.187  37.327  1.00  0.00     0.166 HD
ENDBRANCH  14  19
ENDBRANCH  10  14
BRANCH  12  26
HETATM   26  N14 UNL     1      66.142  56.255  38.625  1.00  0.00    -0.231 N 
ATOM     27 2H14 UNL     1      65.565  55.454  38.368  1.00  0.00     0.174 HD
ATOM     28 1H14 UNL     1      65.580  57.073  38.389  1.00  0.00     0.174 HD
ENDBRANCH  12  26
BRANCH  13  29
HETATM   29  N13 UNL     1      66.131  56.156  41.409  1.00  0.00    -0.322 N 
ATOM     30 2H13 UNL     1      66.131  56.469  42.379  1.00  0.00     0.178 HD
ATOM     31 1H13 UNL     1      65.174  55.967  41.113  1.00  0.00     0.178 HD
ENDBRANCH  13  29
ENDBRANCH   1   8
BRANCH   4  32
HETATM   32  C10 UNL     1      70.583  58.300  44.906  1.00  0.00     0.155 C 
BRANCH  32  33
HETATM   33  C11 UNL     1      71.862  58.716  44.324  1.00  0.00     0.098 C 
HETATM   34  N6  UNL     1      73.006  58.175  44.741  1.00  0.00    -0.295 N 
ATOM     35  H6  UNL     1      73.063  57.466  45.472  1.00  0.00     0.187 HD
BRANCH  34  36
HETATM   36  N7  UNL     1      74.148  58.698  44.049  1.00  0.00    -0.344 N 
ATOM     37  H72 UNL     1      74.798  59.358  44.474  1.00  0.00     0.176 HD
ATOM     38  H71 UNL     1      74.229  58.338  43.099  1.00  0.00     0.176 HD
ENDBRANCH  34  36
BRANCH  33  39
HETATM   39  N8  UNL     1      71.850  59.698  43.351  1.00  0.00    -0.374 N 
ATOM     40  H8  UNL     1      72.536  59.601  42.602  1.00  0.00     0.161 HD
BRANCH  39  41
HETATM   41  C12 UNL     1      70.954  60.874  43.272  1.00  0.00     0.164 C 
BRANCH  41  42
HETATM   42  C13 UNL     1      70.147  60.578  42.007  1.00  0.00     0.010 A 
HETATM   43  C14 UNL     1      68.832  60.228  42.069  1.00  0.00     0.017 A 
HETATM   44  C15 UNL     1      68.141  59.987  40.894  1.00  0.00     0.049 A 
HETATM   45  C16 UNL     1      68.749  60.099  39.673  1.00  0.00     0.100 A 
HETATM   46  N10 UNL     1      70.085  60.453  39.655  1.00  0.00    -0.323 N 
HETATM   47  C17 UNL     1      70.786  60.686  40.814  1.00  0.00     0.149 A 
ATOM     48  H10 UNL     1      70.562  60.543  38.758  1.00  0.00     0.169 HD
BRANCH  45  49
HETATM   49  N9  UNL     1      68.138  59.980  38.557  1.00  0.00    -0.385 N 
ATOM     50  H92 UNL     1      67.142  59.759  38.572  1.00  0.00     0.157 HD
ATOM     51  H91 UNL     1      68.598  60.025  37.648  1.00  0.00     0.157 HD
ENDBRANCH  45  49
BRANCH  47  52
HETATM   52  O3  UNL     1      72.124  61.022  40.706  1.00  0.00    -0.346 OA
ATOM     53  H3  UNL     1      72.650  60.809  39.944  1.00  0.00     0.219 HD
ENDBRANCH  47  52
ENDBRANCH  41  42
ENDBRANCH  39  41
ENDBRANCH  33  39
ENDBRANCH  32  33
ENDBRANCH   4  32
TORSDOF 15
ENDMDL
MODEL 2
REMARK VINA RESULT: -8.451570497      1.387      1.632
REMARK  15 active torsions:
REMARK  status: ('A' for Active; 'I' for Inactive)
REMARK    1  A    between atoms: O1_2  and  C2_3 
REMARK    2  A    between atoms: C2_3  and  C3_5 
REMARK    3  A    between atoms: C3_5  and  C4_6 
REMARK    4  A    between atoms: C3_5  and  N3_13 
REMARK    5  A    between atoms: C7_16  and  C8_17 
REMARK    6  A    between atoms: C9_20  and  C10_21 
REMARK    7  A    between atoms: C10_21  and  C11_22 
REMARK    8  A    between atoms: C11_22  and  N8_28 
REMARK    9  A    between atoms: N6_23  and  N7_25 
REMARK   10  A    between atoms: N8_28  and  C12_30 
REMARK   11  A    between atoms: C12_30  and  C13_31 
REMARK   12  A    between atoms: C16_34  and  N9_35 
REMARK   13  A    between atoms: C17_40  and  O3_41 
REMARK   14  A    between atoms: N12_46  and  N13_47 
REMARK   15  A    between atoms: C18_50  and  N14_51 
ROOT
HETATM    1  C8  UNL     1      67.624  56.790  42.313  1.00  0.00     0.220 A 
HETATM    2  N5  UNL     1      68.853  56.568  42.927  1.00  0.00    -0.320 N 
ATOM      3  H5  UNL     1      69.679  56.202  42.455  1.00  0.00     0.169 HD
HETATM    4  C9  UNL     1      68.800  56.902  44.224  1.00  0.00     0.111 A 
HETATM    5  N11 UNL     1      67.545  57.331  44.399  1.00  0.00    -0.246 N 
ATOM      6  H11 UNL     1      67.141  57.669  45.273  1.00  0.00     0.196 HD
HETATM    7  O4  UNL     1      66.911  57.236  43.218  1.00  0.00    -0.214 OA
ENDROOT
BRANCH   1   8
HETATM    8  C7  UNL     1      67.526  56.403  40.881  1.00  0.00     0.213 A 
HETATM    9  N4  UNL     1      68.463  56.309  39.968  1.00  0.00    -0.262 N 
HETATM   10  N3  UNL     1      67.921  55.993  38.767  1.00  0.00    -0.100 N 
ATOM     11  H4  UNL     1      69.459  56.453  40.138  1.00  0.00     0.189 HD
HETATM   12  C18 UNL     1      66.612  55.881  38.912  1.00  0.00     0.716 A 
HETATM   13  N12 UNL     1      66.370  56.139  40.267  1.00  0.00    -0.069 N 
BRANCH  10  14
HETATM   14  C3  UNL     1      68.656  55.808  37.543  1.00  0.00     0.277 C 
BRANCH  14  15
HETATM   15  C2  UNL     1      69.675  54.714  37.575  1.00  0.00     0.290 C 
HETATM   16  O2  UNL     1      70.383  54.409  38.514  1.00  0.00    -0.262 OA
BRANCH  15  17
HETATM   17  O1  UNL     1      69.830  53.949  36.397  1.00  0.00    -0.325 OA
HETATM   18  C1  UNL     1      70.962  53.919  35.588  1.00  0.00     0.213 C 
ENDBRANCH  15  17
ENDBRANCH  14  15
BRANCH  14  19
HETATM   19  C4  UNL     1      69.180  57.016  36.947  1.00  0.00     0.061 A 
HETATM   20  C5  UNL     1      68.538  58.179  36.531  1.00  0.00     0.116 A 
HETATM   21  N1  UNL     1      69.432  59.076  36.037  1.00  0.00    -0.360 N 
HETATM   22  C6  UNL     1      70.622  58.466  36.151  1.00  0.00     0.180 A 
ATOM     23  H1  UNL     1      69.241  60.005  35.663  1.00  0.00     0.166 HD
HETATM   24  N2  UNL     1      70.478  57.271  36.673  1.00  0.00    -0.352 N 
ATOM     25  H2  UNL     1      71.244  56.620  36.848  1.00  0.00     0.166 HD
ENDBRANCH  14  19
ENDBRANCH  10  14
BRANCH  12  26
HETATM   26  N14 UNL     1      65.615  55.726  38.126  1.00  0.00    -0.231 N 
ATOM     27 2H14 UNL     1      65.045  56.538  37.890  1.00  0.00     0.174 HD
ATOM     28 1H14 UNL     1      65.253  54.970  37.546  1.00  0.00     0.174 HD
ENDBRANCH  12  26
BRANCH  13  29
HETATM   29  N13 UNL     1      65.119  56.040  40.849  1.00  0.00    -0.322 N 
ATOM     30 2H13 UNL     1      64.945  56.217  41.838  1.00  0.00     0.178 HD
ATOM     31 1H13 UNL     1      64.235  55.848  40.379  1.00  0.00     0.178 HD
ENDBRANCH  13  29
ENDBRANCH   1   8
BRANCH   4  32
HETATM   32  C10 UNL     1      69.950  56.787  45.160  1.00  0.00     0.155 C 
BRANCH  32  33
HETATM   33  C11 UNL     1      71.218  57.299  44.633  1.00  0.00     0.098 C 
HETATM   34  N6  UNL     1      72.380  56.891  45.144  1.00  0.00    -0.295 N 
ATOM     35  H6  UNL     1      72.457  56.225  45.912  1.00  0.00     0.187 HD
BRANCH  34  36
HETATM   36  N7  UNL     1      73.508  57.491  44.493  1.00  0.00    -0.344 N 
ATOM     37  H72 UNL     1      73.429  58.024  43.628  1.00  0.00     0.176 HD
ATOM     38  H71 UNL     1      74.382  57.323  44.991  1.00  0.00     0.176 HD
ENDBRANCH  34  36
BRANCH  33  39
HETATM   39  N8  UNL     1      71.175  58.230  43.612  1.00  0.00    -0.374 N 
ATOM     40  H8  UNL     1      71.277  57.866  42.665  1.00  0.00     0.161 HD
BRANCH  39  41
HETATM   41  C12 UNL     1      70.997  59.695  43.738  1.00  0.00     0.164 C 
BRANCH  41  42
HETATM   42  C13 UNL     1      70.786  60.118  42.284  1.00  0.00     0.010 A 
HETATM   43  C14 UNL     1      71.820  60.557  41.514  1.00  0.00     0.017 A 
HETATM   44  C15 UNL     1      71.580  60.912  40.198  1.00  0.00     0.049 A 
HETATM   45  C16 UNL     1      70.328  60.824  39.654  1.00  0.00     0.100 A 
HETATM   46  N10 UNL     1      69.306  60.378  40.469  1.00  0.00    -0.323 N 
HETATM   47  C17 UNL     1      69.528  60.030  41.781  1.00  0.00     0.149 A 
ATOM     48  H10 UNL     1      68.363  60.303  40.088  1.00  0.00     0.169 HD
BRANCH  45  49
HETATM   49  N9  UNL     1      70.067  61.049  38.422  1.00  0.00    -0.385 N 
ATOM     50  H92 UNL     1      70.211  60.294  37.751  1.00  0.00     0.157 HD
ATOM     51  H91 UNL     1      69.787  61.959  38.057  1.00  0.00     0.157 HD
ENDBRANCH  45  49
BRANCH  47  52
HETATM   52  O3  UNL     1      68.446  59.606  42.532  1.00  0.00    -0.346 OA
ATOM     53  H3  UNL     1      67.559  59.582  42.191  1.00  0.00     0.219 HD
ENDBRANCH  47  52
ENDBRANCH  41  42
ENDBRANCH  39  41
ENDBRANCH  33  39
ENDBRANCH  32  33
ENDBRANCH   4  32
TORSDOF 15
ENDMDL
MODEL 3
REMARK VINA RESULT: -8.200698592      1.626      2.561
REMARK  15 active torsions:
REMARK  status: ('A' for Active; 'I' for Inactive)
REMARK    1  A    between atoms: O1_2  and  C2_3 
REMARK    2  A    between atoms: C2_3  and  C3_5 
REMARK    3  A    between atoms: C3_5  and  C4_6 
REMARK    4  A    between atoms: C3_5  and  N3_13 
REMARK    5  A    between atoms: C7_16  and  C8_17 
REMARK    6  A    between atoms: C9_20  and  C10_21 
REMARK    7  A    between atoms: C10_21  and  C11_22 
REMARK    8  A    between atoms: C11_22  and  N8_28 
REMARK    9  A    between atoms: N6_23  and  N7_25 
REMARK   10  A    between atoms: N8_28  and  C12_30 
REMARK   11  A    between atoms: C12_30  and  C13_31 
REMARK   12  A    between atoms: C16_34  and  N9_35 
REMARK   13  A    between atoms: C17_40  and  O3_41 
REMARK   14  A    between atoms: N12_46  and  N13_47 
REMARK   15  A    between atoms: C18_50  and  N14_51 
ROOT
HETATM    1  C8  UNL     1      68.563  55.835  42.437  1.00  0.00     0.220 A 
HETATM    2  N5  UNL     1      69.481  56.738  42.965  1.00  0.00    -0.320 N 
ATOM      3  H5  UNL     1      70.019  57.407  42.415  1.00  0.00     0.169 HD
HETATM    4  C9  UNL     1      69.559  56.607  44.296  1.00  0.00     0.111 A 
HETATM    5  N11 UNL     1      68.689  55.631  44.580  1.00  0.00    -0.246 N 
ATOM      6  H11 UNL     1      68.482  55.259  45.508  1.00  0.00     0.196 HD
HETATM    7  O4  UNL     1      68.137  55.227  43.423  1.00  0.00    -0.214 OA
ENDROOT
BRANCH   1   8
HETATM    8  C7  UNL     1      68.423  55.834  40.957  1.00  0.00     0.213 A 
HETATM    9  N4  UNL     1      69.325  55.643  40.025  1.00  0.00    -0.262 N 
HETATM   10  N3  UNL     1      68.776  55.801  38.797  1.00  0.00    -0.100 N 
ATOM     11  H4  UNL     1      70.303  55.409  40.200  1.00  0.00     0.189 HD
HETATM   12  C18 UNL     1      67.495  56.096  38.942  1.00  0.00     0.716 A 
HETATM   13  N12 UNL     1      67.279  56.109  40.326  1.00  0.00    -0.069 N 
BRANCH  10  14
HETATM   14  C3  UNL     1      69.475  55.663  37.546  1.00  0.00     0.277 C 
BRANCH  14  15
HETATM   15  C2  UNL     1      69.469  56.881  36.678  1.00  0.00     0.290 C 
HETATM   16  O2  UNL     1      68.637  57.172  35.842  1.00  0.00    -0.262 OA
BRANCH  15  17
HETATM   17  O1  UNL     1      70.534  57.794  36.849  1.00  0.00    -0.325 OA
HETATM   18  C1  UNL     1      70.878  58.819  35.974  1.00  0.00     0.213 C 
ENDBRANCH  15  17
ENDBRANCH  14  15
BRANCH  14  19
HETATM   19  C4  UNL     1      69.169  54.465  36.795  1.00  0.00     0.061 A 
HETATM   20  C5  UNL     1      68.578  53.268  37.192  1.00  0.00     0.116 A 
HETATM   21  N1  UNL     1      68.469  52.412  36.142  1.00  0.00    -0.360 N 
HETATM   22  C6  UNL     1      68.991  53.080  35.102  1.00  0.00     0.180 A 
ATOM     23  H1  UNL     1      68.078  51.470  36.144  1.00  0.00     0.166 HD
HETATM   24  N2  UNL     1      69.402  54.269  35.479  1.00  0.00    -0.352 N 
ATOM     25  H2  UNL     1      69.839  54.953  34.861  1.00  0.00     0.166 HD
ENDBRANCH  14  19
ENDBRANCH  10  14
BRANCH  12  26
HETATM   26  N14 UNL     1      66.546  56.459  38.166  1.00  0.00    -0.231 N 
ATOM     27 2H14 UNL     1      65.898  55.753  37.819  1.00  0.00     0.174 HD
ATOM     28 1H14 UNL     1      66.167  57.349  37.843  1.00  0.00     0.174 HD
ENDBRANCH  12  26
BRANCH  13  29
HETATM   29  N13 UNL     1      66.033  56.300  40.899  1.00  0.00    -0.322 N 
ATOM     30 2H13 UNL     1      65.754  55.879  41.785  1.00  0.00     0.178 HD
ATOM     31 1H13 UNL     1      65.287  56.908  40.562  1.00  0.00     0.178 HD
ENDBRANCH  13  29
ENDBRANCH   1   8
BRANCH   4  32
HETATM   32  C10 UNL     1      70.447  57.428  45.163  1.00  0.00     0.155 C 
BRANCH  32  33
HETATM   33  C11 UNL     1      71.550  58.085  44.456  1.00  0.00     0.098 C 
HETATM   34  N6  UNL     1      72.784  58.069  44.960  1.00  0.00    -0.295 N 
ATOM     35  H6  UNL     1      73.029  57.622  45.843  1.00  0.00     0.187 HD
BRANCH  34  36
HETATM   36  N7  UNL     1      73.729  58.751  44.124  1.00  0.00    -0.344 N 
ATOM     37  H72 UNL     1      73.918  58.473  43.161  1.00  0.00     0.176 HD
ATOM     38  H71 UNL     1      74.181  59.532  44.599  1.00  0.00     0.176 HD
ENDBRANCH  34  36
BRANCH  33  39
HETATM   39  N8  UNL     1      71.272  58.735  43.269  1.00  0.00    -0.374 N 
ATOM     40  H8  UNL     1      71.441  58.207  42.413  1.00  0.00     0.161 HD
BRANCH  39  41
HETATM   41  C12 UNL     1      70.758  60.113  43.098  1.00  0.00     0.164 C 
BRANCH  41  42
HETATM   42  C13 UNL     1      70.141  60.055  41.700  1.00  0.00     0.010 A 
HETATM   43  C14 UNL     1      70.852  60.414  40.595  1.00  0.00     0.017 A 
HETATM   44  C15 UNL     1      70.254  60.325  39.349  1.00  0.00     0.049 A 
HETATM   45  C16 UNL     1      68.968  59.880  39.206  1.00  0.00     0.100 A 
HETATM   46  N10 UNL     1      68.281  59.529  40.353  1.00  0.00    -0.323 N 
HETATM   47  C17 UNL     1      68.859  59.620  41.597  1.00  0.00     0.149 A 
ATOM     48  H10 UNL     1      67.321  59.194  40.274  1.00  0.00     0.169 HD
BRANCH  45  49
HETATM   49  N9  UNL     1      68.399  59.690  38.077  1.00  0.00    -0.385 N 
ATOM     50  H92 UNL     1      67.420  59.957  37.977  1.00  0.00     0.157 HD
ATOM     51  H91 UNL     1      68.846  59.226  37.286  1.00  0.00     0.157 HD
ENDBRANCH  45  49
BRANCH  47  52
HETATM   52  O3  UNL     1      68.097  59.262  42.694  1.00  0.00    -0.346 OA
ATOM     53  H3  UNL     1      67.214  59.584  42.837  1.00  0.00     0.219 HD
ENDBRANCH  47  52
ENDBRANCH  41  42
ENDBRANCH  39  41
ENDBRANCH  33  39
ENDBRANCH  32  33
ENDBRANCH   4  32
TORSDOF 15
ENDMDL
MODEL 4
REMARK VINA RESULT: -8.185392488      2.269      7.528
REMARK  15 active torsions:
REMARK  status: ('A' for Active; 'I' for Inactive)
REMARK    1  A    between atoms: O1_2  and  C2_3 
REMARK    2  A    between atoms: C2_3  and  C3_5 
REMARK    3  A    between atoms: C3_5  and  C4_6 
REMARK    4  A    between atoms: C3_5  and  N3_13 
REMARK    5  A    between atoms: C7_16  and  C8_17 
REMARK    6  A    between atoms: C9_20  and  C10_21 
REMARK    7  A    between atoms: C10_21  and  C11_22 
REMARK    8  A    between atoms: C11_22  and  N8_28 
REMARK    9  A    between atoms: N6_23  and  N7_25 
REMARK   10  A    between atoms: N8_28  and  C12_30 
REMARK   11  A    between atoms: C12_30  and  C13_31 
REMARK   12  A    between atoms: C16_34  and  N9_35 
REMARK   13  A    between atoms: C17_40  and  O3_41 
REMARK   14  A    between atoms: N12_46  and  N13_47 
REMARK   15  A    between atoms: C18_50  and  N14_51 
ROOT
HETATM    1  C8  UNL     1      69.876  59.644  40.279  1.00  0.00     0.220 A 
HETATM    2  N5  UNL     1      69.935  58.947  39.076  1.00  0.00    -0.320 N 
ATOM      3  H5  UNL     1      69.856  57.935  38.987  1.00  0.00     0.169 HD
HETATM    4  C9  UNL     1      70.109  59.792  38.050  1.00  0.00     0.111 A 
HETATM    5  N11 UNL     1      70.151  61.000  38.625  1.00  0.00    -0.246 N 
ATOM      6  H11 UNL     1      70.274  61.892  38.144  1.00  0.00     0.196 HD
HETATM    7  O4  UNL     1      70.004  60.827  39.949  1.00  0.00    -0.214 OA
ENDROOT
BRANCH   1   8
HETATM    8  C7  UNL     1      69.745  58.818  41.509  1.00  0.00     0.213 A 
HETATM    9  N4  UNL     1      68.916  57.841  41.783  1.00  0.00    -0.262 N 
HETATM   10  N3  UNL     1      69.095  57.413  43.055  1.00  0.00    -0.100 N 
ATOM     11  H4  UNL     1      68.232  57.456  41.130  1.00  0.00     0.189 HD
HETATM   12  C18 UNL     1      70.059  58.128  43.609  1.00  0.00     0.716 A 
HETATM   13  N12 UNL     1      70.472  59.019  42.611  1.00  0.00    -0.069 N 
BRANCH  10  14
HETATM   14  C3  UNL     1      68.358  56.352  43.691  1.00  0.00     0.277 C 
BRANCH  14  15
HETATM   15  C2  UNL     1      67.995  55.208  42.797  1.00  0.00     0.290 C 
HETATM   16  O2  UNL     1      68.466  54.964  41.704  1.00  0.00    -0.262 OA
BRANCH  15  17
HETATM   17  O1  UNL     1      67.008  54.315  43.271  1.00  0.00    -0.325 OA
HETATM   18  C1  UNL     1      65.918  53.845  42.545  1.00  0.00     0.213 C 
ENDBRANCH  15  17
ENDBRANCH  14  15
BRANCH  14  19
HETATM   19  C4  UNL     1      67.240  56.776  44.504  1.00  0.00     0.061 A 
HETATM   20  C5  UNL     1      66.362  57.846  44.358  1.00  0.00     0.116 A 
HETATM   21  N1  UNL     1      65.441  57.857  45.358  1.00  0.00    -0.360 N 
HETATM   22  C6  UNL     1      65.751  56.795  46.116  1.00  0.00     0.180 A 
ATOM     23  H1  UNL     1      64.683  58.525  45.500  1.00  0.00     0.166 HD
HETATM   24  N2  UNL     1      66.796  56.169  45.626  1.00  0.00    -0.352 N 
ATOM     25  H2  UNL     1      67.217  55.337  46.038  1.00  0.00     0.166 HD
ENDBRANCH  14  19
ENDBRANCH  10  14
BRANCH  12  26
HETATM   26  N14 UNL     1      70.552  58.245  44.783  1.00  0.00    -0.231 N 
ATOM     27 2H14 UNL     1      69.947  58.090  45.588  1.00  0.00     0.174 HD
ATOM     28 1H14 UNL     1      71.486  58.371  45.173  1.00  0.00     0.174 HD
ENDBRANCH  12  26
BRANCH  13  29
HETATM   29  N13 UNL     1      71.532  59.896  42.764  1.00  0.00    -0.322 N 
ATOM     30 2H13 UNL     1      71.545  60.835  42.366  1.00  0.00     0.178 HD
ATOM     31 1H13 UNL     1      72.373  59.753  43.322  1.00  0.00     0.178 HD
ENDBRANCH  13  29
ENDBRANCH   1   8
BRANCH   4  32
HETATM   32  C10 UNL     1      70.208  59.365  36.628  1.00  0.00     0.155 C 
BRANCH  32  33
HETATM   33  C11 UNL     1      69.047  58.622  36.133  1.00  0.00     0.098 C 
HETATM   34  N6  UNL     1      68.023  59.261  35.566  1.00  0.00    -0.295 N 
ATOM     35  H6  UNL     1      67.982  60.273  35.452  1.00  0.00     0.187 HD
BRANCH  34  36
HETATM   36  N7  UNL     1      66.987  58.367  35.135  1.00  0.00    -0.344 N 
ATOM     37  H72 UNL     1      67.035  57.357  35.270  1.00  0.00     0.176 HD
ATOM     38  H71 UNL     1      66.212  58.854  34.686  1.00  0.00     0.176 HD
ENDBRANCH  34  36
BRANCH  33  39
HETATM   39  N8  UNL     1      69.032  57.249  36.290  1.00  0.00    -0.374 N 
ATOM     40  H8  UNL     1      68.113  56.806  36.315  1.00  0.00     0.161 HD
BRANCH  39  41
HETATM   41  C12 UNL     1      70.199  56.347  36.427  1.00  0.00     0.164 C 
BRANCH  41  42
HETATM   42  C13 UNL     1      69.557  55.075  36.984  1.00  0.00     0.010 A 
HETATM   43  C14 UNL     1      69.429  53.952  36.224  1.00  0.00     0.017 A 
HETATM   44  C15 UNL     1      68.858  52.821  36.781  1.00  0.00     0.049 A 
HETATM   45  C16 UNL     1      68.425  52.806  38.079  1.00  0.00     0.100 A 
HETATM   46  N10 UNL     1      68.570  53.967  38.814  1.00  0.00    -0.323 N 
HETATM   47  C17 UNL     1      69.128  55.101  38.272  1.00  0.00     0.149 A 
ATOM     48  H10 UNL     1      68.255  53.983  39.784  1.00  0.00     0.169 HD
BRANCH  45  49
HETATM   49  N9  UNL     1      67.976  51.765  38.670  1.00  0.00    -0.385 N 
ATOM     50  H92 UNL     1      67.022  51.467  38.468  1.00  0.00     0.157 HD
ATOM     51  H91 UNL     1      68.491  51.251  39.385  1.00  0.00     0.157 HD
ENDBRANCH  45  49
BRANCH  47  52
HETATM   52  O3  UNL     1      69.223  56.225  39.073  1.00  0.00    -0.346 OA
ATOM     53  H3  UNL     1      68.901  56.250  39.967  1.00  0.00     0.219 HD
ENDBRANCH  47  52
ENDBRANCH  41  42
ENDBRANCH  39  41
ENDBRANCH  33  39
ENDBRANCH  32  33
ENDBRANCH   4  32
TORSDOF 15
ENDMDL
MODEL 5
REMARK VINA RESULT: -8.065951913      2.866      5.570
REMARK  15 active torsions:
REMARK  status: ('A' for Active; 'I' for Inactive)
REMARK    1  A    between atoms: O1_2  and  C2_3 
REMARK    2  A    between atoms: C2_3  and  C3_5 
REMARK    3  A    between atoms: C3_5  and  C4_6 
REMARK    4  A    between atoms: C3_5  and  N3_13 
REMARK    5  A    between atoms: C7_16  and  C8_17 
REMARK    6  A    between atoms: C9_20  and  C10_21 
REMARK    7  A    between atoms: C10_21  and  C11_22 
REMARK    8  A    between atoms: C11_22  and  N8_28 
REMARK    9  A    between atoms: N6_23  and  N7_25 
REMARK   10  A    between atoms: N8_28  and  C12_30 
REMARK   11  A    between atoms: C12_30  and  C13_31 
REMARK   12  A    between atoms: C16_34  and  N9_35 
REMARK   13  A    between atoms: C17_40  and  O3_41 
REMARK   14  A    between atoms: N12_46  and  N13_47 
REMARK   15  A    between atoms: C18_50  and  N14_51 
ROOT
HETATM    1  C8  UNL     1      69.400  57.151  36.534  1.00  0.00     0.220 A 
HETATM    2  N5  UNL     1      69.421  57.520  37.876  1.00  0.00    -0.320 N 
ATOM      3  H5  UNL     1      69.852  56.974  38.621  1.00  0.00     0.169 HD
HETATM    4  C9  UNL     1      68.796  58.692  38.053  1.00  0.00     0.111 A 
HETATM    5  N11 UNL     1      68.399  59.039  36.823  1.00  0.00    -0.246 N 
ATOM      6  H11 UNL     1      67.886  59.885  36.572  1.00  0.00     0.196 HD
HETATM    7  O4  UNL     1      68.798  58.074  35.977  1.00  0.00    -0.214 OA
ENDROOT
BRANCH   1   8
HETATM    8  C7  UNL     1      70.010  55.835  36.206  1.00  0.00     0.213 A 
HETATM    9  N4  UNL     1      70.983  55.540  35.379  1.00  0.00    -0.262 N 
HETATM   10  N3  UNL     1      71.172  54.200  35.331  1.00  0.00    -0.100 N 
ATOM     11  H4  UNL     1      71.522  56.224  34.846  1.00  0.00     0.189 HD
HETATM   12  C18 UNL     1      70.305  53.622  36.145  1.00  0.00     0.716 A 
HETATM   13  N12 UNL     1      69.571  54.676  36.704  1.00  0.00    -0.069 N 
BRANCH  10  14
HETATM   14  C3  UNL     1      72.159  53.524  34.530  1.00  0.00     0.277 C 
BRANCH  14  15
HETATM   15  C2  UNL     1      73.569  53.663  35.009  1.00  0.00     0.290 C 
HETATM   16  O2  UNL     1      73.996  54.508  35.770  1.00  0.00    -0.262 OA
BRANCH  15  17
HETATM   17  O1  UNL     1      74.502  52.714  34.535  1.00  0.00    -0.325 OA
HETATM   18  C1  UNL     1      75.639  52.280  35.211  1.00  0.00     0.213 C 
ENDBRANCH  15  17
ENDBRANCH  14  15
BRANCH  14  19
HETATM   19  C4  UNL     1      72.050  53.739  33.104  1.00  0.00     0.061 A 
HETATM   20  C5  UNL     1      70.949  53.675  32.255  1.00  0.00     0.116 A 
HETATM   21  N1  UNL     1      71.305  53.968  30.976  1.00  0.00    -0.360 N 
HETATM   22  C6  UNL     1      72.623  54.214  31.039  1.00  0.00     0.180 A 
ATOM     23  H1  UNL     1      70.705  53.995  30.152  1.00  0.00     0.166 HD
HETATM   24  N2  UNL     1      73.058  54.077  32.270  1.00  0.00    -0.352 N 
ATOM     25  H2  UNL     1      74.027  54.208  32.559  1.00  0.00     0.166 HD
ENDBRANCH  14  19
ENDBRANCH  10  14
BRANCH  12  26
HETATM   26  N14 UNL     1      69.952  52.421  36.403  1.00  0.00    -0.231 N 
ATOM     27 2H14 UNL     1      69.558  51.852  35.653  1.00  0.00     0.174 HD
ATOM     28 1H14 UNL     1      70.049  51.785  37.195  1.00  0.00     0.174 HD
ENDBRANCH  12  26
BRANCH  13  29
HETATM   29  N13 UNL     1      68.606  54.498  37.680  1.00  0.00    -0.322 N 
ATOM     30 2H13 UNL     1      67.745  55.042  37.723  1.00  0.00     0.178 HD
ATOM     31 1H13 UNL     1      68.597  53.790  38.414  1.00  0.00     0.178 HD
ENDBRANCH  13  29
ENDBRANCH   1   8
BRANCH   4  32
HETATM   32  C10 UNL     1      68.647  59.365  39.371  1.00  0.00     0.155 C 
BRANCH  32  33
HETATM   33  C11 UNL     1      69.909  59.789  39.984  1.00  0.00     0.098 C 
HETATM   34  N6  UNL     1      70.704  60.662  39.366  1.00  0.00    -0.295 N 
ATOM     35  H6  UNL     1      70.496  61.071  38.456  1.00  0.00     0.187 HD
BRANCH  34  36
HETATM   36  N7  UNL     1      71.885  60.963  40.123  1.00  0.00    -0.344 N 
ATOM     37  H72 UNL     1      72.409  60.255  40.636  1.00  0.00     0.176 HD
ATOM     38  H71 UNL     1      72.132  61.952  40.087  1.00  0.00     0.176 HD
ENDBRANCH  34  36
BRANCH  33  39
HETATM   39  N8  UNL     1      70.261  59.242  41.204  1.00  0.00    -0.374 N 
ATOM     40  H8  UNL     1      70.960  58.500  41.182  1.00  0.00     0.161 HD
BRANCH  39  41
HETATM   41  C12 UNL     1      69.738  59.613  42.539  1.00  0.00     0.164 C 
BRANCH  41  42
HETATM   42  C13 UNL     1      70.585  58.742  43.468  1.00  0.00     0.010 A 
HETATM   43  C14 UNL     1      70.059  57.654  44.096  1.00  0.00     0.017 A 
HETATM   44  C15 UNL     1      70.872  56.887  44.913  1.00  0.00     0.049 A 
HETATM   45  C16 UNL     1      72.193  57.195  45.096  1.00  0.00     0.100 A 
HETATM   46  N10 UNL     1      72.686  58.309  44.444  1.00  0.00    -0.323 N 
HETATM   47  C17 UNL     1      71.888  59.085  43.636  1.00  0.00     0.149 A 
ATOM     48  H10 UNL     1      73.666  58.562  44.563  1.00  0.00     0.169 HD
BRANCH  45  49
HETATM   49  N9  UNL     1      73.009  56.472  45.763  1.00  0.00    -0.385 N 
ATOM     50  H92 UNL     1      73.087  55.484  45.523  1.00  0.00     0.157 HD
ATOM     51  H91 UNL     1      73.541  56.806  46.566  1.00  0.00     0.157 HD
ENDBRANCH  45  49
BRANCH  47  52
HETATM   52  O3  UNL     1      72.458  60.191  43.031  1.00  0.00    -0.346 OA
ATOM     53  H3  UNL     1      72.600  60.250  42.094  1.00  0.00     0.219 HD
ENDBRANCH  47  52
ENDBRANCH  41  42
ENDBRANCH  39  41
ENDBRANCH  33  39
ENDBRANCH  32  33
ENDBRANCH   4  32
TORSDOF 15
ENDMDL
