MODEL 1
REMARK VINA RESULT: -8.807427341      0.000      0.000
REMARK  11 active torsions:
REMARK  status: ('A' for Active; 'I' for Inactive)
REMARK       I    between atoms: N1_2  and  C2_4 
REMARK       I    between atoms: C2_4  and  N2_6 
REMARK    1  A    between atoms: C5_12  and  C6_13 
REMARK    2  A    between atoms: C6_13  and  O2_14 
REMARK    3  A    between atoms: C6_13  and  C7_16 
REMARK    4  A    between atoms: C6_13  and  C8_23 
REMARK    5  A    between atoms: C7_16  and  O4_18 
REMARK    6  A    between atoms: O4_18  and  N5_19 
REMARK    7  A    between atoms: N5_19  and  N6_20 
REMARK    8  A    between atoms: C11_32  and  N10_33 
REMARK    9  A    between atoms: C13_37  and  N11_38 
REMARK       I    between atoms: N11_38  and  C14_40 
REMARK   10  A    between atoms: C14_40  and  C15_42 
REMARK   11  A    between atoms: C15_42  and  S1_43 
ROOT
HETATM    1  C8  UNL     1      68.590  57.640  41.877  1.00  0.00     0.090 A 
HETATM    2  N7  UNL     1      67.707  57.682  42.896  1.00  0.00    -0.340 N 
ATOM      3  H7  UNL     1      67.625  58.470  43.540  1.00  0.00     0.167 HD
HETATM    4  C9  UNL     1      66.948  56.576  42.973  1.00  0.00     0.123 A 
HETATM    5  N8  UNL     1      65.964  56.147  43.781  1.00  0.00    -0.338 N 
ATOM      6  H8  UNL     1      65.665  56.752  44.547  1.00  0.00     0.168 HD
HETATM    7  C10 UNL     1      65.356  54.961  43.630  1.00  0.00     0.183 A 
HETATM    8  N9  UNL     1      65.751  54.166  42.626  1.00  0.00    -0.338 N 
ATOM      9  H9  UNL     1      65.306  53.258  42.489  1.00  0.00     0.168 HD
HETATM   10  C11 UNL     1      66.731  54.563  41.800  1.00  0.00     0.116 A 
HETATM   11  C12 UNL     1      67.369  55.784  41.942  1.00  0.00     0.080 A 
HETATM   12  C13 UNL     1      68.371  56.387  41.237  1.00  0.00     0.079 A 
ENDROOT
BRANCH   1  13
HETATM   13  C6  UNL     1      69.343  58.724  41.280  1.00  0.00     0.239 C 
BRANCH  13  14
HETATM   14  C5  UNL     1      70.399  59.477  41.879  1.00  0.00     0.114 A 
HETATM   15  N2  UNL     1      71.012  59.430  43.087  1.00  0.00    -0.257 N 
HETATM   16  C2  UNL     1      70.865  58.578  44.200  1.00  0.00     0.327 C 
HETATM   17  C3  UNL     1      72.086  60.304  42.985  1.00  0.00     0.194 A 
HETATM   18  N1  UNL     1      71.832  58.689  45.286  1.00  0.00    -0.347 N 
HETATM   19  O1  UNL     1      70.038  57.711  44.449  1.00  0.00    -0.246 OA
HETATM   20  C1  UNL     1      71.710  57.825  46.444  1.00  0.00     0.151 C 
ATOM     21  H1  UNL     1      72.589  59.369  45.231  1.00  0.00     0.163 HD
HETATM   22  N3  UNL     1      72.143  60.838  41.798  1.00  0.00    -0.339 N 
HETATM   23  C4  UNL     1      71.163  60.395  41.054  1.00  0.00     0.144 A 
ATOM     24  H3  UNL     1      72.850  61.507  41.494  1.00  0.00     0.167 HD
HETATM   25  N4  UNL     1      70.872  60.701  39.699  1.00  0.00    -0.080 NA
ENDBRANCH  13  14
BRANCH  13  26
HETATM   26  O2  UNL     1      69.688  58.316  39.944  1.00  0.00    -0.369 OA
ATOM     27  H2  UNL     1      70.120  57.470  39.944  1.00  0.00     0.212 HD
ENDBRANCH  13  26
BRANCH  13  28
HETATM   28  C7  UNL     1      68.209  59.770  41.023  1.00  0.00     0.326 C 
HETATM   29  O3  UNL     1      67.919  60.614  41.844  1.00  0.00    -0.259 OA
BRANCH  28  30
HETATM   30  O4  UNL     1      67.598  59.627  39.796  1.00  0.00    -0.182 OA
BRANCH  30  31
HETATM   31  N5  UNL     1      67.936  60.404  38.710  1.00  0.00     0.022 NA
BRANCH  31  32
HETATM   32  N6  UNL     1      68.354  59.508  37.706  1.00  0.00    -0.322 N 
ATOM     33  H62 UNL     1      68.462  58.499  37.804  1.00  0.00     0.174 HD
ATOM     34  H61 UNL     1      68.522  60.074  36.875  1.00  0.00     0.174 HD
ENDBRANCH  31  32
ENDBRANCH  30  31
ENDBRANCH  28  30
ENDBRANCH  13  28
ENDBRANCH   1  13
BRANCH  12  35
HETATM   35  N11 UNL     1      69.058  55.872  40.114  1.00  0.00    -0.324 N 
HETATM   36  C14 UNL     1      68.584  55.961  38.786  1.00  0.00     0.238 C 
HETATM   37  O5  UNL     1      67.485  56.527  38.552  1.00  0.00    -0.272 OA
ATOM     38  H11 UNL     1      69.952  55.406  40.272  1.00  0.00     0.169 HD
BRANCH  36  39
HETATM   39  C15 UNL     1      69.321  55.417  37.641  1.00  0.00     0.268 C 
BRANCH  39  40
HETATM   40  S1  UNL     1      69.831  56.612  36.467  1.00  0.00     0.110 S 
HETATM   41  O6  UNL     1      70.498  57.803  37.109  1.00  0.00    -0.595 OA
HETATM   42  O7  UNL     1      68.584  57.151  35.793  1.00  0.00    -0.595 OA
HETATM   43  O8  UNL     1      70.784  55.956  35.257  1.00  0.00    -0.595 OA
ENDBRANCH  39  40
ENDBRANCH  36  39
ENDBRANCH  12  35
BRANCH  10  44
HETATM   44  N10 UNL     1      67.127  53.815  40.826  1.00  0.00    -0.385 N 
ATOM     45 2H10 UNL     1      66.400  53.399  40.245  1.00  0.00     0.157 HD
ATOM     46 1H10 UNL     1      68.120  53.654  40.653  1.00  0.00     0.157 HD
ENDBRANCH  10  44
TORSDOF 11
ENDMDL
MODEL 2
REMARK VINA RESULT: -8.608077353      1.498      1.939
REMARK  11 active torsions:
REMARK  status: ('A' for Active; 'I' for Inactive)
REMARK       I    between atoms: N1_2  and  C2_4 
REMARK       I    between atoms: C2_4  and  N2_6 
REMARK    1  A    between atoms: C5_12  and  C6_13 
REMARK    2  A    between atoms: C6_13  and  O2_14 
REMARK    3  A    between atoms: C6_13  and  C7_16 
REMARK    4  A    between atoms: C6_13  and  C8_23 
REMARK    5  A    between atoms: C7_16  and  O4_18 
REMARK    6  A    between atoms: O4_18  and  N5_19 
REMARK    7  A    between atoms: N5_19  and  N6_20 
REMARK    8  A    between atoms: C11_32  and  N10_33 
REMARK    9  A    between atoms: C13_37  and  N11_38 
REMARK       I    between atoms: N11_38  and  C14_40 
REMARK   10  A    between atoms: C14_40  and  C15_42 
REMARK   11  A    between atoms: C15_42  and  S1_43 
ROOT
HETATM    1  C8  UNL     1      68.573  57.645  41.237  1.00  0.00     0.090 A 
HETATM    2  N7  UNL     1      67.635  57.559  42.202  1.00  0.00    -0.340 N 
ATOM      3  H7  UNL     1      67.459  58.296  42.886  1.00  0.00     0.167 HD
HETATM    4  C9  UNL     1      66.959  56.399  42.169  1.00  0.00     0.123 A 
HETATM    5  N8  UNL     1      65.967  55.851  42.890  1.00  0.00    -0.338 N 
ATOM      6  H8  UNL     1      65.581  56.383  43.671  1.00  0.00     0.168 HD
HETATM    7  C10 UNL     1      65.458  54.636  42.634  1.00  0.00     0.183 A 
HETATM    8  N9  UNL     1      65.966  53.936  41.609  1.00  0.00    -0.338 N 
ATOM      9  H9  UNL     1      65.599  53.009  41.392  1.00  0.00     0.168 HD
HETATM   10  C11 UNL     1      66.958  54.454  40.867  1.00  0.00     0.116 A 
HETATM   11  C12 UNL     1      67.493  55.706  41.119  1.00  0.00     0.080 A 
HETATM   12  C13 UNL     1      68.484  56.422  40.512  1.00  0.00     0.079 A 
ENDROOT
BRANCH   1  13
HETATM   13  C6  UNL     1      69.274  58.815  40.750  1.00  0.00     0.239 C 
BRANCH  13  14
HETATM   14  C5  UNL     1      70.275  59.572  41.435  1.00  0.00     0.114 A 
HETATM   15  N2  UNL     1      70.805  59.509  42.681  1.00  0.00    -0.257 N 
HETATM   16  C2  UNL     1      70.595  58.633  43.765  1.00  0.00     0.327 C 
HETATM   17  C3  UNL     1      71.869  60.401  42.670  1.00  0.00     0.194 A 
HETATM   18  N1  UNL     1      71.484  58.736  44.916  1.00  0.00    -0.347 N 
HETATM   19  O1  UNL     1      69.768  57.749  43.940  1.00  0.00    -0.246 OA
HETATM   20  C1  UNL     1      71.297  57.847  46.046  1.00  0.00     0.151 C 
ATOM     21  H1  UNL     1      72.233  59.428  44.927  1.00  0.00     0.163 HD
HETATM   22  N3  UNL     1      71.998  60.960  41.501  1.00  0.00    -0.339 N 
HETATM   23  C4  UNL     1      71.079  60.518  40.682  1.00  0.00     0.144 A 
ATOM     24  H3  UNL     1      72.713  61.645  41.258  1.00  0.00     0.167 HD
HETATM   25  N4  UNL     1      70.876  60.846  39.316  1.00  0.00    -0.080 NA
ENDBRANCH  13  14
BRANCH  13  26
HETATM   26  O2  UNL     1      69.667  58.543  39.394  1.00  0.00    -0.369 OA
ATOM     27  H2  UNL     1      69.058  57.946  38.973  1.00  0.00     0.212 HD
ENDBRANCH  13  26
BRANCH  13  28
HETATM   28  C7  UNL     1      68.088  59.816  40.556  1.00  0.00     0.326 C 
HETATM   29  O3  UNL     1      67.663  60.099  39.456  1.00  0.00    -0.259 OA
BRANCH  28  30
HETATM   30  O4  UNL     1      67.599  60.322  41.740  1.00  0.00    -0.182 OA
BRANCH  30  31
HETATM   31  N5  UNL     1      66.295  60.130  42.140  1.00  0.00     0.022 NA
BRANCH  31  32
HETATM   32  N6  UNL     1      65.943  61.275  42.883  1.00  0.00    -0.322 N 
ATOM     33  H62 UNL     1      66.255  62.229  42.705  1.00  0.00     0.174 HD
ATOM     34  H61 UNL     1      65.321  60.950  43.624  1.00  0.00     0.174 HD
ENDBRANCH  31  32
ENDBRANCH  30  31
ENDBRANCH  28  30
ENDBRANCH  13  28
ENDBRANCH   1  13
BRANCH  12  35
HETATM   35  N11 UNL     1      69.268  56.030  39.403  1.00  0.00    -0.324 N 
HETATM   36  C14 UNL     1      68.874  56.192  38.056  1.00  0.00     0.238 C 
HETATM   37  O5  UNL     1      67.760  56.715  37.791  1.00  0.00    -0.272 OA
ATOM     38  H11 UNL     1      70.176  55.602  39.586  1.00  0.00     0.169 HD
BRANCH  36  39
HETATM   39  C15 UNL     1      69.711  55.775  36.926  1.00  0.00     0.268 C 
BRANCH  39  40
HETATM   40  S1  UNL     1      69.801  54.042  36.687  1.00  0.00     0.110 S 
HETATM   41  O6  UNL     1      68.566  53.485  36.025  1.00  0.00    -0.595 OA
HETATM   42  O7  UNL     1      69.862  53.396  38.057  1.00  0.00    -0.595 OA
HETATM   43  O8  UNL     1      71.191  53.579  35.877  1.00  0.00    -0.595 OA
ENDBRANCH  39  40
ENDBRANCH  36  39
ENDBRANCH  12  35
BRANCH  10  44
HETATM   44  N10 UNL     1      67.461  53.799  39.876  1.00  0.00    -0.385 N 
ATOM     45 2H10 UNL     1      67.062  52.880  39.686  1.00  0.00     0.157 HD
ATOM     46 1H10 UNL     1      68.220  54.190  39.317  1.00  0.00     0.157 HD
ENDBRANCH  10  44
TORSDOF 11
ENDMDL
MODEL 3
REMARK VINA RESULT: -8.548405201      0.919      1.379
REMARK  11 active torsions:
REMARK  status: ('A' for Active; 'I' for Inactive)
REMARK       I    between atoms: N1_2  and  C2_4 
REMARK       I    between atoms: C2_4  and  N2_6 
REMARK    1  A    between atoms: C5_12  and  C6_13 
REMARK    2  A    between atoms: C6_13  and  O2_14 
REMARK    3  A    between atoms: C6_13  and  C7_16 
REMARK    4  A    between atoms: C6_13  and  C8_23 
REMARK    5  A    between atoms: C7_16  and  O4_18 
REMARK    6  A    between atoms: O4_18  and  N5_19 
REMARK    7  A    between atoms: N5_19  and  N6_20 
REMARK    8  A    between atoms: C11_32  and  N10_33 
REMARK    9  A    between atoms: C13_37  and  N11_38 
REMARK       I    between atoms: N11_38  and  C14_40 
REMARK   10  A    between atoms: C14_40  and  C15_42 
REMARK   11  A    between atoms: C15_42  and  S1_43 
ROOT
HETATM    1  C8  UNL     1      68.495  57.579  41.565  1.00  0.00     0.090 A 
HETATM    2  N7  UNL     1      67.575  57.576  42.552  1.00  0.00    -0.340 N 
ATOM      3  H7  UNL     1      67.433  58.356  43.194  1.00  0.00     0.167 HD
HETATM    4  C9  UNL     1      66.867  56.435  42.599  1.00  0.00     0.123 A 
HETATM    5  N8  UNL     1      65.875  55.957  43.370  1.00  0.00    -0.338 N 
ATOM      6  H8  UNL     1      65.520  56.545  44.125  1.00  0.00     0.168 HD
HETATM    7  C10 UNL     1      65.330  54.745  43.194  1.00  0.00     0.183 A 
HETATM    8  N9  UNL     1      65.797  53.972  42.203  1.00  0.00    -0.338 N 
ATOM      9  H9  UNL     1      65.400  53.045  42.048  1.00  0.00     0.168 HD
HETATM   10  C11 UNL     1      66.787  54.418  41.414  1.00  0.00     0.116 A 
HETATM   11  C12 UNL     1      67.361  55.667  41.582  1.00  0.00     0.080 A 
HETATM   12  C13 UNL     1      68.359  56.319  40.915  1.00  0.00     0.079 A 
ENDROOT
BRANCH   1  13
HETATM   13  C6  UNL     1      69.218  58.698  40.998  1.00  0.00     0.239 C 
BRANCH  13  14
HETATM   14  C5  UNL     1      70.224  59.490  41.633  1.00  0.00     0.114 A 
HETATM   15  N2  UNL     1      70.797  59.465  42.862  1.00  0.00    -0.257 N 
HETATM   16  C2  UNL     1      70.643  58.607  43.969  1.00  0.00     0.327 C 
HETATM   17  C3  UNL     1      71.841  60.379  42.796  1.00  0.00     0.194 A 
HETATM   18  N1  UNL     1      71.568  58.753  45.087  1.00  0.00    -0.347 N 
HETATM   19  O1  UNL     1      69.842  57.710  44.190  1.00  0.00    -0.246 OA
HETATM   20  C1  UNL     1      71.438  57.885  46.241  1.00  0.00     0.151 C 
ATOM     21  H1  UNL     1      72.301  59.462  45.058  1.00  0.00     0.163 HD
HETATM   22  N3  UNL     1      71.918  60.915  41.611  1.00  0.00    -0.339 N 
HETATM   23  C4  UNL     1      70.982  60.437  40.834  1.00  0.00     0.144 A 
ATOM     24  H3  UNL     1      72.610  61.610  41.330  1.00  0.00     0.167 HD
HETATM   25  N4  UNL     1      70.726  60.732  39.470  1.00  0.00    -0.080 NA
ENDBRANCH  13  14
BRANCH  13  26
HETATM   26  O2  UNL     1      69.617  58.318  39.670  1.00  0.00    -0.369 OA
ATOM     27  H2  UNL     1      70.228  58.946  39.302  1.00  0.00     0.212 HD
ENDBRANCH  13  26
BRANCH  13  28
HETATM   28  C7  UNL     1      68.048  59.699  40.718  1.00  0.00     0.326 C 
HETATM   29  O3  UNL     1      67.657  59.927  39.593  1.00  0.00    -0.259 OA
BRANCH  28  30
HETATM   30  O4  UNL     1      67.532  60.271  41.860  1.00  0.00    -0.182 OA
BRANCH  30  31
HETATM   31  N5  UNL     1      66.202  60.162  42.202  1.00  0.00     0.022 NA
BRANCH  31  32
HETATM   32  N6  UNL     1      65.908  61.296  42.986  1.00  0.00    -0.322 N 
ATOM     33  H62 UNL     1      66.322  62.222  42.887  1.00  0.00     0.174 HD
ATOM     34  H61 UNL     1      65.205  60.996  43.662  1.00  0.00     0.174 HD
ENDBRANCH  31  32
ENDBRANCH  30  31
ENDBRANCH  28  30
ENDBRANCH  13  28
ENDBRANCH   1  13
BRANCH  12  35
HETATM   35  N11 UNL     1      69.109  55.841  39.817  1.00  0.00    -0.324 N 
HETATM   36  C14 UNL     1      68.598  55.706  38.507  1.00  0.00     0.238 C 
HETATM   37  O5  UNL     1      67.404  56.021  38.267  1.00  0.00    -0.272 OA
ATOM     38  H11 UNL     1      70.081  55.576  39.980  1.00  0.00     0.169 HD
BRANCH  36  39
HETATM   39  C15 UNL     1      69.403  55.207  37.387  1.00  0.00     0.268 C 
BRANCH  39  40
HETATM   40  S1  UNL     1      69.942  56.442  36.268  1.00  0.00     0.110 S 
HETATM   41  O6  UNL     1      70.584  57.615  36.968  1.00  0.00    -0.595 OA
HETATM   42  O7  UNL     1      68.712  56.998  35.576  1.00  0.00    -0.595 OA
HETATM   43  O8  UNL     1      70.933  55.830  35.066  1.00  0.00    -0.595 OA
ENDBRANCH  39  40
ENDBRANCH  36  39
ENDBRANCH  12  35
BRANCH  10  44
HETATM   44  N10 UNL     1      67.253  53.693  40.453  1.00  0.00    -0.385 N 
ATOM     45 2H10 UNL     1      67.498  52.731  40.685  1.00  0.00     0.157 HD
ATOM     46 1H10 UNL     1      67.365  54.072  39.513  1.00  0.00     0.157 HD
ENDBRANCH  10  44
TORSDOF 11
ENDMDL
MODEL 4
REMARK VINA RESULT: -8.351370951      1.199      1.399
REMARK  11 active torsions:
REMARK  status: ('A' for Active; 'I' for Inactive)
REMARK       I    between atoms: N1_2  and  C2_4 
REMARK       I    between atoms: C2_4  and  N2_6 
REMARK    1  A    between atoms: C5_12  and  C6_13 
REMARK    2  A    between atoms: C6_13  and  O2_14 
REMARK    3  A    between atoms: C6_13  and  C7_16 
REMARK    4  A    between atoms: C6_13  and  C8_23 
REMARK    5  A    between atoms: C7_16  and  O4_18 
REMARK    6  A    between atoms: O4_18  and  N5_19 
REMARK    7  A    between atoms: N5_19  and  N6_20 
REMARK    8  A    between atoms: C11_32  and  N10_33 
REMARK    9  A    between atoms: C13_37  and  N11_38 
REMARK       I    between atoms: N11_38  and  C14_40 
REMARK   10  A    between atoms: C14_40  and  C15_42 
REMARK   11  A    between atoms: C15_42  and  S1_43 
ROOT
HETATM    1  C8  UNL     1      68.704  57.472  41.608  1.00  0.00     0.090 A 
HETATM    2  N7  UNL     1      67.810  57.394  42.615  1.00  0.00    -0.340 N 
ATOM      3  H7  UNL     1      67.673  58.131  43.307  1.00  0.00     0.167 HD
HETATM    4  C9  UNL     1      67.119  56.242  42.608  1.00  0.00     0.123 A 
HETATM    5  N8  UNL     1      66.153  55.703  43.372  1.00  0.00    -0.338 N 
ATOM      6  H8  UNL     1      65.810  56.237  44.170  1.00  0.00     0.168 HD
HETATM    7  C10 UNL     1      65.620  54.495  43.135  1.00  0.00     0.183 A 
HETATM    8  N9  UNL     1      66.073  53.792  42.087  1.00  0.00    -0.338 N 
ATOM      9  H9  UNL     1      65.686  52.871  41.884  1.00  0.00     0.168 HD
HETATM   10  C11 UNL     1      67.037  54.301  41.303  1.00  0.00     0.116 A 
HETATM   11  C12 UNL     1      67.598  55.546  41.534  1.00  0.00     0.080 A 
HETATM   12  C13 UNL     1      68.569  56.252  40.885  1.00  0.00     0.079 A 
ENDROOT
BRANCH   1  13
HETATM   13  C6  UNL     1      69.397  58.635  41.094  1.00  0.00     0.239 C 
BRANCH  13  14
HETATM   14  C5  UNL     1      70.375  59.429  41.769  1.00  0.00     0.114 A 
HETATM   15  N2  UNL     1      70.933  59.376  43.004  1.00  0.00    -0.257 N 
HETATM   16  C2  UNL     1      70.787  58.476  44.079  1.00  0.00     0.327 C 
HETATM   17  C3  UNL     1      71.953  60.317  42.984  1.00  0.00     0.194 A 
HETATM   18  N1  UNL     1      71.693  58.606  45.214  1.00  0.00    -0.347 N 
HETATM   19  O1  UNL     1      70.006  57.552  44.258  1.00  0.00    -0.246 OA
HETATM   20  C1  UNL     1      71.571  57.695  46.335  1.00  0.00     0.151 C 
ATOM     21  H1  UNL     1      72.408  59.333  45.219  1.00  0.00     0.163 HD
HETATM   22  N3  UNL     1      72.032  60.896  41.820  1.00  0.00    -0.339 N 
HETATM   23  C4  UNL     1      71.118  60.422  41.013  1.00  0.00     0.144 A 
ATOM     24  H3  UNL     1      72.709  61.617  41.572  1.00  0.00     0.167 HD
HETATM   25  N4  UNL     1      70.872  60.758  39.657  1.00  0.00    -0.080 NA
ENDBRANCH  13  14
BRANCH  13  26
HETATM   26  O2  UNL     1      69.817  58.323  39.754  1.00  0.00    -0.369 OA
ATOM     27  H2  UNL     1      69.076  58.293  39.160  1.00  0.00     0.212 HD
ENDBRANCH  13  26
BRANCH  13  28
HETATM   28  C7  UNL     1      68.200  59.611  40.846  1.00  0.00     0.326 C 
HETATM   29  O3  UNL     1      67.828  60.396  41.693  1.00  0.00    -0.259 OA
BRANCH  28  30
HETATM   30  O4  UNL     1      67.636  59.481  39.596  1.00  0.00    -0.182 OA
BRANCH  30  31
HETATM   31  N5  UNL     1      67.988  60.294  38.542  1.00  0.00     0.022 NA
BRANCH  31  32
HETATM   32  N6  UNL     1      68.506  59.441  37.547  1.00  0.00    -0.322 N 
ATOM     33  H62 UNL     1      69.422  58.993  37.554  1.00  0.00     0.174 HD
ATOM     34  H61 UNL     1      67.782  59.368  36.833  1.00  0.00     0.174 HD
ENDBRANCH  31  32
ENDBRANCH  30  31
ENDBRANCH  28  30
ENDBRANCH  13  28
ENDBRANCH   1  13
BRANCH  12  35
HETATM   35  N11 UNL     1      69.298  55.854  39.741  1.00  0.00    -0.324 N 
HETATM   36  C14 UNL     1      68.836  56.005  38.415  1.00  0.00     0.238 C 
HETATM   37  O5  UNL     1      67.709  56.521  38.201  1.00  0.00    -0.272 OA
ATOM     38  H11 UNL     1      70.216  55.432  39.882  1.00  0.00     0.169 HD
BRANCH  36  39
HETATM   39  C15 UNL     1      69.617  55.582  37.248  1.00  0.00     0.268 C 
BRANCH  39  40
HETATM   40  S1  UNL     1      69.612  53.855  36.954  1.00  0.00     0.110 S 
HETATM   41  O6  UNL     1      68.323  53.378  36.332  1.00  0.00    -0.595 OA
HETATM   42  O7  UNL     1      69.702  53.164  38.301  1.00  0.00    -0.595 OA
HETATM   43  O8  UNL     1      70.941  53.352  36.069  1.00  0.00    -0.595 OA
ENDBRANCH  39  40
ENDBRANCH  36  39
ENDBRANCH  12  35
BRANCH  10  44
HETATM   44  N10 UNL     1      67.488  53.643  40.289  1.00  0.00    -0.385 N 
ATOM     45 2H10 UNL     1      66.795  53.284  39.633  1.00  0.00     0.157 HD
ATOM     46 1H10 UNL     1      68.489  53.496  40.158  1.00  0.00     0.157 HD
ENDBRANCH  10  44
TORSDOF 11
ENDMDL
MODEL 5
REMARK VINA RESULT: -8.298038673      1.158      1.330
REMARK  11 active torsions:
REMARK  status: ('A' for Active; 'I' for Inactive)
REMARK       I    between atoms: N1_2  and  C2_4 
REMARK       I    between atoms: C2_4  and  N2_6 
REMARK    1  A    between atoms: C5_12  and  C6_13 
REMARK    2  A    between atoms: C6_13  and  O2_14 
REMARK    3  A    between atoms: C6_13  and  C7_16 
REMARK    4  A    between atoms: C6_13  and  C8_23 
REMARK    5  A    between atoms: C7_16  and  O4_18 
REMARK    6  A    between atoms: O4_18  and  N5_19 
REMARK    7  A    between atoms: N5_19  and  N6_20 
REMARK    8  A    between atoms: C11_32  and  N10_33 
REMARK    9  A    between atoms: C13_37  and  N11_38 
REMARK       I    between atoms: N11_38  and  C14_40 
REMARK   10  A    between atoms: C14_40  and  C15_42 
REMARK   11  A    between atoms: C15_42  and  S1_43 
ROOT
HETATM    1  C8  UNL     1      68.242  57.693  42.485  1.00  0.00     0.090 A 
HETATM    2  N7  UNL     1      67.579  57.991  43.621  1.00  0.00    -0.340 N 
ATOM      3  H7  UNL     1      67.807  58.788  44.216  1.00  0.00     0.167 HD
HETATM    4  C9  UNL     1      66.585  57.126  43.886  1.00  0.00     0.123 A 
HETATM    5  N8  UNL     1      65.670  56.992  44.861  1.00  0.00    -0.338 N 
ATOM      6  H8  UNL     1      65.665  57.673  45.620  1.00  0.00     0.168 HD
HETATM    7  C10 UNL     1      64.762  56.004  44.883  1.00  0.00     0.183 A 
HETATM    8  N9  UNL     1      64.770  55.108  43.886  1.00  0.00    -0.338 N 
ATOM      9  H9  UNL     1      64.092  54.346  43.879  1.00  0.00     0.168 HD
HETATM   10  C11 UNL     1      65.671  55.213  42.896  1.00  0.00     0.116 A 
HETATM   11  C12 UNL     1      66.614  56.226  42.859  1.00  0.00     0.080 A 
HETATM   12  C13 UNL     1      67.608  56.526  41.971  1.00  0.00     0.079 A 
ENDROOT
BRANCH   1  13
HETATM   13  C6  UNL     1      69.139  58.524  41.710  1.00  0.00     0.239 C 
BRANCH  13  14
HETATM   14  C5  UNL     1      70.255  59.276  42.191  1.00  0.00     0.114 A 
HETATM   15  N2  UNL     1      70.946  59.283  43.358  1.00  0.00    -0.257 N 
HETATM   16  C2  UNL     1      70.846  58.507  44.530  1.00  0.00     0.327 C 
HETATM   17  C3  UNL     1      72.037  60.111  43.131  1.00  0.00     0.194 A 
HETATM   18  N1  UNL     1      71.886  58.651  45.542  1.00  0.00    -0.347 N 
HETATM   19  O1  UNL     1      70.011  57.686  44.887  1.00  0.00    -0.246 OA
HETATM   20  C1  UNL     1      71.814  57.866  46.759  1.00  0.00     0.151 C 
ATOM     21  H1  UNL     1      72.659  59.300  45.396  1.00  0.00     0.163 HD
HETATM   22  N3  UNL     1      72.031  60.568  41.911  1.00  0.00    -0.339 N 
HETATM   23  C4  UNL     1      70.991  60.114  41.261  1.00  0.00     0.144 A 
ATOM     24  H3  UNL     1      72.736  61.192  41.520  1.00  0.00     0.167 HD
HETATM   25  N4  UNL     1      70.620  60.345  39.911  1.00  0.00    -0.080 NA
ENDBRANCH  13  14
BRANCH  13  26
HETATM   26  O2  UNL     1      69.480  57.789  40.522  1.00  0.00    -0.369 OA
ATOM     27  H2  UNL     1      68.934  58.047  39.789  1.00  0.00     0.212 HD
ENDBRANCH  13  26
BRANCH  13  28
HETATM   28  C7  UNL     1      68.147  59.601  41.159  1.00  0.00     0.326 C 
HETATM   29  O3  UNL     1      67.836  60.577  41.808  1.00  0.00    -0.259 OA
BRANCH  28  30
HETATM   30  O4  UNL     1      67.683  59.321  39.892  1.00  0.00    -0.182 OA
BRANCH  30  31
HETATM   31  N5  UNL     1      67.889  60.172  38.828  1.00  0.00     0.022 NA
BRANCH  31  32
HETATM   32  N6  UNL     1      68.586  59.422  37.860  1.00  0.00    -0.322 N 
ATOM     33  H62 UNL     1      68.376  59.380  36.863  1.00  0.00     0.174 HD
ATOM     34  H61 UNL     1      69.332  58.939  38.360  1.00  0.00     0.174 HD
ENDBRANCH  31  32
ENDBRANCH  30  31
ENDBRANCH  28  30
ENDBRANCH  13  28
ENDBRANCH   1  13
BRANCH  12  35
HETATM   35  N11 UNL     1      67.947  55.820  40.794  1.00  0.00    -0.324 N 
HETATM   36  C14 UNL     1      67.137  55.772  39.638  1.00  0.00     0.238 C 
HETATM   37  O5  UNL     1      66.037  56.384  39.620  1.00  0.00    -0.272 OA
ATOM     38  H11 UNL     1      68.832  55.313  40.778  1.00  0.00     0.169 HD
BRANCH  36  39
HETATM   39  C15 UNL     1      67.516  55.031  38.431  1.00  0.00     0.268 C 
BRANCH  39  40
HETATM   40  S1  UNL     1      69.171  55.280  37.913  1.00  0.00     0.110 S 
HETATM   41  O6  UNL     1      70.168  54.593  38.812  1.00  0.00    -0.595 OA
HETATM   42  O7  UNL     1      69.466  56.763  38.026  1.00  0.00    -0.595 OA
HETATM   43  O8  UNL     1      69.409  54.867  36.308  1.00  0.00    -0.595 OA
ENDBRANCH  39  40
ENDBRANCH  36  39
ENDBRANCH  12  35
BRANCH  10  44
HETATM   44  N10 UNL     1      65.697  54.362  41.926  1.00  0.00    -0.385 N 
ATOM     45 2H10 UNL     1      65.220  54.634  41.067  1.00  0.00     0.157 HD
ATOM     46 1H10 UNL     1      66.176  53.466  42.022  1.00  0.00     0.157 HD
ENDBRANCH  10  44
TORSDOF 11
ENDMDL
