MODEL 1
REMARK VINA RESULT: -8.729513571      0.000      0.000
REMARK  16 active torsions:
REMARK  status: ('A' for Active; 'I' for Inactive)
REMARK    1  A    between atoms: N1_1  and  C1_4 
REMARK    2  A    between atoms: C3_12  and  S1_13 
REMARK    3  A    between atoms: S1_13  and  C4_14 
REMARK    4  A    between atoms: C4_14  and  C5_15 
REMARK    5  A    between atoms: C5_15  and  N5_16 
REMARK    6  A    between atoms: N5_16  and  C6_18 
REMARK    7  A    between atoms: C8_20  and  C9_21 
REMARK    8  A    between atoms: C9_21  and  O1_22 
REMARK    9  A    between atoms: C9_21  and  O2_24 
REMARK   10  A    between atoms: C11_28  and  O4_29 
REMARK   11  A    between atoms: C11_28  and  C12_31 
REMARK   12  A    between atoms: C12_31  and  O5_32 
REMARK   13  A    between atoms: C12_31  and  C13_34 
REMARK   14  A    between atoms: C13_34  and  O6_35 
REMARK   15  A    between atoms: C14_37  and  O7_38 
REMARK   16  A    between atoms: N6_40  and  N7_41 
ROOT
HETATM    1  N5  UNL     1      67.383  58.032  43.108  1.00  0.00    -0.387 N 
ATOM      2  H5  UNL     1      66.938  58.201  44.010  1.00  0.00     0.159 HD
ENDROOT
BRANCH   1   3
HETATM    3  C5  UNL     1      66.559  57.417  42.124  1.00  0.00     0.130 C 
BRANCH   3   4
HETATM    4  C4  UNL     1      66.995  55.986  41.857  1.00  0.00     0.102 C 
BRANCH   4   5
HETATM    5  S1  UNL     1      66.772  55.556  40.106  1.00  0.00    -0.090 SA
BRANCH   5   6
HETATM    6  C3  UNL     1      67.817  56.525  39.046  1.00  0.00     0.168 A 
HETATM    7  N4  UNL     1      67.899  57.872  39.140  1.00  0.00    -0.320 N 
HETATM    8  C2  UNL     1      68.705  58.580  38.315  1.00  0.00     0.139 A 
ATOM      9  H4  UNL     1      67.345  58.362  39.843  1.00  0.00     0.169 HD
HETATM   10  N3  UNL     1      68.948  59.919  38.221  1.00  0.00    -0.283 N 
HETATM   11  C16 UNL     1      69.460  57.922  37.358  1.00  0.00     0.094 A 
HETATM   12  N2  UNL     1      69.812  60.106  37.256  1.00  0.00    -0.283 N 
ATOM     13  H3  UNL     1      68.529  60.647  38.801  1.00  0.00     0.188 HD
HETATM   14  C1  UNL     1      70.159  58.899  36.692  1.00  0.00     0.131 A 
ATOM     15  H2  UNL     1      70.176  61.013  36.965  1.00  0.00     0.188 HD
HETATM   16  C15 UNL     1      69.373  56.542  37.266  1.00  0.00     0.142 A 
HETATM   17  N6  UNL     1      68.551  55.890  38.116  1.00  0.00    -0.228 N 
HETATM   18  S2  UNL     1      70.235  55.730  36.163  1.00  0.00    -0.057 SA
BRANCH  14  19
HETATM   19  N1  UNL     1      70.974  58.743  35.734  1.00  0.00    -0.384 N 
ATOM     20  H12 UNL     1      70.755  58.677  34.739  1.00  0.00     0.157 HD
ATOM     21  H11 UNL     1      71.986  58.661  35.826  1.00  0.00     0.157 HD
ENDBRANCH  14  19
BRANCH  17  22
HETATM   22  N7  UNL     1      68.474  54.506  38.011  1.00  0.00    -0.335 N 
ATOM     23  H72 UNL     1      67.555  54.091  37.858  1.00  0.00     0.177 HD
ATOM     24  H71 UNL     1      69.325  53.948  38.088  1.00  0.00     0.177 HD
ENDBRANCH  17  22
ENDBRANCH   5   6
ENDBRANCH   4   5
ENDBRANCH   3   4
ENDBRANCH   1   3
BRANCH   1  25
HETATM   25  C6  UNL     1      68.595  58.401  43.017  1.00  0.00     0.067 A 
HETATM   26  C7  UNL     1      69.084  59.173  41.996  1.00  0.00     0.070 A 
HETATM   27  C8  UNL     1      70.435  59.518  42.003  1.00  0.00     0.110 A 
HETATM   28  O3  UNL     1      71.192  59.119  42.943  1.00  0.00    -0.304 OA
HETATM   29  C10 UNL     1      70.836  58.358  44.000  1.00  0.00     0.142 A 
HETATM   30  C11 UNL     1      71.841  58.007  44.963  1.00  0.00     0.110 C 
HETATM   31  C14 UNL     1      69.515  58.009  44.012  1.00  0.00     0.129 A 
BRANCH  27  32
HETATM   32  C9  UNL     1      70.949  60.359  40.885  1.00  0.00     0.312 C 
BRANCH  32  33
HETATM   33  O1  UNL     1      69.973  61.277  40.452  1.00  0.00    -0.365 OA
ATOM     34  H1  UNL     1      70.361  61.967  39.926  1.00  0.00     0.213 HD
ENDBRANCH  32  33
BRANCH  32  35
HETATM   35  O2  UNL     1      72.109  60.994  41.247  1.00  0.00    -0.365 OA
ATOM     36  H2  UNL     1      72.027  61.934  41.136  1.00  0.00     0.213 HD
ENDBRANCH  32  35
ENDBRANCH  27  32
BRANCH  30  37
HETATM   37  O4  UNL     1      73.029  58.522  44.634  1.00  0.00    -0.359 OA
ATOM     38  H4  UNL     1      73.458  58.002  43.965  1.00  0.00     0.217 HD
ENDBRANCH  30  37
BRANCH  30  39
HETATM   39  C12 UNL     1      71.873  57.248  46.175  1.00  0.00     0.201 C 
BRANCH  39  40
HETATM   40  O5  UNL     1      72.887  56.418  46.442  1.00  0.00    -0.387 OA
ATOM     41  H5  UNL     1      73.380  56.004  45.743  1.00  0.00     0.210 HD
ENDBRANCH  39  40
BRANCH  39  42
HETATM   42  C13 UNL     1      71.671  58.249  47.364  1.00  0.00     0.202 C 
BRANCH  42  43
HETATM   43  O6  UNL     1      72.744  58.004  48.219  1.00  0.00    -0.398 OA
ATOM     44  H6  UNL     1      72.345  57.728  49.036  1.00  0.00     0.209 HD
ENDBRANCH  42  43
ENDBRANCH  39  42
ENDBRANCH  30  39
BRANCH  31  45
HETATM   45  O7  UNL     1      69.009  57.231  45.035  1.00  0.00    -0.356 OA
ATOM     46  H7  UNL     1      69.476  57.272  45.861  1.00  0.00     0.218 HD
ENDBRANCH  31  45
ENDBRANCH   1  25
TORSDOF 16
ENDMDL
MODEL 2
REMARK VINA RESULT: -8.696446356      1.313      3.747
REMARK  16 active torsions:
REMARK  status: ('A' for Active; 'I' for Inactive)
REMARK    1  A    between atoms: N1_1  and  C1_4 
REMARK    2  A    between atoms: C3_12  and  S1_13 
REMARK    3  A    between atoms: S1_13  and  C4_14 
REMARK    4  A    between atoms: C4_14  and  C5_15 
REMARK    5  A    between atoms: C5_15  and  N5_16 
REMARK    6  A    between atoms: N5_16  and  C6_18 
REMARK    7  A    between atoms: C8_20  and  C9_21 
REMARK    8  A    between atoms: C9_21  and  O1_22 
REMARK    9  A    between atoms: C9_21  and  O2_24 
REMARK   10  A    between atoms: C11_28  and  O4_29 
REMARK   11  A    between atoms: C11_28  and  C12_31 
REMARK   12  A    between atoms: C12_31  and  O5_32 
REMARK   13  A    between atoms: C12_31  and  C13_34 
REMARK   14  A    between atoms: C13_34  and  O6_35 
REMARK   15  A    between atoms: C14_37  and  O7_38 
REMARK   16  A    between atoms: N6_40  and  N7_41 
ROOT
HETATM    1  N5  UNL     1      69.345  55.703  43.216  1.00  0.00    -0.387 N 
ATOM      2  H5  UNL     1      69.935  54.889  43.043  1.00  0.00     0.159 HD
ENDROOT
BRANCH   1   3
HETATM    3  C5  UNL     1      67.989  55.573  42.808  1.00  0.00     0.130 C 
BRANCH   3   4
HETATM    4  C4  UNL     1      67.857  54.634  41.620  1.00  0.00     0.102 C 
BRANCH   4   5
HETATM    5  S1  UNL     1      66.865  55.392  40.301  1.00  0.00    -0.090 SA
BRANCH   5   6
HETATM    6  C3  UNL     1      67.854  56.389  39.215  1.00  0.00     0.168 A 
HETATM    7  N4  UNL     1      67.957  57.731  39.352  1.00  0.00    -0.320 N 
HETATM    8  C2  UNL     1      68.720  58.461  38.505  1.00  0.00     0.139 A 
ATOM      9  H4  UNL     1      67.453  58.199  40.105  1.00  0.00     0.169 HD
HETATM   10  N3  UNL     1      68.972  59.800  38.445  1.00  0.00    -0.283 N 
HETATM   11  C16 UNL     1      69.407  57.832  37.481  1.00  0.00     0.094 A 
HETATM   12  N2  UNL     1      69.778  60.015  37.436  1.00  0.00    -0.283 N 
ATOM     13  H3  UNL     1      68.598  60.510  39.076  1.00  0.00     0.188 HD
HETATM   14  C1  UNL     1      70.075  58.826  36.809  1.00  0.00     0.131 A 
ATOM     15  H2  UNL     1      70.134  60.928  37.156  1.00  0.00     0.188 HD
HETATM   16  C15 UNL     1      69.298  56.456  37.345  1.00  0.00     0.142 A 
HETATM   17  N6  UNL     1      68.523  55.782  38.219  1.00  0.00    -0.228 N 
HETATM   18  S2  UNL     1      70.082  55.678  36.162  1.00  0.00    -0.057 SA
BRANCH  14  19
HETATM   19  N1  UNL     1      70.829  58.698  35.797  1.00  0.00    -0.384 N 
ATOM     20  H12 UNL     1      71.691  59.205  35.600  1.00  0.00     0.157 HD
ATOM     21  H11 UNL     1      70.673  58.053  35.023  1.00  0.00     0.157 HD
ENDBRANCH  14  19
BRANCH  17  22
HETATM   22  N7  UNL     1      68.423  54.403  38.069  1.00  0.00    -0.335 N 
ATOM     23  H72 UNL     1      68.147  53.855  38.883  1.00  0.00     0.177 HD
ATOM     24  H71 UNL     1      68.625  53.981  37.162  1.00  0.00     0.177 HD
ENDBRANCH  17  22
ENDBRANCH   5   6
ENDBRANCH   4   5
ENDBRANCH   3   4
ENDBRANCH   1   3
BRANCH   1  25
HETATM   25  C6  UNL     1      69.923  56.691  43.767  1.00  0.00     0.067 A 
HETATM   26  C7  UNL     1      70.419  56.672  45.044  1.00  0.00     0.070 A 
HETATM   27  C8  UNL     1      71.035  57.818  45.542  1.00  0.00     0.110 A 
HETATM   28  O3  UNL     1      71.132  58.858  44.818  1.00  0.00    -0.304 OA
HETATM   29  C10 UNL     1      70.688  59.006  43.552  1.00  0.00     0.142 A 
HETATM   30  C11 UNL     1      70.892  60.266  42.895  1.00  0.00     0.110 C 
HETATM   31  C14 UNL     1      70.080  57.892  43.045  1.00  0.00     0.129 A 
BRANCH  27  32
HETATM   32  C9  UNL     1      71.569  57.778  46.933  1.00  0.00     0.312 C 
BRANCH  32  33
HETATM   33  O1  UNL     1      72.629  56.858  47.043  1.00  0.00    -0.365 OA
ATOM     34  H1  UNL     1      72.319  56.012  47.345  1.00  0.00     0.213 HD
ENDBRANCH  32  33
BRANCH  32  35
HETATM   35  O2  UNL     1      71.946  59.030  47.347  1.00  0.00    -0.365 OA
ATOM     36  H2  UNL     1      72.152  59.031  48.274  1.00  0.00     0.213 HD
ENDBRANCH  32  35
ENDBRANCH  27  32
BRANCH  30  37
HETATM   37  O4  UNL     1      71.524  61.132  43.693  1.00  0.00    -0.359 OA
ATOM     38  H4  UNL     1      71.385  62.028  43.409  1.00  0.00     0.217 HD
ENDBRANCH  30  37
BRANCH  30  39
HETATM   39  C12 UNL     1      70.584  60.808  41.608  1.00  0.00     0.201 C 
BRANCH  39  40
HETATM   40  O5  UNL     1      70.960  60.182  40.488  1.00  0.00    -0.387 OA
ATOM     41  H5  UNL     1      70.609  60.437  39.643  1.00  0.00     0.210 HD
ENDBRANCH  39  40
BRANCH  39  42
HETATM   42  C13 UNL     1      69.043  61.092  41.573  1.00  0.00     0.202 C 
BRANCH  42  43
HETATM   43  O6  UNL     1      68.837  62.052  42.563  1.00  0.00    -0.398 OA
ATOM     44  H6  UNL     1      67.997  62.443  42.350  1.00  0.00     0.209 HD
ENDBRANCH  42  43
ENDBRANCH  39  42
ENDBRANCH  30  39
BRANCH  31  45
HETATM   45  O7  UNL     1      69.576  57.899  41.758  1.00  0.00    -0.356 OA
ATOM     46  H7  UNL     1      68.947  58.582  41.560  1.00  0.00     0.218 HD
ENDBRANCH  31  45
ENDBRANCH   1  25
TORSDOF 16
ENDMDL
MODEL 3
REMARK VINA RESULT: -8.176221928      3.024      5.796
REMARK  16 active torsions:
REMARK  status: ('A' for Active; 'I' for Inactive)
REMARK    1  A    between atoms: N1_1  and  C1_4 
REMARK    2  A    between atoms: C3_12  and  S1_13 
REMARK    3  A    between atoms: S1_13  and  C4_14 
REMARK    4  A    between atoms: C4_14  and  C5_15 
REMARK    5  A    between atoms: C5_15  and  N5_16 
REMARK    6  A    between atoms: N5_16  and  C6_18 
REMARK    7  A    between atoms: C8_20  and  C9_21 
REMARK    8  A    between atoms: C9_21  and  O1_22 
REMARK    9  A    between atoms: C9_21  and  O2_24 
REMARK   10  A    between atoms: C11_28  and  O4_29 
REMARK   11  A    between atoms: C11_28  and  C12_31 
REMARK   12  A    between atoms: C12_31  and  O5_32 
REMARK   13  A    between atoms: C12_31  and  C13_34 
REMARK   14  A    between atoms: C13_34  and  O6_35 
REMARK   15  A    between atoms: C14_37  and  O7_38 
REMARK   16  A    between atoms: N6_40  and  N7_41 
ROOT
HETATM    1  N5  UNL     1      67.506  57.851  42.185  1.00  0.00    -0.387 N 
ATOM      2  H5  UNL     1      66.940  57.991  43.022  1.00  0.00     0.159 HD
ENDROOT
BRANCH   1   3
HETATM    3  C5  UNL     1      66.859  57.176  41.113  1.00  0.00     0.130 C 
BRANCH   3   4
HETATM    4  C4  UNL     1      67.536  55.851  40.806  1.00  0.00     0.102 C 
BRANCH   4   5
HETATM    5  S1  UNL     1      66.654  54.473  41.594  1.00  0.00    -0.090 SA
BRANCH   5   6
HETATM    6  C3  UNL     1      65.705  55.007  42.997  1.00  0.00     0.168 A 
HETATM    7  N4  UNL     1      66.280  55.376  44.165  1.00  0.00    -0.320 N 
HETATM    8  C2  UNL     1      65.527  55.777  45.216  1.00  0.00     0.139 A 
ATOM      9  H4  UNL     1      67.296  55.353  44.254  1.00  0.00     0.169 HD
HETATM   10  N3  UNL     1      65.873  56.188  46.469  1.00  0.00    -0.283 N 
HETATM   11  C16 UNL     1      64.147  55.811  45.101  1.00  0.00     0.094 A 
HETATM   12  N2  UNL     1      64.773  56.469  47.120  1.00  0.00    -0.283 N 
ATOM     13  H3  UNL     1      66.823  56.262  46.835  1.00  0.00     0.188 HD
HETATM   14  C1  UNL     1      63.678  56.251  46.314  1.00  0.00     0.131 A 
ATOM     15  H2  UNL     1      64.733  56.802  48.083  1.00  0.00     0.188 HD
HETATM   16  C15 UNL     1      63.563  55.431  43.902  1.00  0.00     0.142 A 
HETATM   17  N6  UNL     1      64.366  55.040  42.890  1.00  0.00    -0.228 N 
HETATM   18  S2  UNL     1      61.955  55.453  43.722  1.00  0.00    -0.057 SA
BRANCH  14  19
HETATM   19  N1  UNL     1      62.470  56.430  46.653  1.00  0.00    -0.384 N 
ATOM     20  H12 UNL     1      62.100  57.157  47.264  1.00  0.00     0.157 HD
ATOM     21  H11 UNL     1      61.681  55.857  46.351  1.00  0.00     0.157 HD
ENDBRANCH  14  19
BRANCH  17  22
HETATM   22  N7  UNL     1      63.766  54.661  41.695  1.00  0.00    -0.335 N 
ATOM     23  H72 UNL     1      63.192  55.351  41.210  1.00  0.00     0.177 HD
ATOM     24  H71 UNL     1      63.911  53.717  41.337  1.00  0.00     0.177 HD
ENDBRANCH  17  22
ENDBRANCH   5   6
ENDBRANCH   4   5
ENDBRANCH   3   4
ENDBRANCH   1   3
BRANCH   1  25
HETATM   25  C6  UNL     1      68.691  58.303  42.244  1.00  0.00     0.067 A 
HETATM   26  C7  UNL     1      69.239  59.137  41.304  1.00  0.00     0.070 A 
HETATM   27  C8  UNL     1      70.552  59.572  41.476  1.00  0.00     0.110 A 
HETATM   28  O3  UNL     1      71.223  59.197  42.488  1.00  0.00    -0.304 OA
HETATM   29  C10 UNL     1      70.803  58.382  43.479  1.00  0.00     0.142 A 
HETATM   30  C11 UNL     1      71.714  58.070  44.545  1.00  0.00     0.110 C 
HETATM   31  C14 UNL     1      69.517  57.944  43.330  1.00  0.00     0.129 A 
BRANCH  27  32
HETATM   32  C9  UNL     1      71.129  60.479  40.444  1.00  0.00     0.312 C 
BRANCH  32  33
HETATM   33  O1  UNL     1      70.151  61.355  39.935  1.00  0.00    -0.365 OA
ATOM     34  H1  UNL     1      69.727  60.987  39.169  1.00  0.00     0.213 HD
ENDBRANCH  32  33
BRANCH  32  35
HETATM   35  O2  UNL     1      72.205  61.166  40.947  1.00  0.00    -0.365 OA
ATOM     36  H2  UNL     1      71.926  61.798  41.600  1.00  0.00     0.213 HD
ENDBRANCH  32  35
ENDBRANCH  27  32
BRANCH  30  37
HETATM   37  O4  UNL     1      72.892  58.674  44.367  1.00  0.00    -0.359 OA
ATOM     38  H4  UNL     1      73.293  58.416  43.545  1.00  0.00     0.217 HD
ENDBRANCH  30  37
BRANCH  30  39
HETATM   39  C12 UNL     1      71.661  57.279  45.734  1.00  0.00     0.201 C 
BRANCH  39  40
HETATM   40  O5  UNL     1      72.711  56.547  46.123  1.00  0.00    -0.387 OA
ATOM     41  H5  UNL     1      73.474  56.450  45.566  1.00  0.00     0.210 HD
ENDBRANCH  39  40
BRANCH  39  42
HETATM   42  C13 UNL     1      71.196  58.214  46.903  1.00  0.00     0.202 C 
BRANCH  42  43
HETATM   43  O6  UNL     1      72.377  58.714  47.449  1.00  0.00    -0.398 OA
ATOM     44  H6  UNL     1      72.830  57.949  47.786  1.00  0.00     0.209 HD
ENDBRANCH  42  43
ENDBRANCH  39  42
ENDBRANCH  30  39
BRANCH  31  45
HETATM   45  O7  UNL     1      68.954  57.103  44.270  1.00  0.00    -0.356 OA
ATOM     46  H7  UNL     1      68.049  56.855  44.119  1.00  0.00     0.218 HD
ENDBRANCH  31  45
ENDBRANCH   1  25
TORSDOF 16
ENDMDL
MODEL 4
REMARK VINA RESULT: -8.013942413      3.988      7.087
REMARK  16 active torsions:
REMARK  status: ('A' for Active; 'I' for Inactive)
REMARK    1  A    between atoms: N1_1  and  C1_4 
REMARK    2  A    between atoms: C3_12  and  S1_13 
REMARK    3  A    between atoms: S1_13  and  C4_14 
REMARK    4  A    between atoms: C4_14  and  C5_15 
REMARK    5  A    between atoms: C5_15  and  N5_16 
REMARK    6  A    between atoms: N5_16  and  C6_18 
REMARK    7  A    between atoms: C8_20  and  C9_21 
REMARK    8  A    between atoms: C9_21  and  O1_22 
REMARK    9  A    between atoms: C9_21  and  O2_24 
REMARK   10  A    between atoms: C11_28  and  O4_29 
REMARK   11  A    between atoms: C11_28  and  C12_31 
REMARK   12  A    between atoms: C12_31  and  O5_32 
REMARK   13  A    between atoms: C12_31  and  C13_34 
REMARK   14  A    between atoms: C13_34  and  O6_35 
REMARK   15  A    between atoms: C14_37  and  O7_38 
REMARK   16  A    between atoms: N6_40  and  N7_41 
ROOT
HETATM    1  N5  UNL     1      67.294  55.427  40.687  1.00  0.00    -0.387 N 
ATOM      2  H5  UNL     1      66.303  55.643  40.585  1.00  0.00     0.159 HD
ENDROOT
BRANCH   1   3
HETATM    3  C5  UNL     1      67.692  54.969  41.974  1.00  0.00     0.130 C 
BRANCH   3   4
HETATM    4  C4  UNL     1      66.762  55.489  43.057  1.00  0.00     0.102 C 
BRANCH   4   5
HETATM    5  S1  UNL     1      67.097  57.238  43.415  1.00  0.00    -0.090 SA
BRANCH   5   6
HETATM    6  C3  UNL     1      68.827  57.544  43.675  1.00  0.00     0.168 A 
HETATM    7  N4  UNL     1      69.588  56.773  44.485  1.00  0.00    -0.320 N 
HETATM    8  C2  UNL     1      70.904  57.035  44.663  1.00  0.00     0.139 A 
ATOM      9  H4  UNL     1      69.163  55.982  44.970  1.00  0.00     0.169 HD
HETATM   10  N3  UNL     1      71.854  56.411  45.416  1.00  0.00    -0.283 N 
HETATM   11  C16 UNL     1      71.486  58.107  44.008  1.00  0.00     0.094 A 
HETATM   12  N2  UNL     1      72.984  57.051  45.250  1.00  0.00    -0.283 N 
ATOM     13  H3  UNL     1      71.710  55.591  46.005  1.00  0.00     0.188 HD
HETATM   14  C1  UNL     1      72.806  58.109  44.387  1.00  0.00     0.131 A 
ATOM     15  H2  UNL     1      73.867  56.803  45.695  1.00  0.00     0.188 HD
HETATM   16  C15 UNL     1      70.702  58.894  43.178  1.00  0.00     0.142 A 
HETATM   17  N6  UNL     1      69.396  58.584  43.042  1.00  0.00    -0.228 N 
HETATM   18  S2  UNL     1      71.338  60.159  42.393  1.00  0.00    -0.057 SA
BRANCH  14  19
HETATM   19  N1  UNL     1      73.709  58.922  44.025  1.00  0.00    -0.384 N 
ATOM     20  H12 UNL     1      74.291  59.507  44.624  1.00  0.00     0.157 HD
ATOM     21  H11 UNL     1      73.986  59.107  43.061  1.00  0.00     0.157 HD
ENDBRANCH  14  19
BRANCH  17  22
HETATM   22  N7  UNL     1      68.623  59.383  42.207  1.00  0.00    -0.335 N 
ATOM     23  H72 UNL     1      69.092  60.126  41.691  1.00  0.00     0.177 HD
ATOM     24  H71 UNL     1      67.620  59.210  42.134  1.00  0.00     0.177 HD
ENDBRANCH  17  22
ENDBRANCH   5   6
ENDBRANCH   4   5
ENDBRANCH   3   4
ENDBRANCH   1   3
BRANCH   1  25
HETATM   25  C6  UNL     1      68.003  55.605  39.649  1.00  0.00     0.067 A 
HETATM   26  C7  UNL     1      68.532  54.586  38.900  1.00  0.00     0.070 A 
HETATM   27  C8  UNL     1      69.295  54.903  37.777  1.00  0.00     0.110 A 
HETATM   28  O3  UNL     1      69.490  56.118  37.460  1.00  0.00    -0.304 OA
HETATM   29  C10 UNL     1      69.028  57.208  38.109  1.00  0.00     0.142 A 
HETATM   30  C11 UNL     1      69.359  58.506  37.593  1.00  0.00     0.110 C 
HETATM   31  C14 UNL     1      68.278  56.918  39.213  1.00  0.00     0.129 A 
BRANCH  27  32
HETATM   32  C9  UNL     1      69.861  53.781  36.976  1.00  0.00     0.312 C 
BRANCH  32  33
HETATM   33  O1  UNL     1      70.998  54.195  36.257  1.00  0.00    -0.365 OA
ATOM     34  H1  UNL     1      71.696  53.554  36.322  1.00  0.00     0.213 HD
ENDBRANCH  32  33
BRANCH  32  35
HETATM   35  O2  UNL     1      70.140  52.704  37.778  1.00  0.00    -0.365 OA
ATOM     36  H2  UNL     1      69.358  52.186  37.931  1.00  0.00     0.213 HD
ENDBRANCH  32  35
ENDBRANCH  27  32
BRANCH  30  37
HETATM   37  O4  UNL     1      70.112  58.414  36.493  1.00  0.00    -0.359 OA
ATOM     38  H4  UNL     1      70.008  59.178  35.938  1.00  0.00     0.217 HD
ENDBRANCH  30  37
BRANCH  30  39
HETATM   39  C12 UNL     1      69.079  59.857  37.971  1.00  0.00     0.201 C 
BRANCH  39  40
HETATM   40  O5  UNL     1      67.919  60.184  38.552  1.00  0.00    -0.387 OA
ATOM     41  H5  UNL     1      67.170  59.601  38.513  1.00  0.00     0.210 HD
ENDBRANCH  39  40
BRANCH  39  42
HETATM   42  C13 UNL     1      70.278  60.361  38.844  1.00  0.00     0.202 C 
BRANCH  42  43
HETATM   43  O6  UNL     1      70.160  61.751  38.839  1.00  0.00    -0.398 OA
ATOM     44  H6  UNL     1      70.957  62.059  38.423  1.00  0.00     0.209 HD
ENDBRANCH  42  43
ENDBRANCH  39  42
ENDBRANCH  30  39
BRANCH  31  45
HETATM   45  O7  UNL     1      67.739  57.937  39.976  1.00  0.00    -0.356 OA
ATOM     46  H7  UNL     1      67.505  57.710  40.869  1.00  0.00     0.218 HD
ENDBRANCH  31  45
ENDBRANCH   1  25
TORSDOF 16
ENDMDL
MODEL 5
REMARK VINA RESULT: -8.009498992      2.650      5.614
REMARK  16 active torsions:
REMARK  status: ('A' for Active; 'I' for Inactive)
REMARK    1  A    between atoms: N1_1  and  C1_4 
REMARK    2  A    between atoms: C3_12  and  S1_13 
REMARK    3  A    between atoms: S1_13  and  C4_14 
REMARK    4  A    between atoms: C4_14  and  C5_15 
REMARK    5  A    between atoms: C5_15  and  N5_16 
REMARK    6  A    between atoms: N5_16  and  C6_18 
REMARK    7  A    between atoms: C8_20  and  C9_21 
REMARK    8  A    between atoms: C9_21  and  O1_22 
REMARK    9  A    between atoms: C9_21  and  O2_24 
REMARK   10  A    between atoms: C11_28  and  O4_29 
REMARK   11  A    between atoms: C11_28  and  C12_31 
REMARK   12  A    between atoms: C12_31  and  O5_32 
REMARK   13  A    between atoms: C12_31  and  C13_34 
REMARK   14  A    between atoms: C13_34  and  O6_35 
REMARK   15  A    between atoms: C14_37  and  O7_38 
REMARK   16  A    between atoms: N6_40  and  N7_41 
ROOT
HETATM    1  N5  UNL     1      68.257  56.954  40.035  1.00  0.00    -0.387 N 
ATOM      2  H5  UNL     1      67.313  57.046  40.409  1.00  0.00     0.159 HD
ENDROOT
BRANCH   1   3
HETATM    3  C5  UNL     1      68.508  55.769  39.289  1.00  0.00     0.130 C 
BRANCH   3   4
HETATM    4  C4  UNL     1      67.998  54.538  40.021  1.00  0.00     0.102 C 
BRANCH   4   5
HETATM    5  S1  UNL     1      66.199  54.622  40.255  1.00  0.00    -0.090 SA
BRANCH   5   6
HETATM    6  C3  UNL     1      65.766  55.124  41.903  1.00  0.00     0.168 A 
HETATM    7  N4  UNL     1      66.687  55.542  42.801  1.00  0.00    -0.320 N 
HETATM    8  C2  UNL     1      66.323  55.916  44.050  1.00  0.00     0.139 A 
ATOM      9  H4  UNL     1      67.671  55.575  42.534  1.00  0.00     0.169 HD
HETATM   10  N3  UNL     1      67.058  56.363  45.108  1.00  0.00    -0.283 N 
HETATM   11  C16 UNL     1      64.989  55.873  44.420  1.00  0.00     0.094 A 
HETATM   12  N2  UNL     1      66.237  56.594  46.101  1.00  0.00    -0.283 N 
ATOM     13  H3  UNL     1      68.070  56.495  45.123  1.00  0.00     0.188 HD
HETATM   14  C1  UNL     1      64.945  56.305  45.723  1.00  0.00     0.131 A 
ATOM     15  H2  UNL     1      66.513  56.938  47.020  1.00  0.00     0.188 HD
HETATM   16  C15 UNL     1      64.049  55.445  43.495  1.00  0.00     0.142 A 
HETATM   17  N6  UNL     1      64.473  55.084  42.266  1.00  0.00    -0.228 N 
HETATM   18  S2  UNL     1      62.479  55.377  43.883  1.00  0.00    -0.057 SA
BRANCH  14  19
HETATM   19  N1  UNL     1      63.920  56.423  46.459  1.00  0.00    -0.384 N 
ATOM     20  H12 UNL     1      63.660  55.840  47.255  1.00  0.00     0.157 HD
ATOM     21  H11 UNL     1      63.197  57.135  46.357  1.00  0.00     0.157 HD
ENDBRANCH  14  19
BRANCH  17  22
HETATM   22  N7  UNL     1      63.518  54.655  41.351  1.00  0.00    -0.335 N 
ATOM     23  H72 UNL     1      62.740  54.097  41.701  1.00  0.00     0.177 HD
ATOM     24  H71 UNL     1      63.618  54.906  40.367  1.00  0.00     0.177 HD
ENDBRANCH  17  22
ENDBRANCH   5   6
ENDBRANCH   4   5
ENDBRANCH   3   4
ENDBRANCH   1   3
BRANCH   1  25
HETATM   25  C6  UNL     1      69.046  57.914  40.298  1.00  0.00     0.067 A 
HETATM   26  C7  UNL     1      69.440  58.854  39.382  1.00  0.00     0.070 A 
HETATM   27  C8  UNL     1      70.310  59.864  39.787  1.00  0.00     0.110 A 
HETATM   28  O3  UNL     1      70.725  59.907  40.987  1.00  0.00    -0.304 OA
HETATM   29  C10 UNL     1      70.415  59.048  41.981  1.00  0.00     0.142 A 
HETATM   30  C11 UNL     1      70.989  59.263  43.280  1.00  0.00     0.110 C 
HETATM   31  C14 UNL     1      69.562  58.049  41.604  1.00  0.00     0.129 A 
BRANCH  27  32
HETATM   32  C9  UNL     1      70.726  60.877  38.776  1.00  0.00     0.312 C 
BRANCH  32  33
HETATM   33  O1  UNL     1      69.771  61.905  38.665  1.00  0.00    -0.365 OA
ATOM     34  H1  UNL     1      70.129  62.737  38.952  1.00  0.00     0.213 HD
ENDBRANCH  32  33
BRANCH  32  35
HETATM   35  O2  UNL     1      71.969  61.377  39.071  1.00  0.00    -0.365 OA
ATOM     36  H2  UNL     1      72.650  60.789  38.765  1.00  0.00     0.213 HD
ENDBRANCH  32  35
ENDBRANCH  27  32
BRANCH  30  37
HETATM   37  O4  UNL     1      71.779  60.340  43.288  1.00  0.00    -0.359 OA
ATOM     38  H4  UNL     1      71.276  61.138  43.179  1.00  0.00     0.217 HD
ENDBRANCH  30  37
BRANCH  30  39
HETATM   39  C12 UNL     1      70.916  58.608  44.549  1.00  0.00     0.201 C 
BRANCH  39  40
HETATM   40  O5  UNL     1      69.782  58.035  44.966  1.00  0.00    -0.387 OA
ATOM     41  H5  UNL     1      69.719  57.643  45.829  1.00  0.00     0.210 HD
ENDBRANCH  39  40
BRANCH  39  42
HETATM   42  C13 UNL     1      72.095  57.577  44.616  1.00  0.00     0.202 C 
BRANCH  42  43
HETATM   43  O6  UNL     1      73.245  58.340  44.416  1.00  0.00    -0.398 OA
ATOM     44  H6  UNL     1      73.963  57.725  44.509  1.00  0.00     0.209 HD
ENDBRANCH  42  43
ENDBRANCH  39  42
ENDBRANCH  30  39
BRANCH  31  45
HETATM   45  O7  UNL     1      69.158  57.095  42.519  1.00  0.00    -0.356 OA
ATOM     46  H7  UNL     1      69.800  56.431  42.741  1.00  0.00     0.218 HD
ENDBRANCH  31  45
ENDBRANCH   1  25
TORSDOF 16
ENDMDL
