MODEL 1
REMARK VINA RESULT: -5.142633575      0.000      0.000
REMARK  4 active torsions:
REMARK  status: ('A' for Active; 'I' for Inactive)
REMARK    1  A    between atoms: C2_2  and  O1_3 
REMARK    2  A    between atoms: O1_3  and  C3_4 
REMARK    3  A    between atoms: C3_4  and  N1_5 
REMARK    4  A    between atoms: C6_11  and  N3_12 
ROOT
HETATM    1  N1  UNL     1      18.885  20.351  94.790  1.00  0.00    -0.277 N 
HETATM    2  C4  UNL     1      19.644  21.444  94.969  1.00  0.00     0.105 A 
HETATM    3  C5  UNL     1      19.169  22.722  95.550  1.00  0.00     0.091 C 
HETATM    4  N2  UNL     1      20.889  21.182  94.536  1.00  0.00    -0.245 N 
ATOM      5  H2  UNL     1      21.682  21.823  94.546  1.00  0.00     0.196 HD
HETATM    6  O2  UNL     1      20.890  19.954  94.102  1.00  0.00    -0.200 OA
HETATM    7  C6  UNL     1      19.685  19.416  94.241  1.00  0.00     0.246 A 
ENDROOT
BRANCH   1   8
HETATM    8  C3  UNL     1      17.486  20.231  95.130  1.00  0.00     0.310 C 
BRANCH   8   9
HETATM    9  O1  UNL     1      16.688  20.693  94.051  1.00  0.00    -0.344 OA
BRANCH   9  10
HETATM   10  C2  UNL     1      15.462  21.281  94.224  1.00  0.00     0.126 C 
HETATM   11  C1  UNL     1      15.195  22.526  93.811  1.00  0.00     0.037 C 
ENDBRANCH   9  10
ENDBRANCH   8   9
ENDBRANCH   1   8
BRANCH   7  12
HETATM   12  N3  UNL     1      19.291  18.227  93.930  1.00  0.00    -0.363 N 
ATOM     13  H32 UNL     1      18.578  17.948  93.256  1.00  0.00     0.159 HD
ATOM     14  H31 UNL     1      19.671  17.376  94.344  1.00  0.00     0.159 HD
ENDBRANCH   7  12
TORSDOF 4
ENDMDL
MODEL 2
REMARK VINA RESULT: -5.138527166      1.035      2.313
REMARK  4 active torsions:
REMARK  status: ('A' for Active; 'I' for Inactive)
REMARK    1  A    between atoms: C2_2  and  O1_3 
REMARK    2  A    between atoms: O1_3  and  C3_4 
REMARK    3  A    between atoms: C3_4  and  N1_5 
REMARK    4  A    between atoms: C6_11  and  N3_12 
ROOT
HETATM    1  N1  UNL     1      18.920  20.504  94.882  1.00  0.00    -0.277 N 
HETATM    2  C4  UNL     1      19.854  19.635  94.463  1.00  0.00     0.105 A 
HETATM    3  C5  UNL     1      19.594  18.225  94.088  1.00  0.00     0.091 C 
HETATM    4  N2  UNL     1      21.045  20.256  94.444  1.00  0.00    -0.245 N 
ATOM      5  H2  UNL     1      21.938  19.847  94.169  1.00  0.00     0.196 HD
HETATM    6  O2  UNL     1      20.843  21.480  94.843  1.00  0.00    -0.200 OA
HETATM    7  C6  UNL     1      19.559  21.666  95.119  1.00  0.00     0.246 A 
ENDROOT
BRANCH   1   8
HETATM    8  C3  UNL     1      17.513  20.219  95.038  1.00  0.00     0.310 C 
BRANCH   8   9
HETATM    9  O1  UNL     1      16.773  20.873  94.019  1.00  0.00    -0.344 OA
BRANCH   9  10
HETATM   10  C2  UNL     1      15.511  21.373  94.212  1.00  0.00     0.126 C 
HETATM   11  C1  UNL     1      15.145  22.589  93.787  1.00  0.00     0.037 C 
ENDBRANCH   9  10
ENDBRANCH   8   9
ENDBRANCH   1   8
BRANCH   7  12
HETATM   12  N3  UNL     1      18.971  22.737  95.538  1.00  0.00    -0.363 N 
ATOM     13  H32 UNL     1      17.979  22.973  95.506  1.00  0.00     0.159 HD
ATOM     14  H31 UNL     1      19.459  23.517  95.978  1.00  0.00     0.159 HD
ENDBRANCH   7  12
TORSDOF 4
ENDMDL
MODEL 3
REMARK VINA RESULT: -4.878783172      1.993      3.256
REMARK  4 active torsions:
REMARK  status: ('A' for Active; 'I' for Inactive)
REMARK    1  A    between atoms: C2_2  and  O1_3 
REMARK    2  A    between atoms: O1_3  and  C3_4 
REMARK    3  A    between atoms: C3_4  and  N1_5 
REMARK    4  A    between atoms: C6_11  and  N3_12 
ROOT
HETATM    1  N1  UNL     1      19.312  20.072  94.471  1.00  0.00    -0.277 N 
HETATM    2  C4  UNL     1      18.329  19.322  94.996  1.00  0.00     0.105 A 
HETATM    3  C5  UNL     1      16.884  19.636  94.910  1.00  0.00     0.091 C 
HETATM    4  N2  UNL     1      18.876  18.256  95.603  1.00  0.00    -0.245 N 
ATOM      5  H2  UNL     1      18.377  17.512  96.090  1.00  0.00     0.196 HD
HETATM    6  O2  UNL     1      20.167  18.352  95.452  1.00  0.00    -0.200 OA
HETATM    7  C6  UNL     1      20.468  19.448  94.766  1.00  0.00     0.246 A 
ENDROOT
BRANCH   1   8
HETATM    8  C3  UNL     1      19.132  21.303  93.737  1.00  0.00     0.310 C 
BRANCH   8   9
HETATM    9  O1  UNL     1      19.700  22.383  94.463  1.00  0.00    -0.344 OA
BRANCH   9  10
HETATM   10  C2  UNL     1      19.171  22.857  95.636  1.00  0.00     0.126 C 
HETATM   11  C1  UNL     1      19.864  22.879  96.781  1.00  0.00     0.037 C 
ENDBRANCH   9  10
ENDBRANCH   8   9
ENDBRANCH   1   8
BRANCH   7  12
HETATM   12  N3  UNL     1      21.631  19.886  94.416  1.00  0.00    -0.363 N 
ATOM     13  H32 UNL     1      22.228  20.562  94.894  1.00  0.00     0.159 HD
ATOM     14  H31 UNL     1      22.119  19.589  93.571  1.00  0.00     0.159 HD
ENDBRANCH   7  12
TORSDOF 4
ENDMDL
MODEL 4
REMARK VINA RESULT: -4.833852898      1.941      3.359
REMARK  4 active torsions:
REMARK  status: ('A' for Active; 'I' for Inactive)
REMARK    1  A    between atoms: C2_2  and  O1_3 
REMARK    2  A    between atoms: O1_3  and  C3_4 
REMARK    3  A    between atoms: C3_4  and  N1_5 
REMARK    4  A    between atoms: C6_11  and  N3_12 
ROOT
HETATM    1  N1  UNL     1      19.648  20.326  94.888  1.00  0.00    -0.277 N 
HETATM    2  C4  UNL     1      18.357  19.966  94.812  1.00  0.00     0.105 A 
HETATM    3  C5  UNL     1      17.221  20.907  94.670  1.00  0.00     0.091 C 
HETATM    4  N2  UNL     1      18.275  18.628  94.887  1.00  0.00    -0.245 N 
ATOM      5  H2  UNL     1      17.423  18.069  94.856  1.00  0.00     0.196 HD
HETATM    6  O2  UNL     1      19.493  18.179  95.006  1.00  0.00    -0.200 OA
HETATM    7  C6  UNL     1      20.356  19.187  95.011  1.00  0.00     0.246 A 
ENDROOT
BRANCH   1   8
HETATM    8  C3  UNL     1      20.150  21.681  94.845  1.00  0.00     0.310 C 
BRANCH   8   9
HETATM    9  O1  UNL     1      20.527  22.096  96.149  1.00  0.00    -0.344 OA
BRANCH   9  10
HETATM   10  C2  UNL     1      19.813  23.008  96.880  1.00  0.00     0.126 C 
HETATM   11  C1  UNL     1      19.154  24.027  96.316  1.00  0.00     0.037 C 
ENDBRANCH   9  10
ENDBRANCH   8   9
ENDBRANCH   1   8
BRANCH   7  12
HETATM   12  N3  UNL     1      21.642  19.147  95.110  1.00  0.00    -0.363 N 
ATOM     13  H32 UNL     1      22.259  19.758  95.646  1.00  0.00     0.159 HD
ATOM     14  H31 UNL     1      22.227  18.458  94.638  1.00  0.00     0.159 HD
ENDBRANCH   7  12
TORSDOF 4
ENDMDL
MODEL 5
REMARK VINA RESULT: -4.829221645      1.515      1.754
REMARK  4 active torsions:
REMARK  status: ('A' for Active; 'I' for Inactive)
REMARK    1  A    between atoms: C2_2  and  O1_3 
REMARK    2  A    between atoms: O1_3  and  C3_4 
REMARK    3  A    between atoms: C3_4  and  N1_5 
REMARK    4  A    between atoms: C6_11  and  N3_12 
ROOT
HETATM    1  N1  UNL     1      19.062  21.883  95.211  1.00  0.00    -0.277 N 
HETATM    2  C4  UNL     1      19.501  22.756  96.132  1.00  0.00     0.105 A 
HETATM    3  C5  UNL     1      19.065  24.169  96.238  1.00  0.00     0.091 C 
HETATM    4  N2  UNL     1      20.389  22.137  96.927  1.00  0.00    -0.245 N 
ATOM      5  H2  UNL     1      20.888  22.549  97.715  1.00  0.00     0.196 HD
HETATM    6  O2  UNL     1      20.490  20.910  96.501  1.00  0.00    -0.200 OA
HETATM    7  C6  UNL     1      19.696  20.720  95.455  1.00  0.00     0.246 A 
ENDROOT
BRANCH   1   8
HETATM    8  C3  UNL     1      18.098  22.166  94.173  1.00  0.00     0.310 C 
BRANCH   8   9
HETATM    9  O1  UNL     1      17.218  21.063  94.020  1.00  0.00    -0.344 OA
BRANCH   9  10
HETATM   10  C2  UNL     1      15.902  21.096  94.402  1.00  0.00     0.126 C 
HETATM   11  C1  UNL     1      15.057  22.052  93.996  1.00  0.00     0.037 C 
ENDBRANCH   9  10
ENDBRANCH   8   9
ENDBRANCH   1   8
BRANCH   7  12
HETATM   12  N3  UNL     1      19.518  19.646  94.762  1.00  0.00    -0.363 N 
ATOM     13  H32 UNL     1      19.850  19.433  93.820  1.00  0.00     0.159 HD
ATOM     14  H31 UNL     1      18.996  18.835  95.094  1.00  0.00     0.159 HD
ENDBRANCH   7  12
TORSDOF 4
ENDMDL
