MODEL 1
REMARK VINA RESULT: -4.507993494      0.000      0.000
REMARK  4 active torsions:
REMARK  status: ('A' for Active; 'I' for Inactive)
REMARK    1  A    between atoms: C2_2  and  N1_4 
REMARK    2  A    between atoms: N1_4  and  N2_6 
REMARK    3  A    between atoms: N2_6  and  C5_8 
REMARK    4  A    between atoms: C5_8  and  C6_9 
ROOT
HETATM    1  N2  UNL     1      19.086  21.540  94.919  1.00  0.00    -0.334 N 
HETATM    2  C4  UNL     1      19.341  22.595  95.827  1.00  0.00     0.170 C 
ENDROOT
BRANCH   1   3
HETATM    3  N1  UNL     1      17.914  21.531  94.242  1.00  0.00    -0.335 N 
ATOM      4  H1  UNL     1      17.855  21.908  93.296  1.00  0.00     0.180 HD
BRANCH   3   5
HETATM    5  C2  UNL     1      16.772  20.987  94.874  1.00  0.00     0.091 C 
HETATM    6  C1  UNL     1      15.457  21.337  94.191  1.00  0.00     0.033 C 
HETATM    7  C3  UNL     1      16.875  19.468  94.847  1.00  0.00     0.033 C 
ENDBRANCH   3   5
ENDBRANCH   1   3
BRANCH   1   8
HETATM    8  C5  UNL     1      20.222  20.981  94.280  1.00  0.00     0.176 C 
BRANCH   8   9
HETATM    9  C6  UNL     1      20.583  19.593  94.761  1.00  0.00     0.230 A 
HETATM   10  C7  UNL     1      21.534  18.872  93.828  1.00  0.00     0.267 A 
HETATM   11  N3  UNL     1      21.923  19.272  95.161  1.00  0.00    -0.066 N 
ATOM     12  H32 UNL     1      22.696  19.832  95.523  1.00  0.00     0.277 HD
ATOM     13  H31 UNL     1      22.310  18.763  95.956  1.00  0.00     0.277 HD
ENDBRANCH   8   9
ENDBRANCH   1   8
TORSDOF 4
ENDMDL
MODEL 2
REMARK VINA RESULT: -4.335284466      0.431      1.160
REMARK  4 active torsions:
REMARK  status: ('A' for Active; 'I' for Inactive)
REMARK    1  A    between atoms: C2_2  and  N1_4 
REMARK    2  A    between atoms: N1_4  and  N2_6 
REMARK    3  A    between atoms: N2_6  and  C5_8 
REMARK    4  A    between atoms: C5_8  and  C6_9 
ROOT
HETATM    1  N2  UNL     1      19.123  21.555  95.221  1.00  0.00    -0.334 N 
HETATM    2  C4  UNL     1      19.690  22.266  96.305  1.00  0.00     0.170 C 
ENDROOT
BRANCH   1   3
HETATM    3  N1  UNL     1      17.924  21.953  94.735  1.00  0.00    -0.335 N 
ATOM      4  H1  UNL     1      17.697  22.944  94.656  1.00  0.00     0.180 HD
BRANCH   3   5
HETATM    5  C2  UNL     1      16.994  20.966  94.337  1.00  0.00     0.091 C 
HETATM    6  C1  UNL     1      16.835  19.824  95.332  1.00  0.00     0.033 C 
HETATM    7  C3  UNL     1      15.621  21.612  94.209  1.00  0.00     0.033 C 
ENDBRANCH   3   5
ENDBRANCH   1   3
BRANCH   1   8
HETATM    8  C5  UNL     1      20.042  20.968  94.314  1.00  0.00     0.176 C 
BRANCH   8   9
HETATM    9  C6  UNL     1      20.512  19.587  94.716  1.00  0.00     0.230 A 
HETATM   10  C7  UNL     1      21.569  19.028  93.786  1.00  0.00     0.267 A 
HETATM   11  N3  UNL     1      21.858  19.363  95.162  1.00  0.00    -0.066 N 
ATOM     12  H32 UNL     1      22.556  19.965  95.601  1.00  0.00     0.277 HD
ATOM     13  H31 UNL     1      22.256  18.835  95.939  1.00  0.00     0.277 HD
ENDBRANCH   8   9
ENDBRANCH   1   8
TORSDOF 4
ENDMDL
MODEL 3
REMARK VINA RESULT: -4.279246343      1.238      4.147
REMARK  4 active torsions:
REMARK  status: ('A' for Active; 'I' for Inactive)
REMARK    1  A    between atoms: C2_2  and  N1_4 
REMARK    2  A    between atoms: N1_4  and  N2_6 
REMARK    3  A    between atoms: N2_6  and  C5_8 
REMARK    4  A    between atoms: C5_8  and  C6_9 
ROOT
HETATM    1  N2  UNL     1      19.113  21.568  95.136  1.00  0.00    -0.334 N 
HETATM    2  C4  UNL     1      19.471  22.624  96.009  1.00  0.00     0.170 C 
ENDROOT
BRANCH   1   3
HETATM    3  N1  UNL     1      19.485  20.306  95.452  1.00  0.00    -0.335 N 
ATOM      4  H1  UNL     1      19.282  19.917  96.373  1.00  0.00     0.180 HD
BRANCH   3   5
HETATM    5  C2  UNL     1      20.161  19.536  94.478  1.00  0.00     0.091 C 
HETATM    6  C1  UNL     1      21.492  18.966  94.949  1.00  0.00     0.033 C 
HETATM    7  C3  UNL     1      19.293  18.341  94.110  1.00  0.00     0.033 C 
ENDBRANCH   3   5
ENDBRANCH   1   3
BRANCH   1   8
HETATM    8  C5  UNL     1      17.903  21.740  94.416  1.00  0.00     0.176 C 
BRANCH   8   9
HETATM    9  C6  UNL     1      16.739  20.943  94.962  1.00  0.00     0.230 A 
HETATM   10  C7  UNL     1      15.420  21.301  94.312  1.00  0.00     0.267 A 
HETATM   11  N3  UNL     1      16.033  20.003  94.138  1.00  0.00    -0.066 N 
ATOM     12  H32 UNL     1      16.297  19.462  93.315  1.00  0.00     0.277 HD
ATOM     13  H31 UNL     1      15.703  19.051  94.294  1.00  0.00     0.277 HD
ENDBRANCH   8   9
ENDBRANCH   1   8
TORSDOF 4
ENDMDL
MODEL 4
REMARK VINA RESULT: -4.171928078      1.245      4.075
REMARK  4 active torsions:
REMARK  status: ('A' for Active; 'I' for Inactive)
REMARK    1  A    between atoms: C2_2  and  N1_4 
REMARK    2  A    between atoms: N1_4  and  N2_6 
REMARK    3  A    between atoms: N2_6  and  C5_8 
REMARK    4  A    between atoms: C5_8  and  C6_9 
ROOT
HETATM    1  N2  UNL     1      19.253  21.647  94.749  1.00  0.00    -0.334 N 
HETATM    2  C4  UNL     1      19.485  21.817  96.134  1.00  0.00     0.170 C 
ENDROOT
BRANCH   1   3
HETATM    3  N1  UNL     1      19.975  20.722  94.075  1.00  0.00    -0.335 N 
ATOM      4  H1  UNL     1      20.338  20.922  93.143  1.00  0.00     0.180 HD
BRANCH   3   5
HETATM    5  C2  UNL     1      20.216  19.472  94.689  1.00  0.00     0.091 C 
HETATM    6  C1  UNL     1      19.383  18.330  94.123  1.00  0.00     0.033 C 
HETATM    7  C3  UNL     1      21.672  19.089  94.463  1.00  0.00     0.033 C 
ENDBRANCH   3   5
ENDBRANCH   1   3
BRANCH   1   8
HETATM    8  C5  UNL     1      17.931  21.906  94.304  1.00  0.00     0.176 C 
BRANCH   8   9
HETATM    9  C6  UNL     1      16.878  21.030  94.947  1.00  0.00     0.230 A 
HETATM   10  C7  UNL     1      15.496  21.244  94.368  1.00  0.00     0.267 A 
HETATM   11  N3  UNL     1      16.213  20.000  94.200  1.00  0.00    -0.066 N 
ATOM     12  H32 UNL     1      16.477  19.453  93.380  1.00  0.00     0.277 HD
ATOM     13  H31 UNL     1      15.981  19.029  94.407  1.00  0.00     0.277 HD
ENDBRANCH   8   9
ENDBRANCH   1   8
TORSDOF 4
ENDMDL
MODEL 5
REMARK VINA RESULT: -3.998496076      1.488      3.729
REMARK  4 active torsions:
REMARK  status: ('A' for Active; 'I' for Inactive)
REMARK    1  A    between atoms: C2_2  and  N1_4 
REMARK    2  A    between atoms: N1_4  and  N2_6 
REMARK    3  A    between atoms: N2_6  and  C5_8 
REMARK    4  A    between atoms: C5_8  and  C6_9 
ROOT
HETATM    1  N2  UNL     1      18.200  20.939  94.740  1.00  0.00    -0.334 N 
HETATM    2  C4  UNL     1      16.845  20.533  94.697  1.00  0.00     0.170 C 
ENDROOT
BRANCH   1   3
HETATM    3  N1  UNL     1      19.111  20.244  94.020  1.00  0.00    -0.335 N 
ATOM      4  H1  UNL     1      19.437  20.591  93.118  1.00  0.00     0.180 HD
BRANCH   3   5
HETATM    5  C2  UNL     1      19.604  19.028  94.545  1.00  0.00     0.091 C 
HETATM    6  C1  UNL     1      19.316  17.813  93.673  1.00  0.00     0.033 C 
HETATM    7  C3  UNL     1      21.120  19.122  94.656  1.00  0.00     0.033 C 
ENDBRANCH   3   5
ENDBRANCH   1   3
BRANCH   1   8
HETATM    8  C5  UNL     1      18.428  22.325  94.935  1.00  0.00     0.176 C 
BRANCH   8   9
HETATM    9  C6  UNL     1      19.739  22.646  95.619  1.00  0.00     0.230 A 
HETATM   10  C7  UNL     1      19.564  23.479  96.872  1.00  0.00     0.267 A 
HETATM   11  N3  UNL     1      20.047  22.117  96.918  1.00  0.00    -0.066 N 
ATOM     12  H32 UNL     1      19.739  21.286  97.423  1.00  0.00     0.277 HD
ATOM     13  H31 UNL     1      20.882  21.688  97.315  1.00  0.00     0.277 HD
ENDBRANCH   8   9
ENDBRANCH   1   8
TORSDOF 4
ENDMDL
