MODEL 1
REMARK VINA RESULT: -4.625551490      0.000      0.000
REMARK  5 active torsions:
REMARK  status: ('A' for Active; 'I' for Inactive)
REMARK    1  A    between atoms: C3_3  and  C4_4 
REMARK    2  A    between atoms: C4_4  and  N1_5 
REMARK    3  A    between atoms: C4_4  and  C5_9 
REMARK    4  A    between atoms: C5_9  and  O1_10 
REMARK    5  A    between atoms: O1_10  and  C6_11 
ROOT
HETATM    1  C4  UNL     1      17.510  20.594  95.150  1.00  0.00     0.229 C 
ENDROOT
BRANCH   1   2
HETATM    2  C3  UNL     1      18.143  21.691  94.319  1.00  0.00     0.003 C 
HETATM    3  C2  UNL     1      19.059  22.478  94.852  1.00  0.00    -0.033 C 
HETATM    4  C1  UNL     1      19.457  22.279  96.257  1.00  0.00     0.036 C 
ENDBRANCH   1   2
BRANCH   1   5
HETATM    5  N1  UNL     1      16.103  20.627  94.922  1.00  0.00    -0.070 N 
ATOM      6  H13 UNL     1      15.673  21.497  95.233  1.00  0.00     0.275 HD
ATOM      7  H12 UNL     1      15.865  20.702  93.933  1.00  0.00     0.275 HD
ATOM      8  H11 UNL     1      15.694  19.804  95.365  1.00  0.00     0.275 HD
ENDBRANCH   1   5
BRANCH   1   9
HETATM    9  C5  UNL     1      18.155  19.285  94.826  1.00  0.00     0.205 C 
BRANCH   9  10
HETATM   10  O1  UNL     1      19.022  19.252  93.781  1.00  0.00    -0.380 OA
BRANCH  10  11
HETATM   11  C6  UNL     1      20.257  18.762  94.021  1.00  0.00     0.172 C 
HETATM   12  C7  UNL     1      20.685  18.817  95.508  1.00  0.00     0.265 C 
HETATM   13  N2  UNL     1      22.025  19.090  95.018  1.00  0.00    -0.070 N 
HETATM   14  C8  UNL     1      21.365  19.843  93.946  1.00  0.00     0.265 C 
ATOM     15  H22 UNL     1      22.739  19.512  95.612  1.00  0.00     0.277 HD
ATOM     16  H21 UNL     1      22.687  18.340  94.819  1.00  0.00     0.277 HD
ENDBRANCH  10  11
ENDBRANCH   9  10
ENDBRANCH   1   9
TORSDOF 5
ENDMDL
MODEL 2
REMARK VINA RESULT: -4.592169921      1.446      2.232
REMARK  5 active torsions:
REMARK  status: ('A' for Active; 'I' for Inactive)
REMARK    1  A    between atoms: C3_3  and  C4_4 
REMARK    2  A    between atoms: C4_4  and  N1_5 
REMARK    3  A    between atoms: C4_4  and  C5_9 
REMARK    4  A    between atoms: C5_9  and  O1_10 
REMARK    5  A    between atoms: O1_10  and  C6_11 
ROOT
HETATM    1  C4  UNL     1      18.193  21.657  94.512  1.00  0.00     0.229 C 
ENDROOT
BRANCH   1   2
HETATM    2  C3  UNL     1      17.223  20.663  95.116  1.00  0.00     0.003 C 
HETATM    3  C2  UNL     1      15.931  20.760  94.857  1.00  0.00    -0.033 C 
HETATM    4  C1  UNL     1      15.448  21.840  93.980  1.00  0.00     0.036 C 
ENDBRANCH   1   2
BRANCH   1   5
HETATM    5  N1  UNL     1      18.748  22.431  95.574  1.00  0.00    -0.070 N 
ATOM      6  H13 UNL     1      18.353  22.193  96.483  1.00  0.00     0.275 HD
ATOM      7  H12 UNL     1      19.717  22.184  95.777  1.00  0.00     0.275 HD
ATOM      8  H11 UNL     1      18.632  23.416  95.339  1.00  0.00     0.275 HD
ENDBRANCH   1   5
BRANCH   1   9
HETATM    9  C5  UNL     1      19.206  20.931  93.687  1.00  0.00     0.205 C 
BRANCH   9  10
HETATM   10  O1  UNL     1      19.132  19.575  93.648  1.00  0.00    -0.380 OA
BRANCH  10  11
HETATM   11  C6  UNL     1      20.230  18.886  94.023  1.00  0.00     0.172 C 
HETATM   12  C7  UNL     1      20.509  18.912  95.547  1.00  0.00     0.265 C 
HETATM   13  N2  UNL     1      21.918  18.933  95.196  1.00  0.00    -0.070 N 
HETATM   14  C8  UNL     1      21.513  19.755  94.050  1.00  0.00     0.265 C 
ATOM     15  H22 UNL     1      22.632  19.244  95.856  1.00  0.00     0.277 HD
ATOM     16  H21 UNL     1      22.455  18.073  95.078  1.00  0.00     0.277 HD
ENDBRANCH  10  11
ENDBRANCH   9  10
ENDBRANCH   1   9
TORSDOF 5
ENDMDL
MODEL 3
REMARK VINA RESULT: -4.545073174      5.739      7.051
REMARK  5 active torsions:
REMARK  status: ('A' for Active; 'I' for Inactive)
REMARK    1  A    between atoms: C3_3  and  C4_4 
REMARK    2  A    between atoms: C4_4  and  N1_5 
REMARK    3  A    between atoms: C4_4  and  C5_9 
REMARK    4  A    between atoms: C5_9  and  O1_10 
REMARK    5  A    between atoms: O1_10  and  C6_11 
ROOT
HETATM    1  C4  UNL     1      18.398  14.383  90.874  1.00  0.00     0.229 C 
ENDROOT
BRANCH   1   2
HETATM    2  C3  UNL     1      17.054  14.231  91.555  1.00  0.00     0.003 C 
HETATM    3  C2  UNL     1      16.819  13.183  92.325  1.00  0.00    -0.033 C 
HETATM    4  C1  UNL     1      17.873  12.171  92.512  1.00  0.00     0.036 C 
ENDBRANCH   1   2
BRANCH   1   5
HETATM    5  N1  UNL     1      18.174  14.935  89.578  1.00  0.00    -0.070 N 
ATOM      6  H13 UNL     1      17.709  14.283  88.946  1.00  0.00     0.275 HD
ATOM      7  H12 UNL     1      17.456  15.660  89.577  1.00  0.00     0.275 HD
ATOM      8  H11 UNL     1      19.069  15.265  89.218  1.00  0.00     0.275 HD
ENDBRANCH   1   5
BRANCH   1   9
HETATM    9  C5  UNL     1      19.309  15.195  91.738  1.00  0.00     0.205 C 
BRANCH   9  10
HETATM   10  O1  UNL     1      20.476  14.624  92.134  1.00  0.00    -0.380 OA
BRANCH  10  11
HETATM   11  C6  UNL     1      21.619  15.254  91.789  1.00  0.00     0.172 C 
HETATM   12  C7  UNL     1      21.590  16.788  92.006  1.00  0.00     0.265 C 
HETATM   13  N2  UNL     1      22.404  16.881  90.808  1.00  0.00    -0.070 N 
HETATM   14  C8  UNL     1      21.626  15.738  90.317  1.00  0.00     0.265 C 
ATOM     15  H22 UNL     1      22.480  17.749  90.275  1.00  0.00     0.277 HD
ATOM     16  H21 UNL     1      23.423  16.860  90.847  1.00  0.00     0.277 HD
ENDBRANCH  10  11
ENDBRANCH   9  10
ENDBRANCH   1   9
TORSDOF 5
ENDMDL
MODEL 4
REMARK VINA RESULT: -4.485052559      5.792      7.250
REMARK  5 active torsions:
REMARK  status: ('A' for Active; 'I' for Inactive)
REMARK    1  A    between atoms: C3_3  and  C4_4 
REMARK    2  A    between atoms: C4_4  and  N1_5 
REMARK    3  A    between atoms: C4_4  and  C5_9 
REMARK    4  A    between atoms: C5_9  and  O1_10 
REMARK    5  A    between atoms: O1_10  and  C6_11 
ROOT
HETATM    1  C4  UNL     1      18.251  14.027  91.535  1.00  0.00     0.229 C 
ENDROOT
BRANCH   1   2
HETATM    2  C3  UNL     1      17.938  13.221  92.778  1.00  0.00     0.003 C 
HETATM    3  C2  UNL     1      16.749  12.662  92.919  1.00  0.00    -0.033 C 
HETATM    4  C1  UNL     1      15.739  12.830  91.860  1.00  0.00     0.036 C 
ENDBRANCH   1   2
BRANCH   1   5
HETATM    5  N1  UNL     1      17.885  15.383  91.786  1.00  0.00    -0.070 N 
ATOM      6  H13 UNL     1      16.877  15.530  91.759  1.00  0.00     0.275 HD
ATOM      7  H12 UNL     1      18.037  15.660  92.756  1.00  0.00     0.275 HD
ATOM      8  H11 UNL     1      18.388  15.972  91.124  1.00  0.00     0.275 HD
ENDBRANCH   1   5
BRANCH   1   9
HETATM    9  C5  UNL     1      19.688  13.838  91.165  1.00  0.00     0.205 C 
BRANCH   9  10
HETATM   10  O1  UNL     1      20.626  14.193  92.082  1.00  0.00    -0.380 OA
BRANCH  10  11
HETATM   11  C6  UNL     1      21.656  14.950  91.648  1.00  0.00     0.172 C 
HETATM   12  C7  UNL     1      21.432  16.475  91.800  1.00  0.00     0.265 C 
HETATM   13  N2  UNL     1      22.168  16.615  90.556  1.00  0.00    -0.070 N 
HETATM   14  C8  UNL     1      21.527  15.356  90.158  1.00  0.00     0.265 C 
ATOM     15  H22 UNL     1      22.102  17.457  89.983  1.00  0.00     0.277 HD
ATOM     16  H21 UNL     1      23.182  16.730  90.541  1.00  0.00     0.277 HD
ENDBRANCH  10  11
ENDBRANCH   9  10
ENDBRANCH   1   9
TORSDOF 5
ENDMDL
MODEL 5
REMARK VINA RESULT: -4.370721194      2.062      4.555
REMARK  5 active torsions:
REMARK  status: ('A' for Active; 'I' for Inactive)
REMARK    1  A    between atoms: C3_3  and  C4_4 
REMARK    2  A    between atoms: C4_4  and  N1_5 
REMARK    3  A    between atoms: C4_4  and  C5_9 
REMARK    4  A    between atoms: C5_9  and  O1_10 
REMARK    5  A    between atoms: O1_10  and  C6_11 
ROOT
HETATM    1  C4  UNL     1      19.698  21.365  95.759  1.00  0.00     0.229 C 
ENDROOT
BRANCH   1   2
HETATM    2  C3  UNL     1      20.736  20.521  95.048  1.00  0.00     0.003 C 
HETATM    3  C2  UNL     1      20.519  19.232  94.856  1.00  0.00    -0.033 C 
HETATM    4  C1  UNL     1      19.264  18.629  95.339  1.00  0.00     0.036 C 
ENDBRANCH   1   2
BRANCH   1   5
HETATM    5  N1  UNL     1      20.344  22.038  96.838  1.00  0.00    -0.070 N 
ATOM      6  H13 UNL     1      20.012  21.728  97.751  1.00  0.00     0.275 HD
ATOM      7  H12 UNL     1      21.320  21.763  96.947  1.00  0.00     0.275 HD
ATOM      8  H11 UNL     1      20.230  23.041  96.695  1.00  0.00     0.275 HD
ENDBRANCH   1   5
BRANCH   1   9
HETATM    9  C5  UNL     1      19.035  22.276  94.776  1.00  0.00     0.205 C 
BRANCH   9  10
HETATM   10  O1  UNL     1      17.691  22.443  94.879  1.00  0.00    -0.380 OA
BRANCH  10  11
HETATM   11  C6  UNL     1      16.912  21.669  94.096  1.00  0.00     0.172 C 
HETATM   12  C7  UNL     1      15.441  22.143  93.994  1.00  0.00     0.265 C 
HETATM   13  N2  UNL     1      15.086  20.736  93.948  1.00  0.00    -0.070 N 
HETATM   14  C8  UNL     1      16.204  20.532  94.875  1.00  0.00     0.265 C 
ATOM     15  H22 UNL     1      14.142  20.412  94.164  1.00  0.00     0.277 HD
ATOM     16  H21 UNL     1      15.019  20.227  93.067  1.00  0.00     0.277 HD
ENDBRANCH  10  11
ENDBRANCH   9  10
ENDBRANCH   1   9
TORSDOF 5
ENDMDL
