MODEL 1
REMARK VINA RESULT: -4.609676023      0.000      0.000
REMARK  2 active torsions:
REMARK  status: ('A' for Active; 'I' for Inactive)
REMARK    1  A    between atoms: N1_1  and  N2_4 
REMARK       I    between atoms: N2_4  and  C1_6 
REMARK       I    between atoms: C1_6  and  N3_8 
REMARK    2  A    between atoms: N3_8  and  C2_10 
ROOT
HETATM    1  N2  UNL     1      12.576  20.364  29.471  1.00  0.00    -0.258 N 
ATOM      2  H2  UNL     1      12.105  20.788  28.671  1.00  0.00     0.191 HD
HETATM    3  C1  UNL     1      11.934  20.434  30.723  1.00  0.00     0.334 C 
HETATM    4  O1  UNL     1      12.468  19.930  31.732  1.00  0.00    -0.246 OA
HETATM    5  N3  UNL     1      10.685  21.068  30.859  1.00  0.00    -0.335 N 
ATOM      6  H3  UNL     1      10.258  21.476  30.027  1.00  0.00     0.164 HD
ENDROOT
BRANCH   5   7
HETATM    7  C2  UNL     1       9.970  21.174  32.115  1.00  0.00     0.116 C 
HETATM    8  C3  UNL     1       9.623  22.604  32.460  1.00  0.00     0.064 C 
HETATM    9  C4  UNL     1       8.215  22.528  32.987  1.00  0.00     0.253 A 
HETATM   10  C5  UNL     1       7.120  22.467  31.970  1.00  0.00     0.308 A 
HETATM   11  N4  UNL     1       7.648  21.287  32.584  1.00  0.00     0.099 N 
HETATM   12  C6  UNL     1       8.648  20.488  31.955  1.00  0.00     0.298 C 
ENDBRANCH   5   7
BRANCH   1  13
HETATM   13  N1  UNL     1      13.805  19.759  29.251  1.00  0.00    -0.341 N 
ATOM     14  H12 UNL     1      13.863  18.758  29.440  1.00  0.00     0.177 HD
ATOM     15  H11 UNL     1      14.637  20.246  28.917  1.00  0.00     0.177 HD
ENDBRANCH   1  13
TORSDOF 2
ENDMDL
MODEL 2
REMARK VINA RESULT: -4.607567005      5.308      7.142
REMARK  2 active torsions:
REMARK  status: ('A' for Active; 'I' for Inactive)
REMARK    1  A    between atoms: N1_1  and  N2_4 
REMARK       I    between atoms: N2_4  and  C1_6 
REMARK       I    between atoms: C1_6  and  N3_8 
REMARK    2  A    between atoms: N3_8  and  C2_10 
ROOT
HETATM    1  N2  UNL     1       7.936  16.429  28.176  1.00  0.00    -0.258 N 
ATOM      2  H2  UNL     1       7.674  16.621  27.208  1.00  0.00     0.191 HD
HETATM    3  C1  UNL     1       9.298  16.526  28.520  1.00  0.00     0.334 C 
HETATM    4  O1  UNL     1       9.669  16.303  29.690  1.00  0.00    -0.246 OA
HETATM    5  N3  UNL     1      10.262  16.877  27.555  1.00  0.00    -0.335 N 
ATOM      6  H3  UNL     1       9.947  17.058  26.602  1.00  0.00     0.164 HD
ENDROOT
BRANCH   5   7
HETATM    7  C2  UNL     1      11.678  16.995  27.841  1.00  0.00     0.116 C 
HETATM    8  C3  UNL     1      12.534  16.724  26.625  1.00  0.00     0.064 C 
HETATM    9  C4  UNL     1      13.607  17.778  26.684  1.00  0.00     0.253 A 
HETATM   10  C5  UNL     1      13.242  19.135  26.171  1.00  0.00     0.308 A 
HETATM   11  N4  UNL     1      13.179  18.810  27.564  1.00  0.00     0.099 N 
HETATM   12  C6  UNL     1      11.960  18.423  28.197  1.00  0.00     0.298 C 
ENDBRANCH   5   7
BRANCH   1  13
HETATM   13  N1  UNL     1       6.924  16.091  29.063  1.00  0.00    -0.341 N 
ATOM     14  H12 UNL     1       7.213  15.706  29.963  1.00  0.00     0.177 HD
ATOM     15  H11 UNL     1       5.928  16.202  28.873  1.00  0.00     0.177 HD
ENDBRANCH   1  13
TORSDOF 2
ENDMDL
MODEL 3
REMARK VINA RESULT: -4.592797554      9.807     10.884
REMARK  2 active torsions:
REMARK  status: ('A' for Active; 'I' for Inactive)
REMARK    1  A    between atoms: N1_1  and  N2_4 
REMARK       I    between atoms: N2_4  and  C1_6 
REMARK       I    between atoms: C1_6  and  N3_8 
REMARK    2  A    between atoms: N3_8  and  C2_10 
ROOT
HETATM    1  N2  UNL     1       1.745  14.458  30.544  1.00  0.00    -0.258 N 
ATOM      2  H2  UNL     1       1.236  13.807  31.143  1.00  0.00     0.191 HD
HETATM    3  C1  UNL     1       3.032  14.085  30.113  1.00  0.00     0.334 C 
HETATM    4  O1  UNL     1       3.695  14.844  29.378  1.00  0.00    -0.246 OA
HETATM    5  N3  UNL     1       3.594  12.852  30.500  1.00  0.00    -0.335 N 
ATOM      6  H3  UNL     1       3.042  12.239  31.101  1.00  0.00     0.164 HD
ENDROOT
BRANCH   5   7
HETATM    7  C2  UNL     1       4.911  12.407  30.093  1.00  0.00     0.116 C 
HETATM    8  C3  UNL     1       5.992  13.396  30.463  1.00  0.00     0.064 C 
HETATM    9  C4  UNL     1       7.121  12.540  30.973  1.00  0.00     0.253 A 
HETATM   10  C5  UNL     1       7.016  12.068  32.388  1.00  0.00     0.308 A 
HETATM   11  N4  UNL     1       6.604  11.252  31.287  1.00  0.00     0.099 N 
HETATM   12  C6  UNL     1       5.242  11.170  30.872  1.00  0.00     0.298 C 
ENDBRANCH   5   7
BRANCH   1  13
HETATM   13  N1  UNL     1       1.119  15.651  30.209  1.00  0.00    -0.341 N 
ATOM     14  H12 UNL     1       0.690  15.699  29.285  1.00  0.00     0.177 HD
ATOM     15  H11 UNL     1       1.065  16.465  30.820  1.00  0.00     0.177 HD
ENDBRANCH   1  13
TORSDOF 2
ENDMDL
MODEL 4
REMARK VINA RESULT: -4.469008205      9.586     10.546
REMARK  2 active torsions:
REMARK  status: ('A' for Active; 'I' for Inactive)
REMARK    1  A    between atoms: N1_1  and  N2_4 
REMARK       I    between atoms: N2_4  and  C1_6 
REMARK       I    between atoms: C1_6  and  N3_8 
REMARK    2  A    between atoms: N3_8  and  C2_10 
ROOT
HETATM    1  N2  UNL     1      14.666  13.562  33.188  1.00  0.00    -0.258 N 
ATOM      2  H2  UNL     1      15.452  14.147  32.905  1.00  0.00     0.191 HD
HETATM    3  C1  UNL     1      14.131  12.674  32.235  1.00  0.00     0.334 C 
HETATM    4  O1  UNL     1      13.170  11.936  32.532  1.00  0.00    -0.246 OA
HETATM    5  N3  UNL     1      14.669  12.601  30.936  1.00  0.00    -0.335 N 
ATOM      6  H3  UNL     1      15.455  13.209  30.704  1.00  0.00     0.164 HD
ENDROOT
BRANCH   5   7
HETATM    7  C2  UNL     1      14.168  11.711  29.908  1.00  0.00     0.116 C 
HETATM    8  C3  UNL     1      12.997  12.302  29.156  1.00  0.00     0.064 C 
HETATM    9  C4  UNL     1      13.263  11.948  27.717  1.00  0.00     0.253 A 
HETATM   10  C5  UNL     1      14.227  12.823  26.979  1.00  0.00     0.308 A 
HETATM   11  N4  UNL     1      14.634  11.592  27.585  1.00  0.00     0.099 N 
HETATM   12  C6  UNL     1      15.241  11.546  28.875  1.00  0.00     0.298 C 
ENDBRANCH   5   7
BRANCH   1  13
HETATM   13  N1  UNL     1      14.196  13.696  34.487  1.00  0.00    -0.341 N 
ATOM     14  H12 UNL     1      13.207  13.919  34.596  1.00  0.00     0.177 HD
ATOM     15  H11 UNL     1      14.770  13.586  35.323  1.00  0.00     0.177 HD
ENDBRANCH   1  13
TORSDOF 2
ENDMDL
MODEL 5
REMARK VINA RESULT: -4.441340230      4.501      6.239
REMARK  2 active torsions:
REMARK  status: ('A' for Active; 'I' for Inactive)
REMARK    1  A    between atoms: N1_1  and  N2_4 
REMARK       I    between atoms: N2_4  and  C1_6 
REMARK       I    between atoms: C1_6  and  N3_8 
REMARK    2  A    between atoms: N3_8  and  C2_10 
ROOT
HETATM    1  N2  UNL     1      10.628  16.560  25.352  1.00  0.00    -0.258 N 
ATOM      2  H2  UNL     1       9.749  16.645  25.865  1.00  0.00     0.191 HD
HETATM    3  C1  UNL     1      11.797  17.043  25.969  1.00  0.00     0.334 C 
HETATM    4  O1  UNL     1      12.897  16.961  25.385  1.00  0.00    -0.246 OA
HETATM    5  N3  UNL     1      11.750  17.624  27.251  1.00  0.00    -0.335 N 
ATOM      6  H3  UNL     1      10.846  17.686  27.719  1.00  0.00     0.164 HD
ENDROOT
BRANCH   5   7
HETATM    7  C2  UNL     1      12.914  18.141  27.942  1.00  0.00     0.116 C 
HETATM    8  C3  UNL     1      13.078  19.632  27.758  1.00  0.00     0.064 C 
HETATM    9  C4  UNL     1      13.472  20.133  29.122  1.00  0.00     0.253 A 
HETATM   10  C5  UNL     1      12.364  20.338  30.107  1.00  0.00     0.308 A 
HETATM   11  N4  UNL     1      13.142  19.137  30.082  1.00  0.00     0.099 N 
HETATM   12  C6  UNL     1      12.697  17.958  29.413  1.00  0.00     0.298 C 
ENDBRANCH   5   7
BRANCH   1  13
HETATM   13  N1  UNL     1      10.587  15.974  24.094  1.00  0.00    -0.341 N 
ATOM     14  H12 UNL     1      10.625  16.606  23.294  1.00  0.00     0.177 HD
ATOM     15  H11 UNL     1      10.524  14.970  23.927  1.00  0.00     0.177 HD
ENDBRANCH   1  13
TORSDOF 2
ENDMDL
