MODEL 1
REMARK VINA RESULT: -4.645342974      0.000      0.000
REMARK  3 active torsions:
REMARK  status: ('A' for Active; 'I' for Inactive)
REMARK    1  A    between atoms: O1_2  and  N1_3 
REMARK    2  A    between atoms: N1_3  and  C2_5 
REMARK    3  A    between atoms: C5_12  and  N4_13 
ROOT
HETATM    1  C2  UNL     1      23.884   5.190  77.466  1.00  0.00     0.717 A 
HETATM    2  N2  UNL     1      25.199   5.519  77.515  1.00  0.00    -0.178 N 
ATOM      3  H2  UNL     1      25.594   5.825  78.404  1.00  0.00     0.185 HD
HETATM    4  C3  UNL     1      26.000   5.460  76.442  1.00  0.00     0.109 A 
HETATM    5  C4  UNL     1      27.449   5.840  76.561  1.00  0.00     0.090 C 
HETATM    6  N3  UNL     1      25.455   5.056  75.286  1.00  0.00    -0.180 N 
ATOM      7  H3  UNL     1      26.045   5.003  74.456  1.00  0.00     0.185 HD
HETATM    8  C5  UNL     1      24.156   4.717  75.184  1.00  0.00     0.691 A 
HETATM    9  N5  UNL     1      23.397   4.795  76.292  1.00  0.00    -0.021 N 
ATOM     10  H5  UNL     1      22.410   4.541  76.229  1.00  0.00     0.203 HD
ENDROOT
BRANCH   1  11
HETATM   11  N1  UNL     1      23.226   5.286  78.554  1.00  0.00    -0.096 N 
ATOM     12  H1  UNL     1      22.507   6.008  78.598  1.00  0.00     0.213 HD
BRANCH  11  13
HETATM   13  O1  UNL     1      23.397   4.514  79.662  1.00  0.00    -0.272 OA
HETATM   14  C1  UNL     1      22.938   3.160  79.666  1.00  0.00     0.238 C 
ENDBRANCH  11  13
ENDBRANCH   1  11
BRANCH   8  15
HETATM   15  N4  UNL     1      23.716   4.342  74.045  1.00  0.00    -0.234 N 
ATOM     16  H42 UNL     1      23.871   3.413  73.654  1.00  0.00     0.174 HD
ATOM     17  H41 UNL     1      23.178   5.009  73.492  1.00  0.00     0.174 HD
ENDBRANCH   8  15
TORSDOF 3
ENDMDL
MODEL 2
REMARK VINA RESULT: -4.643509265      3.670      4.306
REMARK  3 active torsions:
REMARK  status: ('A' for Active; 'I' for Inactive)
REMARK    1  A    between atoms: O1_2  and  N1_3 
REMARK    2  A    between atoms: N1_3  and  C2_5 
REMARK    3  A    between atoms: C5_12  and  N4_13 
ROOT
HETATM    1  C2  UNL     1      24.515   1.562  76.674  1.00  0.00     0.717 A 
HETATM    2  N2  UNL     1      24.499   2.052  77.939  1.00  0.00    -0.178 N 
ATOM      3  H2  UNL     1      24.955   1.516  78.677  1.00  0.00     0.185 HD
HETATM    4  C3  UNL     1      23.909   3.212  78.258  1.00  0.00     0.109 A 
HETATM    5  C4  UNL     1      23.926   3.700  79.680  1.00  0.00     0.090 C 
HETATM    6  N3  UNL     1      23.318   3.897  77.270  1.00  0.00    -0.180 N 
ATOM      7  H3  UNL     1      22.862   4.782  77.488  1.00  0.00     0.185 HD
HETATM    8  C5  UNL     1      23.305   3.455  75.998  1.00  0.00     0.691 A 
HETATM    9  N5  UNL     1      23.912   2.285  75.732  1.00  0.00    -0.021 N 
ATOM     10  H5  UNL     1      23.911   1.938  74.772  1.00  0.00     0.203 HD
ENDROOT
BRANCH   1  11
HETATM   11  N1  UNL     1      25.109   0.449  76.496  1.00  0.00    -0.096 N 
ATOM     12  H1  UNL     1      25.955   0.282  77.041  1.00  0.00     0.213 HD
BRANCH  11  13
HETATM   13  O1  UNL     1      24.717  -0.539  75.645  1.00  0.00    -0.272 OA
HETATM   14  C1  UNL     1      24.653  -1.893  76.103  1.00  0.00     0.238 C 
ENDBRANCH  11  13
ENDBRANCH   1  11
BRANCH   8  15
HETATM   15  N4  UNL     1      22.719   4.169  75.115  1.00  0.00    -0.234 N 
ATOM     16  H42 UNL     1      22.305   5.081  75.306  1.00  0.00     0.174 HD
ATOM     17  H41 UNL     1      22.660   3.808  74.163  1.00  0.00     0.174 HD
ENDBRANCH   8  15
TORSDOF 3
ENDMDL
MODEL 3
REMARK VINA RESULT: -4.577983901      2.298      3.721
REMARK  3 active torsions:
REMARK  status: ('A' for Active; 'I' for Inactive)
REMARK    1  A    between atoms: O1_2  and  N1_3 
REMARK    2  A    between atoms: N1_3  and  C2_5 
REMARK    3  A    between atoms: C5_12  and  N4_13 
ROOT
HETATM    1  C2  UNL     1      25.188   4.742  75.759  1.00  0.00     0.717 A 
HETATM    2  N2  UNL     1      25.015   5.237  77.010  1.00  0.00    -0.178 N 
ATOM      3  H2  UNL     1      25.692   5.911  77.368  1.00  0.00     0.185 HD
HETATM    4  C3  UNL     1      23.991   4.877  77.796  1.00  0.00     0.109 A 
HETATM    5  C4  UNL     1      23.856   5.462  79.174  1.00  0.00     0.090 C 
HETATM    6  N3  UNL     1      23.117   3.990  77.302  1.00  0.00    -0.180 N 
ATOM      7  H3  UNL     1      22.329   3.700  77.881  1.00  0.00     0.185 HD
HETATM    8  C5  UNL     1      23.242   3.468  76.068  1.00  0.00     0.691 A 
HETATM    9  N5  UNL     1      24.289   3.864  75.321  1.00  0.00    -0.021 N 
ATOM     10  H5  UNL     1      24.396   3.477  74.383  1.00  0.00     0.203 HD
ENDROOT
BRANCH   1  11
HETATM   11  N1  UNL     1      26.201   5.163  75.109  1.00  0.00    -0.096 N 
ATOM     12  H1  UNL     1      26.025   5.578  74.195  1.00  0.00     0.213 HD
BRANCH  11  13
HETATM   13  O1  UNL     1      27.496   5.108  75.525  1.00  0.00    -0.272 OA
HETATM   14  C1  UNL     1      28.107   3.844  75.797  1.00  0.00     0.238 C 
ENDBRANCH  11  13
ENDBRANCH   1  11
BRANCH   8  15
HETATM   15  N4  UNL     1      22.365   2.628  75.673  1.00  0.00    -0.234 N 
ATOM     16  H42 UNL     1      21.425   2.563  76.064  1.00  0.00     0.174 HD
ATOM     17  H41 UNL     1      22.616   1.982  74.924  1.00  0.00     0.174 HD
ENDBRANCH   8  15
TORSDOF 3
ENDMDL
MODEL 4
REMARK VINA RESULT: -4.574298678      2.312      3.819
REMARK  3 active torsions:
REMARK  status: ('A' for Active; 'I' for Inactive)
REMARK    1  A    between atoms: O1_2  and  N1_3 
REMARK    2  A    between atoms: N1_3  and  C2_5 
REMARK    3  A    between atoms: C5_12  and  N4_13 
ROOT
HETATM    1  C2  UNL     1      25.925   5.264  75.797  1.00  0.00     0.717 A 
HETATM    2  N2  UNL     1      25.729   5.531  77.112  1.00  0.00    -0.178 N 
ATOM      3  H2  UNL     1      26.511   5.884  77.662  1.00  0.00     0.185 HD
HETATM    4  C3  UNL     1      24.548   5.349  77.719  1.00  0.00     0.109 A 
HETATM    5  C4  UNL     1      24.395   5.663  79.181  1.00  0.00     0.090 C 
HETATM    6  N3  UNL     1      23.536   4.883  76.974  1.00  0.00    -0.180 N 
ATOM      7  H3  UNL     1      22.628   4.736  77.413  1.00  0.00     0.185 HD
HETATM    8  C5  UNL     1      23.678   4.602  75.665  1.00  0.00     0.691 A 
HETATM    9  N5  UNL     1      24.885   4.803  75.105  1.00  0.00    -0.021 N 
ATOM     10  H5  UNL     1      25.007   4.595  74.114  1.00  0.00     0.203 HD
ENDROOT
BRANCH   1  11
HETATM   11  N1  UNL     1      27.094   5.479  75.335  1.00  0.00    -0.096 N 
ATOM     12  H1  UNL     1      27.190   6.226  74.648  1.00  0.00     0.213 HD
BRANCH  11  13
HETATM   13  O1  UNL     1      28.225   4.802  75.676  1.00  0.00    -0.272 OA
HETATM   14  C1  UNL     1      29.251   5.457  76.426  1.00  0.00     0.238 C 
ENDBRANCH  11  13
ENDBRANCH   1  11
BRANCH   8  15
HETATM   15  N4  UNL     1      22.664   4.162  75.026  1.00  0.00    -0.234 N 
ATOM     16  H42 UNL     1      22.411   3.175  74.972  1.00  0.00     0.174 HD
ATOM     17  H41 UNL     1      22.069   4.833  74.541  1.00  0.00     0.174 HD
ENDBRANCH   8  15
TORSDOF 3
ENDMDL
MODEL 5
REMARK VINA RESULT: -4.574143956      2.504      4.300
REMARK  3 active torsions:
REMARK  status: ('A' for Active; 'I' for Inactive)
REMARK    1  A    between atoms: O1_2  and  N1_3 
REMARK    2  A    between atoms: N1_3  and  C2_5 
REMARK    3  A    between atoms: C5_12  and  N4_13 
ROOT
HETATM    1  C2  UNL     1      25.776   4.651  75.984  1.00  0.00     0.717 A 
HETATM    2  N2  UNL     1      25.423   3.344  75.901  1.00  0.00    -0.178 N 
ATOM      3  H2  UNL     1      26.002   2.715  75.345  1.00  0.00     0.185 HD
HETATM    4  C3  UNL     1      24.343   2.845  76.518  1.00  0.00     0.109 A 
HETATM    5  C4  UNL     1      24.004   1.387  76.385  1.00  0.00     0.090 C 
HETATM    6  N3  UNL     1      23.599   3.693  77.241  1.00  0.00    -0.180 N 
ATOM      7  H3  UNL     1      22.772   3.337  77.720  1.00  0.00     0.185 HD
HETATM    8  C5  UNL     1      23.905   4.999  77.357  1.00  0.00     0.691 A 
HETATM    9  N5  UNL     1      25.001   5.447  76.717  1.00  0.00    -0.021 N 
ATOM     10  H5  UNL     1      25.245   6.435  76.796  1.00  0.00     0.203 HD
ENDROOT
BRANCH   1  11
HETATM   11  N1  UNL     1      26.826   5.004  75.353  1.00  0.00    -0.096 N 
ATOM     12  H1  UNL     1      26.716   5.721  74.636  1.00  0.00     0.213 HD
BRANCH  11  13
HETATM   13  O1  UNL     1      28.080   4.512  75.549  1.00  0.00    -0.272 OA
HETATM   14  C1  UNL     1      28.976   5.175  76.444  1.00  0.00     0.238 C 
ENDBRANCH  11  13
ENDBRANCH   1  11
BRANCH   8  15
HETATM   15  N4  UNL     1      23.143   5.739  78.065  1.00  0.00    -0.234 N 
ATOM     16  H42 UNL     1      22.723   5.443  78.946  1.00  0.00     0.174 HD
ATOM     17  H41 UNL     1      22.941   6.682  77.733  1.00  0.00     0.174 HD
ENDBRANCH   8  15
TORSDOF 3
ENDMDL
