MODEL 1
REMARK VINA RESULT: -4.559743320      0.000      0.000
REMARK  2 active torsions:
REMARK  status: ('A' for Active; 'I' for Inactive)
REMARK    1  A    between atoms: C2_2  and  N1_5 
REMARK    2  A    between atoms: C5_10  and  N5_11 
ROOT
HETATM    1  N1  UNL     1      25.046   3.657  76.389  1.00  0.00    -0.100 N 
HETATM    2  N2  UNL     1      26.228   4.277  76.464  1.00  0.00     0.010 NA
HETATM    3  N3  UNL     1      26.269   5.250  75.540  1.00  0.00     0.007 NA
HETATM    4  N4  UNL     1      25.113   5.235  74.891  1.00  0.00    -0.117 N 
ATOM      5  H4  UNL     1      24.847   5.860  74.130  1.00  0.00     0.202 HD
HETATM    6  C5  UNL     1      24.350   4.255  75.407  1.00  0.00     0.704 A 
ENDROOT
BRANCH   1   7
HETATM    7  C2  UNL     1      24.561   2.546  77.192  1.00  0.00     0.059 C 
HETATM    8  C1  UNL     1      25.689   2.145  78.152  1.00  0.00     0.040 C 
HETATM    9  C3  UNL     1      24.160   1.376  76.325  1.00  0.00     0.040 C 
HETATM   10  C4  UNL     1      23.394   2.947  78.070  1.00  0.00     0.040 C 
ENDBRANCH   1   7
BRANCH   6  11
HETATM   11  N5  UNL     1      23.166   3.953  75.019  1.00  0.00    -0.232 N 
ATOM     12  H52 UNL     1      22.934   3.234  74.333  1.00  0.00     0.174 HD
ATOM     13  H51 UNL     1      22.297   4.381  75.337  1.00  0.00     0.174 HD
ENDBRANCH   6  11
TORSDOF 2
ENDMDL
MODEL 2
REMARK VINA RESULT: -4.481615820      9.004     10.356
REMARK  2 active torsions:
REMARK  status: ('A' for Active; 'I' for Inactive)
REMARK    1  A    between atoms: C2_2  and  N1_5 
REMARK    2  A    between atoms: C5_10  and  N5_11 
ROOT
HETATM    1  N1  UNL     1      31.527   1.279  83.785  1.00  0.00    -0.100 N 
HETATM    2  N2  UNL     1      32.445   1.294  84.758  1.00  0.00     0.010 NA
HETATM    3  N3  UNL     1      33.503   0.566  84.369  1.00  0.00     0.007 NA
HETATM    4  N4  UNL     1      33.244   0.099  83.155  1.00  0.00    -0.117 N 
ATOM      5  H4  UNL     1      33.863  -0.489  82.598  1.00  0.00     0.202 HD
HETATM    6  C5  UNL     1      32.026   0.533  82.785  1.00  0.00     0.704 A 
ENDROOT
BRANCH   1   7
HETATM    7  C2  UNL     1      30.227   1.930  83.767  1.00  0.00     0.059 C 
HETATM    8  C1  UNL     1      29.987   2.520  85.163  1.00  0.00     0.040 C 
HETATM    9  C3  UNL     1      29.131   0.954  83.407  1.00  0.00     0.040 C 
HETATM   10  C4  UNL     1      30.192   3.103  82.810  1.00  0.00     0.040 C 
ENDBRANCH   1   7
BRANCH   6  11
HETATM   11  N5  UNL     1      31.452   0.273  81.669  1.00  0.00    -0.232 N 
ATOM     12  H52 UNL     1      31.447   0.882  80.851  1.00  0.00     0.174 HD
ATOM     13  H51 UNL     1      30.925  -0.570  81.441  1.00  0.00     0.174 HD
ENDBRANCH   6  11
TORSDOF 2
ENDMDL
MODEL 3
REMARK VINA RESULT: -4.455734429      0.066      1.362
REMARK  2 active torsions:
REMARK  status: ('A' for Active; 'I' for Inactive)
REMARK    1  A    between atoms: C2_2  and  N1_5 
REMARK    2  A    between atoms: C5_10  and  N5_11 
ROOT
HETATM    1  N1  UNL     1      25.027   3.651  76.424  1.00  0.00    -0.100 N 
HETATM    2  N2  UNL     1      26.209   4.276  76.469  1.00  0.00     0.010 NA
HETATM    3  N3  UNL     1      26.232   5.229  75.525  1.00  0.00     0.007 NA
HETATM    4  N4  UNL     1      25.067   5.198  74.894  1.00  0.00    -0.117 N 
ATOM      5  H4  UNL     1      24.788   5.807  74.125  1.00  0.00     0.202 HD
HETATM    6  C5  UNL     1      24.315   4.226  75.441  1.00  0.00     0.704 A 
ENDROOT
BRANCH   1   7
HETATM    7  C2  UNL     1      24.559   2.556  77.258  1.00  0.00     0.059 C 
HETATM    8  C1  UNL     1      24.168   1.401  76.326  1.00  0.00     0.040 C 
HETATM    9  C3  UNL     1      23.381   2.976  78.105  1.00  0.00     0.040 C 
HETATM   10  C4  UNL     1      25.654   2.013  78.152  1.00  0.00     0.040 C 
ENDBRANCH   1   7
BRANCH   6  11
HETATM   11  N5  UNL     1      23.126   3.914  75.078  1.00  0.00    -0.232 N 
ATOM     12  H52 UNL     1      22.831   3.725  74.119  1.00  0.00     0.174 HD
ATOM     13  H51 UNL     1      22.315   3.808  75.687  1.00  0.00     0.174 HD
ENDBRANCH   6  11
TORSDOF 2
ENDMDL
MODEL 4
REMARK VINA RESULT: -4.434540804      9.000     10.491
REMARK  2 active torsions:
REMARK  status: ('A' for Active; 'I' for Inactive)
REMARK    1  A    between atoms: C2_2  and  N1_5 
REMARK    2  A    between atoms: C5_10  and  N5_11 
ROOT
HETATM    1  N1  UNL     1      30.827   0.521  84.061  1.00  0.00    -0.100 N 
HETATM    2  N2  UNL     1      31.107   0.101  85.300  1.00  0.00     0.010 NA
HETATM    3  N3  UNL     1      31.875  -0.996  85.224  1.00  0.00     0.007 NA
HETATM    4  N4  UNL     1      32.074  -1.258  83.940  1.00  0.00    -0.117 N 
ATOM      5  H4  UNL     1      32.621  -2.034  83.567  1.00  0.00     0.202 HD
HETATM    6  C5  UNL     1      31.430  -0.328  83.212  1.00  0.00     0.704 A 
ENDROOT
BRANCH   1   7
HETATM    7  C2  UNL     1      30.028   1.668  83.661  1.00  0.00     0.059 C 
HETATM    8  C1  UNL     1      29.772   2.513  84.916  1.00  0.00     0.040 C 
HETATM    9  C3  UNL     1      28.722   1.235  83.035  1.00  0.00     0.040 C 
HETATM   10  C4  UNL     1      30.773   2.570  82.699  1.00  0.00     0.040 C 
ENDBRANCH   1   7
BRANCH   6  11
HETATM   11  N5  UNL     1      31.405  -0.273  81.933  1.00  0.00    -0.232 N 
ATOM     12  H52 UNL     1      31.472   0.580  81.376  1.00  0.00     0.174 HD
ATOM     13  H51 UNL     1      31.315  -1.062  81.293  1.00  0.00     0.174 HD
ENDBRANCH   6  11
TORSDOF 2
ENDMDL
MODEL 5
REMARK VINA RESULT: -4.352288995      9.257     10.527
REMARK  2 active torsions:
REMARK  status: ('A' for Active; 'I' for Inactive)
REMARK    1  A    between atoms: C2_2  and  N1_5 
REMARK    2  A    between atoms: C5_10  and  N5_11 
ROOT
HETATM    1  N1  UNL     1      31.652   1.154  83.837  1.00  0.00    -0.100 N 
HETATM    2  N2  UNL     1      32.617   1.361  84.741  1.00  0.00     0.010 NA
HETATM    3  N3  UNL     1      33.674   0.594  84.431  1.00  0.00     0.007 NA
HETATM    4  N4  UNL     1      33.368  -0.088  83.337  1.00  0.00    -0.117 N 
ATOM      5  H4  UNL     1      33.974  -0.756  82.860  1.00  0.00     0.202 HD
HETATM    6  C5  UNL     1      32.121   0.249  82.961  1.00  0.00     0.704 A 
ENDROOT
BRANCH   1   7
HETATM    7  C2  UNL     1      30.335   1.766  83.774  1.00  0.00     0.059 C 
HETATM    8  C1  UNL     1      29.309   0.637  83.610  1.00  0.00     0.040 C 
HETATM    9  C3  UNL     1      30.239   2.743  82.626  1.00  0.00     0.040 C 
HETATM   10  C4  UNL     1      29.973   2.469  85.065  1.00  0.00     0.040 C 
ENDBRANCH   1   7
BRANCH   6  11
HETATM   11  N5  UNL     1      31.500  -0.218  81.943  1.00  0.00    -0.232 N 
ATOM     12  H52 UNL     1      30.519  -0.048  81.719  1.00  0.00     0.174 HD
ATOM     13  H51 UNL     1      31.891  -0.819  81.218  1.00  0.00     0.174 HD
ENDBRANCH   6  11
TORSDOF 2
ENDMDL
