MODEL 1
REMARK VINA RESULT: -4.398240109      0.000      0.000
REMARK  2 active torsions:
REMARK  status: ('A' for Active; 'I' for Inactive)
REMARK    1  A    between atoms: N1_1  and  C1_4 
REMARK    2  A    between atoms: C2_7  and  C3_8 
ROOT
HETATM    1  C1  UNL     1      27.218  -1.937  76.048  1.00  0.00     0.681 A 
HETATM    2  N2  UNL     1      27.616  -2.170  77.310  1.00  0.00    -0.174 N 
ATOM      3  H2  UNL     1      28.610  -2.101  77.527  1.00  0.00     0.186 HD
HETATM    4  C2  UNL     1      26.757  -2.492  78.308  1.00  0.00     0.163 A 
HETATM    5  N3  UNL     1      25.460  -2.580  78.012  1.00  0.00    -0.291 N 
ATOM      6  H3  UNL     1      24.790  -2.821  78.742  1.00  0.00     0.172 HD
HETATM    7  C4  UNL     1      25.030  -2.354  76.759  1.00  0.00     0.340 A 
HETATM    8  O2  UNL     1      23.817  -2.436  76.477  1.00  0.00    -0.246 OA
HETATM    9  N4  UNL     1      25.905  -2.032  75.774  1.00  0.00    -0.141 N 
ATOM     10  H4  UNL     1      25.567  -1.861  74.827  1.00  0.00     0.189 HD
ENDROOT
BRANCH   1  11
HETATM   11  N1  UNL     1      28.086  -1.627  75.116  1.00  0.00    -0.234 N 
ATOM     12  H12 UNL     1      29.046  -1.374  75.350  1.00  0.00     0.174 HD
ATOM     13  H11 UNL     1      27.820  -1.633  74.131  1.00  0.00     0.174 HD
ENDBRANCH   1  11
BRANCH   4  14
HETATM   14  C3  UNL     1      27.212  -2.740  79.668  1.00  0.00     0.307 C 
HETATM   15  O1  UNL     1      26.443  -2.683  80.663  1.00  0.00    -0.298 OA
ENDBRANCH   4  14
TORSDOF 2
ENDMDL
MODEL 2
REMARK VINA RESULT: -4.366754397      8.648      9.313
REMARK  2 active torsions:
REMARK  status: ('A' for Active; 'I' for Inactive)
REMARK    1  A    between atoms: N1_1  and  C1_4 
REMARK    2  A    between atoms: C2_7  and  C3_8 
ROOT
HETATM    1  C1  UNL     1      32.876  -0.267  83.976  1.00  0.00     0.681 A 
HETATM    2  N2  UNL     1      32.250   0.861  84.349  1.00  0.00    -0.174 N 
ATOM      3  H2  UNL     1      32.769   1.738  84.319  1.00  0.00     0.186 HD
HETATM    4  C2  UNL     1      30.960   0.887  84.765  1.00  0.00     0.163 A 
HETATM    5  N3  UNL     1      30.292  -0.266  84.802  1.00  0.00    -0.291 N 
ATOM      6  H3  UNL     1      29.321  -0.279  85.110  1.00  0.00     0.172 HD
HETATM    7  C4  UNL     1      30.891  -1.412  84.435  1.00  0.00     0.340 A 
HETATM    8  O2  UNL     1      30.271  -2.495  84.468  1.00  0.00    -0.246 OA
HETATM    9  N4  UNL     1      32.182  -1.417  84.020  1.00  0.00    -0.141 N 
ATOM     10  H4  UNL     1      32.626  -2.292  83.742  1.00  0.00     0.189 HD
ENDROOT
BRANCH   1  11
HETATM   11  N1  UNL     1      34.126  -0.242  83.579  1.00  0.00    -0.234 N 
ATOM     12  H12 UNL     1      34.422  -0.732  82.735  1.00  0.00     0.174 HD
ATOM     13  H11 UNL     1      34.833   0.270  84.108  1.00  0.00     0.174 HD
ENDBRANCH   1  11
BRANCH   4  14
HETATM   14  C3  UNL     1      30.302   2.122  85.165  1.00  0.00     0.307 C 
HETATM   15  O1  UNL     1      30.280   3.148  84.436  1.00  0.00    -0.298 OA
ENDBRANCH   4  14
TORSDOF 2
ENDMDL
MODEL 3
REMARK VINA RESULT: -4.279505939      7.554      8.974
REMARK  2 active torsions:
REMARK  status: ('A' for Active; 'I' for Inactive)
REMARK    1  A    between atoms: N1_1  and  C1_4 
REMARK    2  A    between atoms: C2_7  and  C3_8 
ROOT
HETATM    1  C1  UNL     1      32.928  -0.073  83.686  1.00  0.00     0.681 A 
HETATM    2  N2  UNL     1      31.990  -0.973  83.349  1.00  0.00    -0.174 N 
ATOM      3  H2  UNL     1      32.271  -1.786  82.801  1.00  0.00     0.186 HD
HETATM    4  C2  UNL     1      30.688  -0.852  83.704  1.00  0.00     0.163 A 
HETATM    5  N3  UNL     1      30.333   0.215  84.420  1.00  0.00    -0.291 N 
ATOM      6  H3  UNL     1      29.360   0.335  84.703  1.00  0.00     0.172 HD
HETATM    7  C4  UNL     1      31.248   1.135  84.772  1.00  0.00     0.340 A 
HETATM    8  O2  UNL     1      30.920   2.136  85.442  1.00  0.00    -0.246 OA
HETATM    9  N4  UNL     1      32.546   0.994  84.408  1.00  0.00    -0.141 N 
ATOM     10  H4  UNL     1      33.232   1.698  84.682  1.00  0.00     0.189 HD
ENDROOT
BRANCH   1  11
HETATM   11  N1  UNL     1      34.177  -0.234  83.319  1.00  0.00    -0.234 N 
ATOM     12  H12 UNL     1      34.426  -0.854  82.549  1.00  0.00     0.174 HD
ATOM     13  H11 UNL     1      34.930   0.260  83.799  1.00  0.00     0.174 HD
ENDBRANCH   1  11
BRANCH   4  14
HETATM   14  C3  UNL     1      29.689  -1.841  83.327  1.00  0.00     0.307 C 
HETATM   15  O1  UNL     1      28.452  -1.629  83.425  1.00  0.00    -0.298 OA
ENDBRANCH   4  14
TORSDOF 2
ENDMDL
MODEL 4
REMARK VINA RESULT: -4.261769494      1.622      2.508
REMARK  2 active torsions:
REMARK  status: ('A' for Active; 'I' for Inactive)
REMARK    1  A    between atoms: N1_1  and  C1_4 
REMARK    2  A    between atoms: C2_7  and  C3_8 
ROOT
HETATM    1  C1  UNL     1      25.115  -2.377  76.653  1.00  0.00     0.681 A 
HETATM    2  N2  UNL     1      25.537  -2.643  77.900  1.00  0.00    -0.174 N 
ATOM      3  H2  UNL     1      24.864  -3.010  78.572  1.00  0.00     0.186 HD
HETATM    4  C2  UNL     1      26.814  -2.444  78.306  1.00  0.00     0.163 A 
HETATM    5  N3  UNL     1      27.684  -1.962  77.418  1.00  0.00    -0.291 N 
ATOM      6  H3  UNL     1      28.653  -1.802  77.694  1.00  0.00     0.172 HD
HETATM    7  C4  UNL     1      27.293  -1.685  76.163  1.00  0.00     0.340 A 
HETATM    8  O2  UNL     1      28.104  -1.233  75.328  1.00  0.00    -0.246 OA
HETATM    9  N4  UNL     1      26.011  -1.892  75.775  1.00  0.00    -0.141 N 
ATOM     10  H4  UNL     1      25.726  -1.680  74.819  1.00  0.00     0.189 HD
ENDROOT
BRANCH   1  11
HETATM   11  N1  UNL     1      23.868  -2.586  76.306  1.00  0.00    -0.234 N 
ATOM     12  H12 UNL     1      23.600  -3.412  75.771  1.00  0.00     0.174 HD
ATOM     13  H11 UNL     1      23.135  -1.925  76.564  1.00  0.00     0.174 HD
ENDBRANCH   1  11
BRANCH   4  14
HETATM   14  C3  UNL     1      27.248  -2.740  79.664  1.00  0.00     0.307 C 
HETATM   15  O1  UNL     1      26.613  -2.354  80.680  1.00  0.00    -0.298 OA
ENDBRANCH   4  14
TORSDOF 2
ENDMDL
MODEL 5
REMARK VINA RESULT: -4.252725187      9.041      9.439
REMARK  2 active torsions:
REMARK  status: ('A' for Active; 'I' for Inactive)
REMARK    1  A    between atoms: N1_1  and  C1_4 
REMARK    2  A    between atoms: C2_7  and  C3_8 
ROOT
HETATM    1  C1  UNL     1      32.735   1.266  82.150  1.00  0.00     0.681 A 
HETATM    2  N2  UNL     1      31.676   1.885  82.695  1.00  0.00    -0.174 N 
ATOM      3  H2  UNL     1      31.215   2.622  82.161  1.00  0.00     0.186 HD
HETATM    4  C2  UNL     1      31.190   1.577  83.923  1.00  0.00     0.163 A 
HETATM    5  N3  UNL     1      31.802   0.613  84.612  1.00  0.00    -0.291 N 
ATOM      6  H3  UNL     1      31.460   0.358  85.538  1.00  0.00     0.172 HD
HETATM    7  C4  UNL     1      32.866  -0.025  84.094  1.00  0.00     0.340 A 
HETATM    8  O2  UNL     1      33.442  -0.927  84.735  1.00  0.00    -0.246 OA
HETATM    9  N4  UNL     1      33.335   0.298  82.863  1.00  0.00    -0.141 N 
ATOM     10  H4  UNL     1      34.142  -0.194  82.480  1.00  0.00     0.189 HD
ENDROOT
BRANCH   1  11
HETATM   11  N1  UNL     1      33.168   1.599  80.957  1.00  0.00    -0.234 N 
ATOM     12  H12 UNL     1      32.591   1.461  80.128  1.00  0.00     0.174 HD
ATOM     13  H11 UNL     1      34.096   2.006  80.832  1.00  0.00     0.174 HD
ENDBRANCH   1  11
BRANCH   4  14
HETATM   14  C3  UNL     1      30.040   2.262  84.493  1.00  0.00     0.307 C 
HETATM   15  O1  UNL     1      30.078   2.839  85.611  1.00  0.00    -0.298 OA
ENDBRANCH   4  14
TORSDOF 2
ENDMDL
