MODEL 1
REMARK VINA RESULT: -4.617731255      0.000      0.000
REMARK  2 active torsions:
REMARK  status: ('A' for Active; 'I' for Inactive)
REMARK    1  A    between atoms: N1_2  and  C3_4 
REMARK    2  A    between atoms: C5_11  and  N4_12 
ROOT
HETATM    1  C3  UNL     1      25.575   4.293  75.860  1.00  0.00     0.698 A 
HETATM    2  N2  UNL     1      26.727   3.601  75.846  1.00  0.00    -0.140 N 
ATOM      3  H2  UNL     1      26.689   2.582  75.806  1.00  0.00     0.189 HD
HETATM    4  C4  UNL     1      27.926   4.205  75.885  1.00  0.00     0.352 A 
HETATM    5  O1  UNL     1      28.985   3.529  75.872  1.00  0.00    -0.246 OA
HETATM    6  N3  UNL     1      27.907   5.549  75.939  1.00  0.00    -0.141 N 
ATOM      7  H3  UNL     1      28.795   6.051  75.970  1.00  0.00     0.189 HD
HETATM    8  C5  UNL     1      26.763   6.257  75.954  1.00  0.00     0.694 A 
HETATM    9  N5  UNL     1      25.567   5.641  75.914  1.00  0.00    -0.022 N 
ATOM     10  H5  UNL     1      24.695   6.169  75.926  1.00  0.00     0.203 HD
ENDROOT
BRANCH   1  11
HETATM   11  N1  UNL     1      24.287   3.641  75.821  1.00  0.00    -0.226 N 
HETATM   12  C1  UNL     1      23.209   4.427  75.255  1.00  0.00     0.168 C 
HETATM   13  C2  UNL     1      24.085   2.314  76.323  1.00  0.00     0.168 C 
ENDBRANCH   1  11
BRANCH   8  14
HETATM   14  N4  UNL     1      26.843   7.530  76.013  1.00  0.00    -0.234 N 
ATOM     15  H42 UNL     1      27.597   7.984  76.528  1.00  0.00     0.174 HD
ATOM     16  H41 UNL     1      26.135   8.080  75.525  1.00  0.00     0.174 HD
ENDBRANCH   8  14
TORSDOF 2
ENDMDL
MODEL 2
REMARK VINA RESULT: -4.569181203      1.847      3.075
REMARK  2 active torsions:
REMARK  status: ('A' for Active; 'I' for Inactive)
REMARK    1  A    between atoms: N1_2  and  C3_4 
REMARK    2  A    between atoms: C5_11  and  N4_12 
ROOT
HETATM    1  C3  UNL     1      25.343   2.690  76.493  1.00  0.00     0.698 A 
HETATM    2  N2  UNL     1      26.398   3.492  76.267  1.00  0.00    -0.140 N 
ATOM      3  H2  UNL     1      27.337   3.130  76.435  1.00  0.00     0.189 HD
HETATM    4  C4  UNL     1      26.257   4.753  75.828  1.00  0.00     0.352 A 
HETATM    5  O1  UNL     1      27.265   5.478  75.628  1.00  0.00    -0.246 OA
HETATM    6  N3  UNL     1      24.995   5.171  75.627  1.00  0.00    -0.141 N 
ATOM      7  H3  UNL     1      24.840   6.123  75.295  1.00  0.00     0.189 HD
HETATM    8  C5  UNL     1      23.928   4.382  75.849  1.00  0.00     0.694 A 
HETATM    9  N5  UNL     1      24.080   3.119  76.288  1.00  0.00    -0.022 N 
ATOM     10  H5  UNL     1      23.277   2.514  76.459  1.00  0.00     0.203 HD
ENDROOT
BRANCH   1  11
HETATM   11  N1  UNL     1      25.495   1.335  76.967  1.00  0.00    -0.226 N 
HETATM   12  C1  UNL     1      24.636   0.354  76.335  1.00  0.00     0.168 C 
HETATM   13  C2  UNL     1      26.422   0.986  78.004  1.00  0.00     0.168 C 
ENDBRANCH   1  11
BRANCH   8  14
HETATM   14  N4  UNL     1      22.766   4.867  75.637  1.00  0.00    -0.234 N 
ATOM     15  H42 UNL     1      22.578   5.859  75.779  1.00  0.00     0.174 HD
ATOM     16  H41 UNL     1      22.032   4.235  75.315  1.00  0.00     0.174 HD
ENDBRANCH   8  14
TORSDOF 2
ENDMDL
MODEL 3
REMARK VINA RESULT: -4.564989927      2.492      3.241
REMARK  2 active torsions:
REMARK  status: ('A' for Active; 'I' for Inactive)
REMARK    1  A    between atoms: N1_2  and  C3_4 
REMARK    2  A    between atoms: C5_11  and  N4_12 
ROOT
HETATM    1  C3  UNL     1      24.241   5.152  77.471  1.00  0.00     0.698 A 
HETATM    2  N2  UNL     1      25.509   5.589  77.381  1.00  0.00    -0.140 N 
ATOM      3  H2  UNL     1      25.975   5.926  78.223  1.00  0.00     0.189 HD
HETATM    4  C4  UNL     1      26.182   5.598  76.218  1.00  0.00     0.352 A 
HETATM    5  O1  UNL     1      27.367   6.014  76.167  1.00  0.00    -0.246 OA
HETATM    6  N3  UNL     1      25.511   5.143  75.144  1.00  0.00    -0.141 N 
ATOM      7  H3  UNL     1      25.983   5.132  74.240  1.00  0.00     0.189 HD
HETATM    8  C5  UNL     1      24.242   4.702  75.217  1.00  0.00     0.694 A 
HETATM    9  N5  UNL     1      23.577   4.698  76.387  1.00  0.00    -0.022 N 
ATOM     10  H5  UNL     1      22.615   4.366  76.452  1.00  0.00     0.203 HD
ENDROOT
BRANCH   1  11
HETATM   11  N1  UNL     1      23.518   5.145  78.721  1.00  0.00    -0.226 N 
HETATM   12  C1  UNL     1      23.004   6.430  79.150  1.00  0.00     0.168 C 
HETATM   13  C2  UNL     1      23.337   3.951  79.493  1.00  0.00     0.168 C 
ENDBRANCH   1  11
BRANCH   8  14
HETATM   14  N4  UNL     1      23.683   4.295  74.144  1.00  0.00    -0.234 N 
ATOM     15  H42 UNL     1      23.492   4.939  73.376  1.00  0.00     0.174 HD
ATOM     16  H41 UNL     1      23.439   3.307  74.074  1.00  0.00     0.174 HD
ENDBRANCH   8  14
TORSDOF 2
ENDMDL
MODEL 4
REMARK VINA RESULT: -4.553861293      2.523      3.432
REMARK  2 active torsions:
REMARK  status: ('A' for Active; 'I' for Inactive)
REMARK    1  A    between atoms: N1_2  and  C3_4 
REMARK    2  A    between atoms: C5_11  and  N4_12 
ROOT
HETATM    1  C3  UNL     1      24.240   5.202  77.528  1.00  0.00     0.698 A 
HETATM    2  N2  UNL     1      25.513   5.619  77.422  1.00  0.00    -0.140 N 
ATOM      3  H2  UNL     1      25.986   5.975  78.253  1.00  0.00     0.189 HD
HETATM    4  C4  UNL     1      26.184   5.583  76.259  1.00  0.00     0.352 A 
HETATM    5  O1  UNL     1      27.374   5.981  76.193  1.00  0.00    -0.246 OA
HETATM    6  N3  UNL     1      25.505   5.104  75.201  1.00  0.00    -0.141 N 
ATOM      7  H3  UNL     1      25.974   5.058  74.297  1.00  0.00     0.189 HD
HETATM    8  C5  UNL     1      24.230   4.683  75.290  1.00  0.00     0.694 A 
HETATM    9  N5  UNL     1      23.568   4.723  76.461  1.00  0.00    -0.022 N 
ATOM     10  H5  UNL     1      22.601   4.407  76.537  1.00  0.00     0.203 HD
ENDROOT
BRANCH   1  11
HETATM   11  N1  UNL     1      23.519   5.244  78.779  1.00  0.00    -0.226 N 
HETATM   12  C1  UNL     1      23.466   3.993  79.509  1.00  0.00     0.168 C 
HETATM   13  C2  UNL     1      22.885   6.438  79.258  1.00  0.00     0.168 C 
ENDBRANCH   1  11
BRANCH   8  14
HETATM   14  N4  UNL     1      23.663   4.250  74.231  1.00  0.00    -0.234 N 
ATOM     15  H42 UNL     1      24.213   3.863  73.464  1.00  0.00     0.174 HD
ATOM     16  H41 UNL     1      22.645   4.296  74.176  1.00  0.00     0.174 HD
ENDBRANCH   8  14
TORSDOF 2
ENDMDL
MODEL 5
REMARK VINA RESULT: -4.516817499      2.482      3.402
REMARK  2 active torsions:
REMARK  status: ('A' for Active; 'I' for Inactive)
REMARK    1  A    between atoms: N1_2  and  C3_4 
REMARK    2  A    between atoms: C5_11  and  N4_12 
ROOT
HETATM    1  C3  UNL     1      25.427   2.703  76.481  1.00  0.00     0.698 A 
HETATM    2  N2  UNL     1      24.217   3.116  76.071  1.00  0.00    -0.140 N 
ATOM      3  H2  UNL     1      23.405   2.527  76.256  1.00  0.00     0.189 HD
HETATM    4  C4  UNL     1      24.039   4.281  75.424  1.00  0.00     0.352 A 
HETATM    5  O1  UNL     1      22.894   4.638  75.052  1.00  0.00    -0.246 OA
HETATM    6  N3  UNL     1      25.148   5.011  75.210  1.00  0.00    -0.141 N 
ATOM      7  H3  UNL     1      25.062   5.903  74.722  1.00  0.00     0.189 HD
HETATM    8  C5  UNL     1      26.368   4.611  75.614  1.00  0.00     0.694 A 
HETATM    9  N5  UNL     1      26.534   3.443  76.261  1.00  0.00    -0.022 N 
ATOM     10  H5  UNL     1      27.454   3.132  76.571  1.00  0.00     0.203 HD
ENDROOT
BRANCH   1  11
HETATM   11  N1  UNL     1      25.617   1.450  77.175  1.00  0.00    -0.226 N 
HETATM   12  C1  UNL     1      25.043   0.287  76.527  1.00  0.00     0.168 C 
HETATM   13  C2  UNL     1      26.310   1.365  78.426  1.00  0.00     0.168 C 
ENDBRANCH   1  11
BRANCH   8  14
HETATM   14  N4  UNL     1      27.365   5.368  75.360  1.00  0.00    -0.234 N 
ATOM     15  H42 UNL     1      27.234   6.363  75.179  1.00  0.00     0.174 HD
ATOM     16  H41 UNL     1      28.296   4.950  75.350  1.00  0.00     0.174 HD
ENDBRANCH   8  14
TORSDOF 2
ENDMDL
