MODEL 1
REMARK VINA RESULT: -4.013415625      0.000      0.000
REMARK  2 active torsions:
REMARK  status: ('A' for Active; 'I' for Inactive)
REMARK       I    between atoms: C2_4  and  N2_5 
REMARK       I    between atoms: C2_4  and  N4_9 
REMARK    1  A    between atoms: N4_9  and  N5_11 
REMARK    2  A    between atoms: N5_11  and  C4_12 
ROOT
HETATM    1  C1  UNL     1      23.093   4.520  75.037  1.00  0.00     0.165 C 
HETATM    2  N1  UNL     1      23.918   3.352  75.365  1.00  0.00    -0.228 N 
ATOM      3  H1  UNL     1      24.411   2.847  74.628  1.00  0.00     0.177 HD
HETATM    4  C2  UNL     1      24.019   2.953  76.647  1.00  0.00     0.711 C 
HETATM    5  N2  UNL     1      23.350   3.696  77.640  1.00  0.00    -0.124 N 
ATOM      6  H2  UNL     1      22.966   4.607  77.388  1.00  0.00     0.197 HD
HETATM    7  C3  UNL     1      23.187   3.246  78.961  1.00  0.00     0.196 C 
HETATM    8  N3  UNL     1      23.102   2.852  80.079  1.00  0.00    -0.171 NA
HETATM    9  N4  UNL     1      24.775   1.799  76.883  1.00  0.00    -0.062 N 
ATOM     10  H4  UNL     1      25.529   1.972  77.549  1.00  0.00     0.221 HD
ENDROOT
BRANCH   9  11
HETATM   11  N5  UNL     1      24.769   0.569  76.477  1.00  0.00    -0.282 NA
BRANCH  11  12
HETATM   12  C4  UNL     1      24.770  -0.703  76.062  1.00  0.00     0.467 C 
HETATM   13  O1  UNL     1      24.239  -1.773  76.396  1.00  0.00    -0.266 OA
ENDBRANCH  11  12
ENDBRANCH   9  11
TORSDOF 2
ENDMDL
MODEL 2
REMARK VINA RESULT: -3.943020477      2.428      3.456
REMARK  2 active torsions:
REMARK  status: ('A' for Active; 'I' for Inactive)
REMARK       I    between atoms: C2_4  and  N2_5 
REMARK       I    between atoms: C2_4  and  N4_9 
REMARK    1  A    between atoms: N4_9  and  N5_11 
REMARK    2  A    between atoms: N5_11  and  C4_12 
ROOT
HETATM    1  C1  UNL     1      23.535   5.876  78.590  1.00  0.00     0.165 C 
HETATM    2  N1  UNL     1      23.520   4.728  77.676  1.00  0.00    -0.228 N 
ATOM      3  H1  UNL     1      22.748   4.061  77.699  1.00  0.00     0.177 HD
HETATM    4  C2  UNL     1      24.535   4.562  76.807  1.00  0.00     0.711 C 
HETATM    5  N2  UNL     1      25.567   5.522  76.782  1.00  0.00    -0.124 N 
ATOM      6  H2  UNL     1      25.426   6.398  77.286  1.00  0.00     0.197 HD
HETATM    7  C3  UNL     1      26.779   5.333  76.098  1.00  0.00     0.196 C 
HETATM    8  N3  UNL     1      27.776   5.155  75.476  1.00  0.00    -0.171 NA
HETATM    9  N4  UNL     1      24.488   3.415  76.004  1.00  0.00    -0.062 N 
ATOM     10  H4  UNL     1      24.524   3.649  75.012  1.00  0.00     0.221 HD
ENDROOT
BRANCH   9  11
HETATM   11  N5  UNL     1      24.410   2.137  76.192  1.00  0.00    -0.282 NA
BRANCH  11  12
HETATM   12  C4  UNL     1      24.336   0.814  76.380  1.00  0.00     0.467 C 
HETATM   13  O1  UNL     1      24.722  -0.214  75.803  1.00  0.00    -0.266 OA
ENDBRANCH  11  12
ENDBRANCH   9  11
TORSDOF 2
ENDMDL
MODEL 3
REMARK VINA RESULT: -3.937531658      3.120      4.168
REMARK  2 active torsions:
REMARK  status: ('A' for Active; 'I' for Inactive)
REMARK       I    between atoms: C2_4  and  N2_5 
REMARK       I    between atoms: C2_4  and  N4_9 
REMARK    1  A    between atoms: N4_9  and  N5_11 
REMARK    2  A    between atoms: N5_11  and  C4_12 
ROOT
HETATM    1  C1  UNL     1      21.737   7.180  79.747  1.00  0.00     0.165 C 
HETATM    2  N1  UNL     1      22.415   6.585  78.590  1.00  0.00    -0.228 N 
ATOM      3  H1  UNL     1      21.985   6.624  77.666  1.00  0.00     0.177 HD
HETATM    4  C2  UNL     1      23.610   5.987  78.760  1.00  0.00     0.711 C 
HETATM    5  N2  UNL     1      24.186   5.982  80.046  1.00  0.00    -0.124 N 
ATOM      6  H2  UNL     1      23.777   6.582  80.762  1.00  0.00     0.197 HD
HETATM    7  C3  UNL     1      25.296   5.193  80.390  1.00  0.00     0.196 C 
HETATM    8  N3  UNL     1      26.260   4.543  80.635  1.00  0.00    -0.171 NA
HETATM    9  N4  UNL     1      24.174   5.390  77.626  1.00  0.00    -0.062 N 
ATOM     10  H4  UNL     1      25.106   5.757  77.432  1.00  0.00     0.221 HD
ENDROOT
BRANCH   9  11
HETATM   11  N5  UNL     1      23.824   4.494  76.759  1.00  0.00    -0.282 NA
BRANCH  11  12
HETATM   12  C4  UNL     1      23.462   3.562  75.870  1.00  0.00     0.467 C 
HETATM   13  O1  UNL     1      22.833   2.493  75.872  1.00  0.00    -0.266 OA
ENDBRANCH  11  12
ENDBRANCH   9  11
TORSDOF 2
ENDMDL
MODEL 4
REMARK VINA RESULT: -3.923413428      1.682      3.031
REMARK  2 active torsions:
REMARK  status: ('A' for Active; 'I' for Inactive)
REMARK       I    between atoms: C2_4  and  N2_5 
REMARK       I    between atoms: C2_4  and  N4_9 
REMARK    1  A    between atoms: N4_9  and  N5_11 
REMARK    2  A    between atoms: N5_11  and  C4_12 
ROOT
HETATM    1  C1  UNL     1      23.091   4.234  79.544  1.00  0.00     0.165 C 
HETATM    2  N1  UNL     1      23.157   3.266  78.443  1.00  0.00    -0.228 N 
ATOM      3  H1  UNL     1      22.599   2.412  78.475  1.00  0.00     0.177 HD
HETATM    4  C2  UNL     1      23.960   3.515  77.391  1.00  0.00     0.711 C 
HETATM    5  N2  UNL     1      24.690   4.720  77.368  1.00  0.00    -0.124 N 
ATOM      6  H2  UNL     1      24.452   5.443  78.049  1.00  0.00     0.197 HD
HETATM    7  C3  UNL     1      25.726   4.977  76.456  1.00  0.00     0.196 C 
HETATM    8  N3  UNL     1      26.570   5.176  75.643  1.00  0.00    -0.171 NA
HETATM    9  N4  UNL     1      24.019   2.523  76.404  1.00  0.00    -0.062 N 
ATOM     10  H4  UNL     1      23.773   2.892  75.485  1.00  0.00     0.221 HD
ENDROOT
BRANCH   9  11
HETATM   11  N5  UNL     1      24.305   1.261  76.352  1.00  0.00    -0.282 NA
BRANCH  11  12
HETATM   12  C4  UNL     1      24.607  -0.041  76.300  1.00  0.00     0.467 C 
HETATM   13  O1  UNL     1      24.966  -0.862  75.442  1.00  0.00    -0.266 OA
ENDBRANCH  11  12
ENDBRANCH   9  11
TORSDOF 2
ENDMDL
MODEL 5
REMARK VINA RESULT: -3.912145515      2.186      3.166
REMARK  2 active torsions:
REMARK  status: ('A' for Active; 'I' for Inactive)
REMARK       I    between atoms: C2_4  and  N2_5 
REMARK       I    between atoms: C2_4  and  N4_9 
REMARK    1  A    between atoms: N4_9  and  N5_11 
REMARK    2  A    between atoms: N5_11  and  C4_12 
ROOT
HETATM    1  C1  UNL     1      28.130   4.307  75.784  1.00  0.00     0.165 C 
HETATM    2  N1  UNL     1      27.289   3.251  76.357  1.00  0.00    -0.228 N 
ATOM      3  H1  UNL     1      27.715   2.458  76.839  1.00  0.00     0.177 HD
HETATM    4  C2  UNL     1      25.950   3.335  76.242  1.00  0.00     0.711 C 
HETATM    5  N2  UNL     1      25.398   4.462  75.600  1.00  0.00    -0.124 N 
ATOM      6  H2  UNL     1      26.007   5.257  75.407  1.00  0.00     0.197 HD
HETATM    7  C3  UNL     1      24.050   4.544  75.213  1.00  0.00     0.196 C 
HETATM    8  N3  UNL     1      22.895   4.596  74.936  1.00  0.00    -0.171 NA
HETATM    9  N4  UNL     1      25.211   2.265  76.761  1.00  0.00    -0.062 N 
ATOM     10  H4  UNL     1      24.529   2.579  77.452  1.00  0.00     0.221 HD
ENDROOT
BRANCH   9  11
HETATM   11  N5  UNL     1      25.166   0.982  76.593  1.00  0.00    -0.282 NA
BRANCH  11  12
HETATM   12  C4  UNL     1      25.116  -0.343  76.412  1.00  0.00     0.467 C 
HETATM   13  O1  UNL     1      24.957  -1.130  75.468  1.00  0.00    -0.266 OA
ENDBRANCH  11  12
ENDBRANCH   9  11
TORSDOF 2
ENDMDL
