MODEL 1
REMARK VINA RESULT: -8.089195540      0.000      0.000
REMARK  17 active torsions:
REMARK  status: ('A' for Active; 'I' for Inactive)
REMARK    1  A    between atoms: O1_2  and  C2_3 
REMARK    2  A    between atoms: C2_3  and  C3_4 
REMARK    3  A    between atoms: C2_3  and  C20_31 
REMARK    4  A    between atoms: C3_4  and  C7_8 
REMARK    5  A    between atoms: C8_10  and  O3_11 
REMARK    6  A    between atoms: O3_11  and  C9_12 
REMARK    7  A    between atoms: C11_14  and  O4_15 
REMARK    8  A    between atoms: O4_15  and  C12_16 
REMARK    9  A    between atoms: C16_21  and  O6_23 
REMARK   10  A    between atoms: C19_27  and  O8_28 
REMARK   11  A    between atoms: C20_31  and  O10_32 
REMARK   12  A    between atoms: C20_31  and  C21_34 
REMARK   13  A    between atoms: C21_34  and  O11_35 
REMARK   14  A    between atoms: C21_34  and  C22_37 
REMARK   15  A    between atoms: C21_34  and  O13_40 
REMARK   16  A    between atoms: C22_37  and  O12_38 
REMARK   17  A    between atoms: O13_40  and  C23_41 
ROOT
HETATM    1  C7  UNL     1     102.903 -19.678 -14.583  1.00  0.00     0.304 C 
HETATM    2  O2  UNL     1     102.741 -19.786 -15.981  1.00  0.00    -0.304 OA
HETATM    3  C8  UNL     1     102.963 -21.171 -15.764  1.00  0.00     0.418 C 
HETATM    4  O9  UNL     1     102.332 -20.937 -14.516  1.00  0.00    -0.304 OA
ENDROOT
BRANCH   1   5
HETATM    5  C3  UNL     1     102.168 -18.540 -13.986  1.00  0.00     0.008 C 
HETATM    6  C4  UNL     1     102.901 -17.459 -13.786  1.00  0.00    -0.078 C 
HETATM    7  C5  UNL     1     102.301 -16.233 -13.237  1.00  0.00     0.043 C 
HETATM    8  C6  UNL     1     104.353 -17.460 -14.090  1.00  0.00     0.043 C 
BRANCH   5   9
HETATM    9  C2  UNL     1     100.724 -18.584 -13.676  1.00  0.00     0.189 C 
BRANCH   9  10
HETATM   10  O1  UNL     1     100.065 -18.591 -14.934  1.00  0.00    -0.383 OA
HETATM   11  C1  UNL     1      99.608 -17.347 -15.302  1.00  0.00     0.202 C 
ENDBRANCH   9  10
BRANCH   9  12
HETATM   12  C20 UNL     1     100.239 -19.735 -12.839  1.00  0.00     0.216 C 
BRANCH  12  13
HETATM   13  O10 UNL     1     100.456 -19.520 -11.526  1.00  0.00    -0.387 OA
ATOM     14  H10 UNL     1      99.831 -19.990 -10.987  1.00  0.00     0.210 HD
ENDBRANCH  12  13
BRANCH  12  15
HETATM   15  C21 UNL     1      99.069 -20.495 -13.300  1.00  0.00     0.221 C 
BRANCH  15  16
HETATM   16  O11 UNL     1      99.274 -20.943 -14.637  1.00  0.00    -0.361 OA
ATOM     17  H11 UNL     1     100.139 -20.688 -14.937  1.00  0.00     0.213 HD
ENDBRANCH  15  16
BRANCH  15  18
HETATM   18  C22 UNL     1      97.722 -19.895 -13.225  1.00  0.00     0.235 C 
BRANCH  18  19
HETATM   19  O12 UNL     1      97.487 -18.930 -12.296  1.00  0.00    -0.395 OA
ATOM     20  H12 UNL     1      96.594 -18.783 -12.006  1.00  0.00     0.209 HD
ENDBRANCH  18  19
ENDBRANCH  15  18
BRANCH  15  21
HETATM   21  O13 UNL     1      98.950 -21.778 -12.640  1.00  0.00    -0.279 OA
BRANCH  21  22
HETATM   22  C23 UNL     1      98.944 -23.001 -13.203  1.00  0.00     0.257 C 
HETATM   23  C24 UNL     1     100.092 -23.970 -12.984  1.00  0.00     0.126 C 
HETATM   24  O14 UNL     1      97.980 -23.362 -13.923  1.00  0.00    -0.266 OA
ENDBRANCH  21  22
ENDBRANCH  15  21
ENDBRANCH  12  15
ENDBRANCH   9  12
ENDBRANCH   5   9
ENDBRANCH   1   5
BRANCH   3  25
HETATM   25  O3  UNL     1     102.278 -22.033 -16.575  1.00  0.00    -0.331 OA
BRANCH  25  26
HETATM   26  C9  UNL     1     103.125 -22.978 -17.165  1.00  0.00     0.163 C 
HETATM   27  C10 UNL     1     104.291 -23.356 -16.333  1.00  0.00     0.104 C 
HETATM   28  C11 UNL     1     105.596 -23.383 -17.108  1.00  0.00     0.176 C 
HETATM   29  C14 UNL     1     106.095 -21.985 -17.252  1.00  0.00     0.072 C 
HETATM   30  O7  UNL     1     105.298 -24.006 -18.330  1.00  0.00    -0.344 OA
HETATM   31  C15 UNL     1     106.447 -21.562 -18.640  1.00  0.00     0.045 C 
HETATM   32  C16 UNL     1     105.623 -22.169 -19.727  1.00  0.00     0.083 C 
HETATM   33  C17 UNL     1     104.963 -21.196 -20.647  1.00  0.00     0.049 C 
HETATM   34  C18 UNL     1     104.607 -23.170 -19.177  1.00  0.00     0.190 C 
HETATM   35  C19 UNL     1     103.500 -22.404 -18.515  1.00  0.00     0.179 C 
BRANCH  28  36
HETATM   36  O4  UNL     1     106.534 -24.239 -16.476  1.00  0.00    -0.283 OA
BRANCH  36  37
HETATM   37  C12 UNL     1     107.657 -24.752 -17.096  1.00  0.00     0.257 C 
HETATM   38  C13 UNL     1     108.905 -23.951 -17.226  1.00  0.00     0.126 C 
HETATM   39  O5  UNL     1     107.596 -25.920 -17.548  1.00  0.00    -0.266 OA
ENDBRANCH  36  37
ENDBRANCH  28  36
BRANCH  32  40
HETATM   40  O6  UNL     1     106.491 -22.950 -20.523  1.00  0.00    -0.388 OA
ATOM     41  H6  UNL     1     106.852 -22.377 -21.190  1.00  0.00     0.210 HD
ENDBRANCH  32  40
BRANCH  35  42
HETATM   42  O8  UNL     1     102.367 -22.564 -19.346  1.00  0.00    -0.390 OA
ATOM     43  H8  UNL     1     101.668 -22.060 -18.947  1.00  0.00     0.210 HD
ENDBRANCH  35  42
ENDBRANCH  25  26
ENDBRANCH   3  25
TORSDOF 17
ENDMDL
MODEL 2
REMARK VINA RESULT: -8.023768817      4.383     10.725
REMARK  17 active torsions:
REMARK  status: ('A' for Active; 'I' for Inactive)
REMARK    1  A    between atoms: O1_2  and  C2_3 
REMARK    2  A    between atoms: C2_3  and  C3_4 
REMARK    3  A    between atoms: C2_3  and  C20_31 
REMARK    4  A    between atoms: C3_4  and  C7_8 
REMARK    5  A    between atoms: C8_10  and  O3_11 
REMARK    6  A    between atoms: O3_11  and  C9_12 
REMARK    7  A    between atoms: C11_14  and  O4_15 
REMARK    8  A    between atoms: O4_15  and  C12_16 
REMARK    9  A    between atoms: C16_21  and  O6_23 
REMARK   10  A    between atoms: C19_27  and  O8_28 
REMARK   11  A    between atoms: C20_31  and  O10_32 
REMARK   12  A    between atoms: C20_31  and  C21_34 
REMARK   13  A    between atoms: C21_34  and  O11_35 
REMARK   14  A    between atoms: C21_34  and  C22_37 
REMARK   15  A    between atoms: C21_34  and  O13_40 
REMARK   16  A    between atoms: C22_37  and  O12_38 
REMARK   17  A    between atoms: O13_40  and  C23_41 
ROOT
HETATM    1  C7  UNL     1      98.036 -20.770 -12.481  1.00  0.00     0.304 C 
HETATM    2  O2  UNL     1      97.105 -20.483 -13.503  1.00  0.00    -0.304 OA
HETATM    3  C8  UNL     1      96.845 -19.309 -12.750  1.00  0.00     0.418 C 
HETATM    4  O9  UNL     1      98.214 -19.401 -12.391  1.00  0.00    -0.304 OA
ENDROOT
BRANCH   1   5
HETATM    5  C3  UNL     1      99.175 -21.599 -12.933  1.00  0.00     0.008 C 
HETATM    6  C4  UNL     1      99.048 -22.890 -12.681  1.00  0.00    -0.078 C 
HETATM    7  C5  UNL     1     100.082 -23.847 -13.107  1.00  0.00     0.043 C 
HETATM    8  C6  UNL     1      97.870 -23.406 -11.943  1.00  0.00     0.043 C 
BRANCH   5   9
HETATM    9  C2  UNL     1     100.345 -21.045 -13.646  1.00  0.00     0.189 C 
BRANCH   9  10
HETATM   10  O1  UNL     1      99.863 -20.661 -14.925  1.00  0.00    -0.383 OA
HETATM   11  C1  UNL     1      99.839 -21.706 -15.820  1.00  0.00     0.202 C 
ENDBRANCH   9  10
BRANCH   9  12
HETATM   12  C20 UNL     1     101.056 -19.888 -12.999  1.00  0.00     0.216 C 
BRANCH  12  13
HETATM   13  O10 UNL     1     100.975 -19.945 -11.655  1.00  0.00    -0.387 OA
ATOM     14  H10 UNL     1     101.395 -19.196 -11.248  1.00  0.00     0.210 HD
ENDBRANCH  12  13
BRANCH  12  15
HETATM   15  C21 UNL     1     102.239 -19.330 -13.666  1.00  0.00     0.221 C 
BRANCH  15  16
HETATM   16  O11 UNL     1     102.604 -20.145 -14.776  1.00  0.00    -0.361 OA
ATOM     17  H11 UNL     1     103.548 -20.252 -14.805  1.00  0.00     0.213 HD
ENDBRANCH  15  16
BRANCH  15  18
HETATM   18  C22 UNL     1     103.463 -19.051 -12.887  1.00  0.00     0.235 C 
BRANCH  18  19
HETATM   19  O12 UNL     1     103.372 -18.248 -11.793  1.00  0.00    -0.395 OA
ATOM     20  H12 UNL     1     102.661 -17.620 -11.744  1.00  0.00     0.209 HD
ENDBRANCH  18  19
ENDBRANCH  15  18
BRANCH  15  21
HETATM   21  O13 UNL     1     101.948 -18.097 -14.367  1.00  0.00    -0.279 OA
BRANCH  21  22
HETATM   22  C23 UNL     1     101.008 -17.180 -14.073  1.00  0.00     0.257 C 
HETATM   23  C24 UNL     1      99.750 -17.047 -14.913  1.00  0.00     0.126 C 
HETATM   24  O14 UNL     1     101.158 -16.413 -13.089  1.00  0.00    -0.266 OA
ENDBRANCH  21  22
ENDBRANCH  15  21
ENDBRANCH  12  15
ENDBRANCH   9  12
ENDBRANCH   5   9
ENDBRANCH   1   5
BRANCH   3  25
HETATM   25  O3  UNL     1      96.538 -18.182 -13.464  1.00  0.00    -0.331 OA
BRANCH  25  26
HETATM   26  C9  UNL     1      95.687 -17.330 -12.751  1.00  0.00     0.163 C 
HETATM   27  C10 UNL     1      94.519 -18.005 -12.141  1.00  0.00     0.104 C 
HETATM   28  C11 UNL     1      93.213 -17.261 -12.360  1.00  0.00     0.176 C 
HETATM   29  C14 UNL     1      92.722 -17.556 -13.736  1.00  0.00     0.072 C 
HETATM   30  O7  UNL     1      93.510 -15.906 -12.143  1.00  0.00    -0.344 OA
HETATM   31  C15 UNL     1      92.373 -16.367 -14.569  1.00  0.00     0.045 C 
HETATM   32  C16 UNL     1      93.195 -15.144 -14.323  1.00  0.00     0.083 C 
HETATM   33  C17 UNL     1      93.859 -14.569 -15.529  1.00  0.00     0.049 C 
HETATM   34  C18 UNL     1      94.205 -15.358 -13.196  1.00  0.00     0.190 C 
HETATM   35  C19 UNL     1      95.316 -16.224 -13.715  1.00  0.00     0.179 C 
BRANCH  28  36
HETATM   36  O4  UNL     1      92.271 -17.599 -11.355  1.00  0.00    -0.283 OA
BRANCH  36  37
HETATM   37  C12 UNL     1      91.776 -18.872 -11.151  1.00  0.00     0.257 C 
HETATM   38  C13 UNL     1      90.447 -19.281 -11.680  1.00  0.00     0.126 C 
HETATM   39  O5  UNL     1      92.484 -19.680 -10.505  1.00  0.00    -0.266 OA
ENDBRANCH  36  37
ENDBRANCH  28  36
BRANCH  32  40
HETATM   40  O6  UNL     1      92.323 -14.147 -13.830  1.00  0.00    -0.388 OA
ATOM     41  H6  UNL     1      92.474 -13.363 -14.344  1.00  0.00     0.210 HD
ENDBRANCH  32  40
BRANCH  35  42
HETATM   42  O8  UNL     1      96.448 -15.383 -13.814  1.00  0.00    -0.390 OA
ATOM     43  H8  UNL     1      96.802 -15.305 -12.935  1.00  0.00     0.210 HD
ENDBRANCH  35  42
ENDBRANCH  25  26
ENDBRANCH   3  25
TORSDOF 17
ENDMDL
MODEL 3
REMARK VINA RESULT: -8.001312036      1.965      5.086
REMARK  17 active torsions:
REMARK  status: ('A' for Active; 'I' for Inactive)
REMARK    1  A    between atoms: O1_2  and  C2_3 
REMARK    2  A    between atoms: C2_3  and  C3_4 
REMARK    3  A    between atoms: C2_3  and  C20_31 
REMARK    4  A    between atoms: C3_4  and  C7_8 
REMARK    5  A    between atoms: C8_10  and  O3_11 
REMARK    6  A    between atoms: O3_11  and  C9_12 
REMARK    7  A    between atoms: C11_14  and  O4_15 
REMARK    8  A    between atoms: O4_15  and  C12_16 
REMARK    9  A    between atoms: C16_21  and  O6_23 
REMARK   10  A    between atoms: C19_27  and  O8_28 
REMARK   11  A    between atoms: C20_31  and  O10_32 
REMARK   12  A    between atoms: C20_31  and  C21_34 
REMARK   13  A    between atoms: C21_34  and  O11_35 
REMARK   14  A    between atoms: C21_34  and  C22_37 
REMARK   15  A    between atoms: C21_34  and  O13_40 
REMARK   16  A    between atoms: C22_37  and  O12_38 
REMARK   17  A    between atoms: O13_40  and  C23_41 
ROOT
HETATM    1  C7  UNL     1      99.657 -22.996 -16.616  1.00  0.00     0.304 C 
HETATM    2  O2  UNL     1     100.585 -24.058 -16.556  1.00  0.00    -0.304 OA
HETATM    3  C8  UNL     1     101.360 -23.252 -17.429  1.00  0.00     0.418 C 
HETATM    4  O9  UNL     1     100.759 -22.167 -16.742  1.00  0.00    -0.304 OA
ENDROOT
BRANCH   1   5
HETATM    5  C3  UNL     1      98.817 -22.871 -15.404  1.00  0.00     0.008 C 
HETATM    6  C4  UNL     1      97.637 -23.458 -15.492  1.00  0.00    -0.078 C 
HETATM    7  C5  UNL     1      96.707 -23.454 -14.352  1.00  0.00     0.043 C 
HETATM    8  C6  UNL     1      97.210 -24.118 -16.749  1.00  0.00     0.043 C 
BRANCH   5   9
HETATM    9  C2  UNL     1      99.269 -22.184 -14.176  1.00  0.00     0.189 C 
BRANCH   9  10
HETATM   10  O1  UNL     1     100.427 -22.888 -13.752  1.00  0.00    -0.383 OA
HETATM   11  C1  UNL     1     100.137 -23.922 -12.892  1.00  0.00     0.202 C 
ENDBRANCH   9  10
BRANCH   9  12
HETATM   12  C20 UNL     1      99.575 -20.716 -14.285  1.00  0.00     0.216 C 
BRANCH  12  13
HETATM   13  O10 UNL     1      98.491 -19.962 -14.012  1.00  0.00    -0.387 OA
ATOM     14  H10 UNL     1      98.684 -19.035 -14.083  1.00  0.00     0.210 HD
ENDBRANCH  12  13
BRANCH  12  15
HETATM   15  C21 UNL     1     100.927 -20.253 -13.946  1.00  0.00     0.221 C 
BRANCH  15  16
HETATM   16  O11 UNL     1     101.899 -21.118 -14.526  1.00  0.00    -0.361 OA
ATOM     17  H11 UNL     1     102.740 -20.678 -14.570  1.00  0.00     0.213 HD
ENDBRANCH  15  16
BRANCH  15  18
HETATM   18  C22 UNL     1     101.300 -20.034 -12.533  1.00  0.00     0.235 C 
BRANCH  18  19
HETATM   19  O12 UNL     1     100.346 -19.601 -11.665  1.00  0.00    -0.395 OA
ATOM     20  H12 UNL     1     100.566 -19.529 -10.743  1.00  0.00     0.209 HD
ENDBRANCH  18  19
ENDBRANCH  15  18
BRANCH  15  21
HETATM   21  O13 UNL     1     101.275 -19.022 -14.624  1.00  0.00    -0.279 OA
BRANCH  21  22
HETATM   22  C23 UNL     1     102.446 -18.358 -14.585  1.00  0.00     0.257 C 
HETATM   23  C24 UNL     1     102.546 -16.982 -13.951  1.00  0.00     0.126 C 
HETATM   24  O14 UNL     1     103.482 -18.873 -15.075  1.00  0.00    -0.266 OA
ENDBRANCH  21  22
ENDBRANCH  15  21
ENDBRANCH  12  15
ENDBRANCH   9  12
ENDBRANCH   5   9
ENDBRANCH   1   5
BRANCH   3  25
HETATM   25  O3  UNL     1     102.718 -23.317 -17.275  1.00  0.00    -0.331 OA
BRANCH  25  26
HETATM   26  C9  UNL     1     103.368 -22.265 -17.932  1.00  0.00     0.163 C 
HETATM   27  C10 UNL     1     103.457 -22.426 -19.402  1.00  0.00     0.104 C 
HETATM   28  C11 UNL     1     104.835 -22.113 -19.957  1.00  0.00     0.176 C 
HETATM   29  C14 UNL     1     105.721 -23.291 -19.728  1.00  0.00     0.072 C 
HETATM   30  O7  UNL     1     105.256 -20.952 -19.290  1.00  0.00    -0.344 OA
HETATM   31  C15 UNL     1     107.026 -23.002 -19.066  1.00  0.00     0.045 C 
HETATM   32  C16 UNL     1     107.013 -21.884 -18.076  1.00  0.00     0.083 C 
HETATM   33  C17 UNL     1     107.514 -22.232 -16.713  1.00  0.00     0.049 C 
HETATM   34  C18 UNL     1     105.642 -21.214 -17.996  1.00  0.00     0.190 C 
HETATM   35  C19 UNL     1     104.713 -22.127 -17.252  1.00  0.00     0.179 C 
BRANCH  28  36
HETATM   36  O4  UNL     1     104.752 -21.745 -21.324  1.00  0.00    -0.283 OA
BRANCH  36  37
HETATM   37  C12 UNL     1     103.670 -21.096 -21.888  1.00  0.00     0.257 C 
HETATM   38  C13 UNL     1     102.733 -21.804 -22.802  1.00  0.00     0.126 C 
HETATM   39  O5  UNL     1     103.499 -19.887 -21.605  1.00  0.00    -0.266 OA
ENDBRANCH  36  37
ENDBRANCH  28  36
BRANCH  32  40
HETATM   40  O6  UNL     1     107.870 -20.876 -18.574  1.00  0.00    -0.388 OA
ATOM     41  H6  UNL     1     108.531 -20.715 -17.910  1.00  0.00     0.210 HD
ENDBRANCH  32  40
BRANCH  35  42
HETATM   42  O8  UNL     1     104.469 -21.501 -16.007  1.00  0.00    -0.390 OA
ATOM     43  H8  UNL     1     104.547 -22.179 -15.346  1.00  0.00     0.210 HD
ENDBRANCH  35  42
ENDBRANCH  25  26
ENDBRANCH   3  25
TORSDOF 17
ENDMDL
MODEL 4
REMARK VINA RESULT: -7.991109433      1.954      4.782
REMARK  17 active torsions:
REMARK  status: ('A' for Active; 'I' for Inactive)
REMARK    1  A    between atoms: O1_2  and  C2_3 
REMARK    2  A    between atoms: C2_3  and  C3_4 
REMARK    3  A    between atoms: C2_3  and  C20_31 
REMARK    4  A    between atoms: C3_4  and  C7_8 
REMARK    5  A    between atoms: C8_10  and  O3_11 
REMARK    6  A    between atoms: O3_11  and  C9_12 
REMARK    7  A    between atoms: C11_14  and  O4_15 
REMARK    8  A    between atoms: O4_15  and  C12_16 
REMARK    9  A    between atoms: C16_21  and  O6_23 
REMARK   10  A    between atoms: C19_27  and  O8_28 
REMARK   11  A    between atoms: C20_31  and  O10_32 
REMARK   12  A    between atoms: C20_31  and  C21_34 
REMARK   13  A    between atoms: C21_34  and  O11_35 
REMARK   14  A    between atoms: C21_34  and  C22_37 
REMARK   15  A    between atoms: C21_34  and  O13_40 
REMARK   16  A    between atoms: C22_37  and  O12_38 
REMARK   17  A    between atoms: O13_40  and  C23_41 
ROOT
HETATM    1  C7  UNL     1     101.095 -22.344 -16.677  1.00  0.00     0.304 C 
HETATM    2  O2  UNL     1     102.254 -22.818 -16.024  1.00  0.00    -0.304 OA
HETATM    3  C8  UNL     1     102.933 -21.866 -16.828  1.00  0.00     0.418 C 
HETATM    4  O9  UNL     1     101.735 -21.116 -16.713  1.00  0.00    -0.304 OA
ENDROOT
BRANCH   1   5
HETATM    5  C3  UNL     1      99.863 -22.472 -15.867  1.00  0.00     0.008 C 
HETATM    6  C4  UNL     1      98.878 -23.117 -16.466  1.00  0.00    -0.078 C 
HETATM    7  C5  UNL     1      97.604 -23.360 -15.772  1.00  0.00     0.043 C 
HETATM    8  C6  UNL     1      99.024 -23.597 -17.862  1.00  0.00     0.043 C 
BRANCH   5   9
HETATM    9  C2  UNL     1      99.748 -21.960 -14.486  1.00  0.00     0.189 C 
BRANCH   9  10
HETATM   10  O1  UNL     1     100.667 -22.723 -13.720  1.00  0.00    -0.383 OA
HETATM   11  C1  UNL     1     100.069 -23.770 -13.057  1.00  0.00     0.202 C 
ENDBRANCH   9  10
BRANCH   9  12
HETATM   12  C20 UNL     1     100.002 -20.493 -14.276  1.00  0.00     0.216 C 
BRANCH  12  13
HETATM   13  O10 UNL     1      99.787 -19.785 -15.403  1.00  0.00    -0.387 OA
ATOM     14  H10 UNL     1     100.126 -18.901 -15.330  1.00  0.00     0.210 HD
ENDBRANCH  12  13
BRANCH  12  15
HETATM   15  C21 UNL     1      99.728 -19.915 -12.953  1.00  0.00     0.221 C 
BRANCH  15  16
HETATM   16  O11 UNL     1     100.551 -20.536 -11.969  1.00  0.00    -0.361 OA
ATOM     17  H11 UNL     1     101.136 -19.895 -11.582  1.00  0.00     0.213 HD
ENDBRANCH  15  16
BRANCH  15  18
HETATM   18  C22 UNL     1      98.347 -19.882 -12.433  1.00  0.00     0.235 C 
BRANCH  18  19
HETATM   19  O12 UNL     1      97.552 -18.825 -12.755  1.00  0.00    -0.395 OA
ATOM     20  H12 UNL     1      96.725 -18.992 -13.192  1.00  0.00     0.209 HD
ENDBRANCH  18  19
ENDBRANCH  15  18
BRANCH  15  21
HETATM   21  O13 UNL     1     100.210 -18.555 -12.835  1.00  0.00    -0.279 OA
BRANCH  21  22
HETATM   22  C23 UNL     1     101.468 -18.105 -13.005  1.00  0.00     0.257 C 
HETATM   23  C24 UNL     1     101.797 -17.084 -14.079  1.00  0.00     0.126 C 
HETATM   24  O14 UNL     1     102.395 -18.526 -12.270  1.00  0.00    -0.266 OA
ENDBRANCH  21  22
ENDBRANCH  15  21
ENDBRANCH  12  15
ENDBRANCH   9  12
ENDBRANCH   5   9
ENDBRANCH   1   5
BRANCH   3  25
HETATM   25  O3  UNL     1     104.020 -21.256 -16.264  1.00  0.00    -0.331 OA
BRANCH  25  26
HETATM   26  C9  UNL     1     105.015 -20.986 -17.211  1.00  0.00     0.163 C 
HETATM   27  C10 UNL     1     104.573 -21.126 -18.618  1.00  0.00     0.104 C 
HETATM   28  C11 UNL     1     105.556 -21.896 -19.482  1.00  0.00     0.176 C 
HETATM   29  C14 UNL     1     105.373 -23.354 -19.231  1.00  0.00     0.072 C 
HETATM   30  O7  UNL     1     106.827 -21.416 -19.126  1.00  0.00    -0.344 OA
HETATM   31  C15 UNL     1     106.613 -24.116 -18.902  1.00  0.00     0.045 C 
HETATM   32  C16 UNL     1     107.652 -23.360 -18.141  1.00  0.00     0.083 C 
HETATM   33  C17 UNL     1     108.098 -23.995 -16.866  1.00  0.00     0.049 C 
HETATM   34  C18 UNL     1     107.239 -21.907 -17.909  1.00  0.00     0.190 C 
HETATM   35  C19 UNL     1     106.179 -21.881 -16.846  1.00  0.00     0.179 C 
BRANCH  28  36
HETATM   36  O4  UNL     1     105.399 -21.548 -20.848  1.00  0.00    -0.283 OA
BRANCH  36  37
HETATM   37  C12 UNL     1     104.279 -20.930 -21.368  1.00  0.00     0.257 C 
HETATM   38  C13 UNL     1     103.136 -21.721 -21.903  1.00  0.00     0.126 C 
HETATM   39  O5  UNL     1     104.250 -19.677 -21.375  1.00  0.00    -0.266 OA
ENDBRANCH  36  37
ENDBRANCH  28  36
BRANCH  32  40
HETATM   40  O6  UNL     1     108.795 -23.274 -18.968  1.00  0.00    -0.388 OA
ATOM     41  H6  UNL     1     109.534 -23.586 -18.459  1.00  0.00     0.210 HD
ENDBRANCH  32  40
BRANCH  35  42
HETATM   42  O8  UNL     1     106.787 -21.303 -15.707  1.00  0.00    -0.390 OA
ATOM     43  H8  UNL     1     107.635 -20.983 -15.989  1.00  0.00     0.210 HD
ENDBRANCH  35  42
ENDBRANCH  25  26
ENDBRANCH   3  25
TORSDOF 17
ENDMDL
MODEL 5
REMARK VINA RESULT: -7.974744315      1.515      4.140
REMARK  17 active torsions:
REMARK  status: ('A' for Active; 'I' for Inactive)
REMARK    1  A    between atoms: O1_2  and  C2_3 
REMARK    2  A    between atoms: C2_3  and  C3_4 
REMARK    3  A    between atoms: C2_3  and  C20_31 
REMARK    4  A    between atoms: C3_4  and  C7_8 
REMARK    5  A    between atoms: C8_10  and  O3_11 
REMARK    6  A    between atoms: O3_11  and  C9_12 
REMARK    7  A    between atoms: C11_14  and  O4_15 
REMARK    8  A    between atoms: O4_15  and  C12_16 
REMARK    9  A    between atoms: C16_21  and  O6_23 
REMARK   10  A    between atoms: C19_27  and  O8_28 
REMARK   11  A    between atoms: C20_31  and  O10_32 
REMARK   12  A    between atoms: C20_31  and  C21_34 
REMARK   13  A    between atoms: C21_34  and  O11_35 
REMARK   14  A    between atoms: C21_34  and  C22_37 
REMARK   15  A    between atoms: C21_34  and  O13_40 
REMARK   16  A    between atoms: C22_37  and  O12_38 
REMARK   17  A    between atoms: O13_40  and  C23_41 
ROOT
HETATM    1  C7  UNL     1      99.278 -23.355 -16.263  1.00  0.00     0.304 C 
HETATM    2  O2  UNL     1     100.611 -23.690 -15.944  1.00  0.00    -0.304 OA
HETATM    3  C8  UNL     1     100.919 -23.080 -17.188  1.00  0.00     0.418 C 
HETATM    4  O9  UNL     1      99.809 -22.247 -16.899  1.00  0.00    -0.304 OA
ENDROOT
BRANCH   1   5
HETATM    5  C3  UNL     1      98.419 -23.142 -15.077  1.00  0.00     0.008 C 
HETATM    6  C4  UNL     1      97.234 -23.721 -15.146  1.00  0.00    -0.078 C 
HETATM    7  C5  UNL     1      96.284 -23.632 -14.025  1.00  0.00     0.043 C 
HETATM    8  C6  UNL     1      96.820 -24.458 -16.365  1.00  0.00     0.043 C 
BRANCH   5   9
HETATM    9  C2  UNL     1      98.858 -22.381 -13.889  1.00  0.00     0.189 C 
BRANCH   9  10
HETATM   10  O1  UNL     1     100.152 -22.876 -13.577  1.00  0.00    -0.383 OA
HETATM   11  C1  UNL     1     100.118 -23.957 -12.727  1.00  0.00     0.202 C 
ENDBRANCH   9  10
BRANCH   9  12
HETATM   12  C20 UNL     1      98.901 -20.883 -14.013  1.00  0.00     0.216 C 
BRANCH  12  13
HETATM   13  O10 UNL     1      97.803 -20.310 -13.480  1.00  0.00    -0.387 OA
ATOM     14  H10 UNL     1      98.006 -19.474 -13.077  1.00  0.00     0.210 HD
ENDBRANCH  12  13
BRANCH  12  15
HETATM   15  C21 UNL     1     100.206 -20.211 -13.966  1.00  0.00     0.221 C 
BRANCH  15  16
HETATM   16  O11 UNL     1     101.109 -20.832 -14.877  1.00  0.00    -0.361 OA
ATOM     17  H11 UNL     1     101.995 -20.530 -14.714  1.00  0.00     0.213 HD
ENDBRANCH  15  16
BRANCH  15  18
HETATM   18  C22 UNL     1     100.907 -20.046 -12.676  1.00  0.00     0.235 C 
BRANCH  18  19
HETATM   19  O12 UNL     1     100.186 -19.675 -11.583  1.00  0.00    -0.395 OA
ATOM     20  H12 UNL     1     100.128 -18.752 -11.366  1.00  0.00     0.209 HD
ENDBRANCH  18  19
ENDBRANCH  15  18
BRANCH  15  21
HETATM   21  O13 UNL     1     100.166 -18.885 -14.546  1.00  0.00    -0.279 OA
BRANCH  21  22
HETATM   22  C23 UNL     1      99.960 -17.712 -13.918  1.00  0.00     0.257 C 
HETATM   23  C24 UNL     1     101.043 -16.649 -13.867  1.00  0.00     0.126 C 
HETATM   24  O14 UNL     1      98.860 -17.478 -13.360  1.00  0.00    -0.266 OA
ENDBRANCH  21  22
ENDBRANCH  15  21
ENDBRANCH  12  15
ENDBRANCH   9  12
ENDBRANCH   5   9
ENDBRANCH   1   5
BRANCH   3  25
HETATM   25  O3  UNL     1     102.108 -22.407 -17.260  1.00  0.00    -0.331 OA
BRANCH  25  26
HETATM   26  C9  UNL     1     103.138 -23.218 -17.750  1.00  0.00     0.163 C 
HETATM   27  C10 UNL     1     104.162 -23.579 -16.743  1.00  0.00     0.104 C 
HETATM   28  C11 UNL     1     105.584 -23.425 -17.253  1.00  0.00     0.176 C 
HETATM   29  C14 UNL     1     105.962 -21.985 -17.186  1.00  0.00     0.072 C 
HETATM   30  O7  UNL     1     105.578 -23.948 -18.556  1.00  0.00    -0.344 OA
HETATM   31  C15 UNL     1     106.520 -21.401 -18.442  1.00  0.00     0.045 C 
HETATM   32  C16 UNL     1     105.972 -21.964 -19.713  1.00  0.00     0.083 C 
HETATM   33  C17 UNL     1     105.402 -20.963 -20.661  1.00  0.00     0.049 C 
HETATM   34  C18 UNL     1     104.976 -23.094 -19.449  1.00  0.00     0.190 C 
HETATM   35  C19 UNL     1     103.696 -22.487 -18.952  1.00  0.00     0.179 C 
BRANCH  28  36
HETATM   36  O4  UNL     1     106.469 -24.260 -16.524  1.00  0.00    -0.283 OA
BRANCH  36  37
HETATM   37  C12 UNL     1     107.615 -24.824 -17.050  1.00  0.00     0.257 C 
HETATM   38  C13 UNL     1     108.838 -24.011 -17.291  1.00  0.00     0.126 C 
HETATM   39  O5  UNL     1     107.596 -26.048 -17.320  1.00  0.00    -0.266 OA
ENDBRANCH  36  37
ENDBRANCH  28  36
BRANCH  32  40
HETATM   40  O6  UNL     1     107.045 -22.591 -20.387  1.00  0.00    -0.388 OA
ATOM     41  H6  UNL     1     107.076 -22.228 -21.264  1.00  0.00     0.210 HD
ENDBRANCH  32  40
BRANCH  35  42
HETATM   42  O8  UNL     1     102.757 -22.657 -19.996  1.00  0.00    -0.390 OA
ATOM     43  H8  UNL     1     103.236 -22.550 -20.809  1.00  0.00     0.210 HD
ENDBRANCH  35  42
ENDBRANCH  25  26
ENDBRANCH   3  25
TORSDOF 17
ENDMDL
