MODEL 1
REMARK VINA RESULT: -7.808217661      0.000      0.000
REMARK  16 active torsions:
REMARK  status: ('A' for Active; 'I' for Inactive)
REMARK    1  A    between atoms: C3_3  and  C4_4 
REMARK    2  A    between atoms: C4_4  and  C5_5 
REMARK    3  A    between atoms: C5_5  and  O1_6 
REMARK    4  A    between atoms: O1_6  and  C6_7 
REMARK    5  A    between atoms: C6_7  and  O2_8 
REMARK    6  A    between atoms: O2_8  and  C7_9 
REMARK    7  A    between atoms: C9_13  and  C10_14 
REMARK    8  A    between atoms: C10_14  and  O5_15 
REMARK    9  A    between atoms: C11_18  and  O7_19 
REMARK   10  A    between atoms: C13_21  and  O8_23 
REMARK   11  A    between atoms: C15_25  and  O9_26 
REMARK   12  A    between atoms: C16_28  and  O10_29 
REMARK   13  A    between atoms: O10_29  and  C17_30 
REMARK   14  A    between atoms: C20_35  and  C21_36 
REMARK   15  A    between atoms: C23_38  and  O13_39 
REMARK   16  A    between atoms: C24_41  and  O14_42 
ROOT
HETATM    1  C6  UNL     1     104.021 -22.480 -18.022  1.00  0.00     0.223 C 
HETATM    2  C16 UNL     1     104.890 -21.647 -17.060  1.00  0.00     0.220 C 
HETATM    3  C19 UNL     1     106.330 -21.695 -17.344  1.00  0.00     0.206 C 
HETATM    4  O12 UNL     1     106.979 -22.696 -16.650  1.00  0.00    -0.381 OA
HETATM    5  C20 UNL     1     107.027 -23.794 -17.543  1.00  0.00     0.152 C 
HETATM    6  C23 UNL     1     105.589 -24.333 -17.506  1.00  0.00     0.181 C 
HETATM    7  C24 UNL     1     104.723 -23.666 -18.535  1.00  0.00     0.214 C 
ENDROOT
BRANCH   1   8
HETATM    8  O1  UNL     1     103.485 -21.590 -18.885  1.00  0.00    -0.350 OA
BRANCH   8   9
HETATM    9  C5  UNL     1     103.803 -21.495 -20.169  1.00  0.00     0.175 C 
BRANCH   9  10
HETATM   10  C4  UNL     1     102.507 -21.769 -20.975  1.00  0.00     0.053 C 
BRANCH  10  11
HETATM   11  C3  UNL     1     102.813 -21.755 -22.432  1.00  0.00    -0.029 C 
HETATM   12  C2  UNL     1     101.901 -21.828 -23.372  1.00  0.00    -0.035 C 
HETATM   13  C1  UNL     1     100.479 -21.934 -23.017  1.00  0.00     0.036 C 
ENDBRANCH  10  11
ENDBRANCH   9  10
ENDBRANCH   8   9
ENDBRANCH   1   8
BRANCH   1  14
HETATM   14  O2  UNL     1     102.972 -22.929 -17.191  1.00  0.00    -0.339 OA
BRANCH  14  15
HETATM   15  C7  UNL     1     101.740 -22.390 -17.353  1.00  0.00     0.199 C 
HETATM   16  C8  UNL     1     100.739 -23.394 -17.758  1.00  0.00     0.226 C 
HETATM   17  O3  UNL     1      99.605 -22.855 -18.364  1.00  0.00    -0.227 OA
HETATM   18  C15 UNL     1     100.128 -24.257 -16.717  1.00  0.00     0.220 C 
HETATM   19  O4  UNL     1      98.631 -22.810 -17.544  1.00  0.00    -0.195 OA
HETATM   20  C9  UNL     1      98.922 -23.430 -16.366  1.00  0.00     0.249 C 
HETATM   21  O6  UNL     1      99.299 -22.590 -15.350  1.00  0.00    -0.315 OA
HETATM   22  C11 UNL     1      99.849 -21.450 -15.920  1.00  0.00     0.299 C 
HETATM   23  C13 UNL     1     101.324 -21.534 -16.169  1.00  0.00     0.132 C 
HETATM   24  C14 UNL     1     101.999 -21.913 -14.887  1.00  0.00     0.054 C 
BRANCH  20  25
HETATM   25  C10 UNL     1      97.731 -24.277 -15.962  1.00  0.00     0.238 C 
BRANCH  25  26
HETATM   26  O5  UNL     1      96.798 -23.530 -15.252  1.00  0.00    -0.395 OA
ATOM     27  H5  UNL     1      95.988 -23.438 -15.739  1.00  0.00     0.209 HD
ENDBRANCH  25  26
ENDBRANCH  20  25
BRANCH  22  28
HETATM   28  O7  UNL     1      99.725 -20.468 -14.901  1.00  0.00    -0.363 OA
HETATM   29  C12 UNL     1      98.725 -20.828 -14.011  1.00  0.00     0.204 C 
ENDBRANCH  22  28
BRANCH  23  30
HETATM   30  O8  UNL     1     101.686 -20.179 -16.402  1.00  0.00    -0.382 OA
ATOM     31  H8  UNL     1     102.631 -20.086 -16.358  1.00  0.00     0.210 HD
ENDBRANCH  23  30
BRANCH  18  32
HETATM   32  O9  UNL     1     100.892 -24.694 -15.702  1.00  0.00    -0.387 OA
ATOM     33  H9  UNL     1     100.537 -25.338 -15.102  1.00  0.00     0.210 HD
ENDBRANCH  18  32
ENDBRANCH  14  15
ENDBRANCH   1  14
BRANCH   2  34
HETATM   34  O10 UNL     1     104.486 -20.275 -17.146  1.00  0.00    -0.308 OA
BRANCH  34  35
HETATM   35  C17 UNL     1     104.995 -19.330 -16.299  1.00  0.00     0.255 C 
HETATM   36  C18 UNL     1     104.867 -19.374 -14.825  1.00  0.00     0.126 C 
HETATM   37  O11 UNL     1     105.617 -18.355 -16.797  1.00  0.00    -0.266 OA
ENDBRANCH  34  35
ENDBRANCH   2  34
BRANCH   7  38
HETATM   38  O14 UNL     1     105.454 -23.482 -19.721  1.00  0.00    -0.387 OA
ATOM     39  H14 UNL     1     105.021 -23.752 -20.522  1.00  0.00     0.210 HD
ENDBRANCH   7  38
BRANCH   6  40
HETATM   40  O13 UNL     1     105.110 -24.283 -16.233  1.00  0.00    -0.390 OA
ATOM     41  H13 UNL     1     105.594 -23.637 -15.732  1.00  0.00     0.210 HD
ENDBRANCH   6  40
BRANCH   5  42
HETATM   42  C21 UNL     1     107.985 -24.783 -16.944  1.00  0.00     0.030 C 
HETATM   43  C22 UNL     1     109.339 -24.108 -16.853  1.00  0.00     0.007 C 
ENDBRANCH   5  42
TORSDOF 16
ENDMDL
MODEL 2
REMARK VINA RESULT: -7.690013098      2.734      6.914
REMARK  16 active torsions:
REMARK  status: ('A' for Active; 'I' for Inactive)
REMARK    1  A    between atoms: C3_3  and  C4_4 
REMARK    2  A    between atoms: C4_4  and  C5_5 
REMARK    3  A    between atoms: C5_5  and  O1_6 
REMARK    4  A    between atoms: O1_6  and  C6_7 
REMARK    5  A    between atoms: C6_7  and  O2_8 
REMARK    6  A    between atoms: O2_8  and  C7_9 
REMARK    7  A    between atoms: C9_13  and  C10_14 
REMARK    8  A    between atoms: C10_14  and  O5_15 
REMARK    9  A    between atoms: C11_18  and  O7_19 
REMARK   10  A    between atoms: C13_21  and  O8_23 
REMARK   11  A    between atoms: C15_25  and  O9_26 
REMARK   12  A    between atoms: C16_28  and  O10_29 
REMARK   13  A    between atoms: O10_29  and  C17_30 
REMARK   14  A    between atoms: C20_35  and  C21_36 
REMARK   15  A    between atoms: C23_38  and  O13_39 
REMARK   16  A    between atoms: C24_41  and  O14_42 
ROOT
HETATM    1  C6  UNL     1     100.938 -22.026 -15.385  1.00  0.00     0.223 C 
HETATM    2  C16 UNL     1     100.194 -22.262 -16.713  1.00  0.00     0.220 C 
HETATM    3  C19 UNL     1     100.572 -23.497 -17.412  1.00  0.00     0.206 C 
HETATM    4  O12 UNL     1     101.595 -23.308 -18.318  1.00  0.00    -0.381 OA
HETATM    5  C20 UNL     1     102.778 -23.647 -17.617  1.00  0.00     0.152 C 
HETATM    6  C23 UNL     1     103.001 -22.430 -16.705  1.00  0.00     0.181 C 
HETATM    7  C24 UNL     1     102.296 -22.590 -15.389  1.00  0.00     0.214 C 
ENDROOT
BRANCH   1   8
HETATM    8  O1  UNL     1     100.066 -22.379 -14.416  1.00  0.00    -0.350 OA
BRANCH   8   9
HETATM    9  C5  UNL     1     100.239 -23.387 -13.572  1.00  0.00     0.175 C 
BRANCH   9  10
HETATM   10  C4  UNL     1      99.137 -23.262 -12.489  1.00  0.00     0.053 C 
BRANCH  10  11
HETATM   11  C3  UNL     1      98.023 -22.419 -13.005  1.00  0.00    -0.029 C 
HETATM   12  C2  UNL     1      96.761 -22.606 -12.699  1.00  0.00    -0.035 C 
HETATM   13  C1  UNL     1      96.373 -23.699 -11.797  1.00  0.00     0.036 C 
ENDBRANCH  10  11
ENDBRANCH   9  10
ENDBRANCH   8   9
ENDBRANCH   1   8
BRANCH   1  14
HETATM   14  O2  UNL     1     101.059 -20.620 -15.336  1.00  0.00    -0.339 OA
BRANCH  14  15
HETATM   15  C7  UNL     1     101.078 -20.012 -14.125  1.00  0.00     0.199 C 
HETATM   16  C8  UNL     1     102.445 -19.871 -13.592  1.00  0.00     0.226 C 
HETATM   17  O3  UNL     1     102.501 -19.684 -12.211  1.00  0.00    -0.227 OA
HETATM   18  C15 UNL     1     103.289 -18.748 -14.071  1.00  0.00     0.220 C 
HETATM   19  O4  UNL     1     102.701 -18.458 -11.928  1.00  0.00    -0.195 OA
HETATM   20  C9  UNL     1     102.951 -17.708 -13.039  1.00  0.00     0.249 C 
HETATM   21  O6  UNL     1     101.872 -17.010 -13.518  1.00  0.00    -0.315 OA
HETATM   22  C11 UNL     1     100.721 -17.687 -13.136  1.00  0.00     0.299 C 
HETATM   23  C13 UNL     1     100.265 -18.729 -14.110  1.00  0.00     0.132 C 
HETATM   24  C14 UNL     1     100.129 -18.088 -15.458  1.00  0.00     0.054 C 
BRANCH  20  25
HETATM   25  C10 UNL     1     104.113 -16.781 -12.741  1.00  0.00     0.238 C 
BRANCH  25  26
HETATM   26  O5  UNL     1     103.803 -15.465 -13.060  1.00  0.00    -0.395 OA
ATOM     27  H5  UNL     1     104.397 -14.857 -12.634  1.00  0.00     0.209 HD
ENDBRANCH  25  26
ENDBRANCH  20  25
BRANCH  22  28
HETATM   28  O7  UNL     1      99.709 -16.693 -13.191  1.00  0.00    -0.363 OA
HETATM   29  C12 UNL     1     100.275 -15.431 -13.103  1.00  0.00     0.204 C 
ENDBRANCH  22  28
BRANCH  23  30
HETATM   30  O8  UNL     1      98.937 -19.004 -13.686  1.00  0.00    -0.382 OA
ATOM     31  H8  UNL     1      98.317 -18.583 -14.271  1.00  0.00     0.210 HD
ENDBRANCH  23  30
BRANCH  18  32
HETATM   32  O9  UNL     1     103.216 -18.382 -15.361  1.00  0.00    -0.387 OA
ATOM     33  H9  UNL     1     103.484 -17.505 -15.607  1.00  0.00     0.210 HD
ENDBRANCH  18  32
ENDBRANCH  14  15
ENDBRANCH   1  14
BRANCH   2  34
HETATM   34  O10 UNL     1      98.789 -22.338 -16.445  1.00  0.00    -0.308 OA
BRANCH  34  35
HETATM   35  C17 UNL     1      98.014 -23.322 -16.996  1.00  0.00     0.255 C 
HETATM   36  C18 UNL     1      97.560 -24.530 -16.272  1.00  0.00     0.126 C 
HETATM   37  O11 UNL     1      97.658 -23.200 -18.198  1.00  0.00    -0.266 OA
ENDBRANCH  34  35
ENDBRANCH   2  34
BRANCH   7  38
HETATM   38  O14 UNL     1     102.409 -23.920 -14.951  1.00  0.00    -0.387 OA
ATOM     39  H14 UNL     1     102.076 -24.583 -15.544  1.00  0.00     0.210 HD
ENDBRANCH   7  38
BRANCH   6  40
HETATM   40  O13 UNL     1     102.701 -21.287 -17.380  1.00  0.00    -0.390 OA
ATOM     41  H13 UNL     1     102.733 -21.447 -18.316  1.00  0.00     0.210 HD
ENDBRANCH   6  40
BRANCH   5  42
HETATM   42  C21 UNL     1     103.865 -23.749 -18.647  1.00  0.00     0.030 C 
HETATM   43  C22 UNL     1     105.186 -23.832 -17.910  1.00  0.00     0.007 C 
ENDBRANCH   5  42
TORSDOF 16
ENDMDL
MODEL 3
REMARK VINA RESULT: -7.119309579      1.398      1.703
REMARK  16 active torsions:
REMARK  status: ('A' for Active; 'I' for Inactive)
REMARK    1  A    between atoms: C3_3  and  C4_4 
REMARK    2  A    between atoms: C4_4  and  C5_5 
REMARK    3  A    between atoms: C5_5  and  O1_6 
REMARK    4  A    between atoms: O1_6  and  C6_7 
REMARK    5  A    between atoms: C6_7  and  O2_8 
REMARK    6  A    between atoms: O2_8  and  C7_9 
REMARK    7  A    between atoms: C9_13  and  C10_14 
REMARK    8  A    between atoms: C10_14  and  O5_15 
REMARK    9  A    between atoms: C11_18  and  O7_19 
REMARK   10  A    between atoms: C13_21  and  O8_23 
REMARK   11  A    between atoms: C15_25  and  O9_26 
REMARK   12  A    between atoms: C16_28  and  O10_29 
REMARK   13  A    between atoms: O10_29  and  C17_30 
REMARK   14  A    between atoms: C20_35  and  C21_36 
REMARK   15  A    between atoms: C23_38  and  O13_39 
REMARK   16  A    between atoms: C24_41  and  O14_42 
ROOT
HETATM    1  C6  UNL     1     102.887 -22.576 -17.357  1.00  0.00     0.223 C 
HETATM    2  C16 UNL     1     104.096 -21.789 -16.816  1.00  0.00     0.220 C 
HETATM    3  C19 UNL     1     105.366 -22.084 -17.491  1.00  0.00     0.206 C 
HETATM    4  O12 UNL     1     106.077 -23.095 -16.875  1.00  0.00    -0.381 OA
HETATM    5  C20 UNL     1     105.726 -24.274 -17.576  1.00  0.00     0.152 C 
HETATM    6  C23 UNL     1     104.315 -24.582 -17.050  1.00  0.00     0.181 C 
HETATM    7  C24 UNL     1     103.259 -23.901 -17.872  1.00  0.00     0.214 C 
ENDROOT
BRANCH   1   8
HETATM    8  O1  UNL     1     102.219 -21.710 -18.149  1.00  0.00    -0.350 OA
BRANCH   8   9
HETATM    9  C5  UNL     1     101.389 -22.058 -19.122  1.00  0.00     0.175 C 
BRANCH   9  10
HETATM   10  C4  UNL     1     101.967 -21.477 -20.438  1.00  0.00     0.053 C 
BRANCH  10  11
HETATM   11  C3  UNL     1     100.895 -21.413 -21.470  1.00  0.00    -0.029 C 
HETATM   12  C2  UNL     1     101.094 -21.635 -22.747  1.00  0.00    -0.035 C 
HETATM   13  C1  UNL     1     102.437 -21.970 -23.239  1.00  0.00     0.036 C 
ENDBRANCH  10  11
ENDBRANCH   9  10
ENDBRANCH   8   9
ENDBRANCH   1   8
BRANCH   1  14
HETATM   14  O2  UNL     1     102.096 -22.771 -16.204  1.00  0.00    -0.339 OA
BRANCH  14  15
HETATM   15  C7  UNL     1     100.850 -22.239 -16.173  1.00  0.00     0.199 C 
HETATM   16  C8  UNL     1      99.820 -23.245 -15.860  1.00  0.00     0.226 C 
HETATM   17  O3  UNL     1      98.531 -22.881 -16.250  1.00  0.00    -0.227 OA
HETATM   18  C15 UNL     1      99.597 -23.625 -14.443  1.00  0.00     0.220 C 
HETATM   19  O4  UNL     1      97.855 -22.471 -15.252  1.00  0.00    -0.195 OA
HETATM   20  C9  UNL     1      98.520 -22.642 -14.075  1.00  0.00     0.249 C 
HETATM   21  O6  UNL     1      99.153 -21.520 -13.602  1.00  0.00    -0.315 OA
HETATM   22  C11 UNL     1      99.450 -20.707 -14.688  1.00  0.00     0.299 C 
HETATM   23  C13 UNL     1     100.780 -20.983 -15.320  1.00  0.00     0.132 C 
HETATM   24  C14 UNL     1     101.832 -20.921 -14.256  1.00  0.00     0.054 C 
BRANCH  20  25
HETATM   25  C10 UNL     1      97.549 -23.195 -13.050  1.00  0.00     0.238 C 
BRANCH  25  26
HETATM   26  O5  UNL     1      96.477 -22.333 -12.854  1.00  0.00    -0.395 OA
ATOM     27  H5  UNL     1      95.698 -22.807 -12.587  1.00  0.00     0.209 HD
ENDBRANCH  25  26
ENDBRANCH  20  25
BRANCH  22  28
HETATM   28  O7  UNL     1      99.600 -19.417 -14.114  1.00  0.00    -0.363 OA
HETATM   29  C12 UNL     1      98.537 -19.145 -13.267  1.00  0.00     0.204 C 
ENDBRANCH  22  28
BRANCH  23  30
HETATM   30  O8  UNL     1     100.993 -19.836 -16.131  1.00  0.00    -0.382 OA
ATOM     31  H8  UNL     1     100.538 -19.089 -15.760  1.00  0.00     0.210 HD
ENDBRANCH  23  30
BRANCH  18  32
HETATM   32  O9  UNL     1     100.653 -23.719 -13.620  1.00  0.00    -0.387 OA
ATOM     33  H9  UNL     1     100.555 -24.178 -12.795  1.00  0.00     0.210 HD
ENDBRANCH  18  32
ENDBRANCH  14  15
ENDBRANCH   1  14
BRANCH   2  34
HETATM   34  O10 UNL     1     103.844 -20.388 -16.980  1.00  0.00    -0.308 OA
BRANCH  34  35
HETATM   35  C17 UNL     1     104.737 -19.450 -16.541  1.00  0.00     0.255 C 
HETATM   36  C18 UNL     1     105.096 -19.237 -15.121  1.00  0.00     0.126 C 
HETATM   37  O11 UNL     1     105.297 -18.713 -17.396  1.00  0.00    -0.266 OA
ENDBRANCH  34  35
ENDBRANCH   2  34
BRANCH   7  38
HETATM   38  O14 UNL     1     103.611 -23.955 -19.232  1.00  0.00    -0.387 OA
ATOM     39  H14 UNL     1     103.130 -24.581 -19.761  1.00  0.00     0.210 HD
ENDBRANCH   7  38
BRANCH   6  40
HETATM   40  O13 UNL     1     104.255 -24.327 -15.714  1.00  0.00    -0.390 OA
ATOM     41  H13 UNL     1     104.921 -23.692 -15.477  1.00  0.00     0.210 HD
ENDBRANCH   6  40
BRANCH   5  42
HETATM   42  C21 UNL     1     106.701 -25.329 -17.140  1.00  0.00     0.030 C 
HETATM   43  C22 UNL     1     108.068 -24.680 -17.058  1.00  0.00     0.007 C 
ENDBRANCH   5  42
TORSDOF 16
ENDMDL
MODEL 4
REMARK VINA RESULT: -6.994015279      2.981      7.657
REMARK  16 active torsions:
REMARK  status: ('A' for Active; 'I' for Inactive)
REMARK    1  A    between atoms: C3_3  and  C4_4 
REMARK    2  A    between atoms: C4_4  and  C5_5 
REMARK    3  A    between atoms: C5_5  and  O1_6 
REMARK    4  A    between atoms: O1_6  and  C6_7 
REMARK    5  A    between atoms: C6_7  and  O2_8 
REMARK    6  A    between atoms: O2_8  and  C7_9 
REMARK    7  A    between atoms: C9_13  and  C10_14 
REMARK    8  A    between atoms: C10_14  and  O5_15 
REMARK    9  A    between atoms: C11_18  and  O7_19 
REMARK   10  A    between atoms: C13_21  and  O8_23 
REMARK   11  A    between atoms: C15_25  and  O9_26 
REMARK   12  A    between atoms: C16_28  and  O10_29 
REMARK   13  A    between atoms: O10_29  and  C17_30 
REMARK   14  A    between atoms: C20_35  and  C21_36 
REMARK   15  A    between atoms: C23_38  and  O13_39 
REMARK   16  A    between atoms: C24_41  and  O14_42 
ROOT
HETATM    1  C6  UNL     1     103.163 -18.943 -14.046  1.00  0.00     0.223 C 
HETATM    2  C16 UNL     1     103.228 -17.481 -14.527  1.00  0.00     0.220 C 
HETATM    3  C19 UNL     1     102.393 -16.549 -13.758  1.00  0.00     0.206 C 
HETATM    4  O12 UNL     1     101.129 -16.397 -14.292  1.00  0.00    -0.381 OA
HETATM    5  C20 UNL     1     100.315 -17.311 -13.580  1.00  0.00     0.152 C 
HETATM    6  C23 UNL     1     100.701 -18.667 -14.191  1.00  0.00     0.181 C 
HETATM    7  C24 UNL     1     101.858 -19.290 -13.465  1.00  0.00     0.214 C 
ENDROOT
BRANCH   1   8
HETATM    8  O1  UNL     1     104.291 -19.136 -13.328  1.00  0.00    -0.350 OA
BRANCH   8   9
HETATM    9  C5  UNL     1     104.368 -19.070 -12.006  1.00  0.00     0.175 C 
BRANCH   9  10
HETATM   10  C4  UNL     1     105.831 -18.695 -11.659  1.00  0.00     0.053 C 
BRANCH  10  11
HETATM   11  C3  UNL     1     105.895 -17.268 -11.237  1.00  0.00    -0.029 C 
HETATM   12  C2  UNL     1     106.932 -16.725 -10.647  1.00  0.00    -0.035 C 
HETATM   13  C1  UNL     1     108.128 -17.530 -10.363  1.00  0.00     0.036 C 
ENDBRANCH  10  11
ENDBRANCH   9  10
ENDBRANCH   8   9
ENDBRANCH   1   8
BRANCH   1  14
HETATM   14  O2  UNL     1     103.307 -19.676 -15.243  1.00  0.00    -0.339 OA
BRANCH  14  15
HETATM   15  C7  UNL     1     103.778 -20.946 -15.174  1.00  0.00     0.199 C 
HETATM   16  C8  UNL     1     102.732 -21.945 -15.460  1.00  0.00     0.226 C 
HETATM   17  O3  UNL     1     103.018 -23.222 -14.975  1.00  0.00    -0.227 OA
HETATM   18  C15 UNL     1     102.393 -22.242 -16.874  1.00  0.00     0.220 C 
HETATM   19  O4  UNL     1     103.429 -23.980 -15.912  1.00  0.00    -0.195 OA
HETATM   20  C9  UNL     1     103.334 -23.385 -17.135  1.00  0.00     0.249 C 
HETATM   21  O6  UNL     1     104.501 -22.839 -17.603  1.00  0.00    -0.315 OA
HETATM   22  C11 UNL     1     105.289 -22.511 -16.507  1.00  0.00     0.299 C 
HETATM   23  C13 UNL     1     105.057 -21.131 -15.971  1.00  0.00     0.132 C 
HETATM   24  C14 UNL     1     105.210 -20.155 -17.097  1.00  0.00     0.054 C 
BRANCH  20  25
HETATM   25  C10 UNL     1     102.770 -24.394 -18.117  1.00  0.00     0.238 C 
BRANCH  25  26
HETATM   26  O5  UNL     1     101.436 -24.129 -18.402  1.00  0.00    -0.395 OA
ATOM     27  H5  UNL     1     100.859 -24.544 -17.771  1.00  0.00     0.209 HD
ENDBRANCH  25  26
ENDBRANCH  20  25
BRANCH  22  28
HETATM   28  O7  UNL     1     106.605 -22.460 -17.039  1.00  0.00    -0.363 OA
HETATM   29  C12 UNL     1     107.145 -23.736 -17.096  1.00  0.00     0.204 C 
ENDBRANCH  22  28
BRANCH  23  30
HETATM   30  O8  UNL     1     106.184 -20.921 -15.132  1.00  0.00    -0.382 OA
ATOM     31  H8  UNL     1     106.655 -20.145 -15.411  1.00  0.00     0.210 HD
ENDBRANCH  23  30
BRANCH  18  32
HETATM   32  O9  UNL     1     102.382 -21.238 -17.766  1.00  0.00    -0.387 OA
ATOM     33  H9  UNL     1     102.720 -21.394 -18.639  1.00  0.00     0.210 HD
ENDBRANCH  18  32
ENDBRANCH  14  15
ENDBRANCH   1  14
BRANCH   2  34
HETATM   34  O10 UNL     1     104.581 -17.023 -14.424  1.00  0.00    -0.308 OA
BRANCH  34  35
HETATM   35  C17 UNL     1     105.182 -16.347 -15.452  1.00  0.00     0.255 C 
HETATM   36  C18 UNL     1     105.113 -14.880 -15.639  1.00  0.00     0.126 C 
HETATM   37  O11 UNL     1     105.838 -17.009 -16.298  1.00  0.00    -0.266 OA
ENDBRANCH  34  35
ENDBRANCH   2  34
BRANCH   7  38
HETATM   38  O14 UNL     1     101.722 -19.070 -12.083  1.00  0.00    -0.387 OA
ATOM     39  H14 UNL     1     100.842 -18.891 -11.776  1.00  0.00     0.210 HD
ENDBRANCH   7  38
BRANCH   6  40
HETATM   40  O13 UNL     1     100.872 -18.536 -15.535  1.00  0.00    -0.390 OA
ATOM     41  H13 UNL     1     100.414 -19.235 -15.988  1.00  0.00     0.210 HD
ENDBRANCH   6  40
BRANCH   5  42
HETATM   42  C21 UNL     1      98.894 -16.958 -13.915  1.00  0.00     0.030 C 
HETATM   43  C22 UNL     1      98.918 -15.658 -14.692  1.00  0.00     0.007 C 
ENDBRANCH   5  42
TORSDOF 16
ENDMDL
MODEL 5
REMARK VINA RESULT: -6.642912163      1.387      4.710
REMARK  16 active torsions:
REMARK  status: ('A' for Active; 'I' for Inactive)
REMARK    1  A    between atoms: C3_3  and  C4_4 
REMARK    2  A    between atoms: C4_4  and  C5_5 
REMARK    3  A    between atoms: C5_5  and  O1_6 
REMARK    4  A    between atoms: O1_6  and  C6_7 
REMARK    5  A    between atoms: C6_7  and  O2_8 
REMARK    6  A    between atoms: O2_8  and  C7_9 
REMARK    7  A    between atoms: C9_13  and  C10_14 
REMARK    8  A    between atoms: C10_14  and  O5_15 
REMARK    9  A    between atoms: C11_18  and  O7_19 
REMARK   10  A    between atoms: C13_21  and  O8_23 
REMARK   11  A    between atoms: C15_25  and  O9_26 
REMARK   12  A    between atoms: C16_28  and  O10_29 
REMARK   13  A    between atoms: O10_29  and  C17_30 
REMARK   14  A    between atoms: C20_35  and  C21_36 
REMARK   15  A    between atoms: C23_38  and  O13_39 
REMARK   16  A    between atoms: C24_41  and  O14_42 
ROOT
HETATM    1  C6  UNL     1     104.126 -22.152 -17.401  1.00  0.00     0.223 C 
HETATM    2  C16 UNL     1     104.568 -21.184 -18.516  1.00  0.00     0.220 C 
HETATM    3  C19 UNL     1     105.818 -20.465 -18.238  1.00  0.00     0.206 C 
HETATM    4  O12 UNL     1     105.609 -19.247 -17.622  1.00  0.00    -0.381 OA
HETATM    5  C20 UNL     1     105.750 -19.506 -16.236  1.00  0.00     0.152 C 
HETATM    6  C23 UNL     1     104.434 -20.214 -15.880  1.00  0.00     0.181 C 
HETATM    7  C24 UNL     1     104.540 -21.700 -16.065  1.00  0.00     0.214 C 
ENDROOT
BRANCH   1   8
HETATM    8  O1  UNL     1     104.476 -23.383 -17.833  1.00  0.00    -0.350 OA
BRANCH   8   9
HETATM    9  C5  UNL     1     105.299 -24.204 -17.197  1.00  0.00     0.175 C 
BRANCH   9  10
HETATM   10  C4  UNL     1     106.527 -24.414 -18.119  1.00  0.00     0.053 C 
BRANCH  10  11
HETATM   11  C3  UNL     1     107.710 -24.795 -17.297  1.00  0.00    -0.029 C 
HETATM   12  C2  UNL     1     108.783 -24.052 -17.171  1.00  0.00    -0.035 C 
HETATM   13  C1  UNL     1     108.873 -22.759 -17.863  1.00  0.00     0.036 C 
ENDBRANCH  10  11
ENDBRANCH   9  10
ENDBRANCH   8   9
ENDBRANCH   1   8
BRANCH   1  14
HETATM   14  O2  UNL     1     102.718 -22.080 -17.460  1.00  0.00    -0.339 OA
BRANCH  14  15
HETATM   15  C7  UNL     1     101.992 -22.930 -16.695  1.00  0.00     0.199 C 
HETATM   16  C8  UNL     1     101.819 -22.434 -15.317  1.00  0.00     0.226 C 
HETATM   17  O3  UNL     1     101.495 -23.426 -14.391  1.00  0.00    -0.227 OA
HETATM   18  C15 UNL     1     100.762 -21.428 -15.046  1.00  0.00     0.220 C 
HETATM   19  O4  UNL     1     100.250 -23.405 -14.122  1.00  0.00    -0.195 OA
HETATM   20  C9  UNL     1      99.620 -22.338 -14.691  1.00  0.00     0.249 C 
HETATM   21  O6  UNL     1      98.957 -22.617 -15.859  1.00  0.00    -0.315 OA
HETATM   22  C11 UNL     1      99.575 -23.710 -16.450  1.00  0.00     0.299 C 
HETATM   23  C13 UNL     1     100.702 -23.359 -17.372  1.00  0.00     0.132 C 
HETATM   24  C14 UNL     1     100.197 -22.374 -18.381  1.00  0.00     0.054 C 
BRANCH  20  25
HETATM   25  C10 UNL     1      98.685 -21.730 -13.664  1.00  0.00     0.238 C 
BRANCH  25  26
HETATM   26  O5  UNL     1      99.340 -21.494 -12.461  1.00  0.00    -0.395 OA
ATOM     27  H5  UNL     1      99.597 -20.583 -12.381  1.00  0.00     0.209 HD
ENDBRANCH  25  26
ENDBRANCH  20  25
BRANCH  22  28
HETATM   28  O7  UNL     1      98.575 -24.240 -17.310  1.00  0.00    -0.363 OA
HETATM   29  C12 UNL     1      97.342 -24.218 -16.678  1.00  0.00     0.204 C 
ENDBRANCH  22  28
BRANCH  23  30
HETATM   30  O8  UNL     1     100.913 -24.566 -18.093  1.00  0.00    -0.382 OA
ATOM     31  H8  UNL     1     101.460 -25.153 -17.586  1.00  0.00     0.210 HD
ENDBRANCH  23  30
BRANCH  18  32
HETATM   32  O9  UNL     1     100.526 -20.469 -15.955  1.00  0.00    -0.387 OA
ATOM     33  H9  UNL     1     100.497 -20.704 -16.875  1.00  0.00     0.210 HD
ENDBRANCH  18  32
ENDBRANCH  14  15
ENDBRANCH   1  14
BRANCH   2  34
HETATM   34  O10 UNL     1     104.767 -21.932 -19.721  1.00  0.00    -0.308 OA
BRANCH  34  35
HETATM   35  C17 UNL     1     104.087 -21.625 -20.868  1.00  0.00     0.255 C 
HETATM   36  C18 UNL     1     102.616 -21.710 -21.015  1.00  0.00     0.126 C 
HETATM   37  O11 UNL     1     104.747 -21.244 -21.870  1.00  0.00    -0.266 OA
ENDBRANCH  34  35
ENDBRANCH   2  34
BRANCH   7  38
HETATM   38  O14 UNL     1     105.802 -22.142 -15.631  1.00  0.00    -0.387 OA
ATOM     39  H14 UNL     1     105.822 -22.579 -14.788  1.00  0.00     0.210 HD
ENDBRANCH   7  38
BRANCH   6  40
HETATM   40  O13 UNL     1     103.400 -19.627 -16.543  1.00  0.00    -0.390 OA
ATOM     41  H13 UNL     1     103.580 -18.703 -16.668  1.00  0.00     0.210 HD
ENDBRANCH   6  40
BRANCH   5  42
HETATM   42  C21 UNL     1     105.835 -18.166 -15.564  1.00  0.00     0.030 C 
HETATM   43  C22 UNL     1     105.776 -18.402 -14.069  1.00  0.00     0.007 C 
ENDBRANCH   5  42
TORSDOF 16
ENDMDL
