MODEL 1
REMARK VINA RESULT: -8.982218971      0.000      0.000
REMARK  17 active torsions:
REMARK  status: ('A' for Active; 'I' for Inactive)
REMARK    1  A    between atoms: C2_2  and  C3_3 
REMARK    2  A    between atoms: C3_3  and  C4_4 
REMARK    3  A    between atoms: C4_4  and  O1_5 
REMARK    4  A    between atoms: O1_5  and  C5_6 
REMARK    5  A    between atoms: C5_6  and  C6_8 
REMARK    6  A    between atoms: C6_8  and  C7_9 
REMARK    7  A    between atoms: C9_11  and  C10_12 
REMARK    8  A    between atoms: C10_12  and  O3_13 
REMARK    9  A    between atoms: O3_13  and  C11_14 
REMARK   10  A    between atoms: C12_16  and  O5_17 
REMARK   11  A    between atoms: C13_19  and  O6_21 
REMARK   12  A    between atoms: C15_23  and  O7_24 
REMARK   13  A    between atoms: C18_29  and  O10_30 
REMARK   14  A    between atoms: O10_30  and  C19_31 
REMARK   15  A    between atoms: C22_35  and  O12_36 
REMARK   16  A    between atoms: C23_38  and  O13_39 
REMARK   17  A    between atoms: C24_41  and  O14_42 
ROOT
HETATM    1  C7  UNL     1     103.674 -20.494 -22.753  1.00  0.00     0.028 C 
HETATM    2  C8  UNL     1     102.180 -20.202 -22.994  1.00  0.00     0.042 C 
HETATM    3  C9  UNL     1     101.416 -21.399 -22.535  1.00  0.00     0.145 C 
HETATM    4  O9  UNL     1     101.610 -21.448 -21.130  1.00  0.00    -0.381 OA
HETATM    5  C17 UNL     1     102.848 -22.071 -21.007  1.00  0.00     0.200 C 
HETATM    6  C18 UNL     1     103.906 -21.014 -21.401  1.00  0.00     0.153 C 
ENDROOT
BRANCH   3   7
HETATM    7  C10 UNL     1      99.953 -21.336 -22.874  1.00  0.00     0.205 C 
BRANCH   7   8
HETATM    8  O3  UNL     1      99.622 -20.114 -23.458  1.00  0.00    -0.336 OA
BRANCH   8   9
HETATM    9  C11 UNL     1      98.779 -20.391 -24.517  1.00  0.00     0.417 C 
HETATM   10  O4  UNL     1      97.465 -19.952 -24.236  1.00  0.00    -0.305 OA
HETATM   11  C12 UNL     1      96.840 -19.894 -25.502  1.00  0.00     0.301 C 
HETATM   12  C13 UNL     1      96.769 -21.253 -26.117  1.00  0.00     0.153 C 
HETATM   13  C14 UNL     1      96.426 -21.127 -27.588  1.00  0.00     0.056 C 
HETATM   14  C15 UNL     1      98.032 -22.053 -25.928  1.00  0.00     0.303 C 
HETATM   15  O8  UNL     1      98.723 -21.737 -24.764  1.00  0.00    -0.305 OA
BRANCH  11  16
HETATM   16  O5  UNL     1      95.588 -19.307 -25.436  1.00  0.00    -0.368 OA
ATOM     17  H5  UNL     1      94.894 -19.953 -25.386  1.00  0.00     0.212 HD
ENDBRANCH  11  16
BRANCH  12  18
HETATM   18  O6  UNL     1      95.714 -21.950 -25.526  1.00  0.00    -0.380 OA
ATOM     19  H6  UNL     1      95.516 -22.708 -26.063  1.00  0.00     0.211 HD
ENDBRANCH  12  18
BRANCH  14  20
HETATM   20  O7  UNL     1      97.658 -23.391 -25.804  1.00  0.00    -0.363 OA
HETATM   21  C16 UNL     1      98.334 -24.013 -24.749  1.00  0.00     0.204 C 
ENDBRANCH  14  20
ENDBRANCH   8   9
ENDBRANCH   7   8
ENDBRANCH   3   7
BRANCH   1  22
HETATM   22  C6  UNL     1     104.464 -19.288 -23.137  1.00  0.00     0.118 C 
BRANCH  22  23
HETATM   23  C5  UNL     1     104.726 -18.324 -22.073  1.00  0.00     0.259 C 
HETATM   24  O2  UNL     1     105.881 -18.119 -21.655  1.00  0.00    -0.265 OA
BRANCH  23  25
HETATM   25  O1  UNL     1     103.689 -17.614 -21.506  1.00  0.00    -0.321 OA
BRANCH  25  26
HETATM   26  C4  UNL     1     103.047 -16.501 -22.027  1.00  0.00     0.178 C 
BRANCH  26  27
HETATM   27  C3  UNL     1     101.587 -16.701 -22.332  1.00  0.00     0.026 C 
BRANCH  27  28
HETATM   28  C2  UNL     1     101.333 -16.799 -23.823  1.00  0.00    -0.002 C 
HETATM   29  C1  UNL     1     100.601 -15.620 -24.368  1.00  0.00     0.005 C 
ENDBRANCH  27  28
ENDBRANCH  26  27
ENDBRANCH  25  26
ENDBRANCH  23  25
ENDBRANCH  22  23
ENDBRANCH   1  22
BRANCH   6  30
HETATM   30  O10 UNL     1     105.163 -21.553 -21.206  1.00  0.00    -0.351 OA
BRANCH  30  31
HETATM   31  C19 UNL     1     105.627 -21.452 -19.884  1.00  0.00     0.292 C 
HETATM   32  O11 UNL     1     105.351 -22.739 -19.362  1.00  0.00    -0.351 OA
HETATM   33  C20 UNL     1     105.837 -22.970 -18.113  1.00  0.00     0.152 C 
HETATM   34  C21 UNL     1     106.692 -24.246 -18.201  1.00  0.00     0.042 C 
HETATM   35  C22 UNL     1     106.725 -21.905 -17.572  1.00  0.00     0.178 C 
HETATM   36  C23 UNL     1     107.786 -21.574 -18.581  1.00  0.00     0.183 C 
HETATM   37  C24 UNL     1     107.103 -21.272 -19.901  1.00  0.00     0.204 C 
BRANCH  35  38
HETATM   38  O12 UNL     1     107.366 -22.387 -16.415  1.00  0.00    -0.390 OA
ATOM     39  H12 UNL     1     107.319 -21.724 -15.737  1.00  0.00     0.210 HD
ENDBRANCH  35  38
BRANCH  36  40
HETATM   40  O13 UNL     1     108.749 -22.551 -18.722  1.00  0.00    -0.390 OA
ATOM     41  H13 UNL     1     108.715 -23.009 -19.553  1.00  0.00     0.210 HD
ENDBRANCH  36  40
BRANCH  37  42
HETATM   42  O14 UNL     1     107.556 -20.028 -20.284  1.00  0.00    -0.388 OA
ATOM     43  H14 UNL     1     108.453 -19.821 -20.049  1.00  0.00     0.210 HD
ENDBRANCH  37  42
ENDBRANCH  30  31
ENDBRANCH   6  30
TORSDOF 17
ENDMDL
MODEL 2
REMARK VINA RESULT: -8.729793851      9.042     12.646
REMARK  17 active torsions:
REMARK  status: ('A' for Active; 'I' for Inactive)
REMARK    1  A    between atoms: C2_2  and  C3_3 
REMARK    2  A    between atoms: C3_3  and  C4_4 
REMARK    3  A    between atoms: C4_4  and  O1_5 
REMARK    4  A    between atoms: O1_5  and  C5_6 
REMARK    5  A    between atoms: C5_6  and  C6_8 
REMARK    6  A    between atoms: C6_8  and  C7_9 
REMARK    7  A    between atoms: C9_11  and  C10_12 
REMARK    8  A    between atoms: C10_12  and  O3_13 
REMARK    9  A    between atoms: O3_13  and  C11_14 
REMARK   10  A    between atoms: C12_16  and  O5_17 
REMARK   11  A    between atoms: C13_19  and  O6_21 
REMARK   12  A    between atoms: C15_23  and  O7_24 
REMARK   13  A    between atoms: C18_29  and  O10_30 
REMARK   14  A    between atoms: O10_30  and  C19_31 
REMARK   15  A    between atoms: C22_35  and  O12_36 
REMARK   16  A    between atoms: C23_38  and  O13_39 
REMARK   17  A    between atoms: C24_41  and  O14_42 
ROOT
HETATM    1  C7  UNL     1      97.484 -21.602 -13.069  1.00  0.00     0.028 C 
HETATM    2  C8  UNL     1      98.997 -21.830 -12.881  1.00  0.00     0.042 C 
HETATM    3  C9  UNL     1      99.697 -20.638 -13.444  1.00  0.00     0.145 C 
HETATM    4  O9  UNL     1      99.330 -19.559 -12.599  1.00  0.00    -0.381 OA
HETATM    5  C17 UNL     1      98.085 -19.182 -13.095  1.00  0.00     0.200 C 
HETATM    6  C18 UNL     1      97.086 -20.263 -12.621  1.00  0.00     0.153 C 
ENDROOT
BRANCH   3   7
HETATM    7  C10 UNL     1     101.190 -20.797 -13.496  1.00  0.00     0.205 C 
BRANCH   7   8
HETATM    8  O3  UNL     1     101.726 -20.175 -14.623  1.00  0.00    -0.336 OA
BRANCH   8   9
HETATM    9  C11 UNL     1     102.188 -21.178 -15.453  1.00  0.00     0.417 C 
HETATM   10  O4  UNL     1     101.711 -22.438 -15.026  1.00  0.00    -0.305 OA
HETATM   11  C12 UNL     1     101.880 -23.273 -16.154  1.00  0.00     0.301 C 
HETATM   12  C13 UNL     1     103.327 -23.403 -16.501  1.00  0.00     0.153 C 
HETATM   13  C14 UNL     1     103.464 -23.998 -17.889  1.00  0.00     0.056 C 
HETATM   14  C15 UNL     1     104.077 -22.099 -16.400  1.00  0.00     0.303 C 
HETATM   15  O8  UNL     1     103.557 -21.230 -15.448  1.00  0.00    -0.305 OA
BRANCH  11  16
HETATM   16  O5  UNL     1     101.294 -24.514 -15.972  1.00  0.00    -0.368 OA
ATOM     17  H5  UNL     1     101.207 -24.990 -16.790  1.00  0.00     0.212 HD
ENDBRANCH  11  16
BRANCH  12  18
HETATM   18  O6  UNL     1     103.911 -24.316 -15.622  1.00  0.00    -0.380 OA
ATOM     19  H6  UNL     1     103.399 -25.116 -15.636  1.00  0.00     0.211 HD
ENDBRANCH  12  18
BRANCH  14  20
HETATM   20  O7  UNL     1     105.373 -22.401 -15.982  1.00  0.00    -0.363 OA
HETATM   21  C16 UNL     1     106.326 -21.731 -16.756  1.00  0.00     0.204 C 
ENDBRANCH  14  20
ENDBRANCH   8   9
ENDBRANCH   7   8
ENDBRANCH   3   7
BRANCH   1  22
HETATM   22  C6  UNL     1      96.750 -22.746 -12.454  1.00  0.00     0.118 C 
BRANCH  22  23
HETATM   23  C5  UNL     1      96.029 -23.619 -13.376  1.00  0.00     0.259 C 
HETATM   24  O2  UNL     1      95.109 -24.359 -12.980  1.00  0.00    -0.265 OA
BRANCH  23  25
HETATM   25  O1  UNL     1      96.357 -23.641 -14.714  1.00  0.00    -0.321 OA
BRANCH  25  26
HETATM   26  C4  UNL     1      95.823 -24.459 -15.699  1.00  0.00     0.178 C 
BRANCH  26  27
HETATM   27  C3  UNL     1      96.608 -24.495 -16.982  1.00  0.00     0.026 C 
BRANCH  27  28
HETATM   28  C2  UNL     1      97.904 -23.717 -16.871  1.00  0.00    -0.002 C 
HETATM   29  C1  UNL     1      98.563 -23.492 -18.189  1.00  0.00     0.005 C 
ENDBRANCH  27  28
ENDBRANCH  26  27
ENDBRANCH  25  26
ENDBRANCH  23  25
ENDBRANCH  22  23
ENDBRANCH   1  22
BRANCH   6  30
HETATM   30  O10 UNL     1      95.814 -19.888 -13.008  1.00  0.00    -0.351 OA
BRANCH  30  31
HETATM   31  C19 UNL     1      95.351 -18.718 -12.385  1.00  0.00     0.292 C 
HETATM   32  O11 UNL     1      94.980 -17.908 -13.487  1.00  0.00    -0.351 OA
HETATM   33  C20 UNL     1      94.354 -16.746 -13.162  1.00  0.00     0.152 C 
HETATM   34  C21 UNL     1      93.026 -16.729 -13.939  1.00  0.00     0.042 C 
HETATM   35  C22 UNL     1      94.002 -16.596 -11.724  1.00  0.00     0.178 C 
HETATM   36  C23 UNL     1      93.279 -17.824 -11.252  1.00  0.00     0.183 C 
HETATM   37  C24 UNL     1      94.118 -19.034 -11.615  1.00  0.00     0.204 C 
BRANCH  35  38
HETATM   38  O12 UNL     1      93.131 -15.500 -11.578  1.00  0.00    -0.390 OA
ATOM     39  H12 UNL     1      93.445 -14.783 -12.116  1.00  0.00     0.210 HD
ENDBRANCH  35  38
BRANCH  36  40
HETATM   40  O13 UNL     1      91.993 -17.937 -11.737  1.00  0.00    -0.390 OA
ATOM     41  H13 UNL     1      91.577 -18.767 -11.536  1.00  0.00     0.210 HD
ENDBRANCH  36  40
BRANCH  37  42
HETATM   42  O14 UNL     1      94.301 -19.732 -10.441  1.00  0.00    -0.388 OA
ATOM     43  H14 UNL     1      93.726 -19.496  -9.722  1.00  0.00     0.210 HD
ENDBRANCH  37  42
ENDBRANCH  30  31
ENDBRANCH   6  30
TORSDOF 17
ENDMDL
MODEL 3
REMARK VINA RESULT: -8.685680550      4.911      7.473
REMARK  17 active torsions:
REMARK  status: ('A' for Active; 'I' for Inactive)
REMARK    1  A    between atoms: C2_2  and  C3_3 
REMARK    2  A    between atoms: C3_3  and  C4_4 
REMARK    3  A    between atoms: C4_4  and  O1_5 
REMARK    4  A    between atoms: O1_5  and  C5_6 
REMARK    5  A    between atoms: C5_6  and  C6_8 
REMARK    6  A    between atoms: C6_8  and  C7_9 
REMARK    7  A    between atoms: C9_11  and  C10_12 
REMARK    8  A    between atoms: C10_12  and  O3_13 
REMARK    9  A    between atoms: O3_13  and  C11_14 
REMARK   10  A    between atoms: C12_16  and  O5_17 
REMARK   11  A    between atoms: C13_19  and  O6_21 
REMARK   12  A    between atoms: C15_23  and  O7_24 
REMARK   13  A    between atoms: C18_29  and  O10_30 
REMARK   14  A    between atoms: O10_30  and  C19_31 
REMARK   15  A    between atoms: C22_35  and  O12_36 
REMARK   16  A    between atoms: C23_38  and  O13_39 
REMARK   17  A    between atoms: C24_41  and  O14_42 
ROOT
HETATM    1  C7  UNL     1     104.682 -22.558 -18.366  1.00  0.00     0.028 C 
HETATM    2  C8  UNL     1     103.207 -22.413 -17.942  1.00  0.00     0.042 C 
HETATM    3  C9  UNL     1     102.750 -23.752 -17.467  1.00  0.00     0.145 C 
HETATM    4  O9  UNL     1     103.500 -24.004 -16.289  1.00  0.00    -0.381 OA
HETATM    5  C17 UNL     1     104.708 -24.485 -16.783  1.00  0.00     0.200 C 
HETATM    6  C18 UNL     1     105.465 -23.257 -17.342  1.00  0.00     0.153 C 
ENDROOT
BRANCH   3   7
HETATM    7  C10 UNL     1     101.274 -23.812 -17.189  1.00  0.00     0.205 C 
BRANCH   7   8
HETATM    8  O3  UNL     1     101.013 -24.430 -15.968  1.00  0.00    -0.336 OA
BRANCH   8   9
HETATM    9  C11 UNL     1     100.168 -23.593 -15.266  1.00  0.00     0.417 C 
HETATM   10  O4  UNL     1     100.292 -23.811 -13.875  1.00  0.00    -0.305 OA
HETATM   11  C12 UNL     1      99.737 -22.650 -13.291  1.00  0.00     0.301 C 
HETATM   12  C13 UNL     1      98.287 -22.533 -13.629  1.00  0.00     0.153 C 
HETATM   13  C14 UNL     1      97.800 -21.135 -13.300  1.00  0.00     0.056 C 
HETATM   14  C15 UNL     1      97.985 -22.881 -15.064  1.00  0.00     0.303 C 
HETATM   15  O8  UNL     1      98.860 -23.816 -15.605  1.00  0.00    -0.305 OA
BRANCH  11  16
HETATM   16  O5  UNL     1      99.938 -22.611 -11.922  1.00  0.00    -0.368 OA
ATOM     17  H5  UNL     1      99.376 -21.974 -11.497  1.00  0.00     0.212 HD
ENDBRANCH  11  16
BRANCH  12  18
HETATM   18  O6  UNL     1      97.570 -23.401 -12.805  1.00  0.00    -0.380 OA
ATOM     19  H6  UNL     1      97.110 -22.886 -12.152  1.00  0.00     0.211 HD
ENDBRANCH  12  18
BRANCH  14  20
HETATM   20  O7  UNL     1      96.723 -23.475 -15.087  1.00  0.00    -0.363 OA
HETATM   21  C16 UNL     1      96.636 -24.447 -16.089  1.00  0.00     0.204 C 
ENDBRANCH  14  20
ENDBRANCH   8   9
ENDBRANCH   7   8
ENDBRANCH   3   7
BRANCH   1  22
HETATM   22  C6  UNL     1     105.192 -21.219 -18.782  1.00  0.00     0.118 C 
BRANCH  22  23
HETATM   23  C5  UNL     1     105.680 -21.113 -20.154  1.00  0.00     0.259 C 
HETATM   24  O2  UNL     1     106.755 -20.542 -20.415  1.00  0.00    -0.265 OA
BRANCH  23  25
HETATM   25  O1  UNL     1     104.953 -21.649 -21.195  1.00  0.00    -0.321 OA
BRANCH  25  26
HETATM   26  C4  UNL     1     103.819 -21.118 -21.791  1.00  0.00     0.178 C 
BRANCH  26  27
HETATM   27  C3  UNL     1     103.969 -19.704 -22.282  1.00  0.00     0.026 C 
BRANCH  27  28
HETATM   28  C2  UNL     1     103.983 -19.633 -23.795  1.00  0.00    -0.002 C 
HETATM   29  C1  UNL     1     102.619 -19.521 -24.386  1.00  0.00     0.005 C 
ENDBRANCH  27  28
ENDBRANCH  26  27
ENDBRANCH  25  26
ENDBRANCH  23  25
ENDBRANCH  22  23
ENDBRANCH   1  22
BRANCH   6  30
HETATM   30  O10 UNL     1     106.717 -23.665 -17.762  1.00  0.00    -0.351 OA
BRANCH  30  31
HETATM   31  C19 UNL     1     107.770 -23.181 -16.970  1.00  0.00     0.292 C 
HETATM   32  O11 UNL     1     108.203 -24.346 -16.290  1.00  0.00    -0.351 OA
HETATM   33  C20 UNL     1     109.329 -24.192 -15.544  1.00  0.00     0.152 C 
HETATM   34  C21 UNL     1     110.323 -25.267 -16.017  1.00  0.00     0.042 C 
HETATM   35  C22 UNL     1     110.019 -22.883 -15.701  1.00  0.00     0.178 C 
HETATM   36  C23 UNL     1     110.217 -22.590 -17.160  1.00  0.00     0.183 C 
HETATM   37  C24 UNL     1     108.876 -22.730 -17.855  1.00  0.00     0.204 C 
BRANCH  35  38
HETATM   38  O12 UNL     1     111.290 -22.959 -15.101  1.00  0.00    -0.390 OA
ATOM     39  H12 UNL     1     111.951 -22.991 -15.781  1.00  0.00     0.210 HD
ENDBRANCH  35  38
BRANCH  36  40
HETATM   40  O13 UNL     1     111.182 -23.371 -17.762  1.00  0.00    -0.390 OA
ATOM     41  H13 UNL     1     111.868 -23.659 -17.172  1.00  0.00     0.210 HD
ENDBRANCH  36  40
BRANCH  37  42
HETATM   42  O14 UNL     1     108.670 -21.542 -18.521  1.00  0.00    -0.388 OA
ATOM     43  H14 UNL     1     108.996 -20.760 -18.089  1.00  0.00     0.210 HD
ENDBRANCH  37  42
ENDBRANCH  30  31
ENDBRANCH   6  30
TORSDOF 17
ENDMDL
MODEL 4
REMARK VINA RESULT: -8.553881811      8.137     10.089
REMARK  17 active torsions:
REMARK  status: ('A' for Active; 'I' for Inactive)
REMARK    1  A    between atoms: C2_2  and  C3_3 
REMARK    2  A    between atoms: C3_3  and  C4_4 
REMARK    3  A    between atoms: C4_4  and  O1_5 
REMARK    4  A    between atoms: O1_5  and  C5_6 
REMARK    5  A    between atoms: C5_6  and  C6_8 
REMARK    6  A    between atoms: C6_8  and  C7_9 
REMARK    7  A    between atoms: C9_11  and  C10_12 
REMARK    8  A    between atoms: C10_12  and  O3_13 
REMARK    9  A    between atoms: O3_13  and  C11_14 
REMARK   10  A    between atoms: C12_16  and  O5_17 
REMARK   11  A    between atoms: C13_19  and  O6_21 
REMARK   12  A    between atoms: C15_23  and  O7_24 
REMARK   13  A    between atoms: C18_29  and  O10_30 
REMARK   14  A    between atoms: O10_30  and  C19_31 
REMARK   15  A    between atoms: C22_35  and  O12_36 
REMARK   16  A    between atoms: C23_38  and  O13_39 
REMARK   17  A    between atoms: C24_41  and  O14_42 
ROOT
HETATM    1  C7  UNL     1      99.796 -20.099 -13.415  1.00  0.00     0.028 C 
HETATM    2  C8  UNL     1      98.657 -19.062 -13.469  1.00  0.00     0.042 C 
HETATM    3  C9  UNL     1      99.253 -17.775 -13.935  1.00  0.00     0.145 C 
HETATM    4  O9  UNL     1      99.659 -18.018 -15.273  1.00  0.00    -0.381 OA
HETATM    5  C17 UNL     1     100.893 -18.643 -15.117  1.00  0.00     0.200 C 
HETATM    6  C18 UNL     1     100.589 -20.086 -14.649  1.00  0.00     0.153 C 
ENDROOT
BRANCH   3   7
HETATM    7  C10 UNL     1      98.297 -16.618 -13.864  1.00  0.00     0.205 C 
BRANCH   7   8
HETATM    8  O3  UNL     1      97.463 -16.718 -12.752  1.00  0.00    -0.336 OA
BRANCH   8   9
HETATM    9  C11 UNL     1      96.194 -16.368 -13.168  1.00  0.00     0.417 C 
HETATM   10  O4  UNL     1      95.397 -17.520 -13.361  1.00  0.00    -0.305 OA
HETATM   11  C12 UNL     1      94.071 -17.030 -13.353  1.00  0.00     0.301 C 
HETATM   12  C13 UNL     1      93.848 -16.097 -14.498  1.00  0.00     0.153 C 
HETATM   13  C14 UNL     1      92.562 -15.324 -14.279  1.00  0.00     0.056 C 
HETATM   14  C15 UNL     1      95.004 -15.159 -14.729  1.00  0.00     0.303 C 
HETATM   15  O8  UNL     1      96.234 -15.688 -14.357  1.00  0.00    -0.305 OA
BRANCH  11  16
HETATM   16  O5  UNL     1      93.140 -18.055 -13.351  1.00  0.00    -0.368 OA
ATOM     17  H5  UNL     1      92.377 -17.841 -12.827  1.00  0.00     0.212 HD
ENDBRANCH  11  16
BRANCH  12  18
HETATM   18  O6  UNL     1      93.659 -16.855 -15.654  1.00  0.00    -0.380 OA
ATOM     19  H6  UNL     1      93.649 -16.268 -16.401  1.00  0.00     0.211 HD
ENDBRANCH  12  18
BRANCH  14  20
HETATM   20  O7  UNL     1      95.081 -14.930 -16.103  1.00  0.00    -0.363 OA
HETATM   21  C16 UNL     1      96.398 -14.684 -16.504  1.00  0.00     0.204 C 
ENDBRANCH  14  20
ENDBRANCH   8   9
ENDBRANCH   7   8
ENDBRANCH   3   7
BRANCH   1  22
HETATM   22  C6  UNL     1      99.221 -21.418 -13.019  1.00  0.00     0.118 C 
BRANCH  22  23
HETATM   23  C5  UNL     1      98.078 -21.883 -13.798  1.00  0.00     0.259 C 
HETATM   24  O2  UNL     1      96.910 -21.676 -13.420  1.00  0.00    -0.265 OA
BRANCH  23  25
HETATM   25  O1  UNL     1      98.273 -22.567 -14.979  1.00  0.00    -0.321 OA
BRANCH  25  26
HETATM   26  C4  UNL     1      97.608 -23.705 -15.413  1.00  0.00     0.178 C 
BRANCH  26  27
HETATM   27  C3  UNL     1      97.504 -23.842 -16.908  1.00  0.00     0.026 C 
BRANCH  27  28
HETATM   28  C2  UNL     1      96.293 -24.658 -17.314  1.00  0.00    -0.002 C 
HETATM   29  C1  UNL     1      95.254 -24.729 -16.246  1.00  0.00     0.005 C 
ENDBRANCH  27  28
ENDBRANCH  26  27
ENDBRANCH  25  26
ENDBRANCH  23  25
ENDBRANCH  22  23
ENDBRANCH   1  22
BRANCH   6  30
HETATM   30  O10 UNL     1     101.779 -20.783 -14.568  1.00  0.00    -0.351 OA
BRANCH  30  31
HETATM   31  C19 UNL     1     102.085 -21.524 -15.721  1.00  0.00     0.292 C 
HETATM   32  O11 UNL     1     103.362 -21.027 -16.077  1.00  0.00    -0.351 OA
HETATM   33  C20 UNL     1     103.971 -21.684 -17.101  1.00  0.00     0.152 C 
HETATM   34  C21 UNL     1     105.352 -22.123 -16.583  1.00  0.00     0.042 C 
HETATM   35  C22 UNL     1     103.281 -22.919 -17.559  1.00  0.00     0.178 C 
HETATM   36  C23 UNL     1     102.975 -23.794 -16.378  1.00  0.00     0.183 C 
HETATM   37  C24 UNL     1     102.239 -22.956 -15.351  1.00  0.00     0.204 C 
BRANCH  35  38
HETATM   38  O12 UNL     1     104.142 -23.634 -18.413  1.00  0.00    -0.390 OA
ATOM     39  H12 UNL     1     103.723 -24.450 -18.661  1.00  0.00     0.210 HD
ENDBRANCH  35  38
BRANCH  36  40
HETATM   40  O13 UNL     1     104.084 -24.404 -15.831  1.00  0.00    -0.390 OA
ATOM     41  H13 UNL     1     103.893 -24.950 -15.078  1.00  0.00     0.210 HD
ENDBRANCH  36  40
BRANCH  37  42
HETATM   42  O14 UNL     1     101.074 -23.637 -15.073  1.00  0.00    -0.388 OA
ATOM     43  H14 UNL     1     100.808 -23.654 -14.161  1.00  0.00     0.210 HD
ENDBRANCH  37  42
ENDBRANCH  30  31
ENDBRANCH   6  30
TORSDOF 17
ENDMDL
MODEL 5
REMARK VINA RESULT: -8.539246302      8.977     12.647
REMARK  17 active torsions:
REMARK  status: ('A' for Active; 'I' for Inactive)
REMARK    1  A    between atoms: C2_2  and  C3_3 
REMARK    2  A    between atoms: C3_3  and  C4_4 
REMARK    3  A    between atoms: C4_4  and  O1_5 
REMARK    4  A    between atoms: O1_5  and  C5_6 
REMARK    5  A    between atoms: C5_6  and  C6_8 
REMARK    6  A    between atoms: C6_8  and  C7_9 
REMARK    7  A    between atoms: C9_11  and  C10_12 
REMARK    8  A    between atoms: C10_12  and  O3_13 
REMARK    9  A    between atoms: O3_13  and  C11_14 
REMARK   10  A    between atoms: C12_16  and  O5_17 
REMARK   11  A    between atoms: C13_19  and  O6_21 
REMARK   12  A    between atoms: C15_23  and  O7_24 
REMARK   13  A    between atoms: C18_29  and  O10_30 
REMARK   14  A    between atoms: O10_30  and  C19_31 
REMARK   15  A    between atoms: C22_35  and  O12_36 
REMARK   16  A    between atoms: C23_38  and  O13_39 
REMARK   17  A    between atoms: C24_41  and  O14_42 
ROOT
HETATM    1  C7  UNL     1      97.155 -20.161 -13.150  1.00  0.00     0.028 C 
HETATM    2  C8  UNL     1      98.671 -20.415 -13.275  1.00  0.00     0.042 C 
HETATM    3  C9  UNL     1      99.259 -19.235 -13.976  1.00  0.00     0.145 C 
HETATM    4  O9  UNL     1      99.090 -18.149 -13.079  1.00  0.00    -0.381 OA
HETATM    5  C17 UNL     1      97.777 -17.752 -13.311  1.00  0.00     0.200 C 
HETATM    6  C18 UNL     1      96.879 -18.815 -12.636  1.00  0.00     0.153 C 
ENDROOT
BRANCH   3   7
HETATM    7  C10 UNL     1     100.707 -19.419 -14.333  1.00  0.00     0.205 C 
BRANCH   7   8
HETATM    8  O3  UNL     1     101.220 -20.591 -13.780  1.00  0.00    -0.336 OA
BRANCH   8   9
HETATM    9  C11 UNL     1     101.657 -21.373 -14.831  1.00  0.00     0.417 C 
HETATM   10  O4  UNL     1     101.387 -22.738 -14.584  1.00  0.00    -0.305 OA
HETATM   11  C12 UNL     1     101.474 -23.345 -15.858  1.00  0.00     0.301 C 
HETATM   12  C13 UNL     1     102.858 -23.225 -16.404  1.00  0.00     0.153 C 
HETATM   13  C14 UNL     1     102.850 -23.558 -17.883  1.00  0.00     0.056 C 
HETATM   14  C15 UNL     1     103.471 -21.869 -16.164  1.00  0.00     0.303 C 
HETATM   15  O8  UNL     1     103.010 -21.245 -15.012  1.00  0.00    -0.305 OA
BRANCH  11  16
HETATM   16  O5  UNL     1     101.057 -24.666 -15.832  1.00  0.00    -0.368 OA
ATOM     17  H5  UNL     1     100.154 -24.760 -16.109  1.00  0.00     0.212 HD
ENDBRANCH  11  16
BRANCH  12  18
HETATM   18  O6  UNL     1     103.661 -24.186 -15.789  1.00  0.00    -0.380 OA
ATOM     19  H6  UNL     1     104.570 -23.983 -15.976  1.00  0.00     0.211 HD
ENDBRANCH  12  18
BRANCH  14  20
HETATM   20  O7  UNL     1     104.840 -22.063 -15.977  1.00  0.00    -0.363 OA
HETATM   21  C16 UNL     1     105.490 -20.858 -15.690  1.00  0.00     0.204 C 
ENDBRANCH  14  20
ENDBRANCH   8   9
ENDBRANCH   7   8
ENDBRANCH   3   7
BRANCH   1  22
HETATM   22  C6  UNL     1      96.544 -21.291 -12.391  1.00  0.00     0.118 C 
BRANCH  22  23
HETATM   23  C5  UNL     1      96.909 -22.635 -12.830  1.00  0.00     0.259 C 
HETATM   24  O2  UNL     1      97.350 -23.480 -12.028  1.00  0.00    -0.265 OA
BRANCH  23  25
HETATM   25  O1  UNL     1      96.772 -22.996 -14.153  1.00  0.00    -0.321 OA
BRANCH  25  26
HETATM   26  C4  UNL     1      97.784 -23.281 -15.058  1.00  0.00     0.178 C 
BRANCH  26  27
HETATM   27  C3  UNL     1      97.481 -24.411 -16.005  1.00  0.00     0.026 C 
BRANCH  27  28
HETATM   28  C2  UNL     1      95.992 -24.566 -16.239  1.00  0.00    -0.002 C 
HETATM   29  C1  UNL     1      95.659 -24.956 -17.639  1.00  0.00     0.005 C 
ENDBRANCH  27  28
ENDBRANCH  26  27
ENDBRANCH  25  26
ENDBRANCH  23  25
ENDBRANCH  22  23
ENDBRANCH   1  22
BRANCH   6  30
HETATM   30  O10 UNL     1      95.561 -18.419 -12.756  1.00  0.00    -0.351 OA
BRANCH  30  31
HETATM   31  C19 UNL     1      95.401 -17.096 -13.196  1.00  0.00     0.292 C 
HETATM   32  O11 UNL     1      94.380 -17.216 -14.171  1.00  0.00    -0.351 OA
HETATM   33  C20 UNL     1      93.919 -16.039 -14.670  1.00  0.00     0.152 C 
HETATM   34  C21 UNL     1      92.393 -16.041 -14.468  1.00  0.00     0.042 C 
HETATM   35  C22 UNL     1      94.431 -14.819 -13.991  1.00  0.00     0.178 C 
HETATM   36  C23 UNL     1      94.252 -14.956 -12.507  1.00  0.00     0.183 C 
HETATM   37  C24 UNL     1      94.871 -16.272 -12.078  1.00  0.00     0.204 C 
BRANCH  35  38
HETATM   38  O12 UNL     1      93.677 -13.708 -14.415  1.00  0.00    -0.390 OA
ATOM     39  H12 UNL     1      93.241 -13.326 -13.663  1.00  0.00     0.210 HD
ENDBRANCH  35  38
BRANCH  36  40
HETATM   40  O13 UNL     1      92.942 -14.853 -12.089  1.00  0.00    -0.390 OA
ATOM     41  H13 UNL     1      92.528 -15.688 -11.908  1.00  0.00     0.210 HD
ENDBRANCH  36  40
BRANCH  37  42
HETATM   42  O14 UNL     1      95.767 -15.960 -11.079  1.00  0.00    -0.388 OA
ATOM     43  H14 UNL     1      95.683 -16.458 -10.273  1.00  0.00     0.210 HD
ENDBRANCH  37  42
ENDBRANCH  30  31
ENDBRANCH   6  30
TORSDOF 17
ENDMDL
