MODEL 1
REMARK VINA RESULT: -4.377057073      0.000      0.000
REMARK  5 active torsions:
REMARK  status: ('A' for Active; 'I' for Inactive)
REMARK    1  A    between atoms: N1_2  and  C2_4 
REMARK    2  A    between atoms: C2_4  and  C3_5 
REMARK    3  A    between atoms: C3_5  and  C4_6 
REMARK    4  A    between atoms: C4_6  and  N2_7 
REMARK    5  A    between atoms: N2_7  and  C5_9 
ROOT
HETATM    1  N2  UNL     1      -9.426  17.708  -9.474  1.00  0.00    -0.362 N 
ATOM      2  H2  UNL     1      -9.353  16.921  -8.829  1.00  0.00     0.162 HD
ENDROOT
BRANCH   1   3
HETATM    3  C4  UNL     1     -10.633  18.490  -9.520  1.00  0.00     0.124 C 
BRANCH   3   4
HETATM    4  C3  UNL     1     -11.811  17.815 -10.122  1.00  0.00     0.039 C 
BRANCH   4   5
HETATM    5  C2  UNL     1     -12.188  18.650 -11.379  1.00  0.00     0.115 C 
BRANCH   5   6
HETATM    6  N1  UNL     1     -12.080  20.032 -11.200  1.00  0.00    -0.425 N 
HETATM    7  C1  UNL     1     -13.156  20.808 -10.750  1.00  0.00     0.139 C 
ATOM      8  H1  UNL     1     -11.191  20.489 -11.405  1.00  0.00     0.152 HD
ENDBRANCH   5   6
ENDBRANCH   4   5
ENDBRANCH   3   4
ENDBRANCH   1   3
BRANCH   1   9
HETATM    9  C5  UNL     1      -8.332  18.031 -10.329  1.00  0.00     0.171 C 
HETATM   10  N3  UNL     1      -8.248  18.949 -11.241  1.00  0.00    -0.361 N 
HETATM   11  C6  UNL     1      -6.958  18.936 -11.887  1.00  0.00     0.142 C 
ATOM     12  H3  UNL     1      -8.999  19.597 -11.472  1.00  0.00     0.162 HD
HETATM   13  C7  UNL     1      -6.210  17.749 -11.355  1.00  0.00     0.142 C 
HETATM   14  N4  UNL     1      -7.079  17.304 -10.276  1.00  0.00    -0.361 N 
ATOM     15  H4  UNL     1      -6.843  16.590  -9.588  1.00  0.00     0.162 HD
ENDBRANCH   1   9
TORSDOF 5
ENDMDL
MODEL 2
REMARK VINA RESULT: -4.286732344      2.239      4.762
REMARK  5 active torsions:
REMARK  status: ('A' for Active; 'I' for Inactive)
REMARK    1  A    between atoms: N1_2  and  C2_4 
REMARK    2  A    between atoms: C2_4  and  C3_5 
REMARK    3  A    between atoms: C3_5  and  C4_6 
REMARK    4  A    between atoms: C4_6  and  N2_7 
REMARK    5  A    between atoms: N2_7  and  C5_9 
ROOT
HETATM    1  N2  UNL     1     -10.329  18.750 -10.903  1.00  0.00    -0.362 N 
ATOM      2  H2  UNL     1      -9.898  18.684 -11.825  1.00  0.00     0.162 HD
ENDROOT
BRANCH   1   3
HETATM    3  C4  UNL     1      -9.596  18.337  -9.736  1.00  0.00     0.124 C 
BRANCH   3   4
HETATM    4  C3  UNL     1      -9.709  16.899  -9.382  1.00  0.00     0.039 C 
BRANCH   4   5
HETATM    5  C2  UNL     1     -10.349  16.856  -7.965  1.00  0.00     0.115 C 
BRANCH   5   6
HETATM    6  N1  UNL     1     -11.022  18.026  -7.606  1.00  0.00    -0.425 N 
HETATM    7  C1  UNL     1     -12.356  18.015  -7.178  1.00  0.00     0.139 C 
ATOM      8  H1  UNL     1     -10.526  18.917  -7.657  1.00  0.00     0.152 HD
ENDBRANCH   5   6
ENDBRANCH   4   5
ENDBRANCH   3   4
ENDBRANCH   1   3
BRANCH   1   9
HETATM    9  C5  UNL     1     -11.657  19.251 -10.772  1.00  0.00     0.171 C 
HETATM   10  N3  UNL     1     -12.761  18.602 -10.568  1.00  0.00    -0.361 N 
HETATM   11  C6  UNL     1     -13.894  19.492 -10.505  1.00  0.00     0.142 C 
ATOM     12  H3  UNL     1     -12.820  17.590 -10.464  1.00  0.00     0.162 HD
HETATM   13  C7  UNL     1     -13.395  20.866 -10.847  1.00  0.00     0.142 C 
HETATM   14  N4  UNL     1     -11.954  20.666 -10.867  1.00  0.00    -0.361 N 
ATOM     15  H4  UNL     1     -11.259  21.409 -10.936  1.00  0.00     0.162 HD
ENDBRANCH   1   9
TORSDOF 5
ENDMDL
MODEL 3
REMARK VINA RESULT: -4.253543187      0.082      1.150
REMARK  5 active torsions:
REMARK  status: ('A' for Active; 'I' for Inactive)
REMARK    1  A    between atoms: N1_2  and  C2_4 
REMARK    2  A    between atoms: C2_4  and  C3_5 
REMARK    3  A    between atoms: C3_5  and  C4_6 
REMARK    4  A    between atoms: C4_6  and  N2_7 
REMARK    5  A    between atoms: N2_7  and  C5_9 
ROOT
HETATM    1  N2  UNL     1      -9.408  17.719  -9.376  1.00  0.00    -0.362 N 
ATOM      2  H2  UNL     1      -9.366  17.032  -8.623  1.00  0.00     0.162 HD
ENDROOT
BRANCH   1   3
HETATM    3  C4  UNL     1     -10.599  18.505  -9.567  1.00  0.00     0.124 C 
BRANCH   3   4
HETATM    4  C3  UNL     1     -11.752  17.786 -10.167  1.00  0.00     0.039 C 
BRANCH   4   5
HETATM    5  C2  UNL     1     -12.207  18.644 -11.382  1.00  0.00     0.115 C 
BRANCH   5   6
HETATM    6  N1  UNL     1     -12.104  20.022 -11.178  1.00  0.00    -0.425 N 
HETATM    7  C1  UNL     1     -13.197  20.795 -10.763  1.00  0.00     0.139 C 
ATOM      8  H1  UNL     1     -11.206  20.480 -11.336  1.00  0.00     0.152 HD
ENDBRANCH   5   6
ENDBRANCH   4   5
ENDBRANCH   3   4
ENDBRANCH   1   3
BRANCH   1   9
HETATM    9  C5  UNL     1      -8.288  17.898 -10.239  1.00  0.00     0.171 C 
HETATM   10  N3  UNL     1      -7.168  17.246 -10.275  1.00  0.00    -0.361 N 
HETATM   11  C6  UNL     1      -6.292  17.753 -11.302  1.00  0.00     0.142 C 
ATOM     12  H3  UNL     1      -6.936  16.471  -9.654  1.00  0.00     0.162 HD
HETATM   13  C7  UNL     1      -6.950  18.971 -11.880  1.00  0.00     0.142 C 
HETATM   14  N4  UNL     1      -8.266  18.925 -11.262  1.00  0.00    -0.361 N 
ATOM     15  H4  UNL     1      -9.054  19.522 -11.511  1.00  0.00     0.162 HD
ENDBRANCH   1   9
TORSDOF 5
ENDMDL
MODEL 4
REMARK VINA RESULT: -4.141921810      1.179      5.002
REMARK  5 active torsions:
REMARK  status: ('A' for Active; 'I' for Inactive)
REMARK    1  A    between atoms: N1_2  and  C2_4 
REMARK    2  A    between atoms: C2_4  and  C3_5 
REMARK    3  A    between atoms: C3_5  and  C4_6 
REMARK    4  A    between atoms: C4_6  and  N2_7 
REMARK    5  A    between atoms: N2_7  and  C5_9 
ROOT
HETATM    1  N2  UNL     1     -11.433  17.586 -10.014  1.00  0.00    -0.362 N 
ATOM      2  H2  UNL     1     -11.664  16.730 -10.518  1.00  0.00     0.162 HD
ENDROOT
BRANCH   1   3
HETATM    3  C4  UNL     1     -10.406  17.573  -9.006  1.00  0.00     0.124 C 
BRANCH   3   4
HETATM    4  C3  UNL     1      -9.077  17.079  -9.450  1.00  0.00     0.039 C 
BRANCH   4   5
HETATM    5  C2  UNL     1      -8.415  18.261 -10.215  1.00  0.00     0.115 C 
BRANCH   5   6
HETATM    6  N1  UNL     1      -7.112  18.002 -10.648  1.00  0.00    -0.425 N 
HETATM    7  C1  UNL     1      -6.642  18.442 -11.892  1.00  0.00     0.139 C 
ATOM      8  H1  UNL     1      -6.484  17.476 -10.039  1.00  0.00     0.152 HD
ENDBRANCH   5   6
ENDBRANCH   4   5
ENDBRANCH   3   4
ENDBRANCH   1   3
BRANCH   1   9
HETATM    9  C5  UNL     1     -12.128  18.796 -10.309  1.00  0.00     0.171 C 
HETATM   10  N3  UNL     1     -13.391  19.063 -10.196  1.00  0.00    -0.361 N 
HETATM   11  C6  UNL     1     -13.686  20.413 -10.611  1.00  0.00     0.142 C 
ATOM     12  H3  UNL     1     -14.089  18.401  -9.857  1.00  0.00     0.162 HD
HETATM   13  C7  UNL     1     -12.417  20.989 -11.167  1.00  0.00     0.142 C 
HETATM   14  N4  UNL     1     -11.443  19.967 -10.819  1.00  0.00    -0.361 N 
ATOM     15  H4  UNL     1     -10.433  20.060 -10.917  1.00  0.00     0.162 HD
ENDBRANCH   1   9
TORSDOF 5
ENDMDL
MODEL 5
REMARK VINA RESULT: -4.135722378      1.160      5.024
REMARK  5 active torsions:
REMARK  status: ('A' for Active; 'I' for Inactive)
REMARK    1  A    between atoms: N1_2  and  C2_4 
REMARK    2  A    between atoms: C2_4  and  C3_5 
REMARK    3  A    between atoms: C3_5  and  C4_6 
REMARK    4  A    between atoms: C4_6  and  N2_7 
REMARK    5  A    between atoms: N2_7  and  C5_9 
ROOT
HETATM    1  N2  UNL     1     -11.384  17.610 -10.096  1.00  0.00    -0.362 N 
ATOM      2  H2  UNL     1     -11.651  16.758 -10.589  1.00  0.00     0.162 HD
ENDROOT
BRANCH   1   3
HETATM    3  C4  UNL     1     -10.406  17.554  -9.042  1.00  0.00     0.124 C 
BRANCH   3   4
HETATM    4  C3  UNL     1      -9.070  17.036  -9.433  1.00  0.00     0.039 C 
BRANCH   4   5
HETATM    5  C2  UNL     1      -8.365  18.198 -10.189  1.00  0.00     0.115 C 
BRANCH   5   6
HETATM    6  N1  UNL     1      -7.068  17.898 -10.614  1.00  0.00    -0.425 N 
HETATM    7  C1  UNL     1      -6.543  18.402 -11.811  1.00  0.00     0.139 C 
ATOM      8  H1  UNL     1      -6.485  17.293 -10.034  1.00  0.00     0.152 HD
ENDBRANCH   5   6
ENDBRANCH   4   5
ENDBRANCH   3   4
ENDBRANCH   1   3
BRANCH   1   9
HETATM    9  C5  UNL     1     -11.980  18.856 -10.451  1.00  0.00     0.171 C 
HETATM   10  N3  UNL     1     -11.419  19.936 -10.896  1.00  0.00    -0.361 N 
HETATM   11  C6  UNL     1     -12.387  20.980 -11.127  1.00  0.00     0.142 C 
ATOM     12  H3  UNL     1     -10.418  20.034 -11.063  1.00  0.00     0.162 HD
HETATM   13  C7  UNL     1     -13.708  20.474 -10.625  1.00  0.00     0.142 C 
HETATM   14  N4  UNL     1     -13.408  19.079 -10.341  1.00  0.00    -0.361 N 
ATOM     15  H4  UNL     1     -14.097  18.367 -10.102  1.00  0.00     0.162 HD
ENDBRANCH   1   9
TORSDOF 5
ENDMDL
