MODEL 1
REMARK VINA RESULT: -4.322629193      0.000      0.000
REMARK  4 active torsions:
REMARK  status: ('A' for Active; 'I' for Inactive)
REMARK    1  A    between atoms: C2_2  and  C3_3 
REMARK    2  A    between atoms: C3_3  and  N1_4 
REMARK    3  A    between atoms: N1_4  and  C4_7 
REMARK    4  A    between atoms: C4_7  and  C5_8 
ROOT
HETATM    1  C5  UNL     1     -12.334  19.080 -11.299  1.00  0.00     0.237 C 
HETATM    2  C6  UNL     1     -13.579  19.047 -10.494  1.00  0.00     0.204 C 
HETATM    3  O1  UNL     1     -13.664  20.257  -9.843  1.00  0.00    -0.362 OA
HETATM    4  C7  UNL     1     -13.234  21.131 -10.860  1.00  0.00     0.399 C 
HETATM    5  N2  UNL     1     -11.969  20.526 -11.245  1.00  0.00    -0.046 N 
ATOM      6  H21 UNL     1     -11.549  20.900 -12.096  1.00  0.00     0.280 HD
ATOM      7  H22 UNL     1     -11.177  20.753 -10.644  1.00  0.00     0.280 HD
ENDROOT
BRANCH   1   8
HETATM    8  C4  UNL     1     -11.166  18.319 -10.734  1.00  0.00     0.267 C 
BRANCH   8   9
HETATM    9  N1  UNL     1     -10.821  18.690  -9.385  1.00  0.00    -0.070 N 
ATOM     10  H12 UNL     1     -11.569  19.200  -8.914  1.00  0.00     0.277 HD
ATOM     11  H11 UNL     1     -10.111  19.420  -9.347  1.00  0.00     0.277 HD
BRANCH   9  12
HETATM   12  C3  UNL     1     -10.431  17.497  -8.676  1.00  0.00     0.259 C 
BRANCH  12  13
HETATM   13  C2  UNL     1     -11.200  17.264  -7.424  1.00  0.00    -0.010 C 
HETATM   14  C1  UNL     1     -12.242  18.012  -7.153  1.00  0.00     0.008 C 
ENDBRANCH  12  13
ENDBRANCH   9  12
ENDBRANCH   8   9
ENDBRANCH   1   8
TORSDOF 4
ENDMDL
MODEL 2
REMARK VINA RESULT: -4.128339803      1.738      2.615
REMARK  4 active torsions:
REMARK  status: ('A' for Active; 'I' for Inactive)
REMARK    1  A    between atoms: C2_2  and  C3_3 
REMARK    2  A    between atoms: C3_3  and  N1_4 
REMARK    3  A    between atoms: N1_4  and  C4_7 
REMARK    4  A    between atoms: C4_7  and  C5_8 
ROOT
HETATM    1  C5  UNL     1     -12.275  18.766 -10.995  1.00  0.00     0.237 C 
HETATM    2  C6  UNL     1     -13.648  19.089 -10.534  1.00  0.00     0.204 C 
HETATM    3  O1  UNL     1     -13.612  20.375 -10.046  1.00  0.00    -0.362 OA
HETATM    4  C7  UNL     1     -12.779  20.992 -11.000  1.00  0.00     0.399 C 
HETATM    5  N2  UNL     1     -11.624  20.109 -10.990  1.00  0.00    -0.046 N 
ATOM      6  H21 UNL     1     -10.949  20.267 -11.737  1.00  0.00     0.280 HD
ATOM      7  H22 UNL     1     -10.961  20.268 -10.232  1.00  0.00     0.280 HD
ENDROOT
BRANCH   1   8
HETATM    8  C4  UNL     1     -11.464  17.890 -10.081  1.00  0.00     0.267 C 
BRANCH   8   9
HETATM    9  N1  UNL     1     -10.363  18.568  -9.443  1.00  0.00    -0.070 N 
ATOM     10  H12 UNL     1     -10.473  18.632  -8.431  1.00  0.00     0.277 HD
ATOM     11  H11 UNL     1     -10.348  19.568  -9.643  1.00  0.00     0.277 HD
BRANCH   9  12
HETATM   12  C3  UNL     1      -9.143  17.906  -9.828  1.00  0.00     0.259 C 
BRANCH  12  13
HETATM   13  C2  UNL     1      -8.250  18.738 -10.680  1.00  0.00    -0.010 C 
HETATM   14  C1  UNL     1      -7.108  18.248 -11.097  1.00  0.00     0.008 C 
ENDBRANCH  12  13
ENDBRANCH   9  12
ENDBRANCH   8   9
ENDBRANCH   1   8
TORSDOF 4
ENDMDL
MODEL 3
REMARK VINA RESULT: -4.066315203      2.824      3.885
REMARK  4 active torsions:
REMARK  status: ('A' for Active; 'I' for Inactive)
REMARK    1  A    between atoms: C2_2  and  C3_3 
REMARK    2  A    between atoms: C3_3  and  N1_4 
REMARK    3  A    between atoms: N1_4  and  C4_7 
REMARK    4  A    between atoms: C4_7  and  C5_8 
ROOT
HETATM    1  C5  UNL     1     -11.460  18.732  -9.720  1.00  0.00     0.237 C 
HETATM    2  C6  UNL     1     -11.875  19.853 -10.599  1.00  0.00     0.204 C 
HETATM    3  O1  UNL     1     -12.240  19.299 -11.805  1.00  0.00    -0.362 OA
HETATM    4  C7  UNL     1     -12.931  18.152 -11.367  1.00  0.00     0.399 C 
HETATM    5  N2  UNL     1     -11.951  17.545 -10.480  1.00  0.00    -0.046 N 
ATOM      6  H21 UNL     1     -12.299  16.777  -9.908  1.00  0.00     0.280 HD
ATOM      7  H22 UNL     1     -11.227  16.996 -10.944  1.00  0.00     0.280 HD
ENDROOT
BRANCH   1   8
HETATM    8  C4  UNL     1      -9.977  18.549  -9.544  1.00  0.00     0.267 C 
BRANCH   8   9
HETATM    9  N1  UNL     1      -9.200  18.909 -10.704  1.00  0.00    -0.070 N 
ATOM     10  H12 UNL     1      -9.193  19.914 -10.876  1.00  0.00     0.277 HD
ATOM     11  H11 UNL     1      -9.642  18.622 -11.577  1.00  0.00     0.277 HD
BRANCH   9  12
HETATM   12  C3  UNL     1      -7.877  18.362 -10.545  1.00  0.00     0.259 C 
BRANCH  12  13
HETATM   13  C2  UNL     1      -6.992  18.578 -11.722  1.00  0.00    -0.010 C 
HETATM   14  C1  UNL     1      -5.830  17.974 -11.781  1.00  0.00     0.008 C 
ENDBRANCH  12  13
ENDBRANCH   9  12
ENDBRANCH   8   9
ENDBRANCH   1   8
TORSDOF 4
ENDMDL
MODEL 4
REMARK VINA RESULT: -4.015912966      1.027      1.684
REMARK  4 active torsions:
REMARK  status: ('A' for Active; 'I' for Inactive)
REMARK    1  A    between atoms: C2_2  and  C3_3 
REMARK    2  A    between atoms: C3_3  and  N1_4 
REMARK    3  A    between atoms: N1_4  and  C4_7 
REMARK    4  A    between atoms: C4_7  and  C5_8 
ROOT
HETATM    1  C5  UNL     1     -12.544  18.911 -11.107  1.00  0.00     0.237 C 
HETATM    2  C6  UNL     1     -13.784  19.580 -10.643  1.00  0.00     0.204 C 
HETATM    3  O1  UNL     1     -13.406  20.787 -10.100  1.00  0.00    -0.362 OA
HETATM    4  C7  UNL     1     -12.417  21.188 -11.019  1.00  0.00     0.399 C 
HETATM    5  N2  UNL     1     -11.550  20.022 -11.039  1.00  0.00    -0.046 N 
ATOM      6  H21 UNL     1     -10.843  20.018 -11.773  1.00  0.00     0.280 HD
ATOM      7  H22 UNL     1     -10.883  19.963 -10.269  1.00  0.00     0.280 HD
ENDROOT
BRANCH   1   8
HETATM    8  C4  UNL     1     -12.021  17.810 -10.225  1.00  0.00     0.267 C 
BRANCH   8   9
HETATM    9  N1  UNL     1     -11.962  18.157  -8.827  1.00  0.00    -0.070 N 
ATOM     10  H12 UNL     1     -12.846  17.996  -8.344  1.00  0.00     0.277 HD
ATOM     11  H11 UNL     1     -11.902  19.163  -8.673  1.00  0.00     0.277 HD
BRANCH   9  12
HETATM   12  C3  UNL     1     -10.865  17.438  -8.231  1.00  0.00     0.259 C 
BRANCH  12  13
HETATM   13  C2  UNL     1      -9.753  17.148  -9.177  1.00  0.00    -0.010 C 
HETATM   14  C1  UNL     1      -9.205  15.957  -9.189  1.00  0.00     0.008 C 
ENDBRANCH  12  13
ENDBRANCH   9  12
ENDBRANCH   8   9
ENDBRANCH   1   8
TORSDOF 4
ENDMDL
MODEL 5
REMARK VINA RESULT: -3.931254832      2.222      3.154
REMARK  4 active torsions:
REMARK  status: ('A' for Active; 'I' for Inactive)
REMARK    1  A    between atoms: C2_2  and  C3_3 
REMARK    2  A    between atoms: C3_3  and  N1_4 
REMARK    3  A    between atoms: N1_4  and  C4_7 
REMARK    4  A    between atoms: C4_7  and  C5_8 
ROOT
HETATM    1  C5  UNL     1     -11.477  18.774 -10.544  1.00  0.00     0.237 C 
HETATM    2  C6  UNL     1     -12.548  18.151 -11.359  1.00  0.00     0.204 C 
HETATM    3  O1  UNL     1     -13.739  18.695 -10.933  1.00  0.00    -0.362 OA
HETATM    4  C7  UNL     1     -13.363  20.041 -10.758  1.00  0.00     0.399 C 
HETATM    5  N2  UNL     1     -12.199  19.907  -9.896  1.00  0.00    -0.046 N 
ATOM      6  H21 UNL     1     -11.651  20.757  -9.770  1.00  0.00     0.280 HD
ATOM      7  H22 UNL     1     -12.405  19.781  -8.904  1.00  0.00     0.280 HD
ENDROOT
BRANCH   1   8
HETATM    8  C4  UNL     1     -10.918  17.926  -9.434  1.00  0.00     0.267 C 
BRANCH   8   9
HETATM    9  N1  UNL     1      -9.511  17.639  -9.567  1.00  0.00    -0.070 N 
ATOM     10  H12 UNL     1      -9.331  16.676  -9.851  1.00  0.00     0.277 HD
ATOM     11  H11 UNL     1      -9.029  17.612  -8.669  1.00  0.00     0.277 HD
BRANCH   9  12
HETATM   12  C3  UNL     1      -8.940  18.602 -10.475  1.00  0.00     0.259 C 
BRANCH  12  13
HETATM   13  C2  UNL     1      -7.506  18.356 -10.787  1.00  0.00    -0.010 C 
HETATM   14  C1  UNL     1      -7.026  18.709 -11.955  1.00  0.00     0.008 C 
ENDBRANCH  12  13
ENDBRANCH   9  12
ENDBRANCH   8   9
ENDBRANCH   1   8
TORSDOF 4
ENDMDL
