MODEL 1
REMARK VINA RESULT: -4.596836597      0.000      0.000
REMARK  6 active torsions:
REMARK  status: ('A' for Active; 'I' for Inactive)
REMARK    1  A    between atoms: C2_2  and  C3_3 
REMARK    2  A    between atoms: C3_3  and  N1_4 
REMARK    3  A    between atoms: C3_3  and  C4_8 
REMARK    4  A    between atoms: C4_8  and  N2_9 
REMARK    5  A    between atoms: N2_9  and  N3_10 
REMARK    6  A    between atoms: N3_10  and  C5_12 
ROOT
HETATM    1  C4  UNL     1     -11.018  17.849  -8.995  1.00  0.00     0.167 C 
ENDROOT
BRANCH   1   2
HETATM    2  C3  UNL     1     -11.724  17.479  -7.714  1.00  0.00     0.199 C 
BRANCH   2   3
HETATM    3  C2  UNL     1     -12.546  18.541  -7.086  1.00  0.00     0.029 C 
HETATM    4  C1  UNL     1     -13.922  18.708  -7.634  1.00  0.00     0.007 C 
ENDBRANCH   2   3
BRANCH   2   5
HETATM    5  N1  UNL     1     -10.730  17.013  -6.761  1.00  0.00    -0.074 N 
ATOM      6  H13 UNL     1     -10.531  17.707  -6.041  1.00  0.00     0.274 HD
ATOM      7  H12 UNL     1     -11.091  16.275  -6.157  1.00  0.00     0.274 HD
ATOM      8  H11 UNL     1      -9.890  16.725  -7.263  1.00  0.00     0.274 HD
ENDBRANCH   2   5
ENDBRANCH   1   2
BRANCH   1   9
HETATM    9  N2  UNL     1     -11.580  17.096 -10.106  1.00  0.00    -0.138 NA
BRANCH   9  10
HETATM   10  N3  UNL     1     -12.263  17.876 -10.970  1.00  0.00    -0.293 N 
ATOM     11  H3  UNL     1     -12.773  17.393 -11.710  1.00  0.00     0.183 HD
BRANCH  10  12
HETATM   12  C5  UNL     1     -12.351  19.292 -10.963  1.00  0.00     0.090 A 
HETATM   13  N4  UNL     1     -11.697  20.355 -11.175  1.00  0.00    -0.379 N 
HETATM   14  C6  UNL     1     -12.691  21.330 -10.899  1.00  0.00     0.128 A 
ATOM     15  H4  UNL     1     -10.726  20.476 -11.463  1.00  0.00     0.160 HD
HETATM   16  C7  UNL     1     -13.562  20.168 -10.665  1.00  0.00     0.097 A 
ENDBRANCH  10  12
ENDBRANCH   9  10
ENDBRANCH   1   9
TORSDOF 6
ENDMDL
MODEL 2
REMARK VINA RESULT: -4.501447071      3.259      4.691
REMARK  6 active torsions:
REMARK  status: ('A' for Active; 'I' for Inactive)
REMARK    1  A    between atoms: C2_2  and  C3_3 
REMARK    2  A    between atoms: C3_3  and  N1_4 
REMARK    3  A    between atoms: C3_3  and  C4_8 
REMARK    4  A    between atoms: C4_8  and  N2_9 
REMARK    5  A    between atoms: N2_9  and  N3_10 
REMARK    6  A    between atoms: N3_10  and  C5_12 
ROOT
HETATM    1  C4  UNL     1     -11.045  18.552  -9.270  1.00  0.00     0.167 C 
ENDROOT
BRANCH   1   2
HETATM    2  C3  UNL     1     -11.533  18.984 -10.631  1.00  0.00     0.199 C 
BRANCH   2   3
HETATM    3  C2  UNL     1     -12.123  20.341 -10.716  1.00  0.00     0.029 C 
HETATM    4  C1  UNL     1     -13.609  20.412 -10.622  1.00  0.00     0.007 C 
ENDBRANCH   2   3
BRANCH   2   5
HETATM    5  N1  UNL     1     -12.502  18.007 -11.101  1.00  0.00    -0.074 N 
ATOM      6  H13 UNL     1     -13.446  18.209 -10.770  1.00  0.00     0.274 HD
ATOM      7  H12 UNL     1     -12.678  18.089 -12.102  1.00  0.00     0.274 HD
ATOM      8  H11 UNL     1     -12.193  17.071 -10.838  1.00  0.00     0.274 HD
ENDBRANCH   2   5
ENDBRANCH   1   2
BRANCH   1   9
HETATM    9  N2  UNL     1      -9.681  18.055  -9.368  1.00  0.00    -0.138 NA
BRANCH   9  10
HETATM   10  N3  UNL     1      -8.977  18.658 -10.349  1.00  0.00    -0.293 N 
ATOM     11  H3  UNL     1      -9.418  19.463 -10.795  1.00  0.00     0.183 HD
BRANCH  10  12
HETATM   12  C5  UNL     1      -7.692  18.297 -10.830  1.00  0.00     0.090 A 
HETATM   13  N4  UNL     1      -6.697  17.545 -10.613  1.00  0.00    -0.379 N 
HETATM   14  C6  UNL     1      -5.854  17.911 -11.695  1.00  0.00     0.128 A 
ATOM     15  H4  UNL     1      -6.543  16.865  -9.868  1.00  0.00     0.160 HD
HETATM   16  C7  UNL     1      -6.966  18.799 -12.071  1.00  0.00     0.097 A 
ENDBRANCH  10  12
ENDBRANCH   9  10
ENDBRANCH   1   9
TORSDOF 6
ENDMDL
MODEL 3
REMARK VINA RESULT: -4.475764099      3.351      4.246
REMARK  6 active torsions:
REMARK  status: ('A' for Active; 'I' for Inactive)
REMARK    1  A    between atoms: C2_2  and  C3_3 
REMARK    2  A    between atoms: C3_3  and  N1_4 
REMARK    3  A    between atoms: C3_3  and  C4_8 
REMARK    4  A    between atoms: C4_8  and  N2_9 
REMARK    5  A    between atoms: N2_9  and  N3_10 
REMARK    6  A    between atoms: N3_10  and  C5_12 
ROOT
HETATM    1  C4  UNL     1     -10.897  17.562  -9.827  1.00  0.00     0.167 C 
ENDROOT
BRANCH   1   2
HETATM    2  C3  UNL     1     -12.050  17.934  -8.926  1.00  0.00     0.199 C 
BRANCH   2   3
HETATM    3  C2  UNL     1     -12.906  19.054  -9.384  1.00  0.00     0.029 C 
HETATM    4  C1  UNL     1     -12.909  19.313 -10.852  1.00  0.00     0.007 C 
ENDBRANCH   2   3
BRANCH   2   5
HETATM    5  N1  UNL     1     -11.519  18.240  -7.608  1.00  0.00    -0.074 N 
ATOM      6  H13 UNL     1     -12.258  18.384  -6.919  1.00  0.00     0.274 HD
ATOM      7  H12 UNL     1     -11.073  17.431  -7.174  1.00  0.00     0.274 HD
ATOM      8  H11 UNL     1     -10.890  19.039  -7.674  1.00  0.00     0.274 HD
ENDBRANCH   2   5
ENDBRANCH   1   2
BRANCH   1   9
HETATM    9  N2  UNL     1      -9.707  18.304  -9.442  1.00  0.00    -0.138 NA
BRANCH   9  10
HETATM   10  N3  UNL     1      -9.039  18.803 -10.503  1.00  0.00    -0.293 N 
ATOM     11  H3  UNL     1      -9.523  19.517 -11.048  1.00  0.00     0.183 HD
BRANCH  10  12
HETATM   12  C5  UNL     1      -7.740  18.445 -10.946  1.00  0.00     0.090 A 
HETATM   13  N4  UNL     1      -6.732  17.728 -10.675  1.00  0.00    -0.379 N 
HETATM   14  C6  UNL     1      -5.882  18.054 -11.764  1.00  0.00     0.128 A 
ATOM     15  H4  UNL     1      -6.576  17.092  -9.893  1.00  0.00     0.160 HD
HETATM   16  C7  UNL     1      -7.006  18.896 -12.202  1.00  0.00     0.097 A 
ENDBRANCH  10  12
ENDBRANCH   9  10
ENDBRANCH   1   9
TORSDOF 6
ENDMDL
MODEL 4
REMARK VINA RESULT: -4.452567952      1.091      2.160
REMARK  6 active torsions:
REMARK  status: ('A' for Active; 'I' for Inactive)
REMARK    1  A    between atoms: C2_2  and  C3_3 
REMARK    2  A    between atoms: C3_3  and  N1_4 
REMARK    3  A    between atoms: C3_3  and  C4_8 
REMARK    4  A    between atoms: C4_8  and  N2_9 
REMARK    5  A    between atoms: N2_9  and  N3_10 
REMARK    6  A    between atoms: N3_10  and  C5_12 
ROOT
HETATM    1  C4  UNL     1     -11.976  17.896  -8.883  1.00  0.00     0.167 C 
ENDROOT
BRANCH   1   2
HETATM    2  C3  UNL     1     -10.587  17.713  -8.320  1.00  0.00     0.199 C 
BRANCH   2   3
HETATM    3  C2  UNL     1      -9.572  17.154  -9.245  1.00  0.00     0.029 C 
HETATM    4  C1  UNL     1      -8.795  18.150 -10.037  1.00  0.00     0.007 C 
ENDBRANCH   2   3
BRANCH   2   5
HETATM    5  N1  UNL     1     -10.679  16.870  -7.139  1.00  0.00    -0.074 N 
ATOM      6  H13 UNL     1      -9.833  16.909  -6.570  1.00  0.00     0.274 HD
ATOM      7  H12 UNL     1     -11.334  17.241  -6.451  1.00  0.00     0.274 HD
ATOM      8  H11 UNL     1     -10.913  15.918  -7.420  1.00  0.00     0.274 HD
ENDBRANCH   2   5
ENDBRANCH   1   2
BRANCH   1   9
HETATM    9  N2  UNL     1     -12.071  17.256 -10.185  1.00  0.00    -0.138 NA
BRANCH   9  10
HETATM   10  N3  UNL     1     -12.428  18.117 -11.162  1.00  0.00    -0.293 N 
ATOM     11  H3  UNL     1     -12.694  17.703 -12.056  1.00  0.00     0.183 HD
BRANCH  10  12
HETATM   12  C5  UNL     1     -12.476  19.533 -11.084  1.00  0.00     0.090 A 
HETATM   13  N4  UNL     1     -11.799  20.587 -11.268  1.00  0.00    -0.379 N 
HETATM   14  C6  UNL     1     -12.755  21.574 -10.909  1.00  0.00     0.128 A 
ATOM     15  H4  UNL     1     -10.836  20.697 -11.585  1.00  0.00     0.160 HD
HETATM   16  C7  UNL     1     -13.650  20.425 -10.700  1.00  0.00     0.097 A 
ENDBRANCH  10  12
ENDBRANCH   9  10
ENDBRANCH   1   9
TORSDOF 6
ENDMDL
MODEL 5
REMARK VINA RESULT: -4.431884149      3.315      4.364
REMARK  6 active torsions:
REMARK  status: ('A' for Active; 'I' for Inactive)
REMARK    1  A    between atoms: C2_2  and  C3_3 
REMARK    2  A    between atoms: C3_3  and  N1_4 
REMARK    3  A    between atoms: C3_3  and  C4_8 
REMARK    4  A    between atoms: C4_8  and  N2_9 
REMARK    5  A    between atoms: N2_9  and  N3_10 
REMARK    6  A    between atoms: N3_10  and  C5_12 
ROOT
HETATM    1  C4  UNL     1     -10.989  17.689  -9.784  1.00  0.00     0.167 C 
ENDROOT
BRANCH   1   2
HETATM    2  C3  UNL     1     -12.121  18.666  -9.580  1.00  0.00     0.199 C 
BRANCH   2   3
HETATM    3  C2  UNL     1     -12.904  18.511  -8.330  1.00  0.00     0.029 C 
HETATM    4  C1  UNL     1     -12.181  17.896  -7.181  1.00  0.00     0.007 C 
ENDBRANCH   2   3
BRANCH   2   5
HETATM    5  N1  UNL     1     -13.014  18.577 -10.723  1.00  0.00    -0.074 N 
ATOM      6  H13 UNL     1     -13.918  19.014 -10.541  1.00  0.00     0.274 HD
ATOM      7  H12 UNL     1     -12.716  19.175 -11.493  1.00  0.00     0.274 HD
ATOM      8  H11 UNL     1     -13.107  17.601 -11.005  1.00  0.00     0.274 HD
ENDBRANCH   2   5
ENDBRANCH   1   2
BRANCH   1   9
HETATM    9  N2  UNL     1      -9.724  18.317  -9.437  1.00  0.00    -0.138 NA
BRANCH   9  10
HETATM   10  N3  UNL     1      -9.063  18.786 -10.516  1.00  0.00    -0.293 N 
ATOM     11  H3  UNL     1      -9.557  19.472 -11.088  1.00  0.00     0.183 HD
BRANCH  10  12
HETATM   12  C5  UNL     1      -7.758  18.431 -10.945  1.00  0.00     0.090 A 
HETATM   13  N4  UNL     1      -6.752  17.716 -10.664  1.00  0.00    -0.379 N 
HETATM   14  C6  UNL     1      -5.890  18.044 -11.743  1.00  0.00     0.128 A 
ATOM     15  H4  UNL     1      -6.602  17.080  -9.880  1.00  0.00     0.160 HD
HETATM   16  C7  UNL     1      -7.011  18.884 -12.193  1.00  0.00     0.097 A 
ENDBRANCH  10  12
ENDBRANCH   9  10
ENDBRANCH   1   9
TORSDOF 6
ENDMDL
