MODEL 1
REMARK VINA RESULT: -4.286604187      0.000      0.000
REMARK  4 active torsions:
REMARK  status: ('A' for Active; 'I' for Inactive)
REMARK    1  A    between atoms: C2_2  and  C3_3 
REMARK    2  A    between atoms: C3_3  and  N1_4 
REMARK    3  A    between atoms: N1_4  and  N2_5 
REMARK    4  A    between atoms: C6_8  and  N3_9 
ROOT
HETATM    1  N2  UNL     1     -10.640  18.374 -10.171  1.00  0.00    -0.329 N 
HETATM    2  C4  UNL     1     -11.974  18.794 -10.206  1.00  0.00     0.140 C 
HETATM    3  C5  UNL     1     -12.489  18.667  -8.766  1.00  0.00     0.055 C 
HETATM    4  C6  UNL     1     -11.612  17.508  -8.275  1.00  0.00     0.204 C 
HETATM    5  C7  UNL     1     -10.278  17.882  -8.893  1.00  0.00     0.171 C 
ENDROOT
BRANCH   1   6
HETATM    6  N1  UNL     1      -9.669  18.946 -10.883  1.00  0.00    -0.140 NA
BRANCH   6   7
HETATM    7  C3  UNL     1      -8.347  18.539 -10.463  1.00  0.00     0.161 C 
BRANCH   7   8
HETATM    8  C2  UNL     1      -7.358  18.829 -11.505  1.00  0.00    -0.019 C 
HETATM    9  C1  UNL     1      -6.258  18.154 -11.725  1.00  0.00     0.008 C 
ENDBRANCH   7   8
ENDBRANCH   6   7
ENDBRANCH   1   6
BRANCH   4  10
HETATM   10  N3  UNL     1     -11.532  17.489  -6.820  1.00  0.00    -0.073 N 
ATOM     11  H33 UNL     1     -12.391  17.834  -6.392  1.00  0.00     0.274 HD
ATOM     12  H32 UNL     1     -11.548  16.536  -6.456  1.00  0.00     0.274 HD
ATOM     13  H31 UNL     1     -10.715  18.003  -6.490  1.00  0.00     0.274 HD
ENDBRANCH   4  10
TORSDOF 4
ENDMDL
MODEL 2
REMARK VINA RESULT: -4.191268831      1.024      1.024
REMARK  4 active torsions:
REMARK  status: ('A' for Active; 'I' for Inactive)
REMARK    1  A    between atoms: C2_2  and  C3_3 
REMARK    2  A    between atoms: C3_3  and  N1_4 
REMARK    3  A    between atoms: N1_4  and  N2_5 
REMARK    4  A    between atoms: C6_8  and  N3_9 
ROOT
HETATM    1  N2  UNL     1      -9.635  17.794  -9.785  1.00  0.00    -0.329 N 
HETATM    2  C4  UNL     1     -10.547  18.754 -10.238  1.00  0.00     0.140 C 
HETATM    3  C5  UNL     1     -11.579  18.912  -9.113  1.00  0.00     0.055 C 
HETATM    4  C6  UNL     1     -11.527  17.502  -8.509  1.00  0.00     0.204 C 
HETATM    5  C7  UNL     1     -10.033  17.235  -8.546  1.00  0.00     0.171 C 
ENDROOT
BRANCH   1   6
HETATM    6  N1  UNL     1      -8.323  17.861 -10.011  1.00  0.00    -0.140 NA
BRANCH   6   7
HETATM    7  C3  UNL     1      -7.955  18.959 -10.877  1.00  0.00     0.161 C 
BRANCH   7   8
HETATM    8  C2  UNL     1      -6.927  18.544 -11.834  1.00  0.00    -0.019 C 
HETATM    9  C1  UNL     1      -5.901  17.774 -11.569  1.00  0.00     0.008 C 
ENDBRANCH   7   8
ENDBRANCH   6   7
ENDBRANCH   1   6
BRANCH   4  10
HETATM   10  N3  UNL     1     -12.029  17.497  -7.141  1.00  0.00    -0.073 N 
ATOM     11  H33 UNL     1     -11.718  16.670  -6.630  1.00  0.00     0.274 HD
ATOM     12  H32 UNL     1     -11.576  18.212  -6.572  1.00  0.00     0.274 HD
ATOM     13  H31 UNL     1     -13.045  17.590  -7.122  1.00  0.00     0.274 HD
ENDBRANCH   4  10
TORSDOF 4
ENDMDL
MODEL 3
REMARK VINA RESULT: -4.114991074      2.557      4.215
REMARK  4 active torsions:
REMARK  status: ('A' for Active; 'I' for Inactive)
REMARK    1  A    between atoms: C2_2  and  C3_3 
REMARK    2  A    between atoms: C3_3  and  N1_4 
REMARK    3  A    between atoms: N1_4  and  N2_5 
REMARK    4  A    between atoms: C6_8  and  N3_9 
ROOT
HETATM    1  N2  UNL     1     -11.740  18.191 -10.550  1.00  0.00    -0.329 N 
HETATM    2  C4  UNL     1     -10.837  19.257 -10.620  1.00  0.00     0.140 C 
HETATM    3  C5  UNL     1     -11.693  20.530 -10.606  1.00  0.00     0.055 C 
HETATM    4  C6  UNL     1     -12.968  19.997 -11.273  1.00  0.00     0.204 C 
HETATM    5  C7  UNL     1     -13.084  18.636 -10.611  1.00  0.00     0.171 C 
ENDROOT
BRANCH   1   6
HETATM    6  N1  UNL     1     -11.516  17.080  -9.848  1.00  0.00    -0.140 NA
BRANCH   6   7
HETATM    7  C3  UNL     1     -10.460  17.234  -8.872  1.00  0.00     0.161 C 
BRANCH   7   8
HETATM    8  C2  UNL     1     -11.005  17.220  -7.512  1.00  0.00    -0.019 C 
HETATM    9  C1  UNL     1     -12.069  17.867  -7.108  1.00  0.00     0.008 C 
ENDBRANCH   7   8
ENDBRANCH   6   7
ENDBRANCH   1   6
BRANCH   4  10
HETATM   10  N3  UNL     1     -14.117  20.836 -10.958  1.00  0.00    -0.073 N 
ATOM     11  H33 UNL     1     -13.831  21.772 -10.669  1.00  0.00     0.274 HD
ATOM     12  H32 UNL     1     -14.641  21.085 -11.797  1.00  0.00     0.274 HD
ATOM     13  H31 UNL     1     -14.715  20.394 -10.259  1.00  0.00     0.274 HD
ENDBRANCH   4  10
TORSDOF 4
ENDMDL
MODEL 4
REMARK VINA RESULT: -4.070799732      1.915      3.309
REMARK  4 active torsions:
REMARK  status: ('A' for Active; 'I' for Inactive)
REMARK    1  A    between atoms: C2_2  and  C3_3 
REMARK    2  A    between atoms: C3_3  and  N1_4 
REMARK    3  A    between atoms: N1_4  and  N2_5 
REMARK    4  A    between atoms: C6_8  and  N3_9 
ROOT
HETATM    1  N2  UNL     1     -12.437  18.093 -10.113  1.00  0.00    -0.329 N 
HETATM    2  C4  UNL     1     -12.150  18.287 -11.469  1.00  0.00     0.140 C 
HETATM    3  C5  UNL     1     -12.373  19.783 -11.732  1.00  0.00     0.055 C 
HETATM    4  C6  UNL     1     -13.456  20.075 -10.685  1.00  0.00     0.204 C 
HETATM    5  C7  UNL     1     -12.931  19.274  -9.507  1.00  0.00     0.171 C 
ENDROOT
BRANCH   1   6
HETATM    6  N1  UNL     1     -11.749  17.266  -9.326  1.00  0.00    -0.140 NA
BRANCH   6   7
HETATM    7  C3  UNL     1     -10.601  17.896  -8.713  1.00  0.00     0.161 C 
BRANCH   7   8
HETATM    8  C2  UNL     1      -9.367  17.507  -9.400  1.00  0.00    -0.019 C 
HETATM    9  C1  UNL     1      -8.665  18.268 -10.202  1.00  0.00     0.008 C 
ENDBRANCH   7   8
ENDBRANCH   6   7
ENDBRANCH   1   6
BRANCH   4  10
HETATM   10  N3  UNL     1     -13.514  21.497 -10.371  1.00  0.00    -0.073 N 
ATOM     11  H33 UNL     1     -14.411  21.753  -9.957  1.00  0.00     0.274 HD
ATOM     12  H32 UNL     1     -12.907  21.733  -9.586  1.00  0.00     0.274 HD
ATOM     13  H31 UNL     1     -13.304  22.064 -11.193  1.00  0.00     0.274 HD
ENDBRANCH   4  10
TORSDOF 4
ENDMDL
MODEL 5
REMARK VINA RESULT: -4.057159758      1.284      2.069
REMARK  4 active torsions:
REMARK  status: ('A' for Active; 'I' for Inactive)
REMARK    1  A    between atoms: C2_2  and  C3_3 
REMARK    2  A    between atoms: C3_3  and  N1_4 
REMARK    3  A    between atoms: N1_4  and  N2_5 
REMARK    4  A    between atoms: C6_8  and  N3_9 
ROOT
HETATM    1  N2  UNL     1     -10.372  18.482  -9.413  1.00  0.00    -0.329 N 
HETATM    2  C4  UNL     1     -11.110  18.174  -8.266  1.00  0.00     0.140 C 
HETATM    3  C5  UNL     1     -12.584  18.256  -8.685  1.00  0.00     0.055 C 
HETATM    4  C6  UNL     1     -12.483  19.310  -9.796  1.00  0.00     0.204 C 
HETATM    5  C7  UNL     1     -11.208  18.866 -10.490  1.00  0.00     0.171 C 
ENDROOT
BRANCH   1   6
HETATM    6  N1  UNL     1      -9.229  17.876  -9.738  1.00  0.00    -0.140 NA
BRANCH   6   7
HETATM    7  C3  UNL     1      -8.400  18.670 -10.616  1.00  0.00     0.161 C 
BRANCH   7   8
HETATM    8  C2  UNL     1      -7.112  18.011 -10.852  1.00  0.00    -0.019 C 
HETATM    9  C1  UNL     1      -6.284  18.279 -11.830  1.00  0.00     0.008 C 
ENDBRANCH   7   8
ENDBRANCH   6   7
ENDBRANCH   1   6
BRANCH   4  10
HETATM   10  N3  UNL     1     -13.626  19.236 -10.697  1.00  0.00    -0.073 N 
ATOM     11  H33 UNL     1     -13.717  18.308 -11.113  1.00  0.00     0.274 HD
ATOM     12  H32 UNL     1     -14.509  19.264 -10.186  1.00  0.00     0.274 HD
ATOM     13  H31 UNL     1     -13.581  19.964 -11.409  1.00  0.00     0.274 HD
ENDBRANCH   4  10
TORSDOF 4
ENDMDL
