MODEL 1
REMARK VINA RESULT: -4.560778865      0.000      0.000
REMARK  5 active torsions:
REMARK  status: ('A' for Active; 'I' for Inactive)
REMARK    1  A    between atoms: N1_1  and  C1_5 
REMARK    2  A    between atoms: C1_5  and  C2_6 
REMARK    3  A    between atoms: C2_6  and  C3_7 
REMARK    4  A    between atoms: C3_7  and  C4_8 
REMARK    5  A    between atoms: C4_8  and  C5_9 
ROOT
HETATM    1  C4  UNL     1      -9.777  18.050  -9.727  1.00  0.00     0.076 C 
ENDROOT
BRANCH   1   2
HETATM    2  C3  UNL     1      -8.698  18.701 -10.561  1.00  0.00     0.009 C 
BRANCH   2   3
HETATM    3  C2  UNL     1      -7.434  17.877 -10.568  1.00  0.00     0.027 C 
BRANCH   3   4
HETATM    4  C1  UNL     1      -6.498  18.288 -11.678  1.00  0.00     0.229 C 
BRANCH   4   5
HETATM    5  N1  UNL     1      -7.205  19.088 -12.643  1.00  0.00    -0.079 N 
ATOM      6  H13 UNL     1      -8.055  18.630 -12.971  1.00  0.00     0.274 HD
ATOM      7  H12 UNL     1      -7.633  19.910 -12.218  1.00  0.00     0.274 HD
ATOM      8  H11 UNL     1      -6.583  19.334 -13.412  1.00  0.00     0.274 HD
ENDBRANCH   4   5
ENDBRANCH   3   4
ENDBRANCH   2   3
ENDBRANCH   1   2
BRANCH   1   9
HETATM    9  C5  UNL     1     -11.111  18.690 -10.012  1.00  0.00     0.080 A 
HETATM   10  N2  UNL     1     -12.285  18.483  -9.391  1.00  0.00    -0.354 N 
HETATM   11  C6  UNL     1     -13.265  19.224  -9.907  1.00  0.00     0.106 A 
ATOM     12  H2  UNL     1     -12.410  17.833  -8.615  1.00  0.00     0.166 HD
HETATM   13  C7  UNL     1     -12.666  19.945 -10.919  1.00  0.00     0.106 A 
HETATM   14  N3  UNL     1     -11.365  19.612 -10.970  1.00  0.00    -0.354 N 
ATOM     15  H3  UNL     1     -10.681  19.991 -11.624  1.00  0.00     0.166 HD
ENDBRANCH   1   9
TORSDOF 5
ENDMDL
MODEL 2
REMARK VINA RESULT: -4.547676588      0.025      1.142
REMARK  5 active torsions:
REMARK  status: ('A' for Active; 'I' for Inactive)
REMARK    1  A    between atoms: N1_1  and  C1_5 
REMARK    2  A    between atoms: C1_5  and  C2_6 
REMARK    3  A    between atoms: C2_6  and  C3_7 
REMARK    4  A    between atoms: C3_7  and  C4_8 
REMARK    5  A    between atoms: C4_8  and  C5_9 
ROOT
HETATM    1  C4  UNL     1      -9.776  18.050  -9.736  1.00  0.00     0.076 C 
ENDROOT
BRANCH   1   2
HETATM    2  C3  UNL     1      -8.691  18.704 -10.558  1.00  0.00     0.009 C 
BRANCH   2   3
HETATM    3  C2  UNL     1      -7.430  17.876 -10.565  1.00  0.00     0.027 C 
BRANCH   3   4
HETATM    4  C1  UNL     1      -6.495  18.280 -11.679  1.00  0.00     0.229 C 
BRANCH   4   5
HETATM    5  N1  UNL     1      -7.204  19.072 -12.649  1.00  0.00    -0.079 N 
ATOM      6  H13 UNL     1      -7.393  18.550 -13.504  1.00  0.00     0.274 HD
ATOM      7  H12 UNL     1      -8.168  19.250 -12.367  1.00  0.00     0.274 HD
ATOM      8  H11 UNL     1      -6.693  19.935 -12.832  1.00  0.00     0.274 HD
ENDBRANCH   4   5
ENDBRANCH   3   4
ENDBRANCH   2   3
ENDBRANCH   1   2
BRANCH   1   9
HETATM    9  C5  UNL     1     -11.107  18.697 -10.022  1.00  0.00     0.080 A 
HETATM   10  N2  UNL     1     -11.402  19.621 -10.952  1.00  0.00    -0.354 N 
HETATM   11  C6  UNL     1     -12.687  19.972 -10.924  1.00  0.00     0.106 A 
ATOM     12  H2  UNL     1     -10.720  20.008 -11.605  1.00  0.00     0.166 HD
HETATM   13  C7  UNL     1     -13.236  19.217  -9.907  1.00  0.00     0.106 A 
HETATM   14  N3  UNL     1     -12.269  18.452  -9.372  1.00  0.00    -0.354 N 
ATOM     15  H3  UNL     1     -12.391  17.795  -8.602  1.00  0.00     0.166 HD
ENDBRANCH   1   9
TORSDOF 5
ENDMDL
MODEL 3
REMARK VINA RESULT: -4.458278958      1.626      2.203
REMARK  5 active torsions:
REMARK  status: ('A' for Active; 'I' for Inactive)
REMARK    1  A    between atoms: N1_1  and  C1_5 
REMARK    2  A    between atoms: C1_5  and  C2_6 
REMARK    3  A    between atoms: C2_6  and  C3_7 
REMARK    4  A    between atoms: C3_7  and  C4_8 
REMARK    5  A    between atoms: C4_8  and  C5_9 
ROOT
HETATM    1  C4  UNL     1      -9.251  17.318  -9.446  1.00  0.00     0.076 C 
ENDROOT
BRANCH   1   2
HETATM    2  C3  UNL     1      -8.983  18.397 -10.469  1.00  0.00     0.009 C 
BRANCH   2   3
HETATM    3  C2  UNL     1      -7.530  18.805 -10.473  1.00  0.00     0.027 C 
BRANCH   3   4
HETATM    4  C1  UNL     1      -6.811  18.318 -11.707  1.00  0.00     0.229 C 
BRANCH   4   5
HETATM    5  N1  UNL     1      -7.220  19.093 -12.849  1.00  0.00    -0.079 N 
ATOM      6  H13 UNL     1      -7.859  18.577 -13.453  1.00  0.00     0.274 HD
ATOM      7  H12 UNL     1      -7.845  19.856 -12.590  1.00  0.00     0.274 HD
ATOM      8  H11 UNL     1      -6.399  19.425 -13.355  1.00  0.00     0.274 HD
ENDBRANCH   4   5
ENDBRANCH   3   4
ENDBRANCH   2   3
ENDBRANCH   1   2
BRANCH   1   9
HETATM    9  C5  UNL     1     -10.527  17.614  -8.701  1.00  0.00     0.080 A 
HETATM   10  N2  UNL     1     -11.595  18.313  -9.121  1.00  0.00    -0.354 N 
HETATM   11  C6  UNL     1     -12.551  18.376  -8.195  1.00  0.00     0.106 A 
ATOM     12  H2  UNL     1     -11.666  18.745 -10.042  1.00  0.00     0.166 HD
HETATM   13  C7  UNL     1     -12.050  17.668  -7.122  1.00  0.00     0.106 A 
HETATM   14  N3  UNL     1     -10.826  17.215  -7.443  1.00  0.00    -0.354 N 
ATOM     15  H3  UNL     1     -10.222  16.660  -6.837  1.00  0.00     0.166 HD
ENDBRANCH   1   9
TORSDOF 5
ENDMDL
MODEL 4
REMARK VINA RESULT: -4.413752903      2.537      3.870
REMARK  5 active torsions:
REMARK  status: ('A' for Active; 'I' for Inactive)
REMARK    1  A    between atoms: N1_1  and  C1_5 
REMARK    2  A    between atoms: C1_5  and  C2_6 
REMARK    3  A    between atoms: C2_6  and  C3_7 
REMARK    4  A    between atoms: C3_7  and  C4_8 
REMARK    5  A    between atoms: C4_8  and  C5_9 
ROOT
HETATM    1  C4  UNL     1     -11.590  17.645 -10.333  1.00  0.00     0.076 C 
ENDROOT
BRANCH   1   2
HETATM    2  C3  UNL     1     -10.312  17.745  -9.533  1.00  0.00     0.009 C 
BRANCH   2   3
HETATM    3  C2  UNL     1     -10.490  17.196  -8.139  1.00  0.00     0.027 C 
BRANCH   3   4
HETATM    4  C1  UNL     1     -11.863  17.491  -7.587  1.00  0.00     0.229 C 
BRANCH   4   5
HETATM    5  N1  UNL     1     -11.752  18.310  -6.409  1.00  0.00    -0.079 N 
ATOM      6  H13 UNL     1     -12.664  18.559  -6.028  1.00  0.00     0.274 HD
ATOM      7  H12 UNL     1     -11.395  17.786  -5.610  1.00  0.00     0.274 HD
ATOM      8  H11 UNL     1     -11.184  19.133  -6.612  1.00  0.00     0.274 HD
ENDBRANCH   4   5
ENDBRANCH   3   4
ENDBRANCH   2   3
ENDBRANCH   1   2
BRANCH   1   9
HETATM    9  C5  UNL     1     -12.163  19.018 -10.572  1.00  0.00     0.080 A 
HETATM   10  N2  UNL     1     -11.517  20.138 -10.940  1.00  0.00    -0.354 N 
HETATM   11  C6  UNL     1     -12.342  21.178 -11.060  1.00  0.00     0.106 A 
ATOM     12  H2  UNL     1     -10.512  20.186 -11.108  1.00  0.00     0.166 HD
HETATM   13  C7  UNL     1     -13.589  20.676 -10.747  1.00  0.00     0.106 A 
HETATM   14  N3  UNL     1     -13.464  19.370 -10.455  1.00  0.00    -0.354 N 
ATOM     15  H3  UNL     1     -14.225  18.747 -10.188  1.00  0.00     0.166 HD
ENDBRANCH   1   9
TORSDOF 5
ENDMDL
MODEL 5
REMARK VINA RESULT: -4.332718489      2.055      5.141
REMARK  5 active torsions:
REMARK  status: ('A' for Active; 'I' for Inactive)
REMARK    1  A    between atoms: N1_1  and  C1_5 
REMARK    2  A    between atoms: C1_5  and  C2_6 
REMARK    3  A    between atoms: C2_6  and  C3_7 
REMARK    4  A    between atoms: C3_7  and  C4_8 
REMARK    5  A    between atoms: C4_8  and  C5_9 
ROOT
HETATM    1  C4  UNL     1      -9.630  18.846 -10.077  1.00  0.00     0.076 C 
ENDROOT
BRANCH   1   2
HETATM    2  C3  UNL     1     -10.287  17.638  -9.450  1.00  0.00     0.009 C 
BRANCH   2   3
HETATM    3  C2  UNL     1     -11.723  17.921  -9.083  1.00  0.00     0.027 C 
BRANCH   3   4
HETATM    4  C1  UNL     1     -11.952  17.841  -7.594  1.00  0.00     0.229 C 
BRANCH   4   5
HETATM    5  N1  UNL     1     -10.916  17.051  -6.981  1.00  0.00    -0.079 N 
ATOM      6  H13 UNL     1     -10.684  17.384  -6.046  1.00  0.00     0.274 HD
ATOM      7  H12 UNL     1     -11.243  16.118  -6.731  1.00  0.00     0.274 HD
ATOM      8  H11 UNL     1     -10.098  17.020  -7.590  1.00  0.00     0.274 HD
ENDBRANCH   4   5
ENDBRANCH   3   4
ENDBRANCH   2   3
ENDBRANCH   1   2
BRANCH   1   9
HETATM    9  C5  UNL     1      -8.288  18.468 -10.650  1.00  0.00     0.080 A 
HETATM   10  N2  UNL     1      -7.471  17.470 -10.272  1.00  0.00    -0.354 N 
HETATM   11  C6  UNL     1      -6.358  17.427 -11.003  1.00  0.00     0.106 A 
ATOM     12  H2  UNL     1      -7.680  16.820  -9.514  1.00  0.00     0.166 HD
HETATM   13  C7  UNL     1      -6.485  18.468 -11.900  1.00  0.00     0.106 A 
HETATM   14  N3  UNL     1      -7.656  19.087 -11.674  1.00  0.00    -0.354 N 
ATOM     15  H3  UNL     1      -8.010  19.892 -12.189  1.00  0.00     0.166 HD
ENDBRANCH   1   9
TORSDOF 5
ENDMDL
