MODEL 1
REMARK VINA RESULT: -4.493000214      0.000      0.000
REMARK  5 active torsions:
REMARK  status: ('A' for Active; 'I' for Inactive)
REMARK    1  A    between atoms: N1_1  and  C1_5 
REMARK    2  A    between atoms: C1_5  and  C2_6 
REMARK    3  A    between atoms: C2_6  and  C3_7 
REMARK    4  A    between atoms: C3_7  and  C4_8 
REMARK    5  A    between atoms: C4_8  and  C5_9 
ROOT
HETATM    1  C4  UNL     1      -9.838  18.223  -9.887  1.00  0.00     0.076 C 
ENDROOT
BRANCH   1   2
HETATM    2  C3  UNL     1      -8.651  18.744 -10.602  1.00  0.00     0.009 C 
BRANCH   2   3
HETATM    3  C2  UNL     1      -7.432  17.897 -10.606  1.00  0.00     0.027 C 
BRANCH   3   4
HETATM    4  C1  UNL     1      -6.452  18.280 -11.701  1.00  0.00     0.229 C 
BRANCH   4   5
HETATM    5  N1  UNL     1      -7.152  19.081 -12.705  1.00  0.00    -0.079 N 
ATOM      6  H13 UNL     1      -6.578  19.262 -13.529  1.00  0.00     0.274 HD
ATOM      7  H12 UNL     1      -7.900  18.561 -13.165  1.00  0.00     0.274 HD
ATOM      8  H11 UNL     1      -7.488  19.940 -12.268  1.00  0.00     0.274 HD
ENDBRANCH   4   5
ENDBRANCH   3   4
ENDBRANCH   2   3
ENDBRANCH   1   2
BRANCH   1   9
HETATM    9  C5  UNL     1     -11.122  18.795 -10.354  1.00  0.00     0.072 C 
HETATM   10  N2  UNL     1     -11.362  20.009 -10.659  1.00  0.00    -0.378 N 
HETATM   11  C6  UNL     1     -12.715  20.219 -11.073  1.00  0.00     0.140 C 
ATOM     12  H2  UNL     1     -10.663  20.751 -10.613  1.00  0.00     0.160 HD
HETATM   13  C7  UNL     1     -13.430  19.002 -10.537  1.00  0.00     0.140 C 
HETATM   14  N3  UNL     1     -12.333  18.030 -10.520  1.00  0.00    -0.378 N 
ATOM     15  H3  UNL     1     -12.411  17.016 -10.608  1.00  0.00     0.160 HD
ENDBRANCH   1   9
TORSDOF 5
ENDMDL
MODEL 2
REMARK VINA RESULT: -4.480196961      0.580      1.185
REMARK  5 active torsions:
REMARK  status: ('A' for Active; 'I' for Inactive)
REMARK    1  A    between atoms: N1_1  and  C1_5 
REMARK    2  A    between atoms: C1_5  and  C2_6 
REMARK    3  A    between atoms: C2_6  and  C3_7 
REMARK    4  A    between atoms: C3_7  and  C4_8 
REMARK    5  A    between atoms: C4_8  and  C5_9 
ROOT
HETATM    1  C4  UNL     1      -9.768  17.946  -9.687  1.00  0.00     0.076 C 
ENDROOT
BRANCH   1   2
HETATM    2  C3  UNL     1      -8.674  18.549 -10.480  1.00  0.00     0.009 C 
BRANCH   2   3
HETATM    3  C2  UNL     1      -7.398  17.795 -10.565  1.00  0.00     0.027 C 
BRANCH   3   4
HETATM    4  C1  UNL     1      -6.472  18.322 -11.647  1.00  0.00     0.229 C 
BRANCH   4   5
HETATM    5  N1  UNL     1      -7.264  19.068 -12.625  1.00  0.00    -0.079 N 
ATOM      6  H13 UNL     1      -8.266  18.911 -12.516  1.00  0.00     0.274 HD
ATOM      7  H12 UNL     1      -7.257  20.072 -12.447  1.00  0.00     0.274 HD
ATOM      8  H11 UNL     1      -6.934  18.837 -13.563  1.00  0.00     0.274 HD
ENDBRANCH   4   5
ENDBRANCH   3   4
ENDBRANCH   2   3
ENDBRANCH   1   2
BRANCH   1   9
HETATM    9  C5  UNL     1     -11.082  18.602  -9.877  1.00  0.00     0.072 C 
HETATM   10  N2  UNL     1     -12.171  18.344  -9.267  1.00  0.00    -0.378 N 
HETATM   11  C6  UNL     1     -13.257  19.171  -9.697  1.00  0.00     0.140 C 
ATOM     12  H2  UNL     1     -12.259  17.625  -8.549  1.00  0.00     0.160 HD
HETATM   13  C7  UNL     1     -12.778  19.701 -11.028  1.00  0.00     0.140 C 
HETATM   14  N3  UNL     1     -11.326  19.659 -10.829  1.00  0.00    -0.378 N 
ATOM     15  H3  UNL     1     -10.629  20.256 -11.273  1.00  0.00     0.160 HD
ENDBRANCH   1   9
TORSDOF 5
ENDMDL
MODEL 3
REMARK VINA RESULT: -4.445385191      1.998      2.300
REMARK  5 active torsions:
REMARK  status: ('A' for Active; 'I' for Inactive)
REMARK    1  A    between atoms: N1_1  and  C1_5 
REMARK    2  A    between atoms: C1_5  and  C2_6 
REMARK    3  A    between atoms: C2_6  and  C3_7 
REMARK    4  A    between atoms: C3_7  and  C4_8 
REMARK    5  A    between atoms: C4_8  and  C5_9 
ROOT
HETATM    1  C4  UNL     1      -9.364  17.387  -9.461  1.00  0.00     0.076 C 
ENDROOT
BRANCH   1   2
HETATM    2  C3  UNL     1      -9.027  18.432 -10.454  1.00  0.00     0.009 C 
BRANCH   2   3
HETATM    3  C2  UNL     1      -7.618  18.900 -10.498  1.00  0.00     0.027 C 
BRANCH   3   4
HETATM    4  C1  UNL     1      -6.843  18.323 -11.669  1.00  0.00     0.229 C 
BRANCH   4   5
HETATM    5  N1  UNL     1      -7.150  19.100 -12.870  1.00  0.00    -0.079 N 
ATOM      6  H13 UNL     1      -7.698  18.570 -13.548  1.00  0.00     0.274 HD
ATOM      7  H12 UNL     1      -7.827  19.842 -12.691  1.00  0.00     0.274 HD
ATOM      8  H11 UNL     1      -6.279  19.455 -13.266  1.00  0.00     0.274 HD
ENDBRANCH   4   5
ENDBRANCH   3   4
ENDBRANCH   2   3
ENDBRANCH   1   2
BRANCH   1   9
HETATM    9  C5  UNL     1     -10.631  17.633  -8.734  1.00  0.00     0.072 C 
HETATM   10  N2  UNL     1     -11.633  18.311  -9.134  1.00  0.00    -0.378 N 
HETATM   11  C6  UNL     1     -12.696  18.346  -8.177  1.00  0.00     0.140 C 
ATOM     12  H2  UNL     1     -11.673  18.778 -10.040  1.00  0.00     0.160 HD
HETATM   13  C7  UNL     1     -12.012  17.948  -6.890  1.00  0.00     0.140 C 
HETATM   14  N3  UNL     1     -10.912  17.131  -7.411  1.00  0.00    -0.378 N 
ATOM     15  H3  UNL     1     -10.440  16.363  -6.934  1.00  0.00     0.160 HD
ENDBRANCH   1   9
TORSDOF 5
ENDMDL
MODEL 4
REMARK VINA RESULT: -4.384808546      2.313      5.221
REMARK  5 active torsions:
REMARK  status: ('A' for Active; 'I' for Inactive)
REMARK    1  A    between atoms: N1_1  and  C1_5 
REMARK    2  A    between atoms: C1_5  and  C2_6 
REMARK    3  A    between atoms: C2_6  and  C3_7 
REMARK    4  A    between atoms: C3_7  and  C4_8 
REMARK    5  A    between atoms: C4_8  and  C5_9 
ROOT
HETATM    1  C4  UNL     1      -9.627  18.795 -10.185  1.00  0.00     0.076 C 
ENDROOT
BRANCH   1   2
HETATM    2  C3  UNL     1     -10.313  17.717  -9.439  1.00  0.00     0.009 C 
BRANCH   2   3
HETATM    3  C2  UNL     1     -11.734  17.942  -9.070  1.00  0.00     0.027 C 
BRANCH   3   4
HETATM    4  C1  UNL     1     -11.974  17.859  -7.573  1.00  0.00     0.229 C 
BRANCH   4   5
HETATM    5  N1  UNL     1     -10.915  17.051  -6.967  1.00  0.00    -0.079 N 
ATOM      6  H13 UNL     1     -10.404  16.499  -7.656  1.00  0.00     0.274 HD
ATOM      7  H12 UNL     1     -10.136  17.619  -6.633  1.00  0.00     0.274 HD
ATOM      8  H11 UNL     1     -11.320  16.474  -6.229  1.00  0.00     0.274 HD
ENDBRANCH   4   5
ENDBRANCH   3   4
ENDBRANCH   2   3
ENDBRANCH   1   2
BRANCH   1   9
HETATM    9  C5  UNL     1      -8.257  18.444 -10.626  1.00  0.00     0.072 C 
HETATM   10  N2  UNL     1      -7.596  18.964 -11.584  1.00  0.00    -0.378 N 
HETATM   11  C6  UNL     1      -6.296  18.386 -11.739  1.00  0.00     0.140 C 
ATOM     12  H2  UNL     1      -7.956  19.712 -12.177  1.00  0.00     0.160 HD
HETATM   13  C7  UNL     1      -6.414  17.077 -10.995  1.00  0.00     0.140 C 
HETATM   14  N3  UNL     1      -7.453  17.413 -10.018  1.00  0.00    -0.378 N 
ATOM     15  H3  UNL     1      -7.581  17.000  -9.094  1.00  0.00     0.160 HD
ENDBRANCH   1   9
TORSDOF 5
ENDMDL
MODEL 5
REMARK VINA RESULT: -4.315289416      2.041      2.484
REMARK  5 active torsions:
REMARK  status: ('A' for Active; 'I' for Inactive)
REMARK    1  A    between atoms: N1_1  and  C1_5 
REMARK    2  A    between atoms: C1_5  and  C2_6 
REMARK    3  A    between atoms: C2_6  and  C3_7 
REMARK    4  A    between atoms: C3_7  and  C4_8 
REMARK    5  A    between atoms: C4_8  and  C5_9 
ROOT
HETATM    1  C4  UNL     1      -9.532  16.698  -9.480  1.00  0.00     0.076 C 
ENDROOT
BRANCH   1   2
HETATM    2  C3  UNL     1      -8.283  17.484  -9.592  1.00  0.00     0.009 C 
BRANCH   2   3
HETATM    3  C2  UNL     1      -8.221  18.517 -10.657  1.00  0.00     0.027 C 
BRANCH   3   4
HETATM    4  C1  UNL     1      -6.936  18.454 -11.464  1.00  0.00     0.229 C 
BRANCH   4   5
HETATM    5  N1  UNL     1      -7.159  19.092 -12.761  1.00  0.00    -0.079 N 
ATOM      6  H13 UNL     1      -6.608  18.664 -13.505  1.00  0.00     0.274 HD
ATOM      7  H12 UNL     1      -8.086  18.892 -13.139  1.00  0.00     0.274 HD
ATOM      8  H11 UNL     1      -6.983  20.093 -12.673  1.00  0.00     0.274 HD
ENDBRANCH   4   5
ENDBRANCH   3   4
ENDBRANCH   2   3
ENDBRANCH   1   2
BRANCH   1   9
HETATM    9  C5  UNL     1     -10.588  17.356  -8.676  1.00  0.00     0.072 C 
HETATM   10  N2  UNL     1     -10.873  17.146  -7.452  1.00  0.00    -0.378 N 
HETATM   11  C6  UNL     1     -11.955  17.958  -6.987  1.00  0.00     0.140 C 
ATOM     12  H2  UNL     1     -10.382  16.470  -6.867  1.00  0.00     0.160 HD
HETATM   13  C7  UNL     1     -12.623  18.404  -8.266  1.00  0.00     0.140 C 
HETATM   14  N3  UNL     1     -11.488  18.358  -9.193  1.00  0.00    -0.378 N 
ATOM     15  H3  UNL     1     -11.361  18.921 -10.034  1.00  0.00     0.160 HD
ENDBRANCH   1   9
TORSDOF 5
ENDMDL
