MODEL 1
REMARK VINA RESULT: -6.069368818      0.000      0.000
REMARK  6 active torsions:
REMARK  status: ('A' for Active; 'I' for Inactive)
REMARK       I    between atoms: C1_2  and  N1_3 
REMARK    1  A    between atoms: C1_2  and  C11_16 
REMARK    2  A    between atoms: N1_3  and  C2_5 
REMARK    3  A    between atoms: C2_5  and  C3_6 
REMARK    4  A    between atoms: C3_6  and  C4_7 
REMARK       I    between atoms: C4_7  and  N2_9 
REMARK    5  A    between atoms: N3_19  and  S1_20 
REMARK    6  A    between atoms: S1_20  and  N4_23 
ROOT
HETATM    1  O1  UNL     1     -13.663 -18.185  -9.826  1.00  0.00    -0.273 OA
HETATM    2  C1  UNL     1     -14.134 -19.217  -9.338  1.00  0.00     0.226 C 
HETATM    3  N1  UNL     1     -14.096 -20.446 -10.036  1.00  0.00    -0.337 N 
ATOM      4  H1  UNL     1     -14.528 -21.254  -9.586  1.00  0.00     0.168 HD
ENDROOT
BRANCH   2   5
HETATM    5  C11 UNL     1     -14.753 -19.120  -7.973  1.00  0.00     0.084 C 
HETATM    6  C12 UNL     1     -16.005 -18.261  -8.029  1.00  0.00     0.035 C 
HETATM    7  C13 UNL     1     -16.421 -17.920  -6.605  1.00  0.00     0.142 C 
HETATM    8  N3  UNL     1     -15.439 -17.176  -5.909  1.00  0.00    -0.278 N 
HETATM    9  C18 UNL     1     -14.174 -17.246  -6.520  1.00  0.00     0.078 C 
HETATM   10  C19 UNL     1     -13.749 -18.617  -6.979  1.00  0.00     0.059 C 
BRANCH   8  11
HETATM   11  S1  UNL     1     -15.538 -17.254  -4.250  1.00  0.00     0.304 S 
HETATM   12  O3  UNL     1     -16.177 -16.021  -3.619  1.00  0.00    -0.188 OA
HETATM   13  O4  UNL     1     -14.101 -17.197  -3.718  1.00  0.00    -0.188 OA
BRANCH  11  14
HETATM   14  N4  UNL     1     -16.245 -18.604  -3.530  1.00  0.00    -0.193 NA
HETATM   15  C14 UNL     1     -16.787 -18.433  -2.225  1.00  0.00     0.109 C 
HETATM   16  C15 UNL     1     -16.178 -19.531  -1.368  1.00  0.00     0.017 C 
HETATM   17  C16 UNL     1     -15.913 -20.609  -2.406  1.00  0.00     0.017 C 
HETATM   18  C17 UNL     1     -15.509 -19.812  -3.621  1.00  0.00     0.109 C 
ENDBRANCH  11  14
ENDBRANCH   8  11
ENDBRANCH   2   5
BRANCH   3  19
HETATM   19  C2  UNL     1     -13.512 -20.647 -11.297  1.00  0.00     0.096 C 
BRANCH  19  20
HETATM   20  C3  UNL     1     -12.087 -20.921 -11.477  1.00  0.00     0.091 C 
BRANCH  20  21
HETATM   21  C4  UNL     1     -11.044 -19.942 -11.326  1.00  0.00     0.244 C 
HETATM   22  O2  UNL     1     -11.011 -18.941 -12.139  1.00  0.00    -0.268 OA
HETATM   23  N2  UNL     1     -10.026 -19.958 -10.339  1.00  0.00    -0.349 N 
HETATM   24  C5  UNL     1     -10.039 -21.065  -9.433  1.00  0.00     0.126 C 
HETATM   25  C10 UNL     1      -9.108 -18.850 -10.370  1.00  0.00     0.126 C 
HETATM   26  C6  UNL     1     -10.830 -20.776  -8.175  1.00  0.00     0.020 C 
HETATM   27  C7  UNL     1      -9.977 -19.768  -7.390  1.00  0.00     0.002 C 
HETATM   28  C8  UNL     1     -10.095 -18.444  -8.110  1.00  0.00     0.002 C 
HETATM   29  C9  UNL     1      -8.869 -18.282  -8.982  1.00  0.00     0.020 C 
ENDBRANCH  20  21
ENDBRANCH  19  20
ENDBRANCH   3  19
TORSDOF 6
ENDMDL
MODEL 2
REMARK VINA RESULT: -5.848760738      3.225      9.191
REMARK  6 active torsions:
REMARK  status: ('A' for Active; 'I' for Inactive)
REMARK       I    between atoms: C1_2  and  N1_3 
REMARK    1  A    between atoms: C1_2  and  C11_16 
REMARK    2  A    between atoms: N1_3  and  C2_5 
REMARK    3  A    between atoms: C2_5  and  C3_6 
REMARK    4  A    between atoms: C3_6  and  C4_7 
REMARK       I    between atoms: C4_7  and  N2_9 
REMARK    5  A    between atoms: N3_19  and  S1_20 
REMARK    6  A    between atoms: S1_20  and  N4_23 
ROOT
HETATM    1  O1  UNL     1     -11.485 -17.964  -7.398  1.00  0.00    -0.273 OA
HETATM    2  C1  UNL     1     -12.344 -18.809  -7.671  1.00  0.00     0.226 C 
HETATM    3  N1  UNL     1     -13.717 -18.563  -7.446  1.00  0.00    -0.337 N 
ATOM      4  H1  UNL     1     -14.370 -19.315  -7.668  1.00  0.00     0.168 HD
ENDROOT
BRANCH   2   5
HETATM    5  C11 UNL     1     -11.874 -20.112  -8.253  1.00  0.00     0.084 C 
HETATM    6  C12 UNL     1     -10.612 -20.574  -7.544  1.00  0.00     0.035 C 
HETATM    7  C13 UNL     1      -9.990 -21.704  -8.353  1.00  0.00     0.142 C 
HETATM    8  N3  UNL     1      -9.611 -21.305  -9.655  1.00  0.00    -0.278 N 
HETATM    9  C18 UNL     1     -10.224 -20.101 -10.052  1.00  0.00     0.078 C 
HETATM   10  C19 UNL     1     -11.693 -19.987  -9.736  1.00  0.00     0.059 C 
BRANCH   8  11
HETATM   11  S1  UNL     1      -9.471 -22.540 -10.761  1.00  0.00     0.304 S 
HETATM   12  O3  UNL     1     -10.754 -22.806 -11.542  1.00  0.00    -0.188 OA
HETATM   13  O4  UNL     1      -9.290 -23.834  -9.959  1.00  0.00    -0.188 OA
BRANCH  11  14
HETATM   14  N4  UNL     1      -8.208 -22.506 -11.877  1.00  0.00    -0.193 NA
HETATM   15  C14 UNL     1      -6.887 -22.394 -11.356  1.00  0.00     0.109 C 
HETATM   16  C15 UNL     1      -6.244 -21.228 -12.086  1.00  0.00     0.017 C 
HETATM   17  C16 UNL     1      -6.996 -21.249 -13.407  1.00  0.00     0.017 C 
HETATM   18  C17 UNL     1      -8.388 -21.651 -12.993  1.00  0.00     0.109 C 
ENDBRANCH  11  14
ENDBRANCH   8  11
ENDBRANCH   2   5
BRANCH   3  19
HETATM   19  C2  UNL     1     -14.257 -17.370  -6.940  1.00  0.00     0.096 C 
BRANCH  19  20
HETATM   20  C3  UNL     1     -14.613 -17.192  -5.533  1.00  0.00     0.091 C 
BRANCH  20  21
HETATM   21  C4  UNL     1     -14.935 -18.266  -4.632  1.00  0.00     0.244 C 
HETATM   22  O2  UNL     1     -14.240 -19.352  -4.691  1.00  0.00    -0.268 OA
HETATM   23  N2  UNL     1     -15.958 -18.249  -3.651  1.00  0.00    -0.349 N 
HETATM   24  C5  UNL     1     -16.745 -17.057  -3.577  1.00  0.00     0.126 C 
HETATM   25  C10 UNL     1     -16.070 -19.437  -2.846  1.00  0.00     0.126 C 
HETATM   26  C6  UNL     1     -16.195 -16.059  -2.581  1.00  0.00     0.020 C 
HETATM   27  C7  UNL     1     -16.473 -16.677  -1.202  1.00  0.00     0.002 C 
HETATM   28  C8  UNL     1     -15.494 -17.817  -1.031  1.00  0.00     0.002 C 
HETATM   29  C9  UNL     1     -16.219 -19.102  -1.372  1.00  0.00     0.020 C 
ENDBRANCH  20  21
ENDBRANCH  19  20
ENDBRANCH   3  19
TORSDOF 6
ENDMDL
MODEL 3
REMARK VINA RESULT: -5.816162621      1.446      1.846
REMARK  6 active torsions:
REMARK  status: ('A' for Active; 'I' for Inactive)
REMARK       I    between atoms: C1_2  and  N1_3 
REMARK    1  A    between atoms: C1_2  and  C11_16 
REMARK    2  A    between atoms: N1_3  and  C2_5 
REMARK    3  A    between atoms: C2_5  and  C3_6 
REMARK    4  A    between atoms: C3_6  and  C4_7 
REMARK       I    between atoms: C4_7  and  N2_9 
REMARK    5  A    between atoms: N3_19  and  S1_20 
REMARK    6  A    between atoms: S1_20  and  N4_23 
ROOT
HETATM    1  O1  UNL     1     -14.099 -18.185  -9.727  1.00  0.00    -0.273 OA
HETATM    2  C1  UNL     1     -14.284 -19.342  -9.336  1.00  0.00     0.226 C 
HETATM    3  N1  UNL     1     -13.948 -20.455 -10.141  1.00  0.00    -0.337 N 
ATOM      4  H1  UNL     1     -14.153 -21.381  -9.768  1.00  0.00     0.168 HD
ENDROOT
BRANCH   2   5
HETATM    5  C11 UNL     1     -14.883 -19.526  -7.970  1.00  0.00     0.084 C 
HETATM    6  C12 UNL     1     -16.057 -18.579  -7.785  1.00  0.00     0.035 C 
HETATM    7  C13 UNL     1     -16.432 -18.557  -6.310  1.00  0.00     0.142 C 
HETATM    8  N3  UNL     1     -15.385 -18.087  -5.483  1.00  0.00    -0.278 N 
HETATM    9  C18 UNL     1     -14.134 -18.112  -6.128  1.00  0.00     0.078 C 
HETATM   10  C19 UNL     1     -13.833 -19.362  -6.913  1.00  0.00     0.059 C 
BRANCH   8  11
HETATM   11  S1  UNL     1     -15.478 -18.554  -3.889  1.00  0.00     0.304 S 
HETATM   12  O3  UNL     1     -14.785 -19.881  -3.601  1.00  0.00    -0.188 OA
HETATM   13  O4  UNL     1     -16.951 -18.875  -3.607  1.00  0.00    -0.188 OA
BRANCH  11  14
HETATM   14  N4  UNL     1     -15.002 -17.473  -2.686  1.00  0.00    -0.193 NA
HETATM   15  C14 UNL     1     -15.578 -17.644  -1.396  1.00  0.00     0.109 C 
HETATM   16  C15 UNL     1     -16.143 -16.289  -1.003  1.00  0.00     0.017 C 
HETATM   17  C16 UNL     1     -15.231 -15.350  -1.775  1.00  0.00     0.017 C 
HETATM   18  C17 UNL     1     -14.978 -16.105  -3.055  1.00  0.00     0.109 C 
ENDBRANCH  11  14
ENDBRANCH   8  11
ENDBRANCH   2   5
BRANCH   3  19
HETATM   19  C2  UNL     1     -13.354 -20.388 -11.412  1.00  0.00     0.096 C 
BRANCH  19  20
HETATM   20  C3  UNL     1     -11.911 -20.490 -11.620  1.00  0.00     0.091 C 
BRANCH  20  21
HETATM   21  C4  UNL     1     -10.955 -19.500 -11.202  1.00  0.00     0.244 C 
HETATM   22  O2  UNL     1     -10.984 -18.337 -11.760  1.00  0.00    -0.268 OA
HETATM   23  N2  UNL     1      -9.965 -19.672 -10.201  1.00  0.00    -0.349 N 
HETATM   24  C5  UNL     1      -9.911 -20.958  -9.578  1.00  0.00     0.126 C 
HETATM   25  C10 UNL     1      -9.140 -18.523  -9.936  1.00  0.00     0.126 C 
HETATM   26  C6  UNL     1     -10.755 -21.030  -8.322  1.00  0.00     0.020 C 
HETATM   27  C7  UNL     1     -10.007 -20.173  -7.290  1.00  0.00     0.002 C 
HETATM   28  C8  UNL     1     -10.214 -18.729  -7.688  1.00  0.00     0.002 C 
HETATM   29  C9  UNL     1      -8.983 -18.279  -8.445  1.00  0.00     0.020 C 
ENDBRANCH  20  21
ENDBRANCH  19  20
ENDBRANCH   3  19
TORSDOF 6
ENDMDL
MODEL 4
REMARK VINA RESULT: -5.812604370      0.949      1.346
REMARK  6 active torsions:
REMARK  status: ('A' for Active; 'I' for Inactive)
REMARK       I    between atoms: C1_2  and  N1_3 
REMARK    1  A    between atoms: C1_2  and  C11_16 
REMARK    2  A    between atoms: N1_3  and  C2_5 
REMARK    3  A    between atoms: C2_5  and  C3_6 
REMARK    4  A    between atoms: C3_6  and  C4_7 
REMARK       I    between atoms: C4_7  and  N2_9 
REMARK    5  A    between atoms: N3_19  and  S1_20 
REMARK    6  A    between atoms: S1_20  and  N4_23 
ROOT
HETATM    1  O1  UNL     1     -14.115 -18.361 -10.348  1.00  0.00    -0.273 OA
HETATM    2  C1  UNL     1     -14.207 -19.407  -9.698  1.00  0.00     0.226 C 
HETATM    3  N1  UNL     1     -13.778 -20.645 -10.229  1.00  0.00    -0.337 N 
ATOM      4  H1  UNL     1     -13.908 -21.474  -9.648  1.00  0.00     0.168 HD
ENDROOT
BRANCH   2   5
HETATM    5  C11 UNL     1     -14.794 -19.317  -8.318  1.00  0.00     0.084 C 
HETATM    6  C12 UNL     1     -15.693 -18.096  -8.214  1.00  0.00     0.035 C 
HETATM    7  C13 UNL     1     -16.010 -17.854  -6.745  1.00  0.00     0.142 C 
HETATM    8  N3  UNL     1     -14.857 -17.588  -5.970  1.00  0.00    -0.278 N 
HETATM    9  C18 UNL     1     -13.669 -17.977  -6.616  1.00  0.00     0.078 C 
HETATM   10  C19 UNL     1     -13.707 -19.326  -7.286  1.00  0.00     0.059 C 
BRANCH   8  11
HETATM   11  S1  UNL     1     -15.018 -17.876  -4.339  1.00  0.00     0.304 S 
HETATM   12  O3  UNL     1     -13.994 -17.136  -3.486  1.00  0.00    -0.188 OA
HETATM   13  O4  UNL     1     -14.648 -19.346  -4.111  1.00  0.00    -0.188 OA
BRANCH  11  14
HETATM   14  N4  UNL     1     -16.523 -17.659  -3.611  1.00  0.00    -0.193 NA
HETATM   15  C14 UNL     1     -16.878 -16.331  -3.241  1.00  0.00     0.109 C 
HETATM   16  C15 UNL     1     -17.288 -16.396  -1.779  1.00  0.00     0.017 C 
HETATM   17  C16 UNL     1     -17.789 -17.827  -1.672  1.00  0.00     0.017 C 
HETATM   18  C17 UNL     1     -16.854 -18.578  -2.584  1.00  0.00     0.109 C 
ENDBRANCH  11  14
ENDBRANCH   8  11
ENDBRANCH   2   5
BRANCH   3  19
HETATM   19  C2  UNL     1     -13.186 -20.828 -11.489  1.00  0.00     0.096 C 
BRANCH  19  20
HETATM   20  C3  UNL     1     -11.738 -20.844 -11.692  1.00  0.00     0.091 C 
BRANCH  20  21
HETATM   21  C4  UNL     1     -10.849 -19.785 -11.296  1.00  0.00     0.244 C 
HETATM   22  O2  UNL     1     -10.931 -18.648 -11.901  1.00  0.00    -0.268 OA
HETATM   23  N2  UNL     1      -9.870 -19.861 -10.273  1.00  0.00    -0.349 N 
HETATM   24  C5  UNL     1      -9.756 -21.117  -9.598  1.00  0.00     0.126 C 
HETATM   25  C10 UNL     1      -9.117 -18.658 -10.039  1.00  0.00     0.126 C 
HETATM   26  C6  UNL     1     -10.620 -21.188  -8.355  1.00  0.00     0.020 C 
HETATM   27  C7  UNL     1      -9.941 -20.251  -7.345  1.00  0.00     0.002 C 
HETATM   28  C8  UNL     1     -10.222 -18.838  -7.804  1.00  0.00     0.002 C 
HETATM   29  C9  UNL     1      -9.003 -18.348  -8.557  1.00  0.00     0.020 C 
ENDBRANCH  20  21
ENDBRANCH  19  20
ENDBRANCH   3  19
TORSDOF 6
ENDMDL
MODEL 5
REMARK VINA RESULT: -5.675491642      2.029      2.625
REMARK  6 active torsions:
REMARK  status: ('A' for Active; 'I' for Inactive)
REMARK       I    between atoms: C1_2  and  N1_3 
REMARK    1  A    between atoms: C1_2  and  C11_16 
REMARK    2  A    between atoms: N1_3  and  C2_5 
REMARK    3  A    between atoms: C2_5  and  C3_6 
REMARK    4  A    between atoms: C3_6  and  C4_7 
REMARK       I    between atoms: C4_7  and  N2_9 
REMARK    5  A    between atoms: N3_19  and  S1_20 
REMARK    6  A    between atoms: S1_20  and  N4_23 
ROOT
HETATM    1  O1  UNL     1     -16.574 -20.174  -7.981  1.00  0.00    -0.273 OA
HETATM    2  C1  UNL     1     -16.075 -19.063  -7.772  1.00  0.00     0.226 C 
HETATM    3  N1  UNL     1     -15.238 -18.439  -8.724  1.00  0.00    -0.337 N 
ATOM      4  H1  UNL     1     -14.838 -17.535  -8.475  1.00  0.00     0.168 HD
ENDROOT
BRANCH   2   5
HETATM    5  C11 UNL     1     -16.392 -18.397  -6.463  1.00  0.00     0.084 C 
HETATM    6  C12 UNL     1     -15.559 -17.136  -6.306  1.00  0.00     0.035 C 
HETATM    7  C13 UNL     1     -15.659 -16.668  -4.861  1.00  0.00     0.142 C 
HETATM    8  N3  UNL     1     -15.155 -17.615  -3.939  1.00  0.00    -0.278 N 
HETATM    9  C18 UNL     1     -15.035 -18.901  -4.497  1.00  0.00     0.078 C 
HETATM   10  C19 UNL     1     -16.206 -19.359  -5.328  1.00  0.00     0.059 C 
BRANCH   8  11
HETATM   11  S1  UNL     1     -15.725 -17.461  -2.384  1.00  0.00     0.304 S 
HETATM   12  O3  UNL     1     -14.695 -16.896  -1.411  1.00  0.00    -0.188 OA
HETATM   13  O4  UNL     1     -15.947 -18.882  -1.851  1.00  0.00    -0.188 OA
BRANCH  11  14
HETATM   14  N4  UNL     1     -17.169 -16.635  -2.115  1.00  0.00    -0.193 NA
HETATM   15  C14 UNL     1     -17.098 -15.441  -1.343  1.00  0.00     0.109 C 
HETATM   16  C15 UNL     1     -18.133 -15.589  -0.240  1.00  0.00     0.017 C 
HETATM   17  C16 UNL     1     -19.144 -16.511  -0.901  1.00  0.00     0.017 C 
HETATM   18  C17 UNL     1     -18.275 -17.429  -1.722  1.00  0.00     0.109 C 
ENDBRANCH  11  14
ENDBRANCH   8  11
ENDBRANCH   2   5
BRANCH   3  19
HETATM   19  C2  UNL     1     -14.911 -18.963  -9.986  1.00  0.00     0.096 C 
BRANCH  19  20
HETATM   20  C3  UNL     1     -13.699 -19.742 -10.233  1.00  0.00     0.091 C 
BRANCH  20  21
HETATM   21  C4  UNL     1     -12.426 -19.176 -10.590  1.00  0.00     0.244 C 
HETATM   22  O2  UNL     1     -12.401 -18.158 -11.382  1.00  0.00    -0.268 OA
HETATM   23  N2  UNL     1     -11.160 -19.628 -10.139  1.00  0.00    -0.349 N 
HETATM   24  C5  UNL     1     -11.166 -20.763  -9.269  1.00  0.00     0.126 C 
HETATM   25  C10 UNL     1     -10.025 -18.881 -10.613  1.00  0.00     0.126 C 
HETATM   26  C6  UNL     1     -11.206 -20.372  -7.806  1.00  0.00     0.020 C 
HETATM   27  C7  UNL     1      -9.816 -19.786  -7.512  1.00  0.00     0.002 C 
HETATM   28  C8  UNL     1      -9.769 -18.425  -8.169  1.00  0.00     0.002 C 
HETATM   29  C9  UNL     1      -9.048 -18.575  -9.491  1.00  0.00     0.020 C 
ENDBRANCH  20  21
ENDBRANCH  19  20
ENDBRANCH   3  19
TORSDOF 6
ENDMDL
