MODEL 1
REMARK VINA RESULT: -6.276431398      0.000      0.000
REMARK  6 active torsions:
REMARK  status: ('A' for Active; 'I' for Inactive)
REMARK    1  A    between atoms: C1_2  and  C2_3 
REMARK       I    between atoms: C1_2  and  N3_22 
REMARK    2  A    between atoms: C2_3  and  C3_4 
REMARK    3  A    between atoms: C3_4  and  S1_5 
REMARK    4  A    between atoms: S1_5  and  N1_8 
REMARK    5  A    between atoms: C7_12  and  C8_13 
REMARK       I    between atoms: C8_13  and  N2_15 
REMARK    6  A    between atoms: N3_22  and  C15_24 
ROOT
HETATM    1  S1  UNL     1     -11.583 -17.277  -9.561  1.00  0.00     0.212 S 
HETATM    2  O2  UNL     1     -10.640 -16.380 -10.328  1.00  0.00    -0.211 OA
HETATM    3  O3  UNL     1     -12.187 -16.430  -8.497  1.00  0.00    -0.211 OA
ENDROOT
BRANCH   1   4
HETATM    4  C3  UNL     1     -12.787 -17.925 -10.624  1.00  0.00     0.167 C 
BRANCH   4   5
HETATM    5  C2  UNL     1     -14.209 -17.764 -10.279  1.00  0.00     0.119 C 
BRANCH   5   6
HETATM    6  C1  UNL     1     -14.754 -18.498  -9.154  1.00  0.00     0.218 C 
HETATM    7  O1  UNL     1     -15.225 -19.678  -9.308  1.00  0.00    -0.274 OA
HETATM    8  N3  UNL     1     -14.802 -17.975  -7.840  1.00  0.00    -0.356 N 
ATOM      9  H3  UNL     1     -14.442 -17.040  -7.647  1.00  0.00     0.162 HD
BRANCH   8  10
HETATM   10  C15 UNL     1     -15.359 -18.762  -6.782  1.00  0.00     0.088 C 
HETATM   11  C16 UNL     1     -14.326 -19.379  -5.859  1.00  0.00     0.030 C 
HETATM   12  C17 UNL     1     -14.820 -19.154  -4.449  1.00  0.00    -0.012 C 
HETATM   13  C18 UNL     1     -14.488 -17.742  -4.060  1.00  0.00     0.005 C 
HETATM   14  C21 UNL     1     -16.331 -19.014  -4.702  1.00  0.00     0.011 C 
HETATM   15  C19 UNL     1     -15.314 -16.948  -5.081  1.00  0.00     0.007 C 
HETATM   16  C20 UNL     1     -16.179 -17.946  -5.803  1.00  0.00     0.009 C 
ENDBRANCH   8  10
ENDBRANCH   5   6
ENDBRANCH   4   5
ENDBRANCH   1   4
BRANCH   1  17
HETATM   17  N1  UNL     1     -10.624 -18.463  -8.779  1.00  0.00    -0.211 NA
HETATM   18  C4  UNL     1     -11.335 -19.392  -7.984  1.00  0.00     0.107 C 
HETATM   19  C5  UNL     1     -10.543 -20.635  -7.688  1.00  0.00     0.016 C 
HETATM   20  C6  UNL     1     -10.355 -21.561  -8.836  1.00  0.00     0.015 C 
HETATM   21  C7  UNL     1     -10.970 -21.082 -10.137  1.00  0.00     0.079 C 
HETATM   22  C13 UNL     1     -10.173 -19.928 -10.712  1.00  0.00     0.029 C 
HETATM   23  C14 UNL     1      -9.621 -19.020  -9.633  1.00  0.00     0.108 C 
BRANCH  21  24
HETATM   24  C8  UNL     1     -10.905 -22.212 -11.098  1.00  0.00     0.224 C 
HETATM   25  O4  UNL     1      -9.955 -23.069 -11.005  1.00  0.00    -0.273 OA
HETATM   26  N2  UNL     1     -11.863 -22.357 -12.104  1.00  0.00    -0.352 N 
HETATM   27  C9  UNL     1     -13.000 -21.479 -12.320  1.00  0.00     0.126 C 
HETATM   28  C12 UNL     1     -11.900 -23.412 -13.125  1.00  0.00     0.126 C 
HETATM   29  C10 UNL     1     -14.058 -22.433 -12.853  1.00  0.00     0.021 C 
HETATM   30  C11 UNL     1     -13.370 -23.726 -13.174  1.00  0.00     0.021 C 
ENDBRANCH  21  24
ENDBRANCH   1  17
TORSDOF 6
ENDMDL
MODEL 2
REMARK VINA RESULT: -6.028240483      1.930      2.469
REMARK  6 active torsions:
REMARK  status: ('A' for Active; 'I' for Inactive)
REMARK    1  A    between atoms: C1_2  and  C2_3 
REMARK       I    between atoms: C1_2  and  N3_22 
REMARK    2  A    between atoms: C2_3  and  C3_4 
REMARK    3  A    between atoms: C3_4  and  S1_5 
REMARK    4  A    between atoms: S1_5  and  N1_8 
REMARK    5  A    between atoms: C7_12  and  C8_13 
REMARK       I    between atoms: C8_13  and  N2_15 
REMARK    6  A    between atoms: N3_22  and  C15_24 
ROOT
HETATM    1  S1  UNL     1     -11.936 -17.729  -8.594  1.00  0.00     0.212 S 
HETATM    2  O2  UNL     1     -12.926 -18.473  -9.457  1.00  0.00    -0.211 OA
HETATM    3  O3  UNL     1     -11.261 -16.750  -9.488  1.00  0.00    -0.211 OA
ENDROOT
BRANCH   1   4
HETATM    4  C3  UNL     1     -12.756 -16.943  -7.286  1.00  0.00     0.167 C 
BRANCH   4   5
HETATM    5  C2  UNL     1     -14.084 -17.431  -6.877  1.00  0.00     0.119 C 
BRANCH   5   6
HETATM    6  C1  UNL     1     -14.251 -18.016  -5.562  1.00  0.00     0.218 C 
HETATM    7  O1  UNL     1     -13.890 -19.221  -5.330  1.00  0.00    -0.274 OA
HETATM    8  N3  UNL     1     -14.810 -17.312  -4.468  1.00  0.00    -0.356 N 
ATOM      9  H3  UNL     1     -15.117 -16.347  -4.584  1.00  0.00     0.162 HD
BRANCH   8  10
HETATM   10  C15 UNL     1     -14.944 -17.962  -3.200  1.00  0.00     0.088 C 
HETATM   11  C16 UNL     1     -14.709 -17.051  -2.010  1.00  0.00     0.030 C 
HETATM   12  C17 UNL     1     -15.814 -17.341  -1.022  1.00  0.00    -0.012 C 
HETATM   13  C18 UNL     1     -17.047 -16.614  -1.477  1.00  0.00     0.005 C 
HETATM   14  C21 UNL     1     -16.184 -18.778  -1.431  1.00  0.00     0.011 C 
HETATM   15  C19 UNL     1     -17.309 -17.287  -2.831  1.00  0.00     0.007 C 
HETATM   16  C20 UNL     1     -16.353 -18.446  -2.926  1.00  0.00     0.009 C 
ENDBRANCH   8  10
ENDBRANCH   5   6
ENDBRANCH   4   5
ENDBRANCH   1   4
BRANCH   1  17
HETATM   17  N1  UNL     1     -10.749 -18.863  -8.099  1.00  0.00    -0.211 NA
HETATM   18  C4  UNL     1     -11.245 -20.018  -7.452  1.00  0.00     0.107 C 
HETATM   19  C5  UNL     1     -10.255 -21.150  -7.435  1.00  0.00     0.016 C 
HETATM   20  C6  UNL     1     -10.029 -21.819  -8.744  1.00  0.00     0.015 C 
HETATM   21  C7  UNL     1     -10.816 -21.227  -9.897  1.00  0.00     0.079 C 
HETATM   22  C13 UNL     1     -10.250 -19.876 -10.293  1.00  0.00     0.029 C 
HETATM   23  C14 UNL     1      -9.750 -19.094  -9.097  1.00  0.00     0.108 C 
BRANCH  21  24
HETATM   24  C8  UNL     1     -10.666 -22.147 -11.052  1.00  0.00     0.224 C 
HETATM   25  O4  UNL     1      -9.601 -22.854 -11.165  1.00  0.00    -0.273 OA
HETATM   26  N2  UNL     1     -11.665 -22.253 -12.022  1.00  0.00    -0.352 N 
HETATM   27  C9  UNL     1     -12.926 -21.532 -12.018  1.00  0.00     0.126 C 
HETATM   28  C12 UNL     1     -11.630 -23.106 -13.218  1.00  0.00     0.126 C 
HETATM   29  C10 UNL     1     -13.878 -22.524 -12.668  1.00  0.00     0.021 C 
HETATM   30  C11 UNL     1     -13.041 -23.623 -13.255  1.00  0.00     0.021 C 
ENDBRANCH  21  24
ENDBRANCH   1  17
TORSDOF 6
ENDMDL
MODEL 3
REMARK VINA RESULT: -5.847249630      2.048      2.776
REMARK  6 active torsions:
REMARK  status: ('A' for Active; 'I' for Inactive)
REMARK    1  A    between atoms: C1_2  and  C2_3 
REMARK       I    between atoms: C1_2  and  N3_22 
REMARK    2  A    between atoms: C2_3  and  C3_4 
REMARK    3  A    between atoms: C3_4  and  S1_5 
REMARK    4  A    between atoms: S1_5  and  N1_8 
REMARK    5  A    between atoms: C7_12  and  C8_13 
REMARK       I    between atoms: C8_13  and  N2_15 
REMARK    6  A    between atoms: N3_22  and  C15_24 
ROOT
HETATM    1  S1  UNL     1     -14.425 -17.674  -9.047  1.00  0.00     0.212 S 
HETATM    2  O2  UNL     1     -15.184 -18.932  -9.397  1.00  0.00    -0.211 OA
HETATM    3  O3  UNL     1     -14.091 -17.018 -10.340  1.00  0.00    -0.211 OA
ENDROOT
BRANCH   1   4
HETATM    4  C3  UNL     1     -15.396 -16.651  -8.042  1.00  0.00     0.167 C 
BRANCH   4   5
HETATM    5  C2  UNL     1     -16.513 -17.242  -7.286  1.00  0.00     0.119 C 
BRANCH   5   6
HETATM    6  C1  UNL     1     -16.241 -17.932  -6.040  1.00  0.00     0.218 C 
HETATM    7  O1  UNL     1     -16.176 -19.208  -5.999  1.00  0.00    -0.274 OA
HETATM    8  N3  UNL     1     -16.032 -17.258  -4.813  1.00  0.00    -0.356 N 
ATOM      9  H3  UNL     1     -16.069 -16.239  -4.775  1.00  0.00     0.162 HD
BRANCH   8  10
HETATM   10  C15 UNL     1     -15.771 -18.011  -3.624  1.00  0.00     0.088 C 
HETATM   11  C16 UNL     1     -14.862 -17.309  -2.633  1.00  0.00     0.030 C 
HETATM   12  C17 UNL     1     -15.491 -17.489  -1.272  1.00  0.00    -0.012 C 
HETATM   13  C18 UNL     1     -16.601 -16.486  -1.136  1.00  0.00     0.005 C 
HETATM   14  C21 UNL     1     -16.313 -18.768  -1.511  1.00  0.00     0.011 C 
HETATM   15  C19 UNL     1     -17.547 -16.933  -2.259  1.00  0.00     0.007 C 
HETATM   16  C20 UNL     1     -17.008 -18.238  -2.781  1.00  0.00     0.009 C 
ENDBRANCH   8  10
ENDBRANCH   5   6
ENDBRANCH   4   5
ENDBRANCH   1   4
BRANCH   1  17
HETATM   17  N1  UNL     1     -12.946 -18.162  -8.331  1.00  0.00    -0.211 NA
HETATM   18  C4  UNL     1     -13.004 -19.351  -7.568  1.00  0.00     0.107 C 
HETATM   19  C5  UNL     1     -11.651 -19.966  -7.338  1.00  0.00     0.016 C 
HETATM   20  C6  UNL     1     -11.029 -20.604  -8.529  1.00  0.00     0.015 C 
HETATM   21  C7  UNL     1     -11.854 -20.504  -9.798  1.00  0.00     0.079 C 
HETATM   22  C13 UNL     1     -11.839 -19.086 -10.334  1.00  0.00     0.029 C 
HETATM   23  C14 UNL     1     -11.833 -18.055  -9.225  1.00  0.00     0.108 C 
BRANCH  21  24
HETATM   24  C8  UNL     1     -11.217 -21.387 -10.807  1.00  0.00     0.224 C 
HETATM   25  O4  UNL     1      -9.977 -21.695 -10.689  1.00  0.00    -0.273 OA
HETATM   26  N2  UNL     1     -11.947 -21.886 -11.889  1.00  0.00    -0.352 N 
HETATM   27  C9  UNL     1     -13.356 -21.638 -12.143  1.00  0.00     0.126 C 
HETATM   28  C12 UNL     1     -11.433 -22.747 -12.962  1.00  0.00     0.126 C 
HETATM   29  C10 UNL     1     -13.806 -22.933 -12.801  1.00  0.00     0.021 C 
HETATM   30  C11 UNL     1     -12.570 -23.715 -13.137  1.00  0.00     0.021 C 
ENDBRANCH  21  24
ENDBRANCH   1  17
TORSDOF 6
ENDMDL
MODEL 4
REMARK VINA RESULT: -5.833428964      1.543      2.421
REMARK  6 active torsions:
REMARK  status: ('A' for Active; 'I' for Inactive)
REMARK    1  A    between atoms: C1_2  and  C2_3 
REMARK       I    between atoms: C1_2  and  N3_22 
REMARK    2  A    between atoms: C2_3  and  C3_4 
REMARK    3  A    between atoms: C3_4  and  S1_5 
REMARK    4  A    between atoms: S1_5  and  N1_8 
REMARK    5  A    between atoms: C7_12  and  C8_13 
REMARK       I    between atoms: C8_13  and  N2_15 
REMARK    6  A    between atoms: N3_22  and  C15_24 
ROOT
HETATM    1  S1  UNL     1     -10.966 -17.206  -9.329  1.00  0.00     0.212 S 
HETATM    2  O2  UNL     1     -12.401 -17.651  -9.477  1.00  0.00    -0.211 OA
HETATM    3  O3  UNL     1     -10.427 -17.078 -10.710  1.00  0.00    -0.211 OA
ENDROOT
BRANCH   1   4
HETATM    4  C3  UNL     1     -10.893 -15.703  -8.471  1.00  0.00     0.167 C 
BRANCH   4   5
HETATM    5  C2  UNL     1     -11.019 -15.709  -7.004  1.00  0.00     0.119 C 
BRANCH   5   6
HETATM    6  C1  UNL     1     -12.325 -15.892  -6.404  1.00  0.00     0.218 C 
HETATM    7  O1  UNL     1     -12.861 -14.965  -5.705  1.00  0.00    -0.274 OA
HETATM    8  N3  UNL     1     -13.081 -17.081  -6.546  1.00  0.00    -0.356 N 
ATOM      9  H3  UNL     1     -12.713 -17.860  -7.092  1.00  0.00     0.162 HD
BRANCH   8  10
HETATM   10  C15 UNL     1     -14.364 -17.186  -5.919  1.00  0.00     0.088 C 
HETATM   11  C16 UNL     1     -15.532 -16.956  -6.859  1.00  0.00     0.030 C 
HETATM   12  C17 UNL     1     -16.539 -18.043  -6.565  1.00  0.00    -0.012 C 
HETATM   13  C18 UNL     1     -16.085 -19.297  -7.257  1.00  0.00     0.005 C 
HETATM   14  C21 UNL     1     -16.164 -18.387  -5.113  1.00  0.00     0.011 C 
HETATM   15  C19 UNL     1     -14.747 -19.560  -6.550  1.00  0.00     0.007 C 
HETATM   16  C20 UNL     1     -14.664 -18.580  -5.411  1.00  0.00     0.009 C 
ENDBRANCH   8  10
ENDBRANCH   5   6
ENDBRANCH   4   5
ENDBRANCH   1   4
BRANCH   1  17
HETATM   17  N1  UNL     1     -10.116 -18.489  -8.572  1.00  0.00    -0.211 NA
HETATM   18  C4  UNL     1     -10.906 -19.357  -7.783  1.00  0.00     0.107 C 
HETATM   19  C5  UNL     1     -10.233 -20.675  -7.512  1.00  0.00     0.016 C 
HETATM   20  C6  UNL     1     -10.145 -21.597  -8.675  1.00  0.00     0.015 C 
HETATM   21  C7  UNL     1     -10.724 -21.043  -9.962  1.00  0.00     0.079 C 
HETATM   22  C13 UNL     1      -9.826 -19.962 -10.530  1.00  0.00     0.029 C 
HETATM   23  C14 UNL     1      -9.179 -19.127  -9.445  1.00  0.00     0.108 C 
BRANCH  21  24
HETATM   24  C8  UNL     1     -10.776 -22.160 -10.939  1.00  0.00     0.224 C 
HETATM   25  O4  UNL     1      -9.890 -23.088 -10.889  1.00  0.00    -0.273 OA
HETATM   26  N2  UNL     1     -11.774 -22.217 -11.914  1.00  0.00    -0.352 N 
HETATM   27  C9  UNL     1     -12.849 -21.253 -12.080  1.00  0.00     0.126 C 
HETATM   28  C12 UNL     1     -11.925 -23.251 -12.946  1.00  0.00     0.126 C 
HETATM   29  C10 UNL     1     -13.993 -22.117 -12.588  1.00  0.00     0.021 C 
HETATM   30  C11 UNL     1     -13.414 -23.454 -12.949  1.00  0.00     0.021 C 
ENDBRANCH  21  24
ENDBRANCH   1  17
TORSDOF 6
ENDMDL
MODEL 5
REMARK VINA RESULT: -5.769781613      2.567      4.647
REMARK  6 active torsions:
REMARK  status: ('A' for Active; 'I' for Inactive)
REMARK    1  A    between atoms: C1_2  and  C2_3 
REMARK       I    between atoms: C1_2  and  N3_22 
REMARK    2  A    between atoms: C2_3  and  C3_4 
REMARK    3  A    between atoms: C3_4  and  S1_5 
REMARK    4  A    between atoms: S1_5  and  N1_8 
REMARK    5  A    between atoms: C7_12  and  C8_13 
REMARK       I    between atoms: C8_13  and  N2_15 
REMARK    6  A    between atoms: N3_22  and  C15_24 
ROOT
HETATM    1  S1  UNL     1     -13.236 -19.604 -10.434  1.00  0.00     0.212 S 
HETATM    2  O2  UNL     1     -13.787 -20.852 -11.082  1.00  0.00    -0.211 OA
HETATM    3  O3  UNL     1     -12.183 -19.091 -11.353  1.00  0.00    -0.211 OA
ENDROOT
BRANCH   1   4
HETATM    4  C3  UNL     1     -14.500 -18.445 -10.198  1.00  0.00     0.167 C 
BRANCH   4   5
HETATM    5  C2  UNL     1     -15.847 -18.918  -9.838  1.00  0.00     0.119 C 
BRANCH   5   6
HETATM    6  C1  UNL     1     -16.144 -19.231  -8.454  1.00  0.00     0.218 C 
HETATM    7  O1  UNL     1     -16.767 -20.304  -8.144  1.00  0.00    -0.274 OA
HETATM    8  N3  UNL     1     -15.773 -18.392  -7.375  1.00  0.00    -0.356 N 
ATOM      9  H3  UNL     1     -15.272 -17.522  -7.552  1.00  0.00     0.162 HD
BRANCH   8  10
HETATM   10  C15 UNL     1     -16.105 -18.771  -6.035  1.00  0.00     0.088 C 
HETATM   11  C16 UNL     1     -14.968 -19.429  -5.278  1.00  0.00     0.030 C 
HETATM   12  C17 UNL     1     -14.941 -18.796  -3.907  1.00  0.00    -0.012 C 
HETATM   13  C18 UNL     1     -14.246 -17.470  -4.020  1.00  0.00     0.005 C 
HETATM   14  C21 UNL     1     -16.402 -18.325  -3.789  1.00  0.00     0.011 C 
HETATM   15  C19 UNL     1     -15.189 -16.718  -4.971  1.00  0.00     0.007 C 
HETATM   16  C20 UNL     1     -16.407 -17.586  -5.141  1.00  0.00     0.009 C 
ENDBRANCH   8  10
ENDBRANCH   5   6
ENDBRANCH   4   5
ENDBRANCH   1   4
BRANCH   1  17
HETATM   17  N1  UNL     1     -12.451 -20.092  -8.990  1.00  0.00    -0.211 NA
HETATM   18  C4  UNL     1     -11.242 -20.803  -9.166  1.00  0.00     0.107 C 
HETATM   19  C5  UNL     1     -10.388 -20.822  -7.928  1.00  0.00     0.016 C 
HETATM   20  C6  UNL     1      -9.733 -19.531  -7.585  1.00  0.00     0.015 C 
HETATM   21  C7  UNL     1     -10.060 -18.390  -8.528  1.00  0.00     0.079 C 
HETATM   22  C13 UNL     1     -11.488 -17.920  -8.324  1.00  0.00     0.029 C 
HETATM   23  C14 UNL     1     -12.424 -19.064  -7.995  1.00  0.00     0.108 C 
BRANCH  21  24
HETATM   24  C8  UNL     1      -9.152 -17.265  -8.191  1.00  0.00     0.224 C 
HETATM   25  O4  UNL     1      -9.208 -16.732  -7.026  1.00  0.00    -0.273 OA
HETATM   26  N2  UNL     1      -8.235 -16.776  -9.125  1.00  0.00    -0.352 N 
HETATM   27  C9  UNL     1      -8.046 -17.290 -10.471  1.00  0.00     0.126 C 
HETATM   28  C12 UNL     1      -7.300 -15.662  -8.925  1.00  0.00     0.126 C 
HETATM   29  C10 UNL     1      -6.559 -17.069 -10.703  1.00  0.00     0.021 C 
HETATM   30  C11 UNL     1      -6.061 -16.189  -9.595  1.00  0.00     0.021 C 
ENDBRANCH  21  24
ENDBRANCH   1  17
TORSDOF 6
ENDMDL
