MODEL 1
REMARK VINA RESULT: -5.953018570      0.000      0.000
REMARK  9 active torsions:
REMARK  status: ('A' for Active; 'I' for Inactive)
REMARK    1  A    between atoms: C2_2  and  C3_3 
REMARK    2  A    between atoms: C6_6  and  N1_7 
REMARK       I    between atoms: N1_7  and  C7_9 
REMARK    3  A    between atoms: C7_9  and  C8_11 
REMARK    4  A    between atoms: N2_15  and  C12_16 
REMARK    5  A    between atoms: C12_16  and  O2_17 
REMARK    6  A    between atoms: C12_16  and  C13_19 
REMARK    7  A    between atoms: C13_19  and  C14_20 
REMARK    8  A    between atoms: C13_19  and  N3_22 
REMARK       I    between atoms: N4_25  and  C18_26 
REMARK    9  A    between atoms: C18_26  and  C19_28 
ROOT
HETATM    1  C12 UNL     1     -14.473 -18.876  -9.791  1.00  0.00     0.137 C 
ENDROOT
BRANCH   1   2
HETATM    2  N2  UNL     1     -15.144 -18.077  -8.856  1.00  0.00    -0.350 N 
HETATM    3  C8  UNL     1     -14.808 -17.761  -7.508  1.00  0.00     0.178 C 
HETATM    4  C9  UNL     1     -15.185 -16.278  -7.345  1.00  0.00     0.037 C 
HETATM    5  C10 UNL     1     -16.458 -16.213  -8.172  1.00  0.00     0.022 C 
HETATM    6  C11 UNL     1     -16.379 -17.327  -9.177  1.00  0.00     0.126 C 
BRANCH   3   7
HETATM    7  C7  UNL     1     -15.599 -18.470  -6.463  1.00  0.00     0.240 C 
HETATM    8  N1  UNL     1     -15.744 -18.066  -5.139  1.00  0.00    -0.355 N 
ATOM      9  H1  UNL     1     -15.246 -17.209  -4.896  1.00  0.00     0.162 HD
HETATM   10  O1  UNL     1     -16.170 -19.534  -6.885  1.00  0.00    -0.271 OA
BRANCH   8  11
HETATM   11  C6  UNL     1     -16.474 -18.652  -4.068  1.00  0.00     0.085 C 
HETATM   12  C5  UNL     1     -16.834 -17.717  -2.973  1.00  0.00     0.026 C 
HETATM   13  C4  UNL     1     -17.018 -18.597  -1.760  1.00  0.00     0.010 C 
HETATM   14  C3  UNL     1     -15.793 -19.508  -1.896  1.00  0.00     0.009 C 
HETATM   15  C24 UNL     1     -15.814 -19.825  -3.386  1.00  0.00     0.033 C 
BRANCH  14  16
HETATM   16  C2  UNL     1     -15.914 -20.716  -1.071  1.00  0.00    -0.032 C 
HETATM   17  C1  UNL     1     -15.686 -21.920  -1.574  1.00  0.00     0.007 C 
ENDBRANCH  14  16
ENDBRANCH   8  11
ENDBRANCH   3   7
ENDBRANCH   1   2
BRANCH   1  18
HETATM   18  O2  UNL     1     -14.902 -20.106  -9.853  1.00  0.00    -0.348 OA
ATOM     19  H2  UNL     1     -15.333 -20.329 -10.669  1.00  0.00     0.219 HD
ENDBRANCH   1  18
BRANCH   1  20
HETATM   20  C13 UNL     1     -13.365 -18.487 -10.695  1.00  0.00     0.157 C 
BRANCH  20  21
HETATM   21  C14 UNL     1     -12.868 -17.108 -10.416  1.00  0.00     0.029 C 
HETATM   22  C15 UNL     1     -13.492 -16.105 -11.415  1.00  0.00     0.007 C 
ENDBRANCH  20  21
BRANCH  20  23
HETATM   23  N3  UNL     1     -12.334 -19.467 -10.758  1.00  0.00    -0.378 N 
HETATM   24  C16 UNL     1     -11.800 -19.951  -9.547  1.00  0.00     0.143 C 
HETATM   25  C17 UNL     1     -11.062 -21.254  -9.875  1.00  0.00     0.146 C 
HETATM   26  N4  UNL     1      -9.969 -20.904 -10.757  1.00  0.00    -0.346 N 
HETATM   27  C18 UNL     1      -8.744 -21.646 -10.723  1.00  0.00     0.224 C 
HETATM   28  C22 UNL     1     -10.159 -19.789 -11.663  1.00  0.00     0.170 C 
HETATM   29  O3  UNL     1      -8.638 -22.593  -9.927  1.00  0.00    -0.273 OA
HETATM   30  C23 UNL     1     -11.651 -19.694 -11.955  1.00  0.00     0.079 C 
BRANCH  27  31
HETATM   31  C19 UNL     1      -7.592 -21.337 -11.599  1.00  0.00     0.078 A 
HETATM   32  C20 UNL     1      -6.583 -22.405 -11.807  1.00  0.00     0.015 A 
HETATM   33  C21 UNL     1      -7.565 -22.136 -12.918  1.00  0.00     0.015 A 
ENDBRANCH  27  31
ENDBRANCH  20  23
ENDBRANCH   1  20
TORSDOF 9
ENDMDL
MODEL 2
REMARK VINA RESULT: -5.858806551      1.454      1.976
REMARK  9 active torsions:
REMARK  status: ('A' for Active; 'I' for Inactive)
REMARK    1  A    between atoms: C2_2  and  C3_3 
REMARK    2  A    between atoms: C6_6  and  N1_7 
REMARK       I    between atoms: N1_7  and  C7_9 
REMARK    3  A    between atoms: C7_9  and  C8_11 
REMARK    4  A    between atoms: N2_15  and  C12_16 
REMARK    5  A    between atoms: C12_16  and  O2_17 
REMARK    6  A    between atoms: C12_16  and  C13_19 
REMARK    7  A    between atoms: C13_19  and  C14_20 
REMARK    8  A    between atoms: C13_19  and  N3_22 
REMARK       I    between atoms: N4_25  and  C18_26 
REMARK    9  A    between atoms: C18_26  and  C19_28 
ROOT
HETATM    1  C12 UNL     1     -13.870 -19.551  -9.801  1.00  0.00     0.137 C 
ENDROOT
BRANCH   1   2
HETATM    2  N2  UNL     1     -15.040 -18.795  -9.654  1.00  0.00    -0.350 N 
HETATM    3  C8  UNL     1     -15.213 -17.437  -9.262  1.00  0.00     0.178 C 
HETATM    4  C9  UNL     1     -16.343 -16.909 -10.162  1.00  0.00     0.037 C 
HETATM    5  C10 UNL     1     -17.252 -18.126 -10.227  1.00  0.00     0.022 C 
HETATM    6  C11 UNL     1     -16.386 -19.326  -9.970  1.00  0.00     0.126 C 
BRANCH   3   7
HETATM    7  C7  UNL     1     -15.705 -17.224  -7.872  1.00  0.00     0.240 C 
HETATM    8  N1  UNL     1     -15.574 -18.121  -6.815  1.00  0.00    -0.355 N 
ATOM      9  H1  UNL     1     -15.100 -18.993  -7.051  1.00  0.00     0.162 HD
HETATM   10  O1  UNL     1     -16.290 -16.099  -7.701  1.00  0.00    -0.271 OA
BRANCH   8  11
HETATM   11  C6  UNL     1     -15.992 -18.020  -5.460  1.00  0.00     0.085 C 
HETATM   12  C5  UNL     1     -15.048 -17.302  -4.567  1.00  0.00     0.026 C 
HETATM   13  C4  UNL     1     -15.350 -17.826  -3.184  1.00  0.00     0.010 C 
HETATM   14  C3  UNL     1     -15.458 -19.326  -3.478  1.00  0.00     0.009 C 
HETATM   15  C24 UNL     1     -16.281 -19.326  -4.761  1.00  0.00     0.033 C 
BRANCH  14  16
HETATM   16  C2  UNL     1     -16.127 -20.052  -2.392  1.00  0.00    -0.032 C 
HETATM   17  C1  UNL     1     -15.752 -21.273  -2.045  1.00  0.00     0.007 C 
ENDBRANCH  14  16
ENDBRANCH   8  11
ENDBRANCH   3   7
ENDBRANCH   1   2
BRANCH   1  18
HETATM   18  O2  UNL     1     -14.035 -20.680 -10.433  1.00  0.00    -0.348 OA
ATOM     19  H2  UNL     1     -13.738 -20.672 -11.335  1.00  0.00     0.219 HD
ENDBRANCH   1  18
BRANCH   1  20
HETATM   20  C13 UNL     1     -12.503 -19.216  -9.337  1.00  0.00     0.157 C 
BRANCH  20  21
HETATM   21  C14 UNL     1     -12.405 -19.184  -7.848  1.00  0.00     0.029 C 
HETATM   22  C15 UNL     1     -12.012 -17.767  -7.371  1.00  0.00     0.007 C 
ENDBRANCH  20  21
BRANCH  20  23
HETATM   23  N3  UNL     1     -11.498 -20.008  -9.961  1.00  0.00    -0.378 N 
HETATM   24  C16 UNL     1     -10.877 -21.018  -9.200  1.00  0.00     0.143 C 
HETATM   25  C17 UNL     1     -10.191 -21.965 -10.191  1.00  0.00     0.146 C 
HETATM   26  N4  UNL     1      -9.166 -21.194 -10.864  1.00  0.00    -0.346 N 
HETATM   27  C18 UNL     1      -7.956 -21.824 -11.300  1.00  0.00     0.224 C 
HETATM   28  C22 UNL     1      -9.409 -19.781 -11.074  1.00  0.00     0.170 C 
HETATM   29  O3  UNL     1      -7.803 -23.038 -11.095  1.00  0.00    -0.273 OA
HETATM   30  C23 UNL     1     -10.918 -19.591 -11.161  1.00  0.00     0.079 C 
BRANCH  27  31
HETATM   31  C19 UNL     1      -6.873 -21.091 -11.993  1.00  0.00     0.078 A 
HETATM   32  C20 UNL     1      -5.883 -21.890 -12.758  1.00  0.00     0.015 A 
HETATM   33  C21 UNL     1      -6.946 -21.154 -13.532  1.00  0.00     0.015 A 
ENDBRANCH  27  31
ENDBRANCH  20  23
ENDBRANCH   1  20
TORSDOF 9
ENDMDL
MODEL 3
REMARK VINA RESULT: -5.850453784      1.783      2.402
REMARK  9 active torsions:
REMARK  status: ('A' for Active; 'I' for Inactive)
REMARK    1  A    between atoms: C2_2  and  C3_3 
REMARK    2  A    between atoms: C6_6  and  N1_7 
REMARK       I    between atoms: N1_7  and  C7_9 
REMARK    3  A    between atoms: C7_9  and  C8_11 
REMARK    4  A    between atoms: N2_15  and  C12_16 
REMARK    5  A    between atoms: C12_16  and  O2_17 
REMARK    6  A    between atoms: C12_16  and  C13_19 
REMARK    7  A    between atoms: C13_19  and  C14_20 
REMARK    8  A    between atoms: C13_19  and  N3_22 
REMARK       I    between atoms: N4_25  and  C18_26 
REMARK    9  A    between atoms: C18_26  and  C19_28 
ROOT
HETATM    1  C12 UNL     1     -13.296 -19.622  -9.587  1.00  0.00     0.137 C 
ENDROOT
BRANCH   1   2
HETATM    2  N2  UNL     1     -14.032 -18.682  -8.854  1.00  0.00    -0.350 N 
HETATM    3  C8  UNL     1     -13.893 -18.259  -7.501  1.00  0.00     0.178 C 
HETATM    4  C9  UNL     1     -14.150 -16.742  -7.535  1.00  0.00     0.037 C 
HETATM    5  C10 UNL     1     -15.260 -16.661  -8.571  1.00  0.00     0.022 C 
HETATM    6  C11 UNL     1     -15.123 -17.875  -9.446  1.00  0.00     0.126 C 
BRANCH   3   7
HETATM    7  C7  UNL     1     -14.907 -18.793  -6.550  1.00  0.00     0.240 C 
HETATM    8  N1  UNL     1     -15.105 -18.360  -5.242  1.00  0.00    -0.355 N 
ATOM      9  H1  UNL     1     -14.478 -17.615  -4.939  1.00  0.00     0.162 HD
HETATM   10  O1  UNL     1     -15.629 -19.730  -7.041  1.00  0.00    -0.271 OA
BRANCH   8  11
HETATM   11  C6  UNL     1     -16.038 -18.787  -4.258  1.00  0.00     0.085 C 
HETATM   12  C5  UNL     1     -16.471 -17.730  -3.309  1.00  0.00     0.026 C 
HETATM   13  C4  UNL     1     -16.916 -18.478  -2.075  1.00  0.00     0.010 C 
HETATM   14  C3  UNL     1     -15.774 -19.492  -1.945  1.00  0.00     0.009 C 
HETATM   15  C24 UNL     1     -15.600 -19.941  -3.391  1.00  0.00     0.033 C 
BRANCH  14  16
HETATM   16  C2  UNL     1     -16.129 -20.607  -1.058  1.00  0.00    -0.032 C 
HETATM   17  C1  UNL     1     -15.723 -21.842  -1.308  1.00  0.00     0.007 C 
ENDBRANCH  14  16
ENDBRANCH   8  11
ENDBRANCH   3   7
ENDBRANCH   1   2
BRANCH   1  18
HETATM   18  O2  UNL     1     -14.024 -20.463 -10.268  1.00  0.00    -0.348 OA
ATOM     19  H2  UNL     1     -14.665 -20.053 -10.837  1.00  0.00     0.219 HD
ENDBRANCH   1  18
BRANCH   1  20
HETATM   20  C13 UNL     1     -11.823 -19.759  -9.675  1.00  0.00     0.157 C 
BRANCH  20  21
HETATM   21  C14 UNL     1     -11.246 -20.428  -8.472  1.00  0.00     0.029 C 
HETATM   22  C15 UNL     1     -10.258 -19.477  -7.756  1.00  0.00     0.007 C 
ENDBRANCH  20  21
BRANCH  20  23
HETATM   23  N3  UNL     1     -11.394 -20.326 -10.908  1.00  0.00    -0.378 N 
HETATM   24  C16 UNL     1     -10.876 -21.637 -10.894  1.00  0.00     0.143 C 
HETATM   25  C17 UNL     1     -10.907 -22.142 -12.341  1.00  0.00     0.146 C 
HETATM   26  N4  UNL     1     -10.008 -21.296 -13.098  1.00  0.00    -0.346 N 
HETATM   27  C18 UNL     1      -9.282 -21.826 -14.213  1.00  0.00     0.224 C 
HETATM   28  C22 UNL     1      -9.873 -19.913 -12.689  1.00  0.00     0.170 C 
HETATM   29  O3  UNL     1      -9.438 -23.019 -14.519  1.00  0.00    -0.273 OA
HETATM   30  C23 UNL     1     -11.182 -19.510 -12.022  1.00  0.00     0.079 C 
BRANCH  27  31
HETATM   31  C19 UNL     1      -8.350 -21.013 -15.025  1.00  0.00     0.078 A 
HETATM   32  C20 UNL     1      -8.020 -21.502 -16.387  1.00  0.00     0.015 A 
HETATM   33  C21 UNL     1      -8.992 -20.357 -16.265  1.00  0.00     0.015 A 
ENDBRANCH  27  31
ENDBRANCH  20  23
ENDBRANCH   1  20
TORSDOF 9
ENDMDL
MODEL 4
REMARK VINA RESULT: -5.775587398      3.033      5.477
REMARK  9 active torsions:
REMARK  status: ('A' for Active; 'I' for Inactive)
REMARK    1  A    between atoms: C2_2  and  C3_3 
REMARK    2  A    between atoms: C6_6  and  N1_7 
REMARK       I    between atoms: N1_7  and  C7_9 
REMARK    3  A    between atoms: C7_9  and  C8_11 
REMARK    4  A    between atoms: N2_15  and  C12_16 
REMARK    5  A    between atoms: C12_16  and  O2_17 
REMARK    6  A    between atoms: C12_16  and  C13_19 
REMARK    7  A    between atoms: C13_19  and  C14_20 
REMARK    8  A    between atoms: C13_19  and  N3_22 
REMARK       I    between atoms: N4_25  and  C18_26 
REMARK    9  A    between atoms: C18_26  and  C19_28 
ROOT
HETATM    1  C12 UNL     1     -12.725 -18.877  -7.611  1.00  0.00     0.137 C 
ENDROOT
BRANCH   1   2
HETATM    2  N2  UNL     1     -14.097 -18.601  -7.675  1.00  0.00    -0.350 N 
HETATM    3  C8  UNL     1     -15.195 -19.464  -7.956  1.00  0.00     0.178 C 
HETATM    4  C9  UNL     1     -16.307 -19.011  -6.994  1.00  0.00     0.037 C 
HETATM    5  C10 UNL     1     -16.102 -17.505  -7.005  1.00  0.00     0.022 C 
HETATM    6  C11 UNL     1     -14.665 -17.267  -7.374  1.00  0.00     0.126 C 
BRANCH   3   7
HETATM    7  C7  UNL     1     -15.791 -19.329  -9.314  1.00  0.00     0.240 C 
HETATM    8  N1  UNL     1     -17.141 -19.459  -9.628  1.00  0.00    -0.355 N 
ATOM      9  H1  UNL     1     -17.745 -19.674  -8.834  1.00  0.00     0.162 HD
HETATM   10  O1  UNL     1     -14.934 -19.068 -10.228  1.00  0.00    -0.271 OA
BRANCH   8  11
HETATM   11  C6  UNL     1     -17.816 -19.343 -10.874  1.00  0.00     0.085 C 
HETATM   12  C5  UNL     1     -18.536 -18.061 -11.076  1.00  0.00     0.026 C 
HETATM   13  C4  UNL     1     -19.613 -18.378 -12.086  1.00  0.00     0.010 C 
HETATM   14  C3  UNL     1     -20.132 -19.705 -11.523  1.00  0.00     0.009 C 
HETATM   15  C24 UNL     1     -18.831 -20.418 -11.176  1.00  0.00     0.033 C 
BRANCH  14  16
HETATM   16  C2  UNL     1     -20.924 -20.448 -12.511  1.00  0.00    -0.032 C 
HETATM   17  C1  UNL     1     -20.377 -21.387 -13.268  1.00  0.00     0.007 C 
ENDBRANCH  14  16
ENDBRANCH   8  11
ENDBRANCH   3   7
ENDBRANCH   1   2
BRANCH   1  18
HETATM   18  O2  UNL     1     -12.378 -19.653  -6.622  1.00  0.00    -0.348 OA
ATOM     19  H2  UNL     1     -11.656 -19.322  -6.099  1.00  0.00     0.219 HD
ENDBRANCH   1  18
BRANCH   1  20
HETATM   20  C13 UNL     1     -11.656 -18.402  -8.520  1.00  0.00     0.157 C 
BRANCH  20  21
HETATM   21  C14 UNL     1     -10.372 -18.155  -7.800  1.00  0.00     0.029 C 
HETATM   22  C15 UNL     1     -10.220 -16.649  -7.483  1.00  0.00     0.007 C 
ENDBRANCH  20  21
BRANCH  20  23
HETATM   23  N3  UNL     1     -11.516 -19.214  -9.681  1.00  0.00    -0.378 N 
HETATM   24  C16 UNL     1     -11.669 -20.608  -9.541  1.00  0.00     0.143 C 
HETATM   25  C17 UNL     1     -11.904 -21.173 -10.946  1.00  0.00     0.146 C 
HETATM   26  N4  UNL     1     -10.699 -20.913 -11.707  1.00  0.00    -0.346 N 
HETATM   27  C18 UNL     1     -10.282 -21.819 -12.734  1.00  0.00     0.224 C 
HETATM   28  C22 UNL     1      -9.943 -19.718 -11.392  1.00  0.00     0.170 C 
HETATM   29  O3  UNL     1     -10.970 -22.827 -12.962  1.00  0.00    -0.273 OA
HETATM   30  C23 UNL     1     -10.927 -18.695 -10.836  1.00  0.00     0.079 C 
BRANCH  27  31
HETATM   31  C19 UNL     1      -9.063 -21.608 -13.546  1.00  0.00     0.078 A 
HETATM   32  C20 UNL     1      -8.999 -22.268 -14.874  1.00  0.00     0.015 A 
HETATM   33  C21 UNL     1      -9.290 -20.790 -14.834  1.00  0.00     0.015 A 
ENDBRANCH  27  31
ENDBRANCH  20  23
ENDBRANCH   1  20
TORSDOF 9
ENDMDL
MODEL 5
REMARK VINA RESULT: -5.723971521      3.329     10.598
REMARK  9 active torsions:
REMARK  status: ('A' for Active; 'I' for Inactive)
REMARK    1  A    between atoms: C2_2  and  C3_3 
REMARK    2  A    between atoms: C6_6  and  N1_7 
REMARK       I    between atoms: N1_7  and  C7_9 
REMARK    3  A    between atoms: C7_9  and  C8_11 
REMARK    4  A    between atoms: N2_15  and  C12_16 
REMARK    5  A    between atoms: C12_16  and  O2_17 
REMARK    6  A    between atoms: C12_16  and  C13_19 
REMARK    7  A    between atoms: C13_19  and  C14_20 
REMARK    8  A    between atoms: C13_19  and  N3_22 
REMARK       I    between atoms: N4_25  and  C18_26 
REMARK    9  A    between atoms: C18_26  and  C19_28 
ROOT
HETATM    1  C12 UNL     1     -15.436 -18.387  -3.636  1.00  0.00     0.137 C 
ENDROOT
BRANCH   1   2
HETATM    2  N2  UNL     1     -15.524 -18.371  -5.034  1.00  0.00    -0.350 N 
HETATM    3  C8  UNL     1     -15.193 -19.376  -5.987  1.00  0.00     0.178 C 
HETATM    4  C9  UNL     1     -16.299 -19.287  -7.053  1.00  0.00     0.037 C 
HETATM    5  C10 UNL     1     -16.515 -17.784  -7.118  1.00  0.00     0.022 C 
HETATM    6  C11 UNL     1     -16.079 -17.227  -5.792  1.00  0.00     0.126 C 
BRANCH   3   7
HETATM    7  C7  UNL     1     -13.925 -19.161  -6.738  1.00  0.00     0.240 C 
HETATM    8  N1  UNL     1     -13.610 -19.710  -7.978  1.00  0.00    -0.355 N 
ATOM      9  H1  UNL     1     -14.332 -20.312  -8.375  1.00  0.00     0.162 HD
HETATM   10  O1  UNL     1     -13.095 -18.395  -6.136  1.00  0.00    -0.271 OA
BRANCH   8  11
HETATM   11  C6  UNL     1     -12.447 -19.568  -8.784  1.00  0.00     0.085 C 
HETATM   12  C5  UNL     1     -12.679 -19.706 -10.243  1.00  0.00     0.026 C 
HETATM   13  C4  UNL     1     -11.343 -20.126 -10.808  1.00  0.00     0.010 C 
HETATM   14  C3  UNL     1     -10.938 -21.192  -9.783  1.00  0.00     0.009 C 
HETATM   15  C24 UNL     1     -11.311 -20.511  -8.472  1.00  0.00     0.033 C 
BRANCH  14  16
HETATM   16  C2  UNL     1      -9.505 -21.506  -9.855  1.00  0.00    -0.032 C 
HETATM   17  C1  UNL     1      -9.076 -22.756  -9.919  1.00  0.00     0.007 C 
ENDBRANCH  14  16
ENDBRANCH   8  11
ENDBRANCH   3   7
ENDBRANCH   1   2
BRANCH   1  18
HETATM   18  O2  UNL     1     -14.258 -18.077  -3.168  1.00  0.00    -0.348 OA
ATOM     19  H2  UNL     1     -13.533 -18.380  -3.702  1.00  0.00     0.219 HD
ENDBRANCH   1  18
BRANCH   1  20
HETATM   20  C13 UNL     1     -16.503 -18.703  -2.658  1.00  0.00     0.157 C 
BRANCH  20  21
HETATM   21  C14 UNL     1     -16.027 -19.620  -1.580  1.00  0.00     0.029 C 
HETATM   22  C15 UNL     1     -15.906 -21.063  -2.124  1.00  0.00     0.007 C 
ENDBRANCH  20  21
BRANCH  20  23
HETATM   23  N3  UNL     1     -17.168 -17.542  -2.171  1.00  0.00    -0.378 N 
HETATM   24  C16 UNL     1     -18.512 -17.665  -1.767  1.00  0.00     0.143 C 
HETATM   25  C17 UNL     1     -18.833 -16.435  -0.910  1.00  0.00     0.146 C 
HETATM   26  N4  UNL     1     -18.711 -15.280  -1.775  1.00  0.00    -0.346 N 
HETATM   27  C18 UNL     1     -19.538 -14.130  -1.567  1.00  0.00     0.224 C 
HETATM   28  C22 UNL     1     -17.736 -15.334  -2.845  1.00  0.00     0.170 C 
HETATM   29  O3  UNL     1     -20.357 -14.139  -0.634  1.00  0.00    -0.273 OA
HETATM   30  C23 UNL     1     -16.625 -16.275  -2.395  1.00  0.00     0.079 C 
BRANCH  27  31
HETATM   31  C19 UNL     1     -19.461 -12.919  -2.415  1.00  0.00     0.078 A 
HETATM   32  C20 UNL     1     -19.955 -11.644  -1.839  1.00  0.00     0.015 A 
HETATM   33  C21 UNL     1     -18.465 -11.854  -1.915  1.00  0.00     0.015 A 
ENDBRANCH  27  31
ENDBRANCH  20  23
ENDBRANCH   1  20
TORSDOF 9
ENDMDL
