MODEL 1
REMARK VINA RESULT: -6.725152620      0.000      0.000
REMARK  6 active torsions:
REMARK  status: ('A' for Active; 'I' for Inactive)
REMARK       I    between atoms: C1_2  and  N1_3 
REMARK    1  A    between atoms: C1_2  and  C8_11 
REMARK    2  A    between atoms: N1_3  and  C2_5 
REMARK    3  A    between atoms: N2_15  and  S1_16 
REMARK    4  A    between atoms: S1_16  and  N3_19 
REMARK    5  A    between atoms: N4_23  and  C15_24 
REMARK    6  A    between atoms: C15_24  and  C16_25 
ROOT
HETATM    1  C8  UNL     1     -11.113 -21.281 -11.467  1.00  0.00     0.092 C 
HETATM    2  C9  UNL     1      -9.632 -21.562 -11.376  1.00  0.00     0.016 C 
HETATM    3  C10 UNL     1      -8.944 -20.304 -10.923  1.00  0.00     0.016 C 
HETATM    4  C11 UNL     1      -9.896 -19.207 -10.577  1.00  0.00     0.108 C 
HETATM    5  N2  UNL     1     -11.014 -19.587  -9.782  1.00  0.00    -0.197 NA
HETATM    6  C21 UNL     1     -11.541 -20.880 -10.049  1.00  0.00     0.122 C 
ENDROOT
BRANCH   5   7
HETATM    7  S1  UNL     1     -10.783 -19.208  -8.138  1.00  0.00     0.283 S 
HETATM    8  O2  UNL     1     -10.458 -20.425  -7.331  1.00  0.00    -0.194 OA
HETATM    9  O3  UNL     1      -9.688 -18.208  -7.922  1.00  0.00    -0.194 OA
BRANCH   7  10
HETATM   10  N3  UNL     1     -12.246 -18.540  -7.530  1.00  0.00    -0.196 NA
HETATM   11  C12 UNL     1     -12.835 -17.585  -8.438  1.00  0.00     0.110 C 
HETATM   12  C13 UNL     1     -13.746 -16.684  -7.636  1.00  0.00     0.046 C 
HETATM   13  C14 UNL     1     -13.393 -16.650  -6.185  1.00  0.00     0.273 C 
HETATM   14  N4  UNL     1     -13.741 -17.820  -5.447  1.00  0.00     0.090 N 
HETATM   15  C19 UNL     1     -14.208 -18.921  -6.227  1.00  0.00     0.287 C 
HETATM   16  C20 UNL     1     -13.184 -19.554  -7.110  1.00  0.00     0.138 C 
BRANCH  14  17
HETATM   17  C15 UNL     1     -14.731 -17.482  -4.460  1.00  0.00     0.277 C 
BRANCH  17  18
HETATM   18  C16 UNL     1     -15.829 -18.502  -4.353  1.00  0.00     0.014 A 
HETATM   19  C17 UNL     1     -15.762 -19.428  -3.201  1.00  0.00     0.007 A 
HETATM   20  C18 UNL     1     -16.817 -18.387  -3.232  1.00  0.00     0.007 A 
ENDBRANCH  17  18
ENDBRANCH  14  17
ENDBRANCH   7  10
ENDBRANCH   5   7
BRANCH   1  21
HETATM   21  C1  UNL     1     -11.884 -22.419 -11.965  1.00  0.00     0.223 C 
HETATM   22  O1  UNL     1     -11.490 -23.590 -11.729  1.00  0.00    -0.273 OA
HETATM   23  N1  UNL     1     -13.084 -22.301 -12.716  1.00  0.00    -0.356 N 
ATOM     24  H1  UNL     1     -13.428 -21.363 -12.921  1.00  0.00     0.162 HD
BRANCH  23  25
HETATM   25  C2  UNL     1     -13.846 -23.424 -13.209  1.00  0.00     0.084 C 
HETATM   26  C3  UNL     1     -15.196 -22.913 -13.644  1.00  0.00     0.025 C 
HETATM   27  C4  UNL     1     -16.099 -24.030 -14.119  1.00  0.00     0.002 C 
HETATM   28  C5  UNL     1     -15.323 -25.269 -14.509  1.00  0.00     0.000 C 
HETATM   29  C6  UNL     1     -14.024 -24.930 -15.212  1.00  0.00     0.002 C 
HETATM   30  C7  UNL     1     -13.112 -24.101 -14.345  1.00  0.00     0.025 C 
ENDBRANCH  23  25
ENDBRANCH   1  21
TORSDOF 6
ENDMDL
MODEL 2
REMARK VINA RESULT: -6.713486613      2.134      2.958
REMARK  6 active torsions:
REMARK  status: ('A' for Active; 'I' for Inactive)
REMARK       I    between atoms: C1_2  and  N1_3 
REMARK    1  A    between atoms: C1_2  and  C8_11 
REMARK    2  A    between atoms: N1_3  and  C2_5 
REMARK    3  A    between atoms: N2_15  and  S1_16 
REMARK    4  A    between atoms: S1_16  and  N3_19 
REMARK    5  A    between atoms: N4_23  and  C15_24 
REMARK    6  A    between atoms: C15_24  and  C16_25 
ROOT
HETATM    1  C8  UNL     1     -10.974 -21.278 -11.551  1.00  0.00     0.092 C 
HETATM    2  C9  UNL     1      -9.635 -21.682 -10.982  1.00  0.00     0.016 C 
HETATM    3  C10 UNL     1      -8.885 -20.431 -10.617  1.00  0.00     0.016 C 
HETATM    4  C11 UNL     1      -9.695 -19.189 -10.792  1.00  0.00     0.108 C 
HETATM    5  N2  UNL     1     -11.026 -19.245 -10.292  1.00  0.00    -0.197 NA
HETATM    6  C21 UNL     1     -11.678 -20.502 -10.429  1.00  0.00     0.122 C 
ENDROOT
BRANCH   5   7
HETATM    7  S1  UNL     1     -11.165 -18.505  -8.765  1.00  0.00     0.283 S 
HETATM    8  O2  UNL     1     -10.560 -19.346  -7.686  1.00  0.00    -0.194 OA
HETATM    9  O3  UNL     1     -10.513 -17.156  -8.714  1.00  0.00    -0.194 OA
BRANCH   7  10
HETATM   10  N3  UNL     1     -12.835 -18.306  -8.413  1.00  0.00    -0.196 NA
HETATM   11  C12 UNL     1     -13.062 -17.830  -7.069  1.00  0.00     0.110 C 
HETATM   12  C13 UNL     1     -14.474 -18.203  -6.677  1.00  0.00     0.046 C 
HETATM   13  C14 UNL     1     -15.011 -19.348  -7.473  1.00  0.00     0.273 C 
HETATM   14  N4  UNL     1     -15.363 -19.037  -8.821  1.00  0.00     0.090 N 
HETATM   15  C19 UNL     1     -14.988 -17.735  -9.269  1.00  0.00     0.287 C 
HETATM   16  C20 UNL     1     -13.519 -17.508  -9.404  1.00  0.00     0.138 C 
BRANCH  14  17
HETATM   17  C15 UNL     1     -16.781 -19.210  -8.992  1.00  0.00     0.277 C 
BRANCH  17  18
HETATM   18  C16 UNL     1     -17.170 -19.508 -10.411  1.00  0.00     0.014 A 
HETATM   19  C17 UNL     1     -18.468 -20.190 -10.612  1.00  0.00     0.007 A 
HETATM   20  C18 UNL     1     -18.327 -18.770 -11.015  1.00  0.00     0.007 A 
ENDBRANCH  17  18
ENDBRANCH  14  17
ENDBRANCH   7  10
ENDBRANCH   5   7
BRANCH   1  21
HETATM   21  C1  UNL     1     -11.772 -22.415 -12.006  1.00  0.00     0.223 C 
HETATM   22  O1  UNL     1     -11.412 -23.585 -11.717  1.00  0.00    -0.273 OA
HETATM   23  N1  UNL     1     -12.961 -22.298 -12.773  1.00  0.00    -0.356 N 
ATOM     24  H1  UNL     1     -13.279 -21.361 -13.021  1.00  0.00     0.162 HD
BRANCH  23  25
HETATM   25  C2  UNL     1     -13.750 -23.421 -13.224  1.00  0.00     0.084 C 
HETATM   26  C3  UNL     1     -15.117 -22.907 -13.598  1.00  0.00     0.025 C 
HETATM   27  C4  UNL     1     -16.046 -24.023 -14.025  1.00  0.00     0.002 C 
HETATM   28  C5  UNL     1     -15.293 -25.267 -14.444  1.00  0.00     0.000 C 
HETATM   29  C6  UNL     1     -14.027 -24.936 -15.208  1.00  0.00     0.002 C 
HETATM   30  C7  UNL     1     -13.072 -24.106 -14.389  1.00  0.00     0.025 C 
ENDBRANCH  23  25
ENDBRANCH   1  21
TORSDOF 6
ENDMDL
MODEL 3
REMARK VINA RESULT: -6.653205410      2.097      2.657
REMARK  6 active torsions:
REMARK  status: ('A' for Active; 'I' for Inactive)
REMARK       I    between atoms: C1_2  and  N1_3 
REMARK    1  A    between atoms: C1_2  and  C8_11 
REMARK    2  A    between atoms: N1_3  and  C2_5 
REMARK    3  A    between atoms: N2_15  and  S1_16 
REMARK    4  A    between atoms: S1_16  and  N3_19 
REMARK    5  A    between atoms: N4_23  and  C15_24 
REMARK    6  A    between atoms: C15_24  and  C16_25 
ROOT
HETATM    1  C8  UNL     1     -10.699 -21.511 -11.703  1.00  0.00     0.092 C 
HETATM    2  C9  UNL     1     -10.381 -21.496 -10.227  1.00  0.00     0.016 C 
HETATM    3  C10 UNL     1      -9.375 -20.407  -9.975  1.00  0.00     0.016 C 
HETATM    4  C11 UNL     1      -9.080 -19.590 -11.190  1.00  0.00     0.108 C 
HETATM    5  N2  UNL     1     -10.212 -19.183 -11.950  1.00  0.00    -0.197 NA
HETATM    6  C21 UNL     1     -11.277 -20.123 -12.011  1.00  0.00     0.122 C 
ENDROOT
BRANCH   5   7
HETATM    7  S1  UNL     1     -10.663 -17.576 -11.609  1.00  0.00     0.283 S 
HETATM    8  O2  UNL     1      -9.474 -16.673 -11.534  1.00  0.00    -0.194 OA
HETATM    9  O3  UNL     1     -11.606 -17.011 -12.627  1.00  0.00    -0.194 OA
BRANCH   7  10
HETATM   10  N3  UNL     1     -11.449 -17.551 -10.080  1.00  0.00    -0.196 NA
HETATM   11  C12 UNL     1     -10.736 -16.757  -9.108  1.00  0.00     0.110 C 
HETATM   12  C13 UNL     1     -11.157 -17.222  -7.732  1.00  0.00     0.046 C 
HETATM   13  C14 UNL     1     -11.699 -18.614  -7.733  1.00  0.00     0.273 C 
HETATM   14  N4  UNL     1     -13.006 -18.756  -8.287  1.00  0.00     0.090 N 
HETATM   15  C19 UNL     1     -13.534 -17.591  -8.922  1.00  0.00     0.287 C 
HETATM   16  C20 UNL     1     -12.842 -17.183 -10.179  1.00  0.00     0.138 C 
BRANCH  14  17
HETATM   17  C15 UNL     1     -13.913 -19.190  -7.259  1.00  0.00     0.277 C 
BRANCH  17  18
HETATM   18  C16 UNL     1     -15.301 -18.642  -7.427  1.00  0.00     0.014 A 
HETATM   19  C17 UNL     1     -16.386 -19.632  -7.607  1.00  0.00     0.007 A 
HETATM   20  C18 UNL     1     -16.307 -18.869  -6.338  1.00  0.00     0.007 A 
ENDBRANCH  17  18
ENDBRANCH  14  17
ENDBRANCH   7  10
ENDBRANCH   5   7
BRANCH   1  21
HETATM   21  C1  UNL     1     -11.623 -22.579 -12.081  1.00  0.00     0.223 C 
HETATM   22  O1  UNL     1     -11.416 -23.753 -11.681  1.00  0.00    -0.273 OA
HETATM   23  N1  UNL     1     -12.774 -22.387 -12.890  1.00  0.00    -0.356 N 
ATOM     24  H1  UNL     1     -12.968 -21.444 -13.229  1.00  0.00     0.162 HD
BRANCH  23  25
HETATM   25  C2  UNL     1     -13.687 -23.441 -13.265  1.00  0.00     0.084 C 
HETATM   26  C3  UNL     1     -15.008 -22.806 -13.617  1.00  0.00     0.025 C 
HETATM   27  C4  UNL     1     -16.059 -23.839 -13.964  1.00  0.00     0.002 C 
HETATM   28  C5  UNL     1     -15.451 -25.168 -14.352  1.00  0.00     0.000 C 
HETATM   29  C6  UNL     1     -14.187 -24.999 -15.171  1.00  0.00     0.002 C 
HETATM   30  C7  UNL     1     -13.125 -24.238 -14.421  1.00  0.00     0.025 C 
ENDBRANCH  23  25
ENDBRANCH   1  21
TORSDOF 6
ENDMDL
MODEL 4
REMARK VINA RESULT: -6.510874108      1.839      2.865
REMARK  6 active torsions:
REMARK  status: ('A' for Active; 'I' for Inactive)
REMARK       I    between atoms: C1_2  and  N1_3 
REMARK    1  A    between atoms: C1_2  and  C8_11 
REMARK    2  A    between atoms: N1_3  and  C2_5 
REMARK    3  A    between atoms: N2_15  and  S1_16 
REMARK    4  A    between atoms: S1_16  and  N3_19 
REMARK    5  A    between atoms: N4_23  and  C15_24 
REMARK    6  A    between atoms: C15_24  and  C16_25 
ROOT
HETATM    1  C8  UNL     1     -10.933 -21.339 -11.502  1.00  0.00     0.092 C 
HETATM    2  C9  UNL     1      -9.522 -21.721 -11.121  1.00  0.00     0.016 C 
HETATM    3  C10 UNL     1      -8.791 -20.471 -10.716  1.00  0.00     0.016 C 
HETATM    4  C11 UNL     1      -9.670 -19.264 -10.679  1.00  0.00     0.108 C 
HETATM    5  N2  UNL     1     -10.933 -19.439 -10.049  1.00  0.00    -0.197 NA
HETATM    6  C21 UNL     1     -11.540 -20.711 -10.239  1.00  0.00     0.122 C 
ENDROOT
BRANCH   5   7
HETATM    7  S1  UNL     1     -10.933 -18.854  -8.449  1.00  0.00     0.283 S 
HETATM    8  O2  UNL     1     -10.345 -19.847  -7.498  1.00  0.00    -0.194 OA
HETATM    9  O3  UNL     1     -10.172 -17.571  -8.302  1.00  0.00    -0.194 OA
BRANCH   7  10
HETATM   10  N3  UNL     1     -12.562 -18.567  -7.981  1.00  0.00    -0.196 NA
HETATM   11  C12 UNL     1     -12.936 -19.313  -6.803  1.00  0.00     0.110 C 
HETATM   12  C13 UNL     1     -14.443 -19.439  -6.794  1.00  0.00     0.046 C 
HETATM   13  C14 UNL     1     -15.044 -19.281  -8.152  1.00  0.00     0.273 C 
HETATM   14  N4  UNL     1     -15.062 -17.947  -8.657  1.00  0.00     0.090 N 
HETATM   15  C19 UNL     1     -14.347 -16.987  -7.880  1.00  0.00     0.287 C 
HETATM   16  C20 UNL     1     -12.864 -17.160  -7.863  1.00  0.00     0.138 C 
BRANCH  14  17
HETATM   17  C15 UNL     1     -16.426 -17.516  -8.809  1.00  0.00     0.277 C 
BRANCH  17  18
HETATM   18  C16 UNL     1     -16.764 -17.118 -10.217  1.00  0.00     0.014 A 
HETATM   19  C17 UNL     1     -18.047 -17.619 -10.756  1.00  0.00     0.007 A 
HETATM   20  C18 UNL     1     -17.906 -16.175 -10.449  1.00  0.00     0.007 A 
ENDBRANCH  17  18
ENDBRANCH  14  17
ENDBRANCH   7  10
ENDBRANCH   5   7
BRANCH   1  21
HETATM   21  C1  UNL     1     -11.726 -22.470 -11.980  1.00  0.00     0.223 C 
HETATM   22  O1  UNL     1     -11.367 -23.643 -11.704  1.00  0.00    -0.273 OA
HETATM   23  N1  UNL     1     -12.909 -22.342 -12.755  1.00  0.00    -0.356 N 
ATOM     24  H1  UNL     1     -13.225 -21.402 -12.992  1.00  0.00     0.162 HD
BRANCH  23  25
HETATM   25  C2  UNL     1     -13.693 -23.459 -13.228  1.00  0.00     0.084 C 
HETATM   26  C3  UNL     1     -15.057 -22.941 -13.604  1.00  0.00     0.025 C 
HETATM   27  C4  UNL     1     -15.982 -24.051 -14.055  1.00  0.00     0.002 C 
HETATM   28  C5  UNL     1     -15.224 -25.287 -14.487  1.00  0.00     0.000 C 
HETATM   29  C6  UNL     1     -13.954 -24.944 -15.238  1.00  0.00     0.002 C 
HETATM   30  C7  UNL     1     -13.006 -24.126 -14.399  1.00  0.00     0.025 C 
ENDBRANCH  23  25
ENDBRANCH   1  21
TORSDOF 6
ENDMDL
MODEL 5
REMARK VINA RESULT: -6.335368361      5.282      6.243
REMARK  6 active torsions:
REMARK  status: ('A' for Active; 'I' for Inactive)
REMARK       I    between atoms: C1_2  and  N1_3 
REMARK    1  A    between atoms: C1_2  and  C8_11 
REMARK    2  A    between atoms: N1_3  and  C2_5 
REMARK    3  A    between atoms: N2_15  and  S1_16 
REMARK    4  A    between atoms: S1_16  and  N3_19 
REMARK    5  A    between atoms: N4_23  and  C15_24 
REMARK    6  A    between atoms: C15_24  and  C16_25 
ROOT
HETATM    1  C8  UNL     1     -16.305 -18.878  -9.160  1.00  0.00     0.092 C 
HETATM    2  C9  UNL     1     -16.578 -19.732  -7.945  1.00  0.00     0.016 C 
HETATM    3  C10 UNL     1     -15.560 -19.390  -6.893  1.00  0.00     0.016 C 
HETATM    4  C11 UNL     1     -14.676 -18.251  -7.282  1.00  0.00     0.108 C 
HETATM    5  N2  UNL     1     -15.333 -17.126  -7.854  1.00  0.00    -0.197 NA
HETATM    6  C21 UNL     1     -16.450 -17.427  -8.681  1.00  0.00     0.122 C 
ENDROOT
BRANCH   5   7
HETATM    7  S1  UNL     1     -15.572 -15.882  -6.716  1.00  0.00     0.283 S 
HETATM    8  O2  UNL     1     -14.495 -14.846  -6.797  1.00  0.00    -0.194 OA
HETATM    9  O3  UNL     1     -16.889 -15.188  -6.884  1.00  0.00    -0.194 OA
BRANCH   7  10
HETATM   10  N3  UNL     1     -15.527 -16.574  -5.143  1.00  0.00    -0.196 NA
HETATM   11  C12 UNL     1     -14.348 -16.190  -4.405  1.00  0.00     0.110 C 
HETATM   12  C13 UNL     1     -14.118 -17.225  -3.327  1.00  0.00     0.046 C 
HETATM   13  C14 UNL     1     -14.761 -18.537  -3.640  1.00  0.00     0.273 C 
HETATM   14  N4  UNL     1     -16.180 -18.566  -3.500  1.00  0.00     0.090 N 
HETATM   15  C19 UNL     1     -16.800 -17.303  -3.261  1.00  0.00     0.287 C 
HETATM   16  C20 UNL     1     -16.744 -16.341  -4.401  1.00  0.00     0.138 C 
BRANCH  14  17
HETATM   17  C15 UNL     1     -16.535 -19.478  -2.446  1.00  0.00     0.277 C 
BRANCH  17  18
HETATM   18  C16 UNL     1     -15.520 -20.566  -2.243  1.00  0.00     0.014 A 
HETATM   19  C17 UNL     1     -15.432 -21.143  -0.883  1.00  0.00     0.007 A 
HETATM   20  C18 UNL     1     -15.998 -21.963  -1.981  1.00  0.00     0.007 A 
ENDBRANCH  17  18
ENDBRANCH  14  17
ENDBRANCH   7  10
ENDBRANCH   5   7
BRANCH   1  21
HETATM   21  C1  UNL     1     -17.197 -19.170 -10.281  1.00  0.00     0.223 C 
HETATM   22  O1  UNL     1     -17.051 -20.236 -10.932  1.00  0.00    -0.273 OA
HETATM   23  N1  UNL     1     -18.249 -18.317 -10.705  1.00  0.00    -0.356 N 
ATOM     24  H1  UNL     1     -18.393 -17.445 -10.195  1.00  0.00     0.162 HD
BRANCH  23  25
HETATM   25  C2  UNL     1     -19.131 -18.604 -11.813  1.00  0.00     0.084 C 
HETATM   26  C3  UNL     1     -20.370 -19.261 -11.261  1.00  0.00     0.025 C 
HETATM   27  C4  UNL     1     -21.335 -19.663 -12.356  1.00  0.00     0.002 C 
HETATM   28  C5  UNL     1     -21.089 -18.905 -13.642  1.00  0.00     0.000 C 
HETATM   29  C6  UNL     1     -20.716 -17.458 -13.390  1.00  0.00     0.002 C 
HETATM   30  C7  UNL     1     -19.459 -17.335 -12.567  1.00  0.00     0.025 C 
ENDBRANCH  23  25
ENDBRANCH   1  21
TORSDOF 6
ENDMDL
