MODEL 1
REMARK VINA RESULT: -6.984157615      0.000      0.000
REMARK  8 active torsions:
REMARK  status: ('A' for Active; 'I' for Inactive)
REMARK       I    between atoms: C1_2  and  N1_3 
REMARK    1  A    between atoms: C1_2  and  C13_20 
REMARK    2  A    between atoms: N1_3  and  C2_5 
REMARK    3  A    between atoms: C2_5  and  C3_6 
REMARK    4  A    between atoms: N2_11  and  S1_12 
REMARK    5  A    between atoms: S1_12  and  C8_15 
REMARK    6  A    between atoms: N3_25  and  C18_26 
REMARK    7  A    between atoms: C18_26  and  O4_27 
REMARK    8  A    between atoms: C18_26  and  C19_29 
ROOT
HETATM    1  O1  UNL     1     -14.298 -19.635  -4.781  1.00  0.00    -0.271 OA
HETATM    2  C1  UNL     1     -15.033 -18.638  -4.610  1.00  0.00     0.240 C 
HETATM    3  N1  UNL     1     -16.004 -18.271  -5.562  1.00  0.00    -0.357 N 
ATOM      4  H1  UNL     1     -16.562 -17.441  -5.356  1.00  0.00     0.162 HD
ENDROOT
BRANCH   3   5
HETATM    5  C2  UNL     1     -16.284 -18.956  -6.799  1.00  0.00     0.148 C 
BRANCH   5   6
HETATM    6  C3  UNL     1     -16.296 -18.035  -7.963  1.00  0.00     0.113 C 
HETATM    7  C4  UNL     1     -16.444 -16.588  -7.618  1.00  0.00     0.028 C 
HETATM    8  C5  UNL     1     -16.954 -15.893  -8.879  1.00  0.00     0.004 C 
HETATM    9  C6  UNL     1     -17.026 -16.799 -10.063  1.00  0.00     0.021 C 
HETATM   10  C7  UNL     1     -15.771 -17.633 -10.203  1.00  0.00     0.135 C 
HETATM   11  N2  UNL     1     -15.310 -18.210  -8.968  1.00  0.00    -0.304 N 
BRANCH  11  12
HETATM   12  S1  UNL     1     -13.706 -18.176  -8.637  1.00  0.00     0.233 S 
HETATM   13  O2  UNL     1     -13.506 -17.328  -7.369  1.00  0.00    -0.205 OA
HETATM   14  O3  UNL     1     -12.915 -17.379  -9.682  1.00  0.00    -0.205 OA
BRANCH  12  15
HETATM   15  C8  UNL     1     -12.772 -19.614  -8.384  1.00  0.00     0.129 C 
HETATM   16  C9  UNL     1     -11.803 -19.633  -7.262  1.00  0.00     0.022 C 
HETATM   17  C10 UNL     1     -10.765 -20.683  -7.647  1.00  0.00     0.001 C 
HETATM   18  C11 UNL     1     -10.775 -20.726  -9.155  1.00  0.00     0.001 C 
HETATM   19  C12 UNL     1     -12.128 -20.225  -9.601  1.00  0.00     0.022 C 
ENDBRANCH  12  15
ENDBRANCH  11  12
ENDBRANCH   5   6
ENDBRANCH   3   5
BRANCH   2  20
HETATM   20  C13 UNL     1     -14.883 -17.810  -3.366  1.00  0.00     0.178 C 
HETATM   21  C14 UNL     1     -15.226 -16.353  -3.747  1.00  0.00     0.035 C 
HETATM   22  C15 UNL     1     -15.814 -15.679  -2.538  1.00  0.00     0.004 C 
HETATM   23  C16 UNL     1     -17.236 -16.214  -2.378  1.00  0.00     0.020 C 
HETATM   24  C17 UNL     1     -17.233 -17.703  -2.673  1.00  0.00     0.125 C 
HETATM   25  N3  UNL     1     -15.865 -18.234  -2.405  1.00  0.00    -0.352 N 
BRANCH  25  26
HETATM   26  C18 UNL     1     -15.718 -19.047  -1.280  1.00  0.00     0.118 C 
BRANCH  26  27
HETATM   27  O4  UNL     1     -15.177 -18.438  -0.256  1.00  0.00    -0.349 OA
ATOM     28  H4  UNL     1     -14.414 -18.882   0.094  1.00  0.00     0.219 HD
ENDBRANCH  26  27
BRANCH  26  29
HETATM   29  C19 UNL     1     -16.060 -20.442  -1.051  1.00  0.00     0.060 A 
HETATM   30  C20 UNL     1     -14.896 -21.410  -1.001  1.00  0.00     0.013 A 
HETATM   31  C21 UNL     1     -16.011 -21.543  -2.013  1.00  0.00     0.013 A 
ENDBRANCH  26  29
ENDBRANCH  25  26
ENDBRANCH   2  20
TORSDOF 8
ENDMDL
MODEL 2
REMARK VINA RESULT: -6.923493402      1.668      4.063
REMARK  8 active torsions:
REMARK  status: ('A' for Active; 'I' for Inactive)
REMARK       I    between atoms: C1_2  and  N1_3 
REMARK    1  A    between atoms: C1_2  and  C13_20 
REMARK    2  A    between atoms: N1_3  and  C2_5 
REMARK    3  A    between atoms: C2_5  and  C3_6 
REMARK    4  A    between atoms: N2_11  and  S1_12 
REMARK    5  A    between atoms: S1_12  and  C8_15 
REMARK    6  A    between atoms: N3_25  and  C18_26 
REMARK    7  A    between atoms: C18_26  and  O4_27 
REMARK    8  A    between atoms: C18_26  and  C19_29 
ROOT
HETATM    1  O1  UNL     1     -14.543 -15.432  -4.517  1.00  0.00    -0.271 OA
HETATM    2  C1  UNL     1     -14.222 -16.622  -4.303  1.00  0.00     0.240 C 
HETATM    3  N1  UNL     1     -13.574 -17.395  -5.287  1.00  0.00    -0.357 N 
ATOM      4  H1  UNL     1     -13.349 -18.360  -5.043  1.00  0.00     0.162 HD
ENDROOT
BRANCH   3   5
HETATM    5  C2  UNL     1     -13.199 -16.951  -6.606  1.00  0.00     0.148 C 
BRANCH   5   6
HETATM    6  C3  UNL     1     -12.861 -18.081  -7.507  1.00  0.00     0.113 C 
HETATM    7  C4  UNL     1     -12.437 -19.334  -6.811  1.00  0.00     0.028 C 
HETATM    8  C5  UNL     1     -11.655 -20.154  -7.835  1.00  0.00     0.004 C 
HETATM    9  C6  UNL     1     -11.656 -19.549  -9.199  1.00  0.00     0.021 C 
HETATM   10  C7  UNL     1     -13.040 -19.092  -9.604  1.00  0.00     0.135 C 
HETATM   11  N2  UNL     1     -13.747 -18.377  -8.575  1.00  0.00    -0.304 N 
BRANCH  11  12
HETATM   12  S1  UNL     1     -15.331 -18.717  -8.330  1.00  0.00     0.233 S 
HETATM   13  O2  UNL     1     -15.463 -19.359  -6.937  1.00  0.00    -0.205 OA
HETATM   14  O3  UNL     1     -15.832 -19.839  -9.248  1.00  0.00    -0.205 OA
BRANCH  12  15
HETATM   15  C8  UNL     1     -16.569 -17.506  -8.400  1.00  0.00     0.129 C 
HETATM   16  C9  UNL     1     -16.810 -16.823  -9.693  1.00  0.00     0.022 C 
HETATM   17  C10 UNL     1     -17.445 -15.484  -9.326  1.00  0.00     0.001 C 
HETATM   18  C11 UNL     1     -16.948 -15.169  -7.937  1.00  0.00     0.001 C 
HETATM   19  C12 UNL     1     -16.577 -16.484  -7.293  1.00  0.00     0.022 C 
ENDBRANCH  12  15
ENDBRANCH  11  12
ENDBRANCH   5   6
ENDBRANCH   3   5
BRANCH   2  20
HETATM   20  C13 UNL     1     -14.531 -17.248  -2.973  1.00  0.00     0.178 C 
HETATM   21  C14 UNL     1     -15.124 -16.139  -2.077  1.00  0.00     0.035 C 
HETATM   22  C15 UNL     1     -16.089 -16.778  -1.118  1.00  0.00     0.004 C 
HETATM   23  C16 UNL     1     -17.346 -17.122  -1.916  1.00  0.00     0.020 C 
HETATM   24  C17 UNL     1     -16.930 -17.658  -3.274  1.00  0.00     0.125 C 
HETATM   25  N3  UNL     1     -15.559 -18.236  -3.153  1.00  0.00    -0.352 N 
BRANCH  25  26
HETATM   26  C18 UNL     1     -15.458 -19.626  -3.221  1.00  0.00     0.118 C 
BRANCH  26  27
HETATM   27  O4  UNL     1     -14.603 -20.050  -4.116  1.00  0.00    -0.349 OA
ATOM     28  H4  UNL     1     -13.879 -20.543  -3.750  1.00  0.00     0.219 HD
ENDBRANCH  26  27
BRANCH  26  29
HETATM   29  C19 UNL     1     -16.132 -20.676  -2.473  1.00  0.00     0.060 A 
HETATM   30  C20 UNL     1     -15.873 -20.697  -0.981  1.00  0.00     0.013 A 
HETATM   31  C21 UNL     1     -15.536 -21.870  -1.873  1.00  0.00     0.013 A 
ENDBRANCH  26  29
ENDBRANCH  25  26
ENDBRANCH   2  20
TORSDOF 8
ENDMDL
MODEL 3
REMARK VINA RESULT: -6.813652472      1.913      4.029
REMARK  8 active torsions:
REMARK  status: ('A' for Active; 'I' for Inactive)
REMARK       I    between atoms: C1_2  and  N1_3 
REMARK    1  A    between atoms: C1_2  and  C13_20 
REMARK    2  A    between atoms: N1_3  and  C2_5 
REMARK    3  A    between atoms: C2_5  and  C3_6 
REMARK    4  A    between atoms: N2_11  and  S1_12 
REMARK    5  A    between atoms: S1_12  and  C8_15 
REMARK    6  A    between atoms: N3_25  and  C18_26 
REMARK    7  A    between atoms: C18_26  and  O4_27 
REMARK    8  A    between atoms: C18_26  and  C19_29 
ROOT
HETATM    1  O1  UNL     1     -14.558 -15.277  -4.260  1.00  0.00    -0.271 OA
HETATM    2  C1  UNL     1     -14.498 -16.523  -4.176  1.00  0.00     0.240 C 
HETATM    3  N1  UNL     1     -14.257 -17.323  -5.311  1.00  0.00    -0.357 N 
ATOM      4  H1  UNL     1     -14.228 -18.333  -5.166  1.00  0.00     0.162 HD
ENDROOT
BRANCH   3   5
HETATM    5  C2  UNL     1     -14.049 -16.849  -6.656  1.00  0.00     0.148 C 
BRANCH   5   6
HETATM    6  C3  UNL     1     -13.510 -17.906  -7.549  1.00  0.00     0.113 C 
HETATM    7  C4  UNL     1     -13.112 -19.170  -6.857  1.00  0.00     0.028 C 
HETATM    8  C5  UNL     1     -12.138 -19.885  -7.792  1.00  0.00     0.004 C 
HETATM    9  C6  UNL     1     -11.980 -19.205  -9.111  1.00  0.00     0.021 C 
HETATM   10  C7  UNL     1     -13.317 -18.806  -9.695  1.00  0.00     0.135 C 
HETATM   11  N2  UNL     1     -14.211 -18.193  -8.749  1.00  0.00    -0.304 N 
BRANCH  11  12
HETATM   12  S1  UNL     1     -15.788 -18.636  -8.758  1.00  0.00     0.233 S 
HETATM   13  O2  UNL     1     -16.511 -17.821  -7.672  1.00  0.00    -0.205 OA
HETATM   14  O3  UNL     1     -15.989 -20.074  -8.264  1.00  0.00    -0.205 OA
BRANCH  12  15
HETATM   15  C8  UNL     1     -16.786 -18.513 -10.170  1.00  0.00     0.129 C 
HETATM   16  C9  UNL     1     -17.616 -17.297 -10.339  1.00  0.00     0.022 C 
HETATM   17  C10 UNL     1     -18.765 -17.719 -11.251  1.00  0.00     0.001 C 
HETATM   18  C11 UNL     1     -18.934 -19.201 -11.025  1.00  0.00     0.001 C 
HETATM   19  C12 UNL     1     -17.610 -19.724 -10.523  1.00  0.00     0.022 C 
ENDBRANCH  12  15
ENDBRANCH  11  12
ENDBRANCH   5   6
ENDBRANCH   3   5
BRANCH   2  20
HETATM   20  C13 UNL     1     -14.685 -17.188  -2.843  1.00  0.00     0.178 C 
HETATM   21  C14 UNL     1     -15.256 -16.124  -1.881  1.00  0.00     0.035 C 
HETATM   22  C15 UNL     1     -16.123 -16.823  -0.871  1.00  0.00     0.004 C 
HETATM   23  C16 UNL     1     -17.419 -17.203  -1.585  1.00  0.00     0.020 C 
HETATM   24  C17 UNL     1     -17.081 -17.692  -2.982  1.00  0.00     0.125 C 
HETATM   25  N3  UNL     1     -15.683 -18.215  -2.973  1.00  0.00    -0.352 N 
BRANCH  25  26
HETATM   26  C18 UNL     1     -15.531 -19.598  -3.080  1.00  0.00     0.118 C 
BRANCH  26  27
HETATM   27  O4  UNL     1     -14.663 -19.964  -3.987  1.00  0.00    -0.349 OA
ATOM     28  H4  UNL     1     -13.813 -19.551  -3.892  1.00  0.00     0.219 HD
ENDBRANCH  26  27
BRANCH  26  29
HETATM   29  C19 UNL     1     -16.166 -20.693  -2.363  1.00  0.00     0.060 A 
HETATM   30  C20 UNL     1     -15.823 -20.808  -0.893  1.00  0.00     0.013 A 
HETATM   31  C21 UNL     1     -15.541 -21.922  -1.874  1.00  0.00     0.013 A 
ENDBRANCH  26  29
ENDBRANCH  25  26
ENDBRANCH   2  20
TORSDOF 8
ENDMDL
MODEL 4
REMARK VINA RESULT: -6.720925217      1.802      3.812
REMARK  8 active torsions:
REMARK  status: ('A' for Active; 'I' for Inactive)
REMARK       I    between atoms: C1_2  and  N1_3 
REMARK    1  A    between atoms: C1_2  and  C13_20 
REMARK    2  A    between atoms: N1_3  and  C2_5 
REMARK    3  A    between atoms: C2_5  and  C3_6 
REMARK    4  A    between atoms: N2_11  and  S1_12 
REMARK    5  A    between atoms: S1_12  and  C8_15 
REMARK    6  A    between atoms: N3_25  and  C18_26 
REMARK    7  A    between atoms: C18_26  and  O4_27 
REMARK    8  A    between atoms: C18_26  and  C19_29 
ROOT
HETATM    1  O1  UNL     1     -14.631 -15.367  -4.312  1.00  0.00    -0.271 OA
HETATM    2  C1  UNL     1     -14.382 -16.584  -4.167  1.00  0.00     0.240 C 
HETATM    3  N1  UNL     1     -13.873 -17.359  -5.228  1.00  0.00    -0.357 N 
ATOM      4  H1  UNL     1     -13.701 -18.347  -5.036  1.00  0.00     0.162 HD
ENDROOT
BRANCH   3   5
HETATM    5  C2  UNL     1     -13.574 -16.889  -6.557  1.00  0.00     0.148 C 
BRANCH   5   6
HETATM    6  C3  UNL     1     -12.652 -17.799  -7.283  1.00  0.00     0.113 C 
HETATM    7  C4  UNL     1     -12.904 -19.256  -7.062  1.00  0.00     0.028 C 
HETATM    8  C5  UNL     1     -11.608 -19.978  -7.423  1.00  0.00     0.004 C 
HETATM    9  C6  UNL     1     -10.564 -19.072  -7.985  1.00  0.00     0.021 C 
HETATM   10  C7  UNL     1     -11.140 -18.140  -9.029  1.00  0.00     0.135 C 
HETATM   11  N2  UNL     1     -12.392 -17.539  -8.653  1.00  0.00    -0.304 N 
BRANCH  11  12
HETATM   12  S1  UNL     1     -13.587 -17.450  -9.770  1.00  0.00     0.233 S 
HETATM   13  O2  UNL     1     -13.136 -18.248 -11.005  1.00  0.00    -0.205 OA
HETATM   14  O3  UNL     1     -13.741 -16.035 -10.343  1.00  0.00    -0.205 OA
BRANCH  12  15
HETATM   15  C8  UNL     1     -15.208 -17.973  -9.449  1.00  0.00     0.129 C 
HETATM   16  C9  UNL     1     -15.626 -19.306  -9.943  1.00  0.00     0.022 C 
HETATM   17  C10 UNL     1     -17.145 -19.228 -10.067  1.00  0.00     0.001 C 
HETATM   18  C11 UNL     1     -17.457 -17.770 -10.297  1.00  0.00     0.001 C 
HETATM   19  C12 UNL     1     -16.306 -16.979  -9.724  1.00  0.00     0.022 C 
ENDBRANCH  12  15
ENDBRANCH  11  12
ENDBRANCH   5   6
ENDBRANCH   3   5
BRANCH   2  20
HETATM   20  C13 UNL     1     -14.628 -17.239  -2.839  1.00  0.00     0.178 C 
HETATM   21  C14 UNL     1     -15.216 -16.161  -1.903  1.00  0.00     0.035 C 
HETATM   22  C15 UNL     1     -16.131 -16.841  -0.922  1.00  0.00     0.004 C 
HETATM   23  C16 UNL     1     -17.406 -17.203  -1.682  1.00  0.00     0.020 C 
HETATM   24  C17 UNL     1     -17.026 -17.704  -3.063  1.00  0.00     0.125 C 
HETATM   25  N3  UNL     1     -15.638 -18.250  -3.001  1.00  0.00    -0.352 N 
BRANCH  25  26
HETATM   26  C18 UNL     1     -15.505 -19.636  -3.097  1.00  0.00     0.118 C 
BRANCH  26  27
HETATM   27  O4  UNL     1     -14.654 -20.022  -4.012  1.00  0.00    -0.349 OA
ATOM     28  H4  UNL     1     -14.870 -20.857  -4.408  1.00  0.00     0.219 HD
ENDBRANCH  26  27
BRANCH  26  29
HETATM   29  C19 UNL     1     -16.144 -20.716  -2.360  1.00  0.00     0.060 A 
HETATM   30  C20 UNL     1     -15.830 -20.784  -0.880  1.00  0.00     0.013 A 
HETATM   31  C21 UNL     1     -15.517 -21.923  -1.822  1.00  0.00     0.013 A 
ENDBRANCH  26  29
ENDBRANCH  25  26
ENDBRANCH   2  20
TORSDOF 8
ENDMDL
MODEL 5
REMARK VINA RESULT: -6.654818960      1.700      2.254
REMARK  8 active torsions:
REMARK  status: ('A' for Active; 'I' for Inactive)
REMARK       I    between atoms: C1_2  and  N1_3 
REMARK    1  A    between atoms: C1_2  and  C13_20 
REMARK    2  A    between atoms: N1_3  and  C2_5 
REMARK    3  A    between atoms: C2_5  and  C3_6 
REMARK    4  A    between atoms: N2_11  and  S1_12 
REMARK    5  A    between atoms: S1_12  and  C8_15 
REMARK    6  A    between atoms: N3_25  and  C18_26 
REMARK    7  A    between atoms: C18_26  and  O4_27 
REMARK    8  A    between atoms: C18_26  and  C19_29 
ROOT
HETATM    1  O1  UNL     1     -14.507 -19.653  -4.750  1.00  0.00    -0.271 OA
HETATM    2  C1  UNL     1     -15.136 -18.583  -4.601  1.00  0.00     0.240 C 
HETATM    3  N1  UNL     1     -16.028 -18.113  -5.586  1.00  0.00    -0.357 N 
ATOM      4  H1  UNL     1     -16.500 -17.229  -5.397  1.00  0.00     0.162 HD
ENDROOT
BRANCH   3   5
HETATM    5  C2  UNL     1     -16.336 -18.765  -6.834  1.00  0.00     0.148 C 
BRANCH   5   6
HETATM    6  C3  UNL     1     -16.380 -17.812  -7.972  1.00  0.00     0.113 C 
HETATM    7  C4  UNL     1     -16.452 -16.371  -7.581  1.00  0.00     0.028 C 
HETATM    8  C5  UNL     1     -17.007 -15.623  -8.792  1.00  0.00     0.004 C 
HETATM    9  C6  UNL     1     -17.183 -16.492  -9.992  1.00  0.00     0.021 C 
HETATM   10  C7  UNL     1     -15.972 -17.368 -10.228  1.00  0.00     0.135 C 
HETATM   11  N2  UNL     1     -15.462 -17.996  -9.038  1.00  0.00    -0.304 N 
BRANCH  11  12
HETATM   12  S1  UNL     1     -13.841 -18.030  -8.802  1.00  0.00     0.233 S 
HETATM   13  O2  UNL     1     -13.175 -18.317 -10.159  1.00  0.00    -0.205 OA
HETATM   14  O3  UNL     1     -13.401 -19.239  -7.967  1.00  0.00    -0.205 OA
BRANCH  12  15
HETATM   15  C8  UNL     1     -12.965 -16.692  -8.131  1.00  0.00     0.129 C 
HETATM   16  C9  UNL     1     -12.914 -16.555  -6.657  1.00  0.00     0.022 C 
HETATM   17  C10 UNL     1     -12.653 -15.074  -6.400  1.00  0.00     0.001 C 
HETATM   18  C11 UNL     1     -13.215 -14.353  -7.601  1.00  0.00     0.001 C 
HETATM   19  C12 UNL     1     -13.226 -15.340  -8.742  1.00  0.00     0.022 C 
ENDBRANCH  12  15
ENDBRANCH  11  12
ENDBRANCH   5   6
ENDBRANCH   3   5
BRANCH   2  20
HETATM   20  C13 UNL     1     -14.942 -17.775  -3.350  1.00  0.00     0.178 C 
HETATM   21  C14 UNL     1     -15.275 -16.308  -3.701  1.00  0.00     0.035 C 
HETATM   22  C15 UNL     1     -15.821 -15.644  -2.468  1.00  0.00     0.004 C 
HETATM   23  C16 UNL     1     -17.246 -16.161  -2.279  1.00  0.00     0.020 C 
HETATM   24  C17 UNL     1     -17.272 -17.646  -2.595  1.00  0.00     0.125 C 
HETATM   25  N3  UNL     1     -15.904 -18.200  -2.370  1.00  0.00    -0.352 N 
BRANCH  25  26
HETATM   26  C18 UNL     1     -15.740 -19.030  -1.261  1.00  0.00     0.118 C 
BRANCH  26  27
HETATM   27  O4  UNL     1     -15.175 -18.440  -0.239  1.00  0.00    -0.349 OA
ATOM     28  H4  UNL     1     -15.483 -18.754   0.603  1.00  0.00     0.219 HD
ENDBRANCH  26  27
BRANCH  26  29
HETATM   29  C19 UNL     1     -16.086 -20.427  -1.047  1.00  0.00     0.060 A 
HETATM   30  C20 UNL     1     -14.921 -21.388  -0.933  1.00  0.00     0.013 A 
HETATM   31  C21 UNL     1     -15.980 -21.530  -2.002  1.00  0.00     0.013 A 
ENDBRANCH  26  29
ENDBRANCH  25  26
ENDBRANCH   2  20
TORSDOF 8
ENDMDL
