MODEL 1
REMARK VINA RESULT: -6.444309673      0.000      0.000
REMARK  12 active torsions:
REMARK  status: ('A' for Active; 'I' for Inactive)
REMARK    1  A    between atoms: C2_2  and  C3_3 
REMARK    2  A    between atoms: C3_3  and  C4_4 
REMARK    3  A    between atoms: C4_4  and  C5_5 
REMARK    4  A    between atoms: C5_5  and  O2_7 
REMARK    5  A    between atoms: O2_7  and  C6_8 
REMARK    6  A    between atoms: C13_15  and  C14_16 
REMARK    7  A    between atoms: C13_15  and  C15_19 
REMARK    8  A    between atoms: C14_16  and  O3_17 
REMARK    9  A    between atoms: C15_19  and  O4_20 
REMARK   10  A    between atoms: C16_22  and  O5_23 
REMARK   11  A    between atoms: O5_23  and  C17_24 
REMARK   12  A    between atoms: C22_30  and  O7_32 
ROOT
HETATM    1  C6  UNL     1     -51.596  -1.179 -21.745  1.00  0.00     0.141 C 
HETATM    2  C7  UNL     1     -50.785  -1.246 -20.389  1.00  0.00     0.066 C 
HETATM    3  C8  UNL     1     -51.041  -2.590 -19.847  1.00  0.00    -0.085 C 
HETATM    4  C9  UNL     1     -50.930  -2.733 -18.345  1.00  0.00     0.043 C 
HETATM    5  C10 UNL     1     -51.346  -3.590 -20.578  1.00  0.00    -0.016 C 
HETATM    6  C11 UNL     1     -51.487  -3.567 -22.038  1.00  0.00     0.051 C 
HETATM    7  C12 UNL     1     -51.038  -2.230 -22.611  1.00  0.00     0.041 C 
HETATM    8  C13 UNL     1     -51.212  -2.169 -24.089  1.00  0.00     0.036 C 
HETATM    9  C16 UNL     1     -50.609  -3.390 -24.789  1.00  0.00     0.155 C 
HETATM   10  C19 UNL     1     -50.639  -4.652 -24.014  1.00  0.00     0.011 C 
HETATM   11  C20 UNL     1     -51.927  -5.426 -24.284  1.00  0.00     0.020 C 
HETATM   12  C21 UNL     1     -49.574  -5.640 -24.485  1.00  0.00     0.020 C 
HETATM   13  C22 UNL     1     -50.557  -4.610 -22.551  1.00  0.00     0.071 C 
HETATM   14  C23 UNL     1     -49.202  -4.477 -21.937  1.00  0.00     0.047 C 
ENDROOT
BRANCH   1  15
HETATM   15  O2  UNL     1     -51.699   0.120 -22.125  1.00  0.00    -0.315 OA
BRANCH  15  16
HETATM   16  C5  UNL     1     -52.869   0.865 -22.245  1.00  0.00     0.259 C 
HETATM   17  O1  UNL     1     -53.049   1.297 -23.405  1.00  0.00    -0.265 OA
BRANCH  16  18
HETATM   18  C4  UNL     1     -53.730   1.061 -21.083  1.00  0.00     0.111 C 
BRANCH  18  19
HETATM   19  C3  UNL     1     -53.276   2.106 -20.117  1.00  0.00     0.009 C 
BRANCH  19  20
HETATM   20  C2  UNL     1     -52.634   1.567 -18.864  1.00  0.00    -0.004 C 
HETATM   21  C1  UNL     1     -52.905   2.565 -17.753  1.00  0.00     0.005 C 
ENDBRANCH  19  20
ENDBRANCH  18  19
ENDBRANCH  16  18
ENDBRANCH  15  16
ENDBRANCH   1  15
BRANCH   8  22
HETATM   22  C14 UNL     1     -52.660  -1.970 -24.503  1.00  0.00     0.178 C 
BRANCH  22  23
HETATM   23  O3  UNL     1     -52.839  -2.207 -25.894  1.00  0.00    -0.400 OA
ATOM     24  H3  UNL     1     -52.828  -3.136 -26.092  1.00  0.00     0.209 HD
ENDBRANCH  22  23
ENDBRANCH   8  22
BRANCH   8  25
HETATM   25  C15 UNL     1     -50.463  -0.972 -24.631  1.00  0.00     0.178 C 
BRANCH  25  26
HETATM   26  O4  UNL     1     -51.238   0.015 -25.188  1.00  0.00    -0.400 OA
ATOM     27  H4  UNL     1     -50.766   0.716 -25.620  1.00  0.00     0.209 HD
ENDBRANCH  25  26
ENDBRANCH   8  25
BRANCH  13  28
HETATM   28  O7  UNL     1     -51.037  -5.847 -22.041  1.00  0.00    -0.389 OA
ATOM     29  H7  UNL     1     -51.684  -6.154 -22.665  1.00  0.00     0.210 HD
ENDBRANCH  13  28
BRANCH   9  30
HETATM   30  O5  UNL     1     -49.526  -3.094 -25.575  1.00  0.00    -0.315 OA
BRANCH  30  31
HETATM   31  C17 UNL     1     -49.230  -3.086 -26.858  1.00  0.00     0.255 C 
HETATM   32  C18 UNL     1     -47.930  -3.446 -27.422  1.00  0.00     0.126 C 
HETATM   33  O6  UNL     1     -50.172  -2.741 -27.551  1.00  0.00    -0.266 OA
ENDBRANCH  30  31
ENDBRANCH   9  30
TORSDOF 12
ENDMDL
MODEL 2
REMARK VINA RESULT: -6.159085763      1.905      4.363
REMARK  12 active torsions:
REMARK  status: ('A' for Active; 'I' for Inactive)
REMARK    1  A    between atoms: C2_2  and  C3_3 
REMARK    2  A    between atoms: C3_3  and  C4_4 
REMARK    3  A    between atoms: C4_4  and  C5_5 
REMARK    4  A    between atoms: C5_5  and  O2_7 
REMARK    5  A    between atoms: O2_7  and  C6_8 
REMARK    6  A    between atoms: C13_15  and  C14_16 
REMARK    7  A    between atoms: C13_15  and  C15_19 
REMARK    8  A    between atoms: C14_16  and  O3_17 
REMARK    9  A    between atoms: C15_19  and  O4_20 
REMARK   10  A    between atoms: C16_22  and  O5_23 
REMARK   11  A    between atoms: O5_23  and  C17_24 
REMARK   12  A    between atoms: C22_30  and  O7_32 
ROOT
HETATM    1  C6  UNL     1     -51.728  -1.675 -20.571  1.00  0.00     0.141 C 
HETATM    2  C7  UNL     1     -53.101  -0.898 -20.696  1.00  0.00     0.066 C 
HETATM    3  C8  UNL     1     -52.843   0.197 -21.646  1.00  0.00    -0.085 C 
HETATM    4  C9  UNL     1     -53.720   1.420 -21.502  1.00  0.00     0.043 C 
HETATM    5  C10 UNL     1     -51.937   0.144 -22.543  1.00  0.00    -0.016 C 
HETATM    6  C11 UNL     1     -51.028  -0.985 -22.769  1.00  0.00     0.051 C 
HETATM    7  C12 UNL     1     -51.419  -2.184 -21.916  1.00  0.00     0.041 C 
HETATM    8  C13 UNL     1     -50.484  -3.329 -22.099  1.00  0.00     0.036 C 
HETATM    9  C16 UNL     1     -50.256  -3.654 -23.577  1.00  0.00     0.155 C 
HETATM   10  C19 UNL     1     -50.328  -2.501 -24.505  1.00  0.00     0.011 C 
HETATM   11  C20 UNL     1     -48.956  -1.856 -24.677  1.00  0.00     0.020 C 
HETATM   12  C21 UNL     1     -50.653  -2.933 -25.933  1.00  0.00     0.020 C 
HETATM   13  C22 UNL     1     -51.209  -1.371 -24.195  1.00  0.00     0.071 C 
HETATM   14  C23 UNL     1     -52.656  -1.507 -24.540  1.00  0.00     0.047 C 
ENDROOT
BRANCH   1  15
HETATM   15  O2  UNL     1     -51.779  -2.467 -19.470  1.00  0.00    -0.315 OA
BRANCH  15  16
HETATM   16  C5  UNL     1     -50.948  -2.401 -18.354  1.00  0.00     0.259 C 
HETATM   17  O1  UNL     1     -50.959  -3.455 -17.680  1.00  0.00    -0.265 OA
BRANCH  16  18
HETATM   18  C4  UNL     1     -50.181  -1.187 -18.089  1.00  0.00     0.111 C 
BRANCH  18  19
HETATM   19  C3  UNL     1     -50.926  -0.099 -17.388  1.00  0.00     0.009 C 
BRANCH  19  20
HETATM   20  C2  UNL     1     -51.301   1.070 -18.264  1.00  0.00    -0.004 C 
HETATM   21  C1  UNL     1     -52.579   1.665 -17.699  1.00  0.00     0.005 C 
ENDBRANCH  19  20
ENDBRANCH  18  19
ENDBRANCH  16  18
ENDBRANCH  15  16
ENDBRANCH   1  15
BRANCH   8  22
HETATM   22  C14 UNL     1     -49.160  -3.128 -21.381  1.00  0.00     0.178 C 
BRANCH  22  23
HETATM   23  O3  UNL     1     -48.158  -4.002 -21.885  1.00  0.00    -0.400 OA
ATOM     24  H3  UNL     1     -48.257  -4.881 -21.537  1.00  0.00     0.209 HD
ENDBRANCH  22  23
ENDBRANCH   8  22
BRANCH   8  25
HETATM   25  C15 UNL     1     -51.093  -4.573 -21.493  1.00  0.00     0.178 C 
BRANCH  25  26
HETATM   26  O4  UNL     1     -50.469  -5.057 -20.369  1.00  0.00    -0.400 OA
ATOM     27  H4  UNL     1     -49.690  -4.588 -20.096  1.00  0.00     0.209 HD
ENDBRANCH  25  26
ENDBRANCH   8  25
BRANCH  13  28
HETATM   28  O7  UNL     1     -50.786  -0.251 -24.960  1.00  0.00    -0.389 OA
ATOM     29  H7  UNL     1     -51.565   0.083 -25.388  1.00  0.00     0.210 HD
ENDBRANCH  13  28
BRANCH   9  30
HETATM   30  O5  UNL     1     -50.760  -4.871 -23.957  1.00  0.00    -0.315 OA
BRANCH  30  31
HETATM   31  C17 UNL     1     -50.291  -6.055 -24.293  1.00  0.00     0.255 C 
HETATM   32  C18 UNL     1     -50.068  -7.163 -23.365  1.00  0.00     0.126 C 
HETATM   33  O6  UNL     1     -50.055  -6.141 -25.486  1.00  0.00    -0.266 OA
ENDBRANCH  30  31
ENDBRANCH   9  30
TORSDOF 12
ENDMDL
MODEL 3
REMARK VINA RESULT: -6.158011570      2.065      5.203
REMARK  12 active torsions:
REMARK  status: ('A' for Active; 'I' for Inactive)
REMARK    1  A    between atoms: C2_2  and  C3_3 
REMARK    2  A    between atoms: C3_3  and  C4_4 
REMARK    3  A    between atoms: C4_4  and  C5_5 
REMARK    4  A    between atoms: C5_5  and  O2_7 
REMARK    5  A    between atoms: O2_7  and  C6_8 
REMARK    6  A    between atoms: C13_15  and  C14_16 
REMARK    7  A    between atoms: C13_15  and  C15_19 
REMARK    8  A    between atoms: C14_16  and  O3_17 
REMARK    9  A    between atoms: C15_19  and  O4_20 
REMARK   10  A    between atoms: C16_22  and  O5_23 
REMARK   11  A    between atoms: O5_23  and  C17_24 
REMARK   12  A    between atoms: C22_30  and  O7_32 
ROOT
HETATM    1  C6  UNL     1     -52.101  -0.514 -23.842  1.00  0.00     0.141 C 
HETATM    2  C7  UNL     1     -52.394   0.949 -23.316  1.00  0.00     0.066 C 
HETATM    3  C8  UNL     1     -52.960   0.773 -21.969  1.00  0.00    -0.085 C 
HETATM    4  C9  UNL     1     -53.874   1.875 -21.483  1.00  0.00     0.043 C 
HETATM    5  C10 UNL     1     -52.714  -0.243 -21.236  1.00  0.00    -0.016 C 
HETATM    6  C11 UNL     1     -51.850  -1.370 -21.606  1.00  0.00     0.051 C 
HETATM    7  C12 UNL     1     -51.120  -1.097 -22.912  1.00  0.00     0.041 C 
HETATM    8  C13 UNL     1     -50.269  -2.246 -23.328  1.00  0.00     0.036 C 
HETATM    9  C16 UNL     1     -49.367  -2.734 -22.192  1.00  0.00     0.155 C 
HETATM   10  C19 UNL     1     -49.917  -2.576 -20.825  1.00  0.00     0.011 C 
HETATM   11  C20 UNL     1     -50.709  -3.812 -20.412  1.00  0.00     0.020 C 
HETATM   12  C21 UNL     1     -48.818  -2.538 -19.765  1.00  0.00     0.020 C 
HETATM   13  C22 UNL     1     -50.825  -1.464 -20.530  1.00  0.00     0.071 C 
HETATM   14  C23 UNL     1     -50.217  -0.130 -20.243  1.00  0.00     0.047 C 
ENDROOT
BRANCH   1  15
HETATM   15  O2  UNL     1     -51.911  -0.461 -25.185  1.00  0.00    -0.315 OA
BRANCH  15  16
HETATM   16  C5  UNL     1     -52.651  -1.127 -26.159  1.00  0.00     0.259 C 
HETATM   17  O1  UNL     1     -53.866  -1.208 -25.872  1.00  0.00    -0.265 OA
BRANCH  16  18
HETATM   18  C4  UNL     1     -51.987  -1.635 -27.356  1.00  0.00     0.111 C 
BRANCH  18  19
HETATM   19  C3  UNL     1     -52.459  -2.969 -27.833  1.00  0.00     0.009 C 
BRANCH  19  20
HETATM   20  C2  UNL     1     -51.712  -4.144 -27.253  1.00  0.00    -0.004 C 
HETATM   21  C1  UNL     1     -50.440  -4.315 -28.065  1.00  0.00     0.005 C 
ENDBRANCH  19  20
ENDBRANCH  18  19
ENDBRANCH  16  18
ENDBRANCH  15  16
ENDBRANCH   1  15
BRANCH   8  22
HETATM   22  C14 UNL     1     -51.075  -3.396 -23.907  1.00  0.00     0.178 C 
BRANCH  22  23
HETATM   23  O3  UNL     1     -50.354  -4.621 -23.842  1.00  0.00    -0.400 OA
ATOM     24  H3  UNL     1     -50.469  -5.046 -23.000  1.00  0.00     0.209 HD
ENDBRANCH  22  23
ENDBRANCH   8  22
BRANCH   8  25
HETATM   25  C15 UNL     1     -49.336  -1.804 -24.433  1.00  0.00     0.178 C 
BRANCH  25  26
HETATM   26  O4  UNL     1     -48.965  -2.778 -25.327  1.00  0.00    -0.400 OA
ATOM     27  H4  UNL     1     -48.243  -3.332 -25.057  1.00  0.00     0.209 HD
ENDBRANCH  25  26
ENDBRANCH   8  25
BRANCH  13  28
HETATM   28  O7  UNL     1     -51.536  -1.771 -19.338  1.00  0.00    -0.389 OA
ATOM     29  H7  UNL     1     -51.838  -2.666 -19.437  1.00  0.00     0.210 HD
ENDBRANCH  13  28
BRANCH   9  30
HETATM   30  O5  UNL     1     -48.031  -2.525 -22.421  1.00  0.00    -0.315 OA
BRANCH  30  31
HETATM   31  C17 UNL     1     -46.963  -3.253 -22.670  1.00  0.00     0.255 C 
HETATM   32  C18 UNL     1     -45.597  -2.898 -22.288  1.00  0.00     0.126 C 
HETATM   33  O6  UNL     1     -47.230  -4.283 -23.266  1.00  0.00    -0.266 OA
ENDBRANCH  30  31
ENDBRANCH   9  30
TORSDOF 12
ENDMDL
MODEL 4
REMARK VINA RESULT: -6.144457217      2.079      4.498
REMARK  12 active torsions:
REMARK  status: ('A' for Active; 'I' for Inactive)
REMARK    1  A    between atoms: C2_2  and  C3_3 
REMARK    2  A    between atoms: C3_3  and  C4_4 
REMARK    3  A    between atoms: C4_4  and  C5_5 
REMARK    4  A    between atoms: C5_5  and  O2_7 
REMARK    5  A    between atoms: O2_7  and  C6_8 
REMARK    6  A    between atoms: C13_15  and  C14_16 
REMARK    7  A    between atoms: C13_15  and  C15_19 
REMARK    8  A    between atoms: C14_16  and  O3_17 
REMARK    9  A    between atoms: C15_19  and  O4_20 
REMARK   10  A    between atoms: C16_22  and  O5_23 
REMARK   11  A    between atoms: O5_23  and  C17_24 
REMARK   12  A    between atoms: C22_30  and  O7_32 
ROOT
HETATM    1  C6  UNL     1     -51.526  -0.960 -20.387  1.00  0.00     0.141 C 
HETATM    2  C7  UNL     1     -52.971  -0.413 -20.730  1.00  0.00     0.066 C 
HETATM    3  C8  UNL     1     -52.810   0.361 -21.972  1.00  0.00    -0.085 C 
HETATM    4  C9  UNL     1     -53.816   1.466 -22.200  1.00  0.00     0.043 C 
HETATM    5  C10 UNL     1     -51.882   0.137 -22.818  1.00  0.00    -0.016 C 
HETATM    6  C11 UNL     1     -50.852  -0.900 -22.698  1.00  0.00     0.051 C 
HETATM    7  C12 UNL     1     -51.131  -1.817 -21.516  1.00  0.00     0.041 C 
HETATM    8  C13 UNL     1     -50.075  -2.853 -21.349  1.00  0.00     0.036 C 
HETATM    9  C16 UNL     1     -49.777  -3.587 -22.660  1.00  0.00     0.155 C 
HETATM   10  C19 UNL     1     -49.950  -2.786 -23.895  1.00  0.00     0.011 C 
HETATM   11  C20 UNL     1     -48.652  -2.077 -24.270  1.00  0.00     0.020 C 
HETATM   12  C21 UNL     1     -50.193  -3.666 -25.120  1.00  0.00     0.020 C 
HETATM   13  C22 UNL     1     -50.955  -1.719 -23.936  1.00  0.00     0.071 C 
HETATM   14  C23 UNL     1     -52.370  -2.112 -24.209  1.00  0.00     0.047 C 
ENDROOT
BRANCH   1  15
HETATM   15  O2  UNL     1     -51.518  -1.379 -19.097  1.00  0.00    -0.315 OA
BRANCH  15  16
HETATM   16  C5  UNL     1     -50.782  -0.835 -18.046  1.00  0.00     0.259 C 
HETATM   17  O1  UNL     1     -50.209  -1.707 -17.356  1.00  0.00    -0.265 OA
BRANCH  16  18
HETATM   18  C4  UNL     1     -50.744   0.612 -17.858  1.00  0.00     0.111 C 
BRANCH  18  19
HETATM   19  C3  UNL     1     -51.967   1.212 -17.247  1.00  0.00     0.009 C 
BRANCH  19  20
HETATM   20  C2  UNL     1     -52.730   2.143 -18.155  1.00  0.00    -0.004 C 
HETATM   21  C1  UNL     1     -53.122   3.356 -17.330  1.00  0.00     0.005 C 
ENDBRANCH  19  20
ENDBRANCH  18  19
ENDBRANCH  16  18
ENDBRANCH  15  16
ENDBRANCH   1  15
BRANCH   8  22
HETATM   22  C14 UNL     1     -48.798  -2.299 -20.740  1.00  0.00     0.178 C 
BRANCH  22  23
HETATM   23  O3  UNL     1     -47.708  -3.197 -20.912  1.00  0.00    -0.400 OA
ATOM     24  H3  UNL     1     -47.954  -4.087 -20.691  1.00  0.00     0.209 HD
ENDBRANCH  22  23
ENDBRANCH   8  22
BRANCH   8  25
HETATM   25  C15 UNL     1     -50.561  -3.913 -20.386  1.00  0.00     0.178 C 
BRANCH  25  26
HETATM   26  O4  UNL     1     -49.883  -3.992 -19.194  1.00  0.00    -0.400 OA
ATOM     27  H4  UNL     1     -50.369  -4.361 -18.467  1.00  0.00     0.209 HD
ENDBRANCH  25  26
ENDBRANCH   8  25
BRANCH  13  28
HETATM   28  O7  UNL     1     -50.637  -0.846 -25.011  1.00  0.00    -0.389 OA
ATOM     29  H7  UNL     1     -50.718  -1.365 -25.803  1.00  0.00     0.210 HD
ENDBRANCH  13  28
BRANCH   9  30
HETATM   30  O5  UNL     1     -50.138  -4.909 -22.645  1.00  0.00    -0.315 OA
BRANCH  30  31
HETATM   31  C17 UNL     1     -49.536  -6.080 -22.651  1.00  0.00     0.255 C 
HETATM   32  C18 UNL     1     -50.082  -7.301 -23.241  1.00  0.00     0.126 C 
HETATM   33  O6  UNL     1     -48.447  -6.047 -22.102  1.00  0.00    -0.266 OA
ENDBRANCH  30  31
ENDBRANCH   9  30
TORSDOF 12
ENDMDL
MODEL 5
REMARK VINA RESULT: -6.107195506      2.270      7.106
REMARK  12 active torsions:
REMARK  status: ('A' for Active; 'I' for Inactive)
REMARK    1  A    between atoms: C2_2  and  C3_3 
REMARK    2  A    between atoms: C3_3  and  C4_4 
REMARK    3  A    between atoms: C4_4  and  C5_5 
REMARK    4  A    between atoms: C5_5  and  O2_7 
REMARK    5  A    between atoms: O2_7  and  C6_8 
REMARK    6  A    between atoms: C13_15  and  C14_16 
REMARK    7  A    between atoms: C13_15  and  C15_19 
REMARK    8  A    between atoms: C14_16  and  O3_17 
REMARK    9  A    between atoms: C15_19  and  O4_20 
REMARK   10  A    between atoms: C16_22  and  O5_23 
REMARK   11  A    between atoms: O5_23  and  C17_24 
REMARK   12  A    between atoms: C22_30  and  O7_32 
ROOT
HETATM    1  C6  UNL     1     -50.324  -2.181 -22.488  1.00  0.00     0.141 C 
HETATM    2  C7  UNL     1     -49.778  -1.428 -23.768  1.00  0.00     0.066 C 
HETATM    3  C8  UNL     1     -50.961  -0.811 -24.390  1.00  0.00    -0.085 C 
HETATM    4  C9  UNL     1     -50.875  -0.568 -25.880  1.00  0.00     0.043 C 
HETATM    5  C10 UNL     1     -52.009  -0.495 -23.735  1.00  0.00    -0.016 C 
HETATM    6  C11 UNL     1     -52.203  -0.689 -22.295  1.00  0.00     0.051 C 
HETATM    7  C12 UNL     1     -50.917  -1.149 -21.624  1.00  0.00     0.041 C 
HETATM    8  C13 UNL     1     -51.102  -1.392 -20.167  1.00  0.00     0.036 C 
HETATM    9  C16 UNL     1     -51.790  -0.215 -19.470  1.00  0.00     0.155 C 
HETATM   10  C19 UNL     1     -52.753   0.546 -20.301  1.00  0.00     0.011 C 
HETATM   11  C20 UNL     1     -54.156  -0.041 -20.182  1.00  0.00     0.020 C 
HETATM   12  C21 UNL     1     -52.962   1.967 -19.780  1.00  0.00     0.020 C 
HETATM   13  C22 UNL     1     -52.540   0.654 -21.747  1.00  0.00     0.071 C 
HETATM   14  C23 UNL     1     -51.580   1.692 -22.230  1.00  0.00     0.047 C 
ENDROOT
BRANCH   1  15
HETATM   15  O2  UNL     1     -49.374  -3.052 -22.061  1.00  0.00    -0.315 OA
BRANCH  15  16
HETATM   16  C5  UNL     1     -49.436  -4.443 -22.107  1.00  0.00     0.259 C 
HETATM   17  O1  UNL     1     -49.348  -4.968 -20.975  1.00  0.00    -0.265 OA
BRANCH  16  18
HETATM   18  C4  UNL     1     -49.592  -5.123 -23.390  1.00  0.00     0.111 C 
BRANCH  18  19
HETATM   19  C3  UNL     1     -50.899  -5.817 -23.593  1.00  0.00     0.009 C 
BRANCH  19  20
HETATM   20  C2  UNL     1     -52.047  -4.904 -23.942  1.00  0.00    -0.004 C 
HETATM   21  C1  UNL     1     -51.752  -4.311 -25.309  1.00  0.00     0.005 C 
ENDBRANCH  19  20
ENDBRANCH  18  19
ENDBRANCH  16  18
ENDBRANCH  15  16
ENDBRANCH   1  15
BRANCH   8  22
HETATM   22  C14 UNL     1     -51.831  -2.692 -19.875  1.00  0.00     0.178 C 
BRANCH  22  23
HETATM   23  O3  UNL     1     -51.115  -3.492 -18.942  1.00  0.00    -0.400 OA
ATOM     24  H3  UNL     1     -50.828  -4.309 -19.333  1.00  0.00     0.209 HD
ENDBRANCH  22  23
ENDBRANCH   8  22
BRANCH   8  25
HETATM   25  C15 UNL     1     -49.748  -1.526 -19.506  1.00  0.00     0.178 C 
BRANCH  25  26
HETATM   26  O4  UNL     1     -48.755  -0.722 -20.011  1.00  0.00    -0.400 OA
ATOM     27  H4  UNL     1     -47.940  -1.159 -20.225  1.00  0.00     0.209 HD
ENDBRANCH  25  26
ENDBRANCH   8  25
BRANCH  13  28
HETATM   28  O7  UNL     1     -53.770   1.027 -22.353  1.00  0.00    -0.389 OA
ATOM     29  H7  UNL     1     -53.957   1.906 -22.047  1.00  0.00     0.210 HD
ENDBRANCH  13  28
BRANCH   9  30
HETATM   30  O5  UNL     1     -50.985   0.444 -18.577  1.00  0.00    -0.315 OA
BRANCH  30  31
HETATM   31  C17 UNL     1     -50.920   0.619 -17.274  1.00  0.00     0.255 C 
HETATM   32  C18 UNL     1     -49.684   0.661 -16.493  1.00  0.00     0.126 C 
HETATM   33  O6  UNL     1     -52.021   0.749 -16.766  1.00  0.00    -0.266 OA
ENDBRANCH  30  31
ENDBRANCH   9  30
TORSDOF 12
ENDMDL
