MODEL 1
REMARK VINA RESULT: -7.159440272      0.000      0.000
REMARK  9 active torsions:
REMARK  status: ('A' for Active; 'I' for Inactive)
REMARK    1  A    between atoms: C3_4  and  C4_5 
REMARK    2  A    between atoms: C4_5  and  O1_6 
REMARK    3  A    between atoms: O1_6  and  C5_7 
REMARK    4  A    between atoms: C5_7  and  C6_8 
REMARK    5  A    between atoms: C6_8  and  C7_9 
REMARK    6  A    between atoms: C7_9  and  C8_10 
REMARK    7  A    between atoms: C8_10  and  C9_11 
REMARK    8  A    between atoms: C9_11  and  C10_12 
REMARK    9  A    between atoms: C10_12  and  N2_13 
ROOT
HETATM    1  N1  UNL     1     -48.135  -1.646 -21.871  1.00  0.00    -0.182 NA
HETATM    2  C1  UNL     1     -48.265  -1.961 -22.965  1.00  0.00     0.152 C 
HETATM    3  C2  UNL     1     -48.430  -2.369 -24.297  1.00  0.00     0.015 C 
HETATM    4  C3  UNL     1     -48.567  -2.738 -25.431  1.00  0.00    -0.064 C 
ENDROOT
BRANCH   4   5
HETATM    5  C4  UNL     1     -48.743  -3.214 -26.824  1.00  0.00     0.271 C 
BRANCH   5   6
HETATM    6  O1  UNL     1     -49.630  -4.293 -26.816  1.00  0.00    -0.327 OA
BRANCH   6   7
HETATM    7  C5  UNL     1     -51.043  -4.027 -26.846  1.00  0.00     0.127 C 
HETATM    8  N5  UNL     1     -51.384  -3.261 -27.779  1.00  0.00    -0.277 N 
HETATM    9  C19 UNL     1     -52.556  -2.745 -28.196  1.00  0.00     0.183 C 
ATOM     10  H5  UNL     1     -50.594  -2.960 -28.350  1.00  0.00     0.180 HD
HETATM   11  N6  UNL     1     -53.549  -2.290 -28.580  1.00  0.00    -0.172 NA
BRANCH   7  12
HETATM   12  C6  UNL     1     -51.857  -4.677 -25.813  1.00  0.00     0.085 C 
BRANCH  12  13
HETATM   13  C7  UNL     1     -51.902  -4.025 -24.476  1.00  0.00     0.008 C 
BRANCH  13  14
HETATM   14  C8  UNL     1     -52.388  -2.614 -24.468  1.00  0.00     0.002 C 
BRANCH  14  15
HETATM   15  C9  UNL     1     -51.997  -1.860 -23.213  1.00  0.00     0.020 C 
BRANCH  15  16
HETATM   16  C10 UNL     1     -51.593  -0.438 -23.465  1.00  0.00     0.132 C 
BRANCH  16  17
HETATM   17  N2  UNL     1     -52.497   0.416 -22.727  1.00  0.00    -0.322 N 
HETATM   18  C11 UNL     1     -53.564   1.041 -23.240  1.00  0.00     0.179 A 
HETATM   19  S1  UNL     1     -54.100   1.004 -24.779  1.00  0.00    -0.040 SA
HETATM   20  N3  UNL     1     -54.127   1.725 -22.223  1.00  0.00    -0.331 N 
HETATM   21  C12 UNL     1     -53.418   1.534 -21.072  1.00  0.00     0.063 A 
ATOM     22  H3  UNL     1     -54.962   2.304 -22.303  1.00  0.00     0.168 HD
HETATM   23  C13 UNL     1     -53.589   2.005 -19.803  1.00  0.00     0.063 A 
HETATM   24  C18 UNL     1     -52.384   0.695 -21.419  1.00  0.00     0.065 A 
HETATM   25  C14 UNL     1     -52.707   1.656 -18.770  1.00  0.00     0.055 A 
HETATM   26  N4  UNL     1     -52.784   2.056 -17.516  1.00  0.00    -0.316 N 
HETATM   27  C16 UNL     1     -51.682   0.826 -19.111  1.00  0.00     0.039 A 
HETATM   28  C15 UNL     1     -51.858   1.626 -16.661  1.00  0.00     0.289 A 
ATOM     29  H4  UNL     1     -53.532   2.678 -17.209  1.00  0.00     0.170 HD
HETATM   30  O2  UNL     1     -51.768   1.907 -15.410  1.00  0.00    -0.260 OA
HETATM   31  S2  UNL     1     -50.857   0.642 -17.626  1.00  0.00    -0.027 SA
HETATM   32  C17 UNL     1     -51.510   0.343 -20.419  1.00  0.00     0.053 A 
ENDBRANCH  16  17
ENDBRANCH  15  16
ENDBRANCH  14  15
ENDBRANCH  13  14
ENDBRANCH  12  13
ENDBRANCH   7  12
ENDBRANCH   6   7
ENDBRANCH   5   6
ENDBRANCH   4   5
TORSDOF 9
ENDMDL
MODEL 2
REMARK VINA RESULT: -7.112581273      3.261      6.904
REMARK  9 active torsions:
REMARK  status: ('A' for Active; 'I' for Inactive)
REMARK    1  A    between atoms: C3_4  and  C4_5 
REMARK    2  A    between atoms: C4_5  and  O1_6 
REMARK    3  A    between atoms: O1_6  and  C5_7 
REMARK    4  A    between atoms: C5_7  and  C6_8 
REMARK    5  A    between atoms: C6_8  and  C7_9 
REMARK    6  A    between atoms: C7_9  and  C8_10 
REMARK    7  A    between atoms: C8_10  and  C9_11 
REMARK    8  A    between atoms: C9_11  and  C10_12 
REMARK    9  A    between atoms: C10_12  and  N2_13 
ROOT
HETATM    1  N1  UNL     1     -48.735  -2.648 -27.132  1.00  0.00    -0.182 NA
HETATM    2  C1  UNL     1     -48.632  -2.462 -26.005  1.00  0.00     0.152 C 
HETATM    3  C2  UNL     1     -48.485  -2.241 -24.628  1.00  0.00     0.015 C 
HETATM    4  C3  UNL     1     -48.343  -2.066 -23.449  1.00  0.00    -0.064 C 
ENDROOT
BRANCH   4   5
HETATM    5  C4  UNL     1     -48.145  -1.855 -21.995  1.00  0.00     0.271 C 
BRANCH   5   6
HETATM    6  O1  UNL     1     -48.348  -0.502 -21.711  1.00  0.00    -0.327 OA
BRANCH   6   7
HETATM    7  C5  UNL     1     -49.445  -0.130 -20.858  1.00  0.00     0.127 C 
HETATM    8  N5  UNL     1     -49.321  -0.546 -19.682  1.00  0.00    -0.277 N 
HETATM    9  C19 UNL     1     -50.065  -0.449 -18.563  1.00  0.00     0.183 C 
ATOM     10  H5  UNL     1     -48.462  -1.077 -19.539  1.00  0.00     0.180 HD
HETATM   11  N6  UNL     1     -50.682  -0.379 -17.586  1.00  0.00    -0.172 NA
BRANCH   7  12
HETATM   12  C6  UNL     1     -50.516   0.663 -21.473  1.00  0.00     0.085 C 
BRANCH  12  13
HETATM   13  C7  UNL     1     -51.521  -0.072 -22.287  1.00  0.00     0.008 C 
BRANCH  13  14
HETATM   14  C8  UNL     1     -51.981   0.628 -23.522  1.00  0.00     0.002 C 
BRANCH  14  15
HETATM   15  C9  UNL     1     -51.747  -0.180 -24.783  1.00  0.00     0.020 C 
BRANCH  15  16
HETATM   16  C10 UNL     1     -52.923  -1.018 -25.188  1.00  0.00     0.132 C 
BRANCH  16  17
HETATM   17  N2  UNL     1     -52.424  -2.312 -25.596  1.00  0.00    -0.322 N 
HETATM   18  C11 UNL     1     -52.359  -2.755 -26.858  1.00  0.00     0.179 A 
HETATM   19  S1  UNL     1     -52.817  -1.975 -28.215  1.00  0.00    -0.040 SA
HETATM   20  N3  UNL     1     -51.836  -3.996 -26.798  1.00  0.00    -0.331 N 
HETATM   21  C12 UNL     1     -51.569  -4.337 -25.504  1.00  0.00     0.063 A 
ATOM     22  H3  UNL     1     -51.664  -4.595 -27.605  1.00  0.00     0.168 HD
HETATM   23  C13 UNL     1     -51.045  -5.464 -24.944  1.00  0.00     0.063 A 
HETATM   24  C18 UNL     1     -51.953  -3.247 -24.756  1.00  0.00     0.065 A 
HETATM   25  C14 UNL     1     -50.865  -5.577 -23.558  1.00  0.00     0.055 A 
HETATM   26  N4  UNL     1     -50.368  -6.619 -22.921  1.00  0.00    -0.316 N 
HETATM   27  C16 UNL     1     -51.244  -4.499 -22.815  1.00  0.00     0.039 A 
HETATM   28  C15 UNL     1     -50.267  -6.555 -21.594  1.00  0.00     0.289 A 
ATOM     29  H4  UNL     1     -50.070  -7.451 -23.430  1.00  0.00     0.170 HD
HETATM   30  O2  UNL     1     -49.813  -7.464 -20.807  1.00  0.00    -0.260 OA
HETATM   31  S2  UNL     1     -50.878  -5.009 -21.225  1.00  0.00    -0.027 SA
HETATM   32  C17 UNL     1     -51.784  -3.339 -23.395  1.00  0.00     0.053 A 
ENDBRANCH  16  17
ENDBRANCH  15  16
ENDBRANCH  14  15
ENDBRANCH  13  14
ENDBRANCH  12  13
ENDBRANCH   7  12
ENDBRANCH   6   7
ENDBRANCH   5   6
ENDBRANCH   4   5
TORSDOF 9
ENDMDL
MODEL 3
REMARK VINA RESULT: -7.081265820      2.888      4.693
REMARK  9 active torsions:
REMARK  status: ('A' for Active; 'I' for Inactive)
REMARK    1  A    between atoms: C3_4  and  C4_5 
REMARK    2  A    between atoms: C4_5  and  O1_6 
REMARK    3  A    between atoms: O1_6  and  C5_7 
REMARK    4  A    between atoms: C5_7  and  C6_8 
REMARK    5  A    between atoms: C6_8  and  C7_9 
REMARK    6  A    between atoms: C7_9  and  C8_10 
REMARK    7  A    between atoms: C8_10  and  C9_11 
REMARK    8  A    between atoms: C9_11  and  C10_12 
REMARK    9  A    between atoms: C10_12  and  N2_13 
ROOT
HETATM    1  N1  UNL     1     -54.127  -0.040 -25.454  1.00  0.00    -0.182 NA
HETATM    2  C1  UNL     1     -53.552  -0.851 -26.024  1.00  0.00     0.152 C 
HETATM    3  C2  UNL     1     -52.867  -1.859 -26.718  1.00  0.00     0.015 C 
HETATM    4  C3  UNL     1     -52.292  -2.736 -27.302  1.00  0.00    -0.064 C 
ENDROOT
BRANCH   4   5
HETATM    5  C4  UNL     1     -51.601  -3.832 -28.023  1.00  0.00     0.271 C 
BRANCH   5   6
HETATM    6  O1  UNL     1     -50.270  -3.459 -28.228  1.00  0.00    -0.327 OA
BRANCH   6   7
HETATM    7  C5  UNL     1     -49.232  -4.212 -27.576  1.00  0.00     0.127 C 
HETATM    8  N5  UNL     1     -49.317  -5.447 -27.773  1.00  0.00    -0.277 N 
HETATM    9  C19 UNL     1     -48.597  -6.517 -27.384  1.00  0.00     0.183 C 
ATOM     10  H5  UNL     1     -50.111  -5.699 -28.362  1.00  0.00     0.180 HD
HETATM   11  N6  UNL     1     -47.995  -7.454 -27.069  1.00  0.00    -0.172 NA
BRANCH   7  12
HETATM   12  C6  UNL     1     -48.252  -3.444 -26.800  1.00  0.00     0.085 C 
BRANCH  12  13
HETATM   13  C7  UNL     1     -48.638  -2.066 -26.395  1.00  0.00     0.008 C 
BRANCH  13  14
HETATM   14  C8  UNL     1     -49.367  -1.960 -25.096  1.00  0.00     0.002 C 
BRANCH  14  15
HETATM   15  C9  UNL     1     -49.351  -3.249 -24.301  1.00  0.00     0.020 C 
BRANCH  15  16
HETATM   16  C10 UNL     1     -50.717  -3.808 -24.033  1.00  0.00     0.132 C 
BRANCH  16  17
HETATM   17  N2  UNL     1     -51.030  -3.562 -22.642  1.00  0.00    -0.322 N 
HETATM   18  C11 UNL     1     -50.829  -4.425 -21.638  1.00  0.00     0.179 A 
HETATM   19  S1  UNL     1     -50.205  -5.929 -21.723  1.00  0.00    -0.040 SA
HETATM   20  N3  UNL     1     -51.252  -3.807 -20.517  1.00  0.00    -0.331 N 
HETATM   21  C12 UNL     1     -51.718  -2.558 -20.811  1.00  0.00     0.063 A 
ATOM     22  H3  UNL     1     -51.229  -4.215 -19.583  1.00  0.00     0.168 HD
HETATM   23  C13 UNL     1     -52.240  -1.569 -20.030  1.00  0.00     0.063 A 
HETATM   24  C18 UNL     1     -51.566  -2.425 -22.172  1.00  0.00     0.065 A 
HETATM   25  C14 UNL     1     -52.655  -0.347 -20.577  1.00  0.00     0.055 A 
HETATM   26  N4  UNL     1     -53.170   0.668 -19.912  1.00  0.00    -0.316 N 
HETATM   27  C16 UNL     1     -52.506  -0.213 -21.926  1.00  0.00     0.039 A 
HETATM   28  C15 UNL     1     -53.512   1.759 -20.595  1.00  0.00     0.289 A 
ATOM     29  H4  UNL     1     -53.303   0.618 -18.902  1.00  0.00     0.170 HD
HETATM   30  O2  UNL     1     -54.025   2.839 -20.123  1.00  0.00    -0.260 OA
HETATM   31  S2  UNL     1     -53.107   1.363 -22.201  1.00  0.00    -0.027 SA
HETATM   32  C17 UNL     1     -51.967  -1.234 -22.727  1.00  0.00     0.053 A 
ENDBRANCH  16  17
ENDBRANCH  15  16
ENDBRANCH  14  15
ENDBRANCH  13  14
ENDBRANCH  12  13
ENDBRANCH   7  12
ENDBRANCH   6   7
ENDBRANCH   5   6
ENDBRANCH   4   5
TORSDOF 9
ENDMDL
MODEL 4
REMARK VINA RESULT: -7.071656203      2.892      8.019
REMARK  9 active torsions:
REMARK  status: ('A' for Active; 'I' for Inactive)
REMARK    1  A    between atoms: C3_4  and  C4_5 
REMARK    2  A    between atoms: C4_5  and  O1_6 
REMARK    3  A    between atoms: O1_6  and  C5_7 
REMARK    4  A    between atoms: C5_7  and  C6_8 
REMARK    5  A    between atoms: C6_8  and  C7_9 
REMARK    6  A    between atoms: C7_9  and  C8_10 
REMARK    7  A    between atoms: C8_10  and  C9_11 
REMARK    8  A    between atoms: C9_11  and  C10_12 
REMARK    9  A    between atoms: C10_12  and  N2_13 
ROOT
HETATM    1  N1  UNL     1     -53.251  -2.726 -28.634  1.00  0.00    -0.182 NA
HETATM    2  C1  UNL     1     -52.763  -2.173 -27.756  1.00  0.00     0.152 C 
HETATM    3  C2  UNL     1     -52.183  -1.506 -26.667  1.00  0.00     0.015 C 
HETATM    4  C3  UNL     1     -51.704  -0.936 -25.726  1.00  0.00    -0.064 C 
ENDROOT
BRANCH   4   5
HETATM    5  C4  UNL     1     -51.128  -0.243 -24.548  1.00  0.00     0.271 C 
BRANCH   5   6
HETATM    6  O1  UNL     1     -52.088   0.632 -24.033  1.00  0.00    -0.327 OA
BRANCH   6   7
HETATM    7  C5  UNL     1     -52.185   0.791 -22.607  1.00  0.00     0.127 C 
HETATM    8  N5  UNL     1     -53.019   1.662 -22.261  1.00  0.00    -0.277 N 
HETATM    9  C19 UNL     1     -53.444   2.144 -21.077  1.00  0.00     0.183 C 
ATOM     10  H5  UNL     1     -53.480   2.104 -23.056  1.00  0.00     0.180 HD
HETATM   11  N6  UNL     1     -53.831   2.575 -20.075  1.00  0.00    -0.172 NA
BRANCH   7  12
HETATM   12  C6  UNL     1     -51.320  -0.067 -21.789  1.00  0.00     0.085 C 
BRANCH  12  13
HETATM   13  C7  UNL     1     -50.200   0.592 -21.066  1.00  0.00     0.008 C 
BRANCH  13  14
HETATM   14  C8  UNL     1     -49.016  -0.275 -20.791  1.00  0.00     0.002 C 
BRANCH  14  15
HETATM   15  C9  UNL     1     -48.600  -1.105 -21.988  1.00  0.00     0.020 C 
BRANCH  15  16
HETATM   16  C10 UNL     1     -48.469  -2.569 -21.689  1.00  0.00     0.132 C 
BRANCH  16  17
HETATM   17  N2  UNL     1     -49.539  -3.258 -22.375  1.00  0.00    -0.322 N 
HETATM   18  C11 UNL     1     -50.684  -3.665 -21.814  1.00  0.00     0.179 A 
HETATM   19  S1  UNL     1     -51.150  -3.497 -20.261  1.00  0.00    -0.040 SA
HETATM   20  N3  UNL     1     -51.398  -4.256 -22.794  1.00  0.00    -0.331 N 
HETATM   21  C12 UNL     1     -50.707  -4.222 -23.971  1.00  0.00     0.063 A 
ATOM     22  H3  UNL     1     -52.322  -4.669 -22.673  1.00  0.00     0.168 HD
HETATM   23  C13 UNL     1     -51.004  -4.681 -25.220  1.00  0.00     0.063 A 
HETATM   24  C18 UNL     1     -49.524  -3.581 -23.678  1.00  0.00     0.065 A 
HETATM   25  C14 UNL     1     -50.111  -4.523 -26.289  1.00  0.00     0.055 A 
HETATM   26  N4  UNL     1     -50.303  -4.928 -27.529  1.00  0.00    -0.316 N 
HETATM   27  C16 UNL     1     -48.939  -3.888 -26.002  1.00  0.00     0.039 A 
HETATM   28  C15 UNL     1     -49.344  -4.695 -28.423  1.00  0.00     0.289 A 
ATOM     29  H4  UNL     1     -51.163  -5.408 -27.795  1.00  0.00     0.170 HD
HETATM   30  O2  UNL     1     -49.351  -5.013 -29.668  1.00  0.00    -0.260 OA
HETATM   31  S2  UNL     1     -48.147  -3.891 -27.516  1.00  0.00    -0.027 SA
HETATM   32  C17 UNL     1     -48.636  -3.417 -24.714  1.00  0.00     0.053 A 
ENDBRANCH  16  17
ENDBRANCH  15  16
ENDBRANCH  14  15
ENDBRANCH  13  14
ENDBRANCH  12  13
ENDBRANCH   7  12
ENDBRANCH   6   7
ENDBRANCH   5   6
ENDBRANCH   4   5
TORSDOF 9
ENDMDL
MODEL 5
REMARK VINA RESULT: -7.005471925      3.055      5.273
REMARK  9 active torsions:
REMARK  status: ('A' for Active; 'I' for Inactive)
REMARK    1  A    between atoms: C3_4  and  C4_5 
REMARK    2  A    between atoms: C4_5  and  O1_6 
REMARK    3  A    between atoms: O1_6  and  C5_7 
REMARK    4  A    between atoms: C5_7  and  C6_8 
REMARK    5  A    between atoms: C6_8  and  C7_9 
REMARK    6  A    between atoms: C7_9  and  C8_10 
REMARK    7  A    between atoms: C8_10  and  C9_11 
REMARK    8  A    between atoms: C9_11  and  C10_12 
REMARK    9  A    between atoms: C10_12  and  N2_13 
ROOT
HETATM    1  N1  UNL     1     -57.244   1.778 -26.009  1.00  0.00    -0.182 NA
HETATM    2  C1  UNL     1     -56.345   1.067 -25.993  1.00  0.00     0.152 C 
HETATM    3  C2  UNL     1     -55.261   0.178 -25.971  1.00  0.00     0.015 C 
HETATM    4  C3  UNL     1     -54.344  -0.597 -25.943  1.00  0.00    -0.064 C 
ENDROOT
BRANCH   4   5
HETATM    5  C4  UNL     1     -53.227  -1.571 -25.908  1.00  0.00     0.271 C 
BRANCH   5   6
HETATM    6  O1  UNL     1     -52.067  -0.934 -26.356  1.00  0.00    -0.327 OA
BRANCH   6   7
HETATM    7  C5  UNL     1     -50.977  -1.739 -26.838  1.00  0.00     0.127 C 
HETATM    8  N5  UNL     1     -51.349  -2.697 -27.556  1.00  0.00    -0.277 N 
HETATM    9  C19 UNL     1     -50.713  -3.687 -28.213  1.00  0.00     0.183 C 
ATOM     10  H5  UNL     1     -52.362  -2.736 -27.669  1.00  0.00     0.180 HD
HETATM   11  N6  UNL     1     -50.194  -4.545 -28.790  1.00  0.00    -0.172 NA
BRANCH   7  12
HETATM   12  C6  UNL     1     -49.628  -1.329 -26.433  1.00  0.00     0.085 C 
BRANCH  12  13
HETATM   13  C7  UNL     1     -48.717  -2.395 -25.936  1.00  0.00     0.008 C 
BRANCH  13  14
HETATM   14  C8  UNL     1     -48.415  -2.351 -24.475  1.00  0.00     0.002 C 
BRANCH  14  15
HETATM   15  C9  UNL     1     -48.632  -3.682 -23.785  1.00  0.00     0.020 C 
BRANCH  15  16
HETATM   16  C10 UNL     1     -50.063  -4.131 -23.779  1.00  0.00     0.132 C 
BRANCH  16  17
HETATM   17  N2  UNL     1     -50.612  -3.841 -22.473  1.00  0.00    -0.322 N 
HETATM   18  C11 UNL     1     -50.562  -4.657 -21.413  1.00  0.00     0.179 A 
HETATM   19  S1  UNL     1     -49.896  -6.142 -21.327  1.00  0.00    -0.040 SA
HETATM   20  N3  UNL     1     -51.183  -4.010 -20.407  1.00  0.00    -0.331 N 
HETATM   21  C12 UNL     1     -51.623  -2.788 -20.828  1.00  0.00     0.063 A 
ATOM     22  H3  UNL     1     -51.307  -4.380 -19.465  1.00  0.00     0.168 HD
HETATM   23  C13 UNL     1     -52.293  -1.787 -20.189  1.00  0.00     0.063 A 
HETATM   24  C18 UNL     1     -51.247  -2.704 -22.149  1.00  0.00     0.065 A 
HETATM   25  C14 UNL     1     -52.641  -0.601 -20.851  1.00  0.00     0.055 A 
HETATM   26  N4  UNL     1     -53.285   0.422 -20.326  1.00  0.00    -0.316 N 
HETATM   27  C16 UNL     1     -52.269  -0.514 -22.160  1.00  0.00     0.039 A 
HETATM   28  C15 UNL     1     -53.534   1.475 -21.103  1.00  0.00     0.289 A 
ATOM     29  H4  UNL     1     -53.585   0.408 -19.351  1.00  0.00     0.170 HD
HETATM   30  O2  UNL     1     -54.145   2.556 -20.772  1.00  0.00    -0.260 OA
HETATM   31  S2  UNL     1     -52.854   1.029 -22.600  1.00  0.00    -0.027 SA
HETATM   32  C17 UNL     1     -51.579  -1.548 -22.815  1.00  0.00     0.053 A 
ENDBRANCH  16  17
ENDBRANCH  15  16
ENDBRANCH  14  15
ENDBRANCH  13  14
ENDBRANCH  12  13
ENDBRANCH   7  12
ENDBRANCH   6   7
ENDBRANCH   5   6
ENDBRANCH   4   5
TORSDOF 9
ENDMDL
