MODEL 1
REMARK VINA RESULT: -8.146335455      0.000      0.000
REMARK  8 active torsions:
REMARK  status: ('A' for Active; 'I' for Inactive)
REMARK    1  A    between atoms: C4_5  and  C5_6 
REMARK       I    between atoms: C5_6  and  N2_8 
REMARK    2  A    between atoms: C6_10  and  C7_11 
REMARK    3  A    between atoms: C6_10  and  C14_20 
REMARK    4  A    between atoms: C7_11  and  C8_12 
REMARK    5  A    between atoms: C13_17  and  O2_18 
REMARK    6  A    between atoms: C14_20  and  C15_22 
REMARK    7  A    between atoms: C18_25  and  N3_26 
REMARK    8  A    between atoms: C19_29  and  C20_30 
ROOT
HETATM    1  C5  UNL     1     -51.367  -2.422 -20.985  1.00  0.00     0.256 C 
HETATM    2  O1  UNL     1     -51.882  -3.267 -20.185  1.00  0.00    -0.267 OA
HETATM    3  N2  UNL     1     -50.221  -2.762 -21.710  1.00  0.00    -0.323 N 
ATOM      4  H2  UNL     1     -49.315  -2.510 -21.315  1.00  0.00     0.169 HD
HETATM    5  C6  UNL     1     -50.235  -3.386 -22.870  1.00  0.00     0.069 C 
ENDROOT
BRANCH   5   6
HETATM    6  C7  UNL     1     -51.547  -3.724 -23.390  1.00  0.00     0.102 C 
BRANCH   6   7
HETATM    7  C8  UNL     1     -51.893  -3.187 -24.716  1.00  0.00    -0.019 A 
HETATM    8  C9  UNL     1     -52.135  -1.857 -24.992  1.00  0.00     0.010 A 
HETATM    9  C10 UNL     1     -52.432  -1.427 -26.265  1.00  0.00     0.001 A 
HETATM   10  C11 UNL     1     -52.502  -2.324 -27.334  1.00  0.00     0.003 A 
HETATM   11  C12 UNL     1     -52.260  -3.656 -27.058  1.00  0.00     0.037 A 
HETATM   12  C13 UNL     1     -51.962  -4.090 -25.786  1.00  0.00     0.072 A 
BRANCH  12  13
HETATM   13  O2  UNL     1     -51.732  -5.431 -25.581  1.00  0.00    -0.360 OA
ATOM     14  H2  UNL     1     -52.077  -5.865 -24.809  1.00  0.00     0.217 HD
ENDBRANCH  12  13
ENDBRANCH   6   7
ENDBRANCH   5   6
BRANCH   5  15
HETATM   15  C14 UNL     1     -48.942  -3.700 -23.430  1.00  0.00     0.221 C 
HETATM   16  O3  UNL     1     -47.899  -3.696 -22.660  1.00  0.00    -0.284 OA
BRANCH  15  17
HETATM   17  C15 UNL     1     -48.672  -4.029 -24.822  1.00  0.00     0.085 A 
HETATM   18  C16 UNL     1     -48.436  -3.012 -25.755  1.00  0.00     0.036 A 
HETATM   19  C17 UNL     1     -48.187  -3.279 -27.050  1.00  0.00     0.041 A 
HETATM   20  C18 UNL     1     -48.145  -4.606 -27.556  1.00  0.00     0.132 A 
HETATM   21  C19 UNL     1     -48.376  -5.574 -26.630  1.00  0.00     0.104 A 
HETATM   22  N4  UNL     1     -48.626  -5.256 -25.323  1.00  0.00    -0.349 N 
ATOM     23  H4  UNL     1     -48.791  -6.029 -24.679  1.00  0.00     0.166 HD
BRANCH  20  24
HETATM   24  N3  UNL     1     -47.867  -4.774 -28.929  1.00  0.00    -0.113 N 
HETATM   25  O4  UNL     1     -48.896  -4.735 -29.692  1.00  0.00    -0.532 OA
HETATM   26  O5  UNL     1     -46.706  -4.955 -29.584  1.00  0.00    -0.532 OA
ENDBRANCH  20  24
BRANCH  21  27
HETATM   27  C20 UNL     1     -48.333  -6.981 -26.971  1.00  0.00     0.290 C 
HETATM   28  O6  UNL     1     -48.809  -7.951 -26.408  1.00  0.00    -0.300 OA
ENDBRANCH  21  27
ENDBRANCH  15  17
ENDBRANCH   5  15
BRANCH   1  29
HETATM   29  C4  UNL     1     -52.039  -1.132 -21.079  1.00  0.00     0.032 A 
HETATM   30  C3  UNL     1     -53.175  -0.936 -20.333  1.00  0.00     0.019 A 
HETATM   31  C2  UNL     1     -53.861   0.267 -20.380  1.00  0.00     0.027 A 
HETATM   32  C1  UNL     1     -53.428   1.310 -21.177  1.00  0.00     0.046 A 
HETATM   33  N1  UNL     1     -54.142   2.532 -21.213  1.00  0.00    -0.102 NA
HETATM   34  C22 UNL     1     -52.281   1.098 -21.923  1.00  0.00     0.027 A 
HETATM   35  C21 UNL     1     -51.604  -0.111 -21.866  1.00  0.00     0.019 A 
ENDBRANCH   1  29
TORSDOF 8
ENDMDL
MODEL 2
REMARK VINA RESULT: -7.826540521      2.814      7.731
REMARK  8 active torsions:
REMARK  status: ('A' for Active; 'I' for Inactive)
REMARK    1  A    between atoms: C4_5  and  C5_6 
REMARK       I    between atoms: C5_6  and  N2_8 
REMARK    2  A    between atoms: C6_10  and  C7_11 
REMARK    3  A    between atoms: C6_10  and  C14_20 
REMARK    4  A    between atoms: C7_11  and  C8_12 
REMARK    5  A    between atoms: C13_17  and  O2_18 
REMARK    6  A    between atoms: C14_20  and  C15_22 
REMARK    7  A    between atoms: C18_25  and  N3_26 
REMARK    8  A    between atoms: C19_29  and  C20_30 
ROOT
HETATM    1  C5  UNL     1     -51.681  -3.149 -23.149  1.00  0.00     0.256 C 
HETATM    2  O1  UNL     1     -51.934  -4.234 -22.533  1.00  0.00    -0.267 OA
HETATM    3  N2  UNL     1     -51.116  -2.073 -22.457  1.00  0.00    -0.323 N 
ATOM      4  H2  UNL     1     -51.748  -1.372 -22.070  1.00  0.00     0.169 HD
HETATM    5  C6  UNL     1     -49.823  -1.907 -22.273  1.00  0.00     0.069 C 
ENDROOT
BRANCH   5   6
HETATM    6  C7  UNL     1     -48.966  -2.932 -22.841  1.00  0.00     0.102 C 
BRANCH   6   7
HETATM    7  C8  UNL     1     -48.751  -2.884 -24.296  1.00  0.00    -0.019 A 
HETATM    8  C9  UNL     1     -48.927  -1.767 -25.085  1.00  0.00     0.010 A 
HETATM    9  C10 UNL     1     -48.684  -1.793 -26.439  1.00  0.00     0.001 A 
HETATM   10  C11 UNL     1     -48.247  -2.960 -27.072  1.00  0.00     0.003 A 
HETATM   11  C12 UNL     1     -48.072  -4.080 -26.283  1.00  0.00     0.037 A 
HETATM   12  C13 UNL     1     -48.313  -4.057 -24.927  1.00  0.00     0.072 A 
BRANCH  12  13
HETATM   13  O2  UNL     1     -48.118  -5.208 -24.200  1.00  0.00    -0.360 OA
ATOM     14  H2  UNL     1     -47.300  -5.351 -23.738  1.00  0.00     0.217 HD
ENDBRANCH  12  13
ENDBRANCH   6   7
ENDBRANCH   5   6
BRANCH   5  15
HETATM   15  C14 UNL     1     -49.444  -0.762 -21.479  1.00  0.00     0.221 C 
HETATM   16  O3  UNL     1     -48.241  -0.290 -21.581  1.00  0.00    -0.284 OA
BRANCH  15  17
HETATM   17  C15 UNL     1     -50.299  -0.056 -20.537  1.00  0.00     0.085 A 
HETATM   18  C16 UNL     1     -50.033  -0.111 -19.163  1.00  0.00     0.036 A 
HETATM   19  C17 UNL     1     -50.805   0.526 -18.264  1.00  0.00     0.041 A 
HETATM   20  C18 UNL     1     -51.936   1.296 -18.645  1.00  0.00     0.132 A 
HETATM   21  C19 UNL     1     -52.170   1.335 -19.984  1.00  0.00     0.104 A 
HETATM   22  N4  UNL     1     -51.360   0.670 -20.862  1.00  0.00    -0.349 N 
ATOM     23  H4  UNL     1     -51.591   0.740 -21.853  1.00  0.00     0.166 HD
BRANCH  20  24
HETATM   24  N3  UNL     1     -52.671   1.929 -17.621  1.00  0.00    -0.113 N 
HETATM   25  O4  UNL     1     -52.978   1.171 -16.635  1.00  0.00    -0.532 OA
HETATM   26  O5  UNL     1     -53.098   3.199 -17.490  1.00  0.00    -0.532 OA
ENDBRANCH  20  24
BRANCH  21  27
HETATM   27  C20 UNL     1     -53.262   2.106 -20.544  1.00  0.00     0.290 C 
HETATM   28  O6  UNL     1     -54.283   1.747 -21.103  1.00  0.00    -0.300 OA
ENDBRANCH  21  27
ENDBRANCH  15  17
ENDBRANCH   5  15
BRANCH   1  29
HETATM   29  C4  UNL     1     -52.013  -3.122 -24.568  1.00  0.00     0.032 A 
HETATM   30  C3  UNL     1     -52.543  -1.967 -25.088  1.00  0.00     0.019 A 
HETATM   31  C2  UNL     1     -52.882  -1.879 -26.429  1.00  0.00     0.027 A 
HETATM   32  C1  UNL     1     -52.701  -2.947 -27.287  1.00  0.00     0.046 A 
HETATM   33  N1  UNL     1     -53.055  -2.838 -28.655  1.00  0.00    -0.102 NA
HETATM   34  C22 UNL     1     -52.167  -4.104 -26.748  1.00  0.00     0.027 A 
HETATM   35  C21 UNL     1     -51.831  -4.179 -25.405  1.00  0.00     0.019 A 
ENDBRANCH   1  29
TORSDOF 8
ENDMDL
MODEL 3
REMARK VINA RESULT: -7.768964864      2.630      7.651
REMARK  8 active torsions:
REMARK  status: ('A' for Active; 'I' for Inactive)
REMARK    1  A    between atoms: C4_5  and  C5_6 
REMARK       I    between atoms: C5_6  and  N2_8 
REMARK    2  A    between atoms: C6_10  and  C7_11 
REMARK    3  A    between atoms: C6_10  and  C14_20 
REMARK    4  A    between atoms: C7_11  and  C8_12 
REMARK    5  A    between atoms: C13_17  and  O2_18 
REMARK    6  A    between atoms: C14_20  and  C15_22 
REMARK    7  A    between atoms: C18_25  and  N3_26 
REMARK    8  A    between atoms: C19_29  and  C20_30 
ROOT
HETATM    1  C5  UNL     1     -50.293  -0.742 -25.903  1.00  0.00     0.256 C 
HETATM    2  O1  UNL     1     -50.312  -0.389 -27.126  1.00  0.00    -0.267 OA
HETATM    3  N2  UNL     1     -51.087  -0.064 -24.973  1.00  0.00    -0.323 N 
ATOM      4  H2  UNL     1     -50.664   0.710 -24.460  1.00  0.00     0.169 HD
HETATM    5  C6  UNL     1     -52.345  -0.358 -24.717  1.00  0.00     0.069 C 
ENDROOT
BRANCH   5   6
HETATM    6  C7  UNL     1     -52.902  -1.465 -25.473  1.00  0.00     0.102 C 
BRANCH   6   7
HETATM    7  C8  UNL     1     -52.493  -2.818 -25.067  1.00  0.00    -0.019 A 
HETATM    8  C9  UNL     1     -52.378  -3.251 -23.761  1.00  0.00     0.010 A 
HETATM    9  C10 UNL     1     -52.011  -4.542 -23.458  1.00  0.00     0.001 A 
HETATM   10  C11 UNL     1     -51.738  -5.471 -24.465  1.00  0.00     0.003 A 
HETATM   11  C12 UNL     1     -51.852  -5.039 -25.772  1.00  0.00     0.037 A 
HETATM   12  C13 UNL     1     -52.220  -3.748 -26.080  1.00  0.00     0.072 A 
BRANCH  12  13
HETATM   13  O2  UNL     1     -52.315  -3.383 -27.403  1.00  0.00    -0.360 OA
ATOM     14  H2  UNL     1     -52.538  -4.028 -28.064  1.00  0.00     0.217 HD
ENDBRANCH  12  13
ENDBRANCH   6   7
ENDBRANCH   5   6
BRANCH   5  15
HETATM   15  C14 UNL     1     -53.010   0.500 -23.765  1.00  0.00     0.221 C 
HETATM   16  O3  UNL     1     -53.928   1.315 -24.179  1.00  0.00    -0.284 OA
BRANCH  15  17
HETATM   17  C15 UNL     1     -52.746   0.553 -22.335  1.00  0.00     0.085 A 
HETATM   18  C16 UNL     1     -52.948   1.743 -21.624  1.00  0.00     0.036 A 
HETATM   19  C17 UNL     1     -52.711   1.830 -20.302  1.00  0.00     0.041 A 
HETATM   20  C18 UNL     1     -52.242   0.726 -19.541  1.00  0.00     0.132 A 
HETATM   21  C19 UNL     1     -52.056  -0.416 -20.255  1.00  0.00     0.104 A 
HETATM   22  N4  UNL     1     -52.309  -0.459 -21.598  1.00  0.00    -0.349 N 
ATOM     23  H4  UNL     1     -52.148  -1.346 -22.075  1.00  0.00     0.166 HD
BRANCH  20  24
HETATM   24  N3  UNL     1     -52.034   0.924 -18.160  1.00  0.00    -0.113 N 
HETATM   25  O4  UNL     1     -50.804   0.953 -17.803  1.00  0.00    -0.532 OA
HETATM   26  O5  UNL     1     -52.903   1.103 -17.148  1.00  0.00    -0.532 OA
ENDBRANCH  20  24
BRANCH  21  27
HETATM   27  C20 UNL     1     -51.616  -1.645 -19.625  1.00  0.00     0.290 C 
HETATM   28  O6  UNL     1     -52.068  -2.775 -19.686  1.00  0.00    -0.300 OA
ENDBRANCH  21  27
ENDBRANCH  15  17
ENDBRANCH   5  15
BRANCH   1  29
HETATM   29  C4  UNL     1     -49.418  -1.858 -25.569  1.00  0.00     0.032 A 
HETATM   30  C3  UNL     1     -49.099  -2.059 -24.248  1.00  0.00     0.019 A 
HETATM   31  C2  UNL     1     -48.269  -3.101 -23.865  1.00  0.00     0.027 A 
HETATM   32  C1  UNL     1     -47.734  -3.971 -24.795  1.00  0.00     0.046 A 
HETATM   33  N1  UNL     1     -46.887  -5.030 -24.385  1.00  0.00    -0.102 NA
HETATM   34  C22 UNL     1     -48.064  -3.756 -26.122  1.00  0.00     0.027 A 
HETATM   35  C21 UNL     1     -48.896  -2.710 -26.491  1.00  0.00     0.019 A 
ENDBRANCH   1  29
TORSDOF 8
ENDMDL
MODEL 4
REMARK VINA RESULT: -7.702614256      2.955      8.446
REMARK  8 active torsions:
REMARK  status: ('A' for Active; 'I' for Inactive)
REMARK    1  A    between atoms: C4_5  and  C5_6 
REMARK       I    between atoms: C5_6  and  N2_8 
REMARK    2  A    between atoms: C6_10  and  C7_11 
REMARK    3  A    between atoms: C6_10  and  C14_20 
REMARK    4  A    between atoms: C7_11  and  C8_12 
REMARK    5  A    between atoms: C13_17  and  O2_18 
REMARK    6  A    between atoms: C14_20  and  C15_22 
REMARK    7  A    between atoms: C18_25  and  N3_26 
REMARK    8  A    between atoms: C19_29  and  C20_30 
ROOT
HETATM    1  C5  UNL     1     -50.871  -1.347 -25.578  1.00  0.00     0.256 C 
HETATM    2  O1  UNL     1     -51.988  -0.922 -26.015  1.00  0.00    -0.267 OA
HETATM    3  N2  UNL     1     -50.351  -0.833 -24.386  1.00  0.00    -0.323 N 
ATOM      4  H2  UNL     1     -49.704  -0.047 -24.448  1.00  0.00     0.169 HD
HETATM    5  C6  UNL     1     -50.643  -1.298 -23.189  1.00  0.00     0.069 C 
ENDROOT
BRANCH   5   6
HETATM    6  C7  UNL     1     -51.569  -2.415 -23.153  1.00  0.00     0.102 C 
BRANCH   6   7
HETATM    7  C8  UNL     1     -51.008  -3.730 -22.803  1.00  0.00    -0.019 A 
HETATM    8  C9  UNL     1     -50.374  -4.579 -23.686  1.00  0.00     0.010 A 
HETATM    9  C10 UNL     1     -49.854  -5.786 -23.279  1.00  0.00     0.001 A 
HETATM   10  C11 UNL     1     -49.949  -6.203 -21.949  1.00  0.00     0.003 A 
HETATM   11  C12 UNL     1     -50.584  -5.353 -21.064  1.00  0.00     0.037 A 
HETATM   12  C13 UNL     1     -51.105  -4.144 -21.467  1.00  0.00     0.072 A 
BRANCH  12  13
HETATM   13  O2  UNL     1     -51.725  -3.346 -20.534  1.00  0.00    -0.360 OA
ATOM     14  H2  UNL     1     -51.701  -3.576 -19.613  1.00  0.00     0.217 HD
ENDBRANCH  12  13
ENDBRANCH   6   7
ENDBRANCH   5   6
BRANCH   5  15
HETATM   15  C14 UNL     1     -50.050  -0.591 -22.079  1.00  0.00     0.221 C 
HETATM   16  O3  UNL     1     -48.759  -0.530 -21.983  1.00  0.00    -0.284 OA
BRANCH  15  17
HETATM   17  C15 UNL     1     -50.773   0.084 -21.011  1.00  0.00     0.085 A 
HETATM   18  C16 UNL     1     -50.364  -0.060 -19.680  1.00  0.00     0.036 A 
HETATM   19  C17 UNL     1     -51.011   0.546 -18.668  1.00  0.00     0.041 A 
HETATM   20  C18 UNL     1     -52.149   1.369 -18.880  1.00  0.00     0.132 A 
HETATM   21  C19 UNL     1     -52.524   1.493 -20.181  1.00  0.00     0.104 A 
HETATM   22  N4  UNL     1     -51.837   0.858 -21.178  1.00  0.00    -0.349 N 
ATOM     23  H4  UNL     1     -52.170   0.992 -22.132  1.00  0.00     0.166 HD
BRANCH  20  24
HETATM   24  N3  UNL     1     -52.747   1.963 -17.749  1.00  0.00    -0.113 N 
HETATM   25  O4  UNL     1     -52.871   1.184 -16.738  1.00  0.00    -0.532 OA
HETATM   26  O5  UNL     1     -53.200   3.212 -17.537  1.00  0.00    -0.532 OA
ENDBRANCH  20  24
BRANCH  21  27
HETATM   27  C20 UNL     1     -53.642   2.326 -20.575  1.00  0.00     0.290 C 
HETATM   28  O6  UNL     1     -54.384   2.258 -21.539  1.00  0.00    -0.300 OA
ENDBRANCH  21  27
ENDBRANCH  15  17
ENDBRANCH   5  15
BRANCH   1  29
HETATM   29  C4  UNL     1     -50.208  -2.364 -26.385  1.00  0.00     0.032 A 
HETATM   30  C3  UNL     1     -50.991  -3.258 -27.074  1.00  0.00     0.019 A 
HETATM   31  C2  UNL     1     -50.422  -4.250 -27.857  1.00  0.00     0.027 A 
HETATM   32  C1  UNL     1     -49.050  -4.375 -27.972  1.00  0.00     0.046 A 
HETATM   33  N1  UNL     1     -48.486  -5.395 -28.776  1.00  0.00    -0.102 NA
HETATM   34  C22 UNL     1     -48.274  -3.467 -27.273  1.00  0.00     0.027 A 
HETATM   35  C21 UNL     1     -48.857  -2.479 -26.493  1.00  0.00     0.019 A 
ENDBRANCH   1  29
TORSDOF 8
ENDMDL
MODEL 5
REMARK VINA RESULT: -7.658225569      2.018      2.819
REMARK  8 active torsions:
REMARK  status: ('A' for Active; 'I' for Inactive)
REMARK    1  A    between atoms: C4_5  and  C5_6 
REMARK       I    between atoms: C5_6  and  N2_8 
REMARK    2  A    between atoms: C6_10  and  C7_11 
REMARK    3  A    between atoms: C6_10  and  C14_20 
REMARK    4  A    between atoms: C7_11  and  C8_12 
REMARK    5  A    between atoms: C13_17  and  O2_18 
REMARK    6  A    between atoms: C14_20  and  C15_22 
REMARK    7  A    between atoms: C18_25  and  N3_26 
REMARK    8  A    between atoms: C19_29  and  C20_30 
ROOT
HETATM    1  C5  UNL     1     -49.688  -0.754 -19.749  1.00  0.00     0.256 C 
HETATM    2  O1  UNL     1     -49.589  -1.132 -18.538  1.00  0.00    -0.267 OA
HETATM    3  N2  UNL     1     -48.766  -1.211 -20.696  1.00  0.00    -0.323 N 
ATOM      4  H2  UNL     1     -47.946  -0.633 -20.881  1.00  0.00     0.169 HD
HETATM    5  C6  UNL     1     -48.887  -2.340 -21.363  1.00  0.00     0.069 C 
ENDROOT
BRANCH   5   6
HETATM    6  C7  UNL     1     -50.069  -3.128 -21.064  1.00  0.00     0.102 C 
BRANCH   6   7
HETATM    7  C8  UNL     1     -50.875  -3.577 -22.210  1.00  0.00    -0.019 A 
HETATM    8  C9  UNL     1     -51.683  -2.763 -22.976  1.00  0.00     0.010 A 
HETATM    9  C10 UNL     1     -52.391  -3.252 -24.049  1.00  0.00     0.001 A 
HETATM   10  C11 UNL     1     -52.321  -4.600 -24.408  1.00  0.00     0.003 A 
HETATM   11  C12 UNL     1     -51.511  -5.417 -23.641  1.00  0.00     0.037 A 
HETATM   12  C13 UNL     1     -50.801  -4.931 -22.567  1.00  0.00     0.072 A 
BRANCH  12  13
HETATM   13  O2  UNL     1     -50.014  -5.799 -21.846  1.00  0.00    -0.360 OA
ATOM     14  H2  UNL     1     -49.719  -5.567 -20.973  1.00  0.00     0.217 HD
ENDBRANCH  12  13
ENDBRANCH   6   7
ENDBRANCH   5   6
BRANCH   5  15
HETATM   15  C14 UNL     1     -47.798  -2.664 -22.253  1.00  0.00     0.221 C 
HETATM   16  O3  UNL     1     -46.582  -2.628 -21.807  1.00  0.00    -0.284 OA
BRANCH  15  17
HETATM   17  C15 UNL     1     -47.922  -3.038 -23.655  1.00  0.00     0.085 A 
HETATM   18  C16 UNL     1     -47.429  -4.269 -24.103  1.00  0.00     0.036 A 
HETATM   19  C17 UNL     1     -47.524  -4.646 -25.392  1.00  0.00     0.041 A 
HETATM   20  C18 UNL     1     -48.128  -3.823 -26.380  1.00  0.00     0.132 A 
HETATM   21  C19 UNL     1     -48.599  -2.635 -25.917  1.00  0.00     0.104 A 
HETATM   22  N4  UNL     1     -48.480  -2.293 -24.599  1.00  0.00    -0.349 N 
ATOM     23  H4  UNL     1     -48.854  -1.387 -24.317  1.00  0.00     0.166 HD
BRANCH  20  24
HETATM   24  N3  UNL     1     -48.181  -4.318 -27.700  1.00  0.00    -0.113 N 
HETATM   25  O4  UNL     1     -49.048  -5.242 -27.891  1.00  0.00    -0.532 OA
HETATM   26  O5  UNL     1     -47.488  -3.981 -28.803  1.00  0.00    -0.532 OA
ENDBRANCH  20  24
BRANCH  21  27
HETATM   27  C20 UNL     1     -49.276  -1.694 -26.787  1.00  0.00     0.290 C 
HETATM   28  O6  UNL     1     -50.340  -1.779 -27.375  1.00  0.00    -0.300 OA
ENDBRANCH  21  27
ENDBRANCH  15  17
ENDBRANCH   5  15
BRANCH   1  29
HETATM   29  C4  UNL     1     -50.787   0.153 -20.053  1.00  0.00     0.032 A 
HETATM   30  C3  UNL     1     -51.591   0.567 -19.020  1.00  0.00     0.019 A 
HETATM   31  C2  UNL     1     -52.655   1.428 -19.245  1.00  0.00     0.027 A 
HETATM   32  C1  UNL     1     -52.943   1.896 -20.512  1.00  0.00     0.046 A 
HETATM   33  N1  UNL     1     -54.035   2.774 -20.722  1.00  0.00    -0.102 NA
HETATM   34  C22 UNL     1     -52.125   1.470 -21.543  1.00  0.00     0.027 A 
HETATM   35  C21 UNL     1     -51.064   0.610 -21.304  1.00  0.00     0.019 A 
ENDBRANCH   1  29
TORSDOF 8
ENDMDL
