MODEL 1
REMARK VINA RESULT: -7.456612539      0.000      0.000
REMARK  8 active torsions:
REMARK  status: ('A' for Active; 'I' for Inactive)
REMARK    1  A    between atoms: O1_2  and  C2_3 
REMARK    2  A    between atoms: N1_5  and  C4_6 
REMARK    3  A    between atoms: C4_6  and  C5_7 
REMARK    4  A    between atoms: C5_7  and  S1_8 
REMARK    5  A    between atoms: S1_8  and  C6_9 
REMARK    6  A    between atoms: C7_14  and  C8_15 
REMARK    7  A    between atoms: C10_17  and  O2_18 
REMARK    8  A    between atoms: N4_20  and  C11_21 
ROOT
HETATM    1  C6  UNL     1     -53.944  -0.418 -22.249  1.00  0.00     0.203 A 
HETATM    2  N2  UNL     1     -52.800  -0.477 -21.530  1.00  0.00    -0.272 N 
ATOM      3  H2  UNL     1     -52.521   0.150 -20.776  1.00  0.00     0.189 HD
HETATM    4  N3  UNL     1     -52.115  -1.508 -21.996  1.00  0.00    -0.277 N 
ATOM      5  H3  UNL     1     -51.203  -1.806 -21.649  1.00  0.00     0.189 HD
HETATM    6  C7  UNL     1     -52.790  -2.106 -22.992  1.00  0.00     0.177 A 
HETATM    7  O3  UNL     1     -53.897  -1.399 -23.102  1.00  0.00    -0.267 OA
ENDROOT
BRANCH   6   8
HETATM    8  C8  UNL     1     -52.385  -3.269 -23.767  1.00  0.00     0.043 A 
HETATM    9  C9  UNL     1     -52.827  -4.564 -23.627  1.00  0.00     0.074 A 
HETATM   10  C10 UNL     1     -52.196  -5.382 -24.556  1.00  0.00     0.143 A 
HETATM   11  N4  UNL     1     -51.370  -4.581 -25.263  1.00  0.00    -0.326 N 
HETATM   12  C17 UNL     1     -51.475  -3.300 -24.794  1.00  0.00     0.025 A 
HETATM   13  C18 UNL     1     -50.711  -2.133 -25.329  1.00  0.00     0.069 C 
BRANCH  10  14
HETATM   14  O2  UNL     1     -52.392  -6.763 -24.715  1.00  0.00    -0.346 OA
ATOM     15  H2  UNL     1     -51.730  -7.439 -24.626  1.00  0.00     0.219 HD
ENDBRANCH  10  14
BRANCH  11  16
HETATM   16  C11 UNL     1     -50.503  -4.980 -26.344  1.00  0.00     0.092 C 
HETATM   17  C12 UNL     1     -51.234  -5.099 -27.649  1.00  0.00     0.026 C 
HETATM   18  C13 UNL     1     -50.149  -5.220 -28.731  1.00  0.00     0.002 C 
HETATM   19  C14 UNL     1     -49.471  -6.568 -28.550  1.00  0.00     0.000 C 
HETATM   20  C15 UNL     1     -49.875  -7.234 -27.245  1.00  0.00     0.002 C 
HETATM   21  C16 UNL     1     -49.791  -6.281 -26.084  1.00  0.00     0.026 C 
ENDBRANCH  11  16
ENDBRANCH   6   8
BRANCH   1  22
HETATM   22  S1  UNL     1     -55.266   0.799 -22.046  1.00  0.00    -0.083 SA
BRANCH  22  23
HETATM   23  C5  UNL     1     -55.583   1.556 -23.689  1.00  0.00     0.102 C 
BRANCH  23  24
HETATM   24  C4  UNL     1     -54.280   1.376 -24.463  1.00  0.00     0.127 C 
BRANCH  24  25
HETATM   25  N1  UNL     1     -54.571   0.924 -25.780  1.00  0.00    -0.405 N 
HETATM   26  C3  UNL     1     -53.751  -0.132 -26.269  1.00  0.00     0.177 C 
HETATM   27  C2  UNL     1     -54.633  -1.284 -26.692  1.00  0.00     0.276 C 
HETATM   28  O4  UNL     1     -55.557  -0.945 -27.665  1.00  0.00    -0.358 OA
HETATM   29  C20 UNL     1     -56.221   0.234 -27.452  1.00  0.00     0.190 C 
HETATM   30  C19 UNL     1     -55.958   0.839 -26.093  1.00  0.00     0.143 C 
BRANCH  27  31
HETATM   31  O1  UNL     1     -53.821  -2.284 -27.221  1.00  0.00    -0.364 OA
HETATM   32  C1  UNL     1     -53.065  -1.767 -28.272  1.00  0.00     0.204 C 
ENDBRANCH  27  31
ENDBRANCH  24  25
ENDBRANCH  23  24
ENDBRANCH  22  23
ENDBRANCH   1  22
TORSDOF 8
ENDMDL
MODEL 2
REMARK VINA RESULT: -7.429926383      2.661      6.567
REMARK  8 active torsions:
REMARK  status: ('A' for Active; 'I' for Inactive)
REMARK    1  A    between atoms: O1_2  and  C2_3 
REMARK    2  A    between atoms: N1_5  and  C4_6 
REMARK    3  A    between atoms: C4_6  and  C5_7 
REMARK    4  A    between atoms: C5_7  and  S1_8 
REMARK    5  A    between atoms: S1_8  and  C6_9 
REMARK    6  A    between atoms: C7_14  and  C8_15 
REMARK    7  A    between atoms: C10_17  and  O2_18 
REMARK    8  A    between atoms: N4_20  and  C11_21 
ROOT
HETATM    1  C6  UNL     1     -51.153  -6.437 -24.816  1.00  0.00     0.203 A 
HETATM    2  N2  UNL     1     -51.512  -7.180 -23.745  1.00  0.00    -0.272 N 
ATOM      3  H2  UNL     1     -51.419  -8.190 -23.645  1.00  0.00     0.189 HD
HETATM    4  N3  UNL     1     -52.008  -6.339 -22.853  1.00  0.00    -0.277 N 
ATOM      5  H3  UNL     1     -52.364  -6.607 -21.935  1.00  0.00     0.189 HD
HETATM    6  C7  UNL     1     -51.974  -5.082 -23.326  1.00  0.00     0.177 A 
HETATM    7  O3  UNL     1     -51.444  -5.203 -24.527  1.00  0.00    -0.267 OA
ENDROOT
BRANCH   6   8
HETATM    8  C8  UNL     1     -52.424  -3.869 -22.659  1.00  0.00     0.043 A 
HETATM    9  C9  UNL     1     -52.309  -3.556 -21.325  1.00  0.00     0.074 A 
HETATM   10  C10 UNL     1     -52.865  -2.306 -21.083  1.00  0.00     0.143 A 
HETATM   11  N4  UNL     1     -53.317  -1.859 -22.274  1.00  0.00    -0.326 N 
HETATM   12  C17 UNL     1     -53.057  -2.797 -23.236  1.00  0.00     0.025 A 
HETATM   13  C18 UNL     1     -53.414  -2.657 -24.680  1.00  0.00     0.069 C 
BRANCH  10  14
HETATM   14  O2  UNL     1     -52.933  -1.653 -19.842  1.00  0.00    -0.346 OA
ATOM     15  H2  UNL     1     -53.273  -0.779 -19.684  1.00  0.00     0.219 HD
ENDBRANCH  10  14
BRANCH  11  16
HETATM   16  C11 UNL     1     -53.975  -0.601 -22.527  1.00  0.00     0.092 C 
HETATM   17  C12 UNL     1     -53.017   0.555 -22.531  1.00  0.00     0.026 C 
HETATM   18  C13 UNL     1     -53.795   1.747 -23.108  1.00  0.00     0.002 C 
HETATM   19  C14 UNL     1     -54.856   2.136 -22.093  1.00  0.00     0.000 C 
HETATM   20  C15 UNL     1     -54.989   1.100 -20.989  1.00  0.00     0.002 C 
HETATM   21  C16 UNL     1     -55.073  -0.297 -21.542  1.00  0.00     0.026 C 
ENDBRANCH  11  16
ENDBRANCH   6   8
BRANCH   1  22
HETATM   22  S1  UNL     1     -50.414  -7.062 -26.345  1.00  0.00    -0.083 SA
BRANCH  22  23
HETATM   23  C5  UNL     1     -50.360  -5.673 -27.544  1.00  0.00     0.102 C 
BRANCH  23  24
HETATM   24  C4  UNL     1     -51.804  -5.187 -27.651  1.00  0.00     0.127 C 
BRANCH  24  25
HETATM   25  N1  UNL     1     -51.836  -3.955 -28.361  1.00  0.00    -0.405 N 
HETATM   26  C3  UNL     1     -53.131  -3.460 -28.684  1.00  0.00     0.177 C 
HETATM   27  C2  UNL     1     -53.274  -2.061 -28.130  1.00  0.00     0.276 C 
HETATM   28  O4  UNL     1     -52.322  -1.176 -28.607  1.00  0.00    -0.358 OA
HETATM   29  C20 UNL     1     -51.039  -1.655 -28.623  1.00  0.00     0.190 C 
HETATM   30  C19 UNL     1     -50.883  -2.988 -27.930  1.00  0.00     0.143 C 
BRANCH  27  31
HETATM   31  O1  UNL     1     -54.522  -1.569 -28.504  1.00  0.00    -0.364 OA
HETATM   32  C1  UNL     1     -55.083  -0.859 -27.442  1.00  0.00     0.204 C 
ENDBRANCH  27  31
ENDBRANCH  24  25
ENDBRANCH  23  24
ENDBRANCH  22  23
ENDBRANCH   1  22
TORSDOF 8
ENDMDL
MODEL 3
REMARK VINA RESULT: -7.304422731      4.979      8.855
REMARK  8 active torsions:
REMARK  status: ('A' for Active; 'I' for Inactive)
REMARK    1  A    between atoms: O1_2  and  C2_3 
REMARK    2  A    between atoms: N1_5  and  C4_6 
REMARK    3  A    between atoms: C4_6  and  C5_7 
REMARK    4  A    between atoms: C5_7  and  S1_8 
REMARK    5  A    between atoms: S1_8  and  C6_9 
REMARK    6  A    between atoms: C7_14  and  C8_15 
REMARK    7  A    between atoms: C10_17  and  O2_18 
REMARK    8  A    between atoms: N4_20  and  C11_21 
ROOT
HETATM    1  C6  UNL     1     -49.762  -6.355 -28.420  1.00  0.00     0.203 A 
HETATM    2  N2  UNL     1     -50.507  -7.134 -27.603  1.00  0.00    -0.272 N 
ATOM      3  H2  UNL     1     -50.389  -8.133 -27.440  1.00  0.00     0.189 HD
HETATM    4  N3  UNL     1     -51.418  -6.345 -27.058  1.00  0.00    -0.277 N 
ATOM      5  H3  UNL     1     -52.128  -6.650 -26.392  1.00  0.00     0.189 HD
HETATM    6  C7  UNL     1     -51.274  -5.086 -27.504  1.00  0.00     0.177 A 
HETATM    7  O3  UNL     1     -50.250  -5.152 -28.331  1.00  0.00    -0.267 OA
ENDROOT
BRANCH   6   8
HETATM    8  C8  UNL     1     -52.071  -3.922 -27.151  1.00  0.00     0.043 A 
HETATM    9  C9  UNL     1     -53.248  -3.507 -27.730  1.00  0.00     0.074 A 
HETATM   10  C10 UNL     1     -53.697  -2.347 -27.111  1.00  0.00     0.143 A 
HETATM   11  N4  UNL     1     -52.790  -2.058 -26.153  1.00  0.00    -0.326 N 
HETATM   12  C17 UNL     1     -51.801  -3.003 -26.168  1.00  0.00     0.025 A 
HETATM   13  C18 UNL     1     -50.621  -3.016 -25.251  1.00  0.00     0.069 C 
BRANCH  10  14
HETATM   14  O2  UNL     1     -54.863  -1.632 -27.429  1.00  0.00    -0.346 OA
ATOM     15  H2  UNL     1     -55.484  -1.266 -26.811  1.00  0.00     0.219 HD
ENDBRANCH  10  14
BRANCH  11  16
HETATM   16  C11 UNL     1     -52.827  -0.939 -25.243  1.00  0.00     0.092 C 
HETATM   17  C12 UNL     1     -53.664  -1.217 -24.029  1.00  0.00     0.026 C 
HETATM   18  C13 UNL     1     -53.359  -0.084 -23.037  1.00  0.00     0.002 C 
HETATM   19  C14 UNL     1     -53.938   1.197 -23.613  1.00  0.00     0.000 C 
HETATM   20  C15 UNL     1     -54.383   1.018 -25.055  1.00  0.00     0.002 C 
HETATM   21  C16 UNL     1     -53.332   0.328 -25.882  1.00  0.00     0.026 C 
ENDBRANCH  11  16
ENDBRANCH   6   8
BRANCH   1  22
HETATM   22  S1  UNL     1     -48.365  -6.902 -29.429  1.00  0.00    -0.083 SA
BRANCH  22  23
HETATM   23  C5  UNL     1     -48.436  -5.987 -31.020  1.00  0.00     0.102 C 
BRANCH  23  24
HETATM   24  C4  UNL     1     -48.961  -7.000 -32.034  1.00  0.00     0.127 C 
BRANCH  24  25
HETATM   25  N1  UNL     1     -49.107  -6.369 -33.300  1.00  0.00    -0.405 N 
HETATM   26  C3  UNL     1     -49.068  -4.945 -33.291  1.00  0.00     0.177 C 
HETATM   27  C2  UNL     1     -47.985  -4.477 -34.236  1.00  0.00     0.276 C 
HETATM   28  O4  UNL     1     -48.161  -4.914 -35.538  1.00  0.00    -0.358 OA
HETATM   29  C20 UNL     1     -48.501  -6.234 -35.669  1.00  0.00     0.190 C 
HETATM   30  C19 UNL     1     -48.424  -7.009 -34.374  1.00  0.00     0.143 C 
BRANCH  27  31
HETATM   31  O1  UNL     1     -47.998  -3.085 -34.260  1.00  0.00    -0.364 OA
HETATM   32  C1  UNL     1     -47.462  -2.632 -35.465  1.00  0.00     0.204 C 
ENDBRANCH  27  31
ENDBRANCH  24  25
ENDBRANCH  23  24
ENDBRANCH  22  23
ENDBRANCH   1  22
TORSDOF 8
ENDMDL
MODEL 4
REMARK VINA RESULT: -7.249610083      2.055      4.535
REMARK  8 active torsions:
REMARK  status: ('A' for Active; 'I' for Inactive)
REMARK    1  A    between atoms: O1_2  and  C2_3 
REMARK    2  A    between atoms: N1_5  and  C4_6 
REMARK    3  A    between atoms: C4_6  and  C5_7 
REMARK    4  A    between atoms: C5_7  and  S1_8 
REMARK    5  A    between atoms: S1_8  and  C6_9 
REMARK    6  A    between atoms: C7_14  and  C8_15 
REMARK    7  A    between atoms: C10_17  and  O2_18 
REMARK    8  A    between atoms: N4_20  and  C11_21 
ROOT
HETATM    1  C6  UNL     1     -54.977   1.270 -24.051  1.00  0.00     0.203 A 
HETATM    2  N2  UNL     1     -55.719   1.482 -25.161  1.00  0.00    -0.272 N 
ATOM      3  H2  UNL     1     -56.551   2.067 -25.236  1.00  0.00     0.189 HD
HETATM    4  N3  UNL     1     -55.155   0.782 -26.131  1.00  0.00    -0.277 N 
ATOM      5  H3  UNL     1     -55.492   0.743 -27.093  1.00  0.00     0.189 HD
HETATM    6  C7  UNL     1     -54.074   0.131 -25.669  1.00  0.00     0.177 A 
HETATM    7  O3  UNL     1     -54.015   0.465 -24.396  1.00  0.00    -0.267 OA
ENDROOT
BRANCH   6   8
HETATM    8  C8  UNL     1     -53.180  -0.744 -26.411  1.00  0.00     0.043 A 
HETATM    9  C9  UNL     1     -52.289  -0.388 -27.398  1.00  0.00     0.074 A 
HETATM   10  C10 UNL     1     -51.621  -1.515 -27.861  1.00  0.00     0.143 A 
HETATM   11  N4  UNL     1     -52.107  -2.557 -27.153  1.00  0.00    -0.326 N 
HETATM   12  C17 UNL     1     -53.051  -2.104 -26.273  1.00  0.00     0.025 A 
HETATM   13  C18 UNL     1     -53.812  -2.967 -25.321  1.00  0.00     0.069 C 
BRANCH  10  14
HETATM   14  O2  UNL     1     -50.639  -1.545 -28.864  1.00  0.00    -0.346 OA
ATOM     15  H2  UNL     1     -50.321  -2.318 -29.317  1.00  0.00     0.219 HD
ENDBRANCH  10  14
BRANCH  11  16
HETATM   16  C11 UNL     1     -51.715  -3.939 -27.280  1.00  0.00     0.092 C 
HETATM   17  C12 UNL     1     -50.540  -4.283 -26.412  1.00  0.00     0.026 C 
HETATM   18  C13 UNL     1     -50.444  -5.817 -26.418  1.00  0.00     0.002 C 
HETATM   19  C14 UNL     1     -50.023  -6.242 -27.815  1.00  0.00     0.000 C 
HETATM   20  C15 UNL     1     -50.087  -5.089 -28.801  1.00  0.00     0.002 C 
HETATM   21  C16 UNL     1     -51.385  -4.335 -28.695  1.00  0.00     0.026 C 
ENDBRANCH  11  16
ENDBRANCH   6   8
BRANCH   1  22
HETATM   22  S1  UNL     1     -55.283   1.979 -22.415  1.00  0.00    -0.083 SA
BRANCH  22  23
HETATM   23  C5  UNL     1     -54.839   0.709 -21.166  1.00  0.00     0.102 C 
BRANCH  23  24
HETATM   24  C4  UNL     1     -53.473   1.139 -20.636  1.00  0.00     0.127 C 
BRANCH  24  25
HETATM   25  N1  UNL     1     -52.540   0.082 -20.822  1.00  0.00    -0.405 N 
HETATM   26  C3  UNL     1     -53.048  -1.234 -20.628  1.00  0.00     0.177 C 
HETATM   27  C2  UNL     1     -52.788  -2.049 -21.875  1.00  0.00     0.276 C 
HETATM   28  O4  UNL     1     -51.449  -2.129 -22.215  1.00  0.00    -0.358 OA
HETATM   29  C20 UNL     1     -50.761  -0.947 -22.153  1.00  0.00     0.190 C 
HETATM   30  C19 UNL     1     -51.645   0.255 -21.916  1.00  0.00     0.143 C 
BRANCH  27  31
HETATM   31  O1  UNL     1     -53.238  -3.347 -21.649  1.00  0.00    -0.364 OA
HETATM   32  C1  UNL     1     -52.282  -4.259 -22.097  1.00  0.00     0.204 C 
ENDBRANCH  27  31
ENDBRANCH  24  25
ENDBRANCH  23  24
ENDBRANCH  22  23
ENDBRANCH   1  22
TORSDOF 8
ENDMDL
MODEL 5
REMARK VINA RESULT: -7.230813267      3.002      6.760
REMARK  8 active torsions:
REMARK  status: ('A' for Active; 'I' for Inactive)
REMARK    1  A    between atoms: O1_2  and  C2_3 
REMARK    2  A    between atoms: N1_5  and  C4_6 
REMARK    3  A    between atoms: C4_6  and  C5_7 
REMARK    4  A    between atoms: C5_7  and  S1_8 
REMARK    5  A    between atoms: S1_8  and  C6_9 
REMARK    6  A    between atoms: C7_14  and  C8_15 
REMARK    7  A    between atoms: C10_17  and  O2_18 
REMARK    8  A    between atoms: N4_20  and  C11_21 
ROOT
HETATM    1  C6  UNL     1     -50.643  -6.422 -23.915  1.00  0.00     0.203 A 
HETATM    2  N2  UNL     1     -51.431  -7.123 -23.069  1.00  0.00    -0.272 N 
ATOM      3  H2  UNL     1     -51.493  -8.138 -22.993  1.00  0.00     0.189 HD
HETATM    4  N3  UNL     1     -52.105  -6.235 -22.358  1.00  0.00    -0.277 N 
ATOM      5  H3  UNL     1     -52.784  -6.464 -21.632  1.00  0.00     0.189 HD
HETATM    6  C7  UNL     1     -51.769  -4.988 -22.728  1.00  0.00     0.177 A 
HETATM    7  O3  UNL     1     -50.874  -5.163 -23.681  1.00  0.00    -0.267 OA
ENDROOT
BRANCH   6   8
HETATM    8  C8  UNL     1     -52.281  -3.734 -22.196  1.00  0.00     0.043 A 
HETATM    9  C9  UNL     1     -52.215  -3.288 -20.897  1.00  0.00     0.074 A 
HETATM   10  C10 UNL     1     -52.822  -2.043 -20.793  1.00  0.00     0.143 A 
HETATM   11  N4  UNL     1     -53.256  -1.732 -22.033  1.00  0.00    -0.326 N 
HETATM   12  C17 UNL     1     -52.936  -2.748 -22.891  1.00  0.00     0.025 A 
HETATM   13  C18 UNL     1     -53.256  -2.764 -24.350  1.00  0.00     0.069 C 
BRANCH  10  14
HETATM   14  O2  UNL     1     -52.948  -1.274 -19.624  1.00  0.00    -0.346 OA
ATOM     15  H2  UNL     1     -52.627  -0.389 -19.496  1.00  0.00     0.219 HD
ENDBRANCH  10  14
BRANCH  11  16
HETATM   16  C11 UNL     1     -53.951  -0.530 -22.425  1.00  0.00     0.092 C 
HETATM   17  C12 UNL     1     -53.040   0.660 -22.497  1.00  0.00     0.026 C 
HETATM   18  C13 UNL     1     -53.839   1.762 -23.211  1.00  0.00     0.002 C 
HETATM   19  C14 UNL     1     -54.957   2.194 -22.276  1.00  0.00     0.000 C 
HETATM   20  C15 UNL     1     -55.096   1.257 -21.089  1.00  0.00     0.002 C 
HETATM   21  C16 UNL     1     -55.101  -0.186 -21.515  1.00  0.00     0.026 C 
ENDBRANCH  11  16
ENDBRANCH   6   8
BRANCH   1  22
HETATM   22  S1  UNL     1     -49.499  -7.121 -25.128  1.00  0.00    -0.083 SA
BRANCH  22  23
HETATM   23  C5  UNL     1     -49.849  -6.326 -26.746  1.00  0.00     0.102 C 
BRANCH  23  24
HETATM   24  C4  UNL     1     -51.372  -6.290 -26.846  1.00  0.00     0.127 C 
BRANCH  24  25
HETATM   25  N1  UNL     1     -51.803  -4.945 -27.011  1.00  0.00    -0.405 N 
HETATM   26  C3  UNL     1     -50.819  -4.033 -27.489  1.00  0.00     0.177 C 
HETATM   27  C2  UNL     1     -51.338  -3.360 -28.739  1.00  0.00     0.276 C 
HETATM   28  O4  UNL     1     -52.527  -2.679 -28.547  1.00  0.00    -0.358 OA
HETATM   29  C20 UNL     1     -53.476  -3.354 -27.827  1.00  0.00     0.190 C 
HETATM   30  C19 UNL     1     -53.112  -4.794 -27.550  1.00  0.00     0.143 C 
BRANCH  27  31
HETATM   31  O1  UNL     1     -50.390  -2.431 -29.161  1.00  0.00    -0.364 OA
HETATM   32  C1  UNL     1     -50.485  -1.279 -28.381  1.00  0.00     0.204 C 
ENDBRANCH  27  31
ENDBRANCH  24  25
ENDBRANCH  23  24
ENDBRANCH  22  23
ENDBRANCH   1  22
TORSDOF 8
ENDMDL
