MODEL 1
REMARK VINA RESULT: -8.779418556      0.000      0.000
REMARK  7 active torsions:
REMARK  status: ('A' for Active; 'I' for Inactive)
REMARK    1  A    between atoms: N1_6  and  C5_7 
REMARK    2  A    between atoms: C8_10  and  C9_11 
REMARK    3  A    between atoms: N2_12  and  N3_14 
REMARK    4  A    between atoms: N3_14  and  C10_16 
REMARK    5  A    between atoms: C13_19  and  N4_20 
REMARK    6  A    between atoms: C15_24  and  N5_25 
REMARK    7  A    between atoms: C16_28  and  N6_29 
ROOT
HETATM    1  C9  UNL     1     -53.120  -1.292 -25.548  1.00  0.00     0.121 C 
HETATM    2  N2  UNL     1     -52.697  -0.315 -24.901  1.00  0.00    -0.311 N 
ATOM      3  H2  UNL     1     -51.691  -0.149 -24.909  1.00  0.00     0.186 HD
ENDROOT
BRANCH   1   4
HETATM    4  C8  UNL     1     -52.397  -2.257 -26.335  1.00  0.00     0.014 A 
HETATM    5  C7  UNL     1     -51.196  -2.760 -25.789  1.00  0.00     0.017 A 
HETATM    6  C6  UNL     1     -50.488  -3.752 -26.425  1.00  0.00     0.031 A 
HETATM    7  C5  UNL     1     -50.938  -4.272 -27.607  1.00  0.00     0.039 A 
HETATM    8  C17 UNL     1     -52.088  -3.790 -28.135  1.00  0.00     0.066 A 
HETATM    9  C16 UNL     1     -52.839  -2.779 -27.518  1.00  0.00     0.116 A 
BRANCH   7  10
HETATM   10  N1  UNL     1     -50.199  -5.321 -28.265  1.00  0.00    -0.318 N 
HETATM   11  C1  UNL     1     -49.643  -5.224 -29.568  1.00  0.00     0.224 C 
HETATM   12  O1  UNL     1     -49.923  -4.463 -30.525  1.00  0.00    -0.273 OA
HETATM   13  C2  UNL     1     -48.585  -6.268 -29.604  1.00  0.00     0.105 C 
HETATM   14  C3  UNL     1     -49.229  -7.378 -28.806  1.00  0.00     0.029 C 
HETATM   15  C4  UNL     1     -49.912  -6.618 -27.692  1.00  0.00     0.133 C 
ENDBRANCH   7  10
BRANCH   9  16
HETATM   16  N6  UNL     1     -54.009  -2.386 -28.215  1.00  0.00    -0.115 N 
HETATM   17  O6  UNL     1     -54.750  -1.464 -27.945  1.00  0.00    -0.532 OA
HETATM   18  O7  UNL     1     -54.311  -3.092 -29.386  1.00  0.00    -0.532 OA
ENDBRANCH   9  16
ENDBRANCH   1   4
BRANCH   2  19
HETATM   19  N3  UNL     1     -53.474   0.557 -24.176  1.00  0.00    -0.299 N 
ATOM     20  H3  UNL     1     -54.140   1.152 -24.668  1.00  0.00     0.187 HD
BRANCH  19  21
HETATM   21  C10 UNL     1     -53.377   0.651 -22.781  1.00  0.00     0.081 A 
HETATM   22  C11 UNL     1     -52.347   0.027 -22.072  1.00  0.00     0.036 A 
HETATM   23  C12 UNL     1     -52.307   0.152 -20.694  1.00  0.00     0.038 A 
HETATM   24  C13 UNL     1     -53.252   0.873 -19.986  1.00  0.00     0.105 A 
HETATM   25  C14 UNL     1     -54.249   1.469 -20.723  1.00  0.00     0.074 A 
HETATM   26  C15 UNL     1     -54.338   1.379 -22.087  1.00  0.00     0.133 A 
BRANCH  24  27
HETATM   27  N4  UNL     1     -53.204   0.988 -18.565  1.00  0.00    -0.116 N 
HETATM   28  O2  UNL     1     -52.113   0.808 -17.999  1.00  0.00    -0.532 OA
HETATM   29  O3  UNL     1     -54.291   1.290 -17.796  1.00  0.00    -0.532 OA
ENDBRANCH  24  27
BRANCH  26  30
HETATM   30  N5  UNL     1     -55.409   2.014 -22.801  1.00  0.00    -0.113 N 
HETATM   31  O4  UNL     1     -55.748   3.173 -22.449  1.00  0.00    -0.532 OA
HETATM   32  O5  UNL     1     -56.035   1.370 -23.831  1.00  0.00    -0.532 OA
ENDBRANCH  26  30
ENDBRANCH  19  21
ENDBRANCH   2  19
TORSDOF 7
ENDMDL
MODEL 2
REMARK VINA RESULT: -8.750630886      1.771      9.384
REMARK  7 active torsions:
REMARK  status: ('A' for Active; 'I' for Inactive)
REMARK    1  A    between atoms: N1_6  and  C5_7 
REMARK    2  A    between atoms: C8_10  and  C9_11 
REMARK    3  A    between atoms: N2_12  and  N3_14 
REMARK    4  A    between atoms: N3_14  and  C10_16 
REMARK    5  A    between atoms: C13_19  and  N4_20 
REMARK    6  A    between atoms: C15_24  and  N5_25 
REMARK    7  A    between atoms: C16_28  and  N6_29 
ROOT
HETATM    1  C9  UNL     1     -52.942   0.524 -24.271  1.00  0.00     0.121 C 
HETATM    2  N2  UNL     1     -53.474  -0.233 -25.105  1.00  0.00    -0.311 N 
ATOM      3  H2  UNL     1     -54.140  -0.922 -24.754  1.00  0.00     0.186 HD
ENDROOT
BRANCH   1   4
HETATM    4  C8  UNL     1     -53.118   0.589 -22.843  1.00  0.00     0.014 A 
HETATM    5  C7  UNL     1     -52.093   0.039 -22.044  1.00  0.00     0.017 A 
HETATM    6  C6  UNL     1     -52.132   0.138 -20.672  1.00  0.00     0.031 A 
HETATM    7  C5  UNL     1     -53.172   0.776 -20.056  1.00  0.00     0.039 A 
HETATM    8  C17 UNL     1     -54.158   1.302 -20.819  1.00  0.00     0.066 A 
HETATM    9  C16 UNL     1     -54.157   1.222 -22.219  1.00  0.00     0.116 A 
BRANCH   7  10
HETATM   10  N1  UNL     1     -53.203   0.889 -18.618  1.00  0.00    -0.318 N 
HETATM   11  C1  UNL     1     -52.330   0.202 -17.734  1.00  0.00     0.224 C 
HETATM   12  O1  UNL     1     -51.645  -0.836 -17.899  1.00  0.00    -0.273 OA
HETATM   13  C2  UNL     1     -52.374   0.991 -16.475  1.00  0.00     0.105 C 
HETATM   14  C3  UNL     1     -53.828   1.399 -16.424  1.00  0.00     0.029 C 
HETATM   15  C4  UNL     1     -54.121   1.721 -17.872  1.00  0.00     0.133 C 
ENDBRANCH   7  10
BRANCH   9  16
HETATM   16  N6  UNL     1     -55.273   1.816 -22.859  1.00  0.00    -0.115 N 
HETATM   17  O6  UNL     1     -55.905   1.373 -23.796  1.00  0.00    -0.532 OA
HETATM   18  O7  UNL     1     -55.749   3.013 -22.311  1.00  0.00    -0.532 OA
ENDBRANCH   9  16
ENDBRANCH   1   4
BRANCH   2  19
HETATM   19  N3  UNL     1     -53.239  -0.217 -26.459  1.00  0.00    -0.299 N 
ATOM     20  H3  UNL     1     -53.589   0.565 -27.013  1.00  0.00     0.187 HD
BRANCH  19  21
HETATM   21  C10 UNL     1     -52.532  -1.243 -27.100  1.00  0.00     0.081 A 
HETATM   22  C11 UNL     1     -51.248  -1.617 -26.692  1.00  0.00     0.036 A 
HETATM   23  C12 UNL     1     -50.597  -2.635 -27.368  1.00  0.00     0.038 A 
HETATM   24  C13 UNL     1     -51.170  -3.301 -28.438  1.00  0.00     0.105 A 
HETATM   25  C14 UNL     1     -52.433  -2.900 -28.806  1.00  0.00     0.074 A 
HETATM   26  C15 UNL     1     -53.123  -1.900 -28.174  1.00  0.00     0.133 A 
BRANCH  24  27
HETATM   27  N4  UNL     1     -50.486  -4.343 -29.130  1.00  0.00    -0.116 N 
HETATM   28  O2  UNL     1     -50.191  -4.160 -30.322  1.00  0.00    -0.532 OA
HETATM   29  O3  UNL     1     -50.136  -5.529 -28.550  1.00  0.00    -0.532 OA
ENDBRANCH  24  27
BRANCH  26  30
HETATM   30  N5  UNL     1     -54.436  -1.517 -28.611  1.00  0.00    -0.113 N 
HETATM   31  O4  UNL     1     -54.674  -1.533 -29.847  1.00  0.00    -0.532 OA
HETATM   32  O5  UNL     1     -55.391  -1.149 -27.706  1.00  0.00    -0.532 OA
ENDBRANCH  26  30
ENDBRANCH  19  21
ENDBRANCH   2  19
TORSDOF 7
ENDMDL
MODEL 3
REMARK VINA RESULT: -8.739994850      1.710      9.458
REMARK  7 active torsions:
REMARK  status: ('A' for Active; 'I' for Inactive)
REMARK    1  A    between atoms: N1_6  and  C5_7 
REMARK    2  A    between atoms: C8_10  and  C9_11 
REMARK    3  A    between atoms: N2_12  and  N3_14 
REMARK    4  A    between atoms: N3_14  and  C10_16 
REMARK    5  A    between atoms: C13_19  and  N4_20 
REMARK    6  A    between atoms: C15_24  and  N5_25 
REMARK    7  A    between atoms: C16_28  and  N6_29 
ROOT
HETATM    1  C9  UNL     1     -52.887   0.444 -24.174  1.00  0.00     0.121 C 
HETATM    2  N2  UNL     1     -53.437  -0.311 -24.998  1.00  0.00    -0.311 N 
ATOM      3  H2  UNL     1     -54.101  -0.995 -24.636  1.00  0.00     0.186 HD
ENDROOT
BRANCH   1   4
HETATM    4  C8  UNL     1     -53.042   0.514 -22.743  1.00  0.00     0.014 A 
HETATM    5  C7  UNL     1     -52.006  -0.038 -21.959  1.00  0.00     0.017 A 
HETATM    6  C6  UNL     1     -52.023   0.065 -20.587  1.00  0.00     0.031 A 
HETATM    7  C5  UNL     1     -53.052   0.708 -19.957  1.00  0.00     0.039 A 
HETATM    8  C17 UNL     1     -54.048   1.236 -20.706  1.00  0.00     0.066 A 
HETATM    9  C16 UNL     1     -54.068   1.152 -22.106  1.00  0.00     0.116 A 
BRANCH   7  10
HETATM   10  N1  UNL     1     -53.060   0.824 -18.519  1.00  0.00    -0.318 N 
HETATM   11  C1  UNL     1     -53.995   1.592 -17.775  1.00  0.00     0.224 C 
HETATM   12  O1  UNL     1     -54.726   2.551 -18.118  1.00  0.00    -0.273 OA
HETATM   13  C2  UNL     1     -53.950   1.015 -16.406  1.00  0.00     0.105 C 
HETATM   14  C3  UNL     1     -52.479   0.701 -16.258  1.00  0.00     0.029 C 
HETATM   15  C4  UNL     1     -52.124   0.172 -17.630  1.00  0.00     0.133 C 
ENDBRANCH   7  10
BRANCH   9  16
HETATM   16  N6  UNL     1     -55.192   1.749 -22.730  1.00  0.00    -0.115 N 
HETATM   17  O6  UNL     1     -55.820   1.321 -23.677  1.00  0.00    -0.532 OA
HETATM   18  O7  UNL     1     -55.681   2.927 -22.152  1.00  0.00    -0.532 OA
ENDBRANCH   9  16
ENDBRANCH   1   4
BRANCH   2  19
HETATM   19  N3  UNL     1     -53.222  -0.299 -26.355  1.00  0.00    -0.299 N 
ATOM     20  H3  UNL     1     -53.584   0.479 -26.907  1.00  0.00     0.187 HD
BRANCH  19  21
HETATM   21  C10 UNL     1     -52.521  -1.325 -27.004  1.00  0.00     0.081 A 
HETATM   22  C11 UNL     1     -51.248  -1.722 -26.586  1.00  0.00     0.036 A 
HETATM   23  C12 UNL     1     -50.602  -2.739 -27.269  1.00  0.00     0.038 A 
HETATM   24  C13 UNL     1     -51.171  -3.381 -28.355  1.00  0.00     0.105 A 
HETATM   25  C14 UNL     1     -52.424  -2.958 -28.732  1.00  0.00     0.074 A 
HETATM   26  C15 UNL     1     -53.109  -1.958 -28.094  1.00  0.00     0.133 A 
BRANCH  24  27
HETATM   27  N4  UNL     1     -50.492  -4.422 -29.055  1.00  0.00    -0.116 N 
HETATM   28  O2  UNL     1     -50.188  -4.229 -30.243  1.00  0.00    -0.532 OA
HETATM   29  O3  UNL     1     -50.158  -5.618 -28.486  1.00  0.00    -0.532 OA
ENDBRANCH  24  27
BRANCH  26  30
HETATM   30  N5  UNL     1     -54.411  -1.552 -28.541  1.00  0.00    -0.113 N 
HETATM   31  O4  UNL     1     -54.639  -1.563 -29.778  1.00  0.00    -0.532 OA
HETATM   32  O5  UNL     1     -55.365  -1.166 -27.643  1.00  0.00    -0.532 OA
ENDBRANCH  26  30
ENDBRANCH  19  21
ENDBRANCH   2  19
TORSDOF 7
ENDMDL
MODEL 4
REMARK VINA RESULT: -8.573929176      2.559     10.149
REMARK  7 active torsions:
REMARK  status: ('A' for Active; 'I' for Inactive)
REMARK    1  A    between atoms: N1_6  and  C5_7 
REMARK    2  A    between atoms: C8_10  and  C9_11 
REMARK    3  A    between atoms: N2_12  and  N3_14 
REMARK    4  A    between atoms: N3_14  and  C10_16 
REMARK    5  A    between atoms: C13_19  and  N4_20 
REMARK    6  A    between atoms: C15_24  and  N5_25 
REMARK    7  A    between atoms: C16_28  and  N6_29 
ROOT
HETATM    1  C9  UNL     1     -50.805  -3.237 -28.296  1.00  0.00     0.121 C 
HETATM    2  N2  UNL     1     -50.966  -4.267 -28.979  1.00  0.00    -0.311 N 
ATOM      3  H2  UNL     1     -51.708  -4.905 -28.693  1.00  0.00     0.186 HD
ENDROOT
BRANCH   1   4
HETATM    4  C8  UNL     1     -51.520  -2.783 -27.131  1.00  0.00     0.014 A 
HETATM    5  C7  UNL     1     -50.761  -2.546 -25.965  1.00  0.00     0.017 A 
HETATM    6  C6  UNL     1     -51.344  -2.024 -24.834  1.00  0.00     0.031 A 
HETATM    7  C5  UNL     1     -52.678  -1.724 -24.821  1.00  0.00     0.039 A 
HETATM    8  C17 UNL     1     -53.409  -1.953 -25.936  1.00  0.00     0.066 A 
HETATM    9  C16 UNL     1     -52.854  -2.484 -27.110  1.00  0.00     0.116 A 
BRANCH   7  10
HETATM   10  N1  UNL     1     -53.283  -1.165 -23.636  1.00  0.00    -0.318 N 
HETATM   11  C1  UNL     1     -53.888   0.117 -23.565  1.00  0.00     0.224 C 
HETATM   12  O1  UNL     1     -53.748   1.132 -24.289  1.00  0.00    -0.273 OA
HETATM   13  C2  UNL     1     -54.789   0.042 -22.385  1.00  0.00     0.105 C 
HETATM   14  C3  UNL     1     -53.969  -0.797 -21.432  1.00  0.00     0.029 C 
HETATM   15  C4  UNL     1     -53.365  -1.832 -22.355  1.00  0.00     0.133 C 
ENDBRANCH   7  10
BRANCH   9  16
HETATM   16  N6  UNL     1     -53.765  -2.670 -28.179  1.00  0.00    -0.115 N 
HETATM   17  O6  UNL     1     -54.011  -3.705 -28.763  1.00  0.00    -0.532 OA
HETATM   18  O7  UNL     1     -54.521  -1.555 -28.562  1.00  0.00    -0.532 OA
ENDBRANCH   9  16
ENDBRANCH   1   4
BRANCH   2  19
HETATM   19  N3  UNL     1     -50.226  -4.614 -30.083  1.00  0.00    -0.299 N 
ATOM     20  H3  UNL     1     -50.413  -4.146 -30.971  1.00  0.00     0.187 HD
BRANCH  19  21
HETATM   21  C10 UNL     1     -49.223  -5.591 -30.027  1.00  0.00     0.081 A 
HETATM   22  C11 UNL     1     -49.091  -6.445 -28.928  1.00  0.00     0.036 A 
HETATM   23  C12 UNL     1     -48.077  -7.388 -28.927  1.00  0.00     0.038 A 
HETATM   24  C13 UNL     1     -47.185  -7.520 -29.976  1.00  0.00     0.105 A 
HETATM   25  C14 UNL     1     -47.351  -6.659 -31.036  1.00  0.00     0.074 A 
HETATM   26  C15 UNL     1     -48.335  -5.708 -31.091  1.00  0.00     0.133 A 
BRANCH  24  27
HETATM   27  N4  UNL     1     -46.141  -8.491 -29.959  1.00  0.00    -0.116 N 
HETATM   28  O2  UNL     1     -45.405  -8.578 -30.956  1.00  0.00    -0.532 OA
HETATM   29  O3  UNL     1     -45.905  -9.327 -28.905  1.00  0.00    -0.532 OA
ENDBRANCH  24  27
BRANCH  26  30
HETATM   30  N5  UNL     1     -48.452  -4.830 -32.220  1.00  0.00    -0.113 N 
HETATM   31  O4  UNL     1     -47.451  -4.134 -32.532  1.00  0.00    -0.532 OA
HETATM   32  O5  UNL     1     -49.618  -4.758 -32.928  1.00  0.00    -0.532 OA
ENDBRANCH  26  30
ENDBRANCH  19  21
ENDBRANCH   2  19
TORSDOF 7
ENDMDL
MODEL 5
REMARK VINA RESULT: -8.482452483      1.878      2.206
REMARK  7 active torsions:
REMARK  status: ('A' for Active; 'I' for Inactive)
REMARK    1  A    between atoms: N1_6  and  C5_7 
REMARK    2  A    between atoms: C8_10  and  C9_11 
REMARK    3  A    between atoms: N2_12  and  N3_14 
REMARK    4  A    between atoms: N3_14  and  C10_16 
REMARK    5  A    between atoms: C13_19  and  N4_20 
REMARK    6  A    between atoms: C15_24  and  N5_25 
REMARK    7  A    between atoms: C16_28  and  N6_29 
ROOT
HETATM    1  C9  UNL     1     -51.835  -0.867 -24.945  1.00  0.00     0.121 C 
HETATM    2  N2  UNL     1     -52.827  -0.667 -24.219  1.00  0.00    -0.311 N 
ATOM      3  H2  UNL     1     -53.488  -1.436 -24.107  1.00  0.00     0.186 HD
ENDROOT
BRANCH   1   4
HETATM    4  C8  UNL     1     -51.454  -2.047 -25.678  1.00  0.00     0.014 A 
HETATM    5  C7  UNL     1     -51.200  -1.891 -27.058  1.00  0.00     0.017 A 
HETATM    6  C6  UNL     1     -50.741  -2.942 -27.818  1.00  0.00     0.031 A 
HETATM    7  C5  UNL     1     -50.524  -4.164 -27.245  1.00  0.00     0.039 A 
HETATM    8  C17 UNL     1     -50.769  -4.318 -25.923  1.00  0.00     0.066 A 
HETATM    9  C16 UNL     1     -51.237  -3.273 -25.113  1.00  0.00     0.116 A 
BRANCH   7  10
HETATM   10  N1  UNL     1     -50.032  -5.260 -28.043  1.00  0.00    -0.318 N 
HETATM   11  C1  UNL     1     -49.731  -5.182 -29.429  1.00  0.00     0.224 C 
HETATM   12  O1  UNL     1     -50.116  -4.372 -30.307  1.00  0.00    -0.273 OA
HETATM   13  C2  UNL     1     -48.808  -6.320 -29.678  1.00  0.00     0.105 C 
HETATM   14  C3  UNL     1     -49.391  -7.385 -28.779  1.00  0.00     0.029 C 
HETATM   15  C4  UNL     1     -49.768  -6.593 -27.547  1.00  0.00     0.133 C 
ENDBRANCH   7  10
BRANCH   9  16
HETATM   16  N6  UNL     1     -51.453  -3.612 -23.755  1.00  0.00    -0.115 N 
HETATM   17  O6  UNL     1     -50.613  -3.750 -22.889  1.00  0.00    -0.532 OA
HETATM   18  O7  UNL     1     -52.785  -3.733 -23.340  1.00  0.00    -0.532 OA
ENDBRANCH   9  16
ENDBRANCH   1   4
BRANCH   2  19
HETATM   19  N3  UNL     1     -53.104   0.504 -23.555  1.00  0.00    -0.299 N 
ATOM     20  H3  UNL     1     -53.331   1.338 -24.097  1.00  0.00     0.187 HD
BRANCH  19  21
HETATM   21  C10 UNL     1     -53.084   0.585 -22.156  1.00  0.00     0.081 A 
HETATM   22  C11 UNL     1     -52.060   0.008 -21.401  1.00  0.00     0.036 A 
HETATM   23  C12 UNL     1     -52.097   0.117 -20.021  1.00  0.00     0.038 A 
HETATM   24  C13 UNL     1     -53.114   0.778 -19.356  1.00  0.00     0.105 A 
HETATM   25  C14 UNL     1     -54.102   1.330 -20.138  1.00  0.00     0.074 A 
HETATM   26  C15 UNL     1     -54.116   1.254 -21.505  1.00  0.00     0.133 A 
BRANCH  24  27
HETATM   27  N4  UNL     1     -53.145   0.877 -17.934  1.00  0.00    -0.116 N 
HETATM   28  O2  UNL     1     -52.094   0.659 -17.308  1.00  0.00    -0.532 OA
HETATM   29  O3  UNL     1     -54.266   1.202 -17.225  1.00  0.00    -0.532 OA
ENDBRANCH  24  27
BRANCH  26  30
HETATM   30  N5  UNL     1     -55.182   1.840 -22.267  1.00  0.00    -0.113 N 
HETATM   31  O4  UNL     1     -55.505   3.029 -22.012  1.00  0.00    -0.532 OA
HETATM   32  O5  UNL     1     -55.819   1.121 -23.239  1.00  0.00    -0.532 OA
ENDBRANCH  26  30
ENDBRANCH  19  21
ENDBRANCH   2  19
TORSDOF 7
ENDMDL
