MODEL 1
REMARK VINA RESULT: -6.391826779      0.000      0.000
REMARK  5 active torsions:
REMARK  status: ('A' for Active; 'I' for Inactive)
REMARK    1  A    between atoms: S1_2  and  C2_3 
REMARK       I    between atoms: N3_9  and  C4_11 
REMARK    2  A    between atoms: C4_11  and  C5_13 
REMARK    3  A    between atoms: C5_13  and  O2_14 
REMARK    4  A    between atoms: O2_14  and  C6_15 
REMARK    5  A    between atoms: C11_22  and  N4_23 
ROOT
HETATM    1  C2  UNL     1     -48.822  -4.428 -25.876  1.00  0.00     0.129 A 
HETATM    2  N1  UNL     1     -50.053  -4.603 -25.449  1.00  0.00    -0.286 N 
ATOM      3  H1  UNL     1     -50.258  -5.374 -24.814  1.00  0.00     0.188 HD
HETATM    4  N2  UNL     1     -50.989  -3.826 -25.815  1.00  0.00    -0.278 N 
ATOM      5  H2  UNL     1     -51.942  -3.968 -25.480  1.00  0.00     0.189 HD
HETATM    6  C3  UNL     1     -50.703  -2.823 -26.645  1.00  0.00     0.168 A 
HETATM    7  N3  UNL     1     -51.424  -1.893 -27.178  1.00  0.00    -0.304 N 
ATOM      8  H3  UNL     1     -50.974  -1.220 -27.798  1.00  0.00     0.171 HD
HETATM    9  C4  UNL     1     -52.820  -1.770 -26.936  1.00  0.00     0.247 C 
HETATM   10  O1  UNL     1     -53.551  -2.471 -27.683  1.00  0.00    -0.271 OA
HETATM   11  S3  UNL     1     -49.028  -3.035 -26.886  1.00  0.00    -0.026 SA
ENDROOT
BRANCH   9  12
HETATM   12  C5  UNL     1     -53.301  -0.873 -25.879  1.00  0.00     0.278 C 
BRANCH  12  13
HETATM   13  O2  UNL     1     -52.279  -0.539 -25.016  1.00  0.00    -0.340 OA
BRANCH  13  14
HETATM   14  C6  UNL     1     -52.342  -0.042 -23.738  1.00  0.00     0.103 A 
HETATM   15  C7  UNL     1     -52.917   1.150 -23.367  1.00  0.00     0.041 A 
HETATM   16  C8  UNL     1     -52.919   1.548 -22.037  1.00  0.00     0.028 A 
HETATM   17  C9  UNL     1     -52.349   0.770 -21.052  1.00  0.00     0.054 A 
HETATM   18 CL1  UNL     1     -52.366   1.300 -19.360  1.00  0.00    -0.083 Cl
HETATM   19  C10 UNL     1     -51.776  -0.418 -21.420  1.00  0.00     0.069 A 
HETATM   20  S2  UNL     1     -51.030  -1.455 -20.173  1.00  0.00    -0.048 SA
HETATM   21  C11 UNL     1     -51.768  -0.824 -22.732  1.00  0.00     0.155 A 
BRANCH  21  22
HETATM   22  N4  UNL     1     -51.175  -2.059 -23.132  1.00  0.00    -0.111 N 
HETATM   23  O3  UNL     1     -51.919  -3.054 -23.200  1.00  0.00    -0.532 OA
HETATM   24  O4  UNL     1     -49.837  -2.109 -23.423  1.00  0.00    -0.532 OA
ENDBRANCH  21  22
ENDBRANCH  13  14
ENDBRANCH  12  13
ENDBRANCH   9  12
BRANCH   1  25
HETATM   25  S1  UNL     1     -47.326  -5.373 -25.516  1.00  0.00    -0.108 SA
HETATM   26  C1  UNL     1     -46.850  -4.918 -23.807  1.00  0.00     0.097 C 
ENDBRANCH   1  25
TORSDOF 5
ENDMDL
MODEL 2
REMARK VINA RESULT: -6.262984584      1.987      2.138
REMARK  5 active torsions:
REMARK  status: ('A' for Active; 'I' for Inactive)
REMARK    1  A    between atoms: S1_2  and  C2_3 
REMARK       I    between atoms: N3_9  and  C4_11 
REMARK    2  A    between atoms: C4_11  and  C5_13 
REMARK    3  A    between atoms: C5_13  and  O2_14 
REMARK    4  A    between atoms: O2_14  and  C6_15 
REMARK    5  A    between atoms: C11_22  and  N4_23 
ROOT
HETATM    1  C2  UNL     1     -51.079  -4.547 -24.374  1.00  0.00     0.129 A 
HETATM    2  N1  UNL     1     -52.230  -4.112 -23.913  1.00  0.00    -0.286 N 
ATOM      3  H1  UNL     1     -52.732  -4.663 -23.217  1.00  0.00     0.188 HD
HETATM    4  N2  UNL     1     -52.727  -3.016 -24.321  1.00  0.00    -0.278 N 
ATOM      5  H2  UNL     1     -53.621  -2.685 -23.960  1.00  0.00     0.189 HD
HETATM    6  C3  UNL     1     -52.057  -2.308 -25.232  1.00  0.00     0.168 A 
HETATM    7  N3  UNL     1     -52.302  -1.186 -25.822  1.00  0.00    -0.304 N 
ATOM      8  H3  UNL     1     -51.627  -0.833 -26.500  1.00  0.00     0.171 HD
HETATM    9  C4  UNL     1     -53.473  -0.422 -25.566  1.00  0.00     0.247 C 
HETATM   10  O1  UNL     1     -54.481  -0.754 -26.243  1.00  0.00    -0.271 OA
HETATM   11  S3  UNL     1     -50.678  -3.278 -25.484  1.00  0.00    -0.026 SA
ENDROOT
BRANCH   9  12
HETATM   12  C5  UNL     1     -53.438   0.658 -24.574  1.00  0.00     0.278 C 
BRANCH  12  13
HETATM   13  O2  UNL     1     -52.579   0.348 -23.541  1.00  0.00    -0.340 OA
BRANCH  13  14
HETATM   14  C6  UNL     1     -52.616   0.738 -22.226  1.00  0.00     0.103 A 
HETATM   15  C7  UNL     1     -53.417   1.727 -21.704  1.00  0.00     0.041 A 
HETATM   16  C8  UNL     1     -53.366   2.034 -20.351  1.00  0.00     0.028 A 
HETATM   17  C9  UNL     1     -52.519   1.366 -19.492  1.00  0.00     0.054 A 
HETATM   18 CL1  UNL     1     -52.474   1.777 -17.768  1.00  0.00    -0.083 Cl
HETATM   19  C10 UNL     1     -51.722   0.381 -20.010  1.00  0.00     0.069 A 
HETATM   20  S2  UNL     1     -50.613  -0.509 -18.931  1.00  0.00    -0.048 SA
HETATM   21  C11 UNL     1     -51.762   0.067 -21.347  1.00  0.00     0.155 A 
BRANCH  21  22
HETATM   22  N4  UNL     1     -50.938  -0.957 -21.903  1.00  0.00    -0.111 N 
HETATM   23  O3  UNL     1     -51.351  -2.128 -21.824  1.00  0.00    -0.532 OA
HETATM   24  O4  UNL     1     -49.746  -0.626 -22.493  1.00  0.00    -0.532 OA
ENDBRANCH  21  22
ENDBRANCH  13  14
ENDBRANCH  12  13
ENDBRANCH   9  12
BRANCH   1  25
HETATM   25  S1  UNL     1     -50.162  -6.048 -23.968  1.00  0.00    -0.108 SA
HETATM   26  C1  UNL     1     -49.809  -5.946 -22.174  1.00  0.00     0.097 C 
ENDBRANCH   1  25
TORSDOF 5
ENDMDL
MODEL 3
REMARK VINA RESULT: -6.261634508      1.794      2.119
REMARK  5 active torsions:
REMARK  status: ('A' for Active; 'I' for Inactive)
REMARK    1  A    between atoms: S1_2  and  C2_3 
REMARK       I    between atoms: N3_9  and  C4_11 
REMARK    2  A    between atoms: C4_11  and  C5_13 
REMARK    3  A    between atoms: C5_13  and  O2_14 
REMARK    4  A    between atoms: O2_14  and  C6_15 
REMARK    5  A    between atoms: C11_22  and  N4_23 
ROOT
HETATM    1  C2  UNL     1     -49.795  -5.999 -24.215  1.00  0.00     0.129 A 
HETATM    2  N1  UNL     1     -50.881  -5.491 -24.755  1.00  0.00    -0.286 N 
ATOM      3  H1  UNL     1     -51.778  -5.952 -24.604  1.00  0.00     0.188 HD
HETATM    4  N2  UNL     1     -50.830  -4.436 -25.460  1.00  0.00    -0.278 N 
ATOM      5  H2  UNL     1     -51.676  -4.048 -25.876  1.00  0.00     0.189 HD
HETATM    6  C3  UNL     1     -49.649  -3.846 -25.647  1.00  0.00     0.168 A 
HETATM    7  N3  UNL     1     -49.290  -2.790 -26.298  1.00  0.00    -0.304 N 
ATOM      8  H3  UNL     1     -48.305  -2.528 -26.300  1.00  0.00     0.171 HD
HETATM    9  C4  UNL     1     -50.212  -1.977 -27.013  1.00  0.00     0.247 C 
HETATM   10  O1  UNL     1     -50.456  -2.360 -28.187  1.00  0.00    -0.271 OA
HETATM   11  S3  UNL     1     -48.604  -4.868 -24.768  1.00  0.00    -0.026 SA
ENDROOT
BRANCH   9  12
HETATM   12  C5  UNL     1     -50.797  -0.797 -26.368  1.00  0.00     0.278 C 
BRANCH  12  13
HETATM   13  O2  UNL     1     -51.584  -1.162 -25.296  1.00  0.00    -0.340 OA
BRANCH  13  14
HETATM   14  C6  UNL     1     -52.007  -0.413 -24.226  1.00  0.00     0.103 A 
HETATM   15  C7  UNL     1     -52.916   0.617 -24.276  1.00  0.00     0.041 A 
HETATM   16  C8  UNL     1     -53.266   1.305 -23.122  1.00  0.00     0.028 A 
HETATM   17  C9  UNL     1     -52.718   0.983 -21.899  1.00  0.00     0.054 A 
HETATM   18 CL1  UNL     1     -53.183   1.877 -20.439  1.00  0.00    -0.083 Cl
HETATM   19  C10 UNL     1     -51.813  -0.043 -21.847  1.00  0.00     0.069 A 
HETATM   20  S2  UNL     1     -51.084  -0.491 -20.281  1.00  0.00    -0.048 SA
HETATM   21  C11 UNL     1     -51.458  -0.732 -22.981  1.00  0.00     0.155 A 
BRANCH  21  22
HETATM   22  N4  UNL     1     -50.516  -1.803 -22.945  1.00  0.00    -0.111 N 
HETATM   23  O3  UNL     1     -49.328  -1.527 -23.189  1.00  0.00    -0.532 OA
HETATM   24  O4  UNL     1     -50.941  -3.072 -22.650  1.00  0.00    -0.532 OA
ENDBRANCH  21  22
ENDBRANCH  13  14
ENDBRANCH  12  13
ENDBRANCH   9  12
BRANCH   1  25
HETATM   25  S1  UNL     1     -49.591  -7.466 -23.184  1.00  0.00    -0.108 SA
HETATM   26  C1  UNL     1     -49.845  -6.902 -21.460  1.00  0.00     0.097 C 
ENDBRANCH   1  25
TORSDOF 5
ENDMDL
MODEL 4
REMARK VINA RESULT: -6.006818625      2.388      2.805
REMARK  5 active torsions:
REMARK  status: ('A' for Active; 'I' for Inactive)
REMARK    1  A    between atoms: S1_2  and  C2_3 
REMARK       I    between atoms: N3_9  and  C4_11 
REMARK    2  A    between atoms: C4_11  and  C5_13 
REMARK    3  A    between atoms: C5_13  and  O2_14 
REMARK    4  A    between atoms: O2_14  and  C6_15 
REMARK    5  A    between atoms: C11_22  and  N4_23 
ROOT
HETATM    1  C2  UNL     1     -50.098  -6.041 -22.223  1.00  0.00     0.129 A 
HETATM    2  N1  UNL     1     -50.957  -5.047 -22.265  1.00  0.00    -0.286 N 
ATOM      3  H1  UNL     1     -51.509  -4.826 -21.436  1.00  0.00     0.188 HD
HETATM    4  N2  UNL     1     -51.109  -4.357 -23.320  1.00  0.00    -0.278 N 
ATOM      5  H2  UNL     1     -51.777  -3.588 -23.346  1.00  0.00     0.189 HD
HETATM    6  C3  UNL     1     -50.378  -4.659 -24.394  1.00  0.00     0.168 A 
HETATM    7  N3  UNL     1     -50.312  -4.151 -25.580  1.00  0.00    -0.304 N 
ATOM      8  H3  UNL     1     -49.663  -4.560 -26.252  1.00  0.00     0.171 HD
HETATM    9  C4  UNL     1     -51.108  -3.046 -25.989  1.00  0.00     0.247 C 
HETATM   10  O1  UNL     1     -52.256  -3.347 -26.411  1.00  0.00    -0.271 OA
HETATM   11  S3  UNL     1     -49.458  -5.979 -23.832  1.00  0.00    -0.026 SA
ENDROOT
BRANCH   9  12
HETATM   12  C5  UNL     1     -50.570  -1.685 -25.897  1.00  0.00     0.278 C 
BRANCH  12  13
HETATM   13  O2  UNL     1     -50.438  -1.297 -24.581  1.00  0.00    -0.340 OA
BRANCH  13  14
HETATM   14  C6  UNL     1     -51.230  -0.462 -23.832  1.00  0.00     0.103 A 
HETATM   15  C7  UNL     1     -52.284   0.284 -24.305  1.00  0.00     0.041 A 
HETATM   16  C8  UNL     1     -53.013   1.096 -23.448  1.00  0.00     0.028 A 
HETATM   17  C9  UNL     1     -52.710   1.183 -22.106  1.00  0.00     0.054 A 
HETATM   18 CL1  UNL     1     -53.659   2.227 -21.032  1.00  0.00    -0.083 Cl
HETATM   19  C10 UNL     1     -51.661   0.441 -21.633  1.00  0.00     0.069 A 
HETATM   20  S2  UNL     1     -51.238   0.524 -19.901  1.00  0.00    -0.048 SA
HETATM   21  C11 UNL     1     -50.931  -0.367 -22.470  1.00  0.00     0.155 A 
BRANCH  21  22
HETATM   22  N4  UNL     1     -49.835  -1.147 -21.993  1.00  0.00    -0.111 N 
HETATM   23  O3  UNL     1     -50.084  -2.300 -21.599  1.00  0.00    -0.532 OA
HETATM   24  O4  UNL     1     -48.572  -0.614 -21.986  1.00  0.00    -0.532 OA
ENDBRANCH  21  22
ENDBRANCH  13  14
ENDBRANCH  12  13
ENDBRANCH   9  12
BRANCH   1  25
HETATM   25  S1  UNL     1     -49.692  -7.164 -20.869  1.00  0.00    -0.108 SA
HETATM   26  C1  UNL     1     -48.878  -6.132 -19.593  1.00  0.00     0.097 C 
ENDBRANCH   1  25
TORSDOF 5
ENDMDL
MODEL 5
REMARK VINA RESULT: -5.939651207      2.259      2.665
REMARK  5 active torsions:
REMARK  status: ('A' for Active; 'I' for Inactive)
REMARK    1  A    between atoms: S1_2  and  C2_3 
REMARK       I    between atoms: N3_9  and  C4_11 
REMARK    2  A    between atoms: C4_11  and  C5_13 
REMARK    3  A    between atoms: C5_13  and  O2_14 
REMARK    4  A    between atoms: O2_14  and  C6_15 
REMARK    5  A    between atoms: C11_22  and  N4_23 
ROOT
HETATM    1  C2  UNL     1     -50.561  -4.895 -23.342  1.00  0.00     0.129 A 
HETATM    2  N1  UNL     1     -51.558  -4.196 -22.848  1.00  0.00    -0.286 N 
ATOM      3  H1  UNL     1     -52.016  -4.511 -21.993  1.00  0.00     0.188 HD
HETATM    4  N2  UNL     1     -51.960  -3.134 -23.418  1.00  0.00    -0.278 N 
ATOM      5  H2  UNL     1     -52.734  -2.597 -23.029  1.00  0.00     0.189 HD
HETATM    6  C3  UNL     1     -51.349  -2.736 -24.534  1.00  0.00     0.168 A 
HETATM    7  N3  UNL     1     -51.527  -1.725 -25.318  1.00  0.00    -0.304 N 
ATOM      8  H3  UNL     1     -50.924  -1.626 -26.134  1.00  0.00     0.171 HD
HETATM    9  C4  UNL     1     -52.531  -0.744 -25.091  1.00  0.00     0.247 C 
HETATM   10  O1  UNL     1     -53.667  -1.032 -25.552  1.00  0.00    -0.271 OA
HETATM   11  S3  UNL     1     -50.168  -3.949 -24.740  1.00  0.00    -0.026 SA
ENDROOT
BRANCH   9  12
HETATM   12  C5  UNL     1     -52.199   0.487 -24.366  1.00  0.00     0.278 C 
BRANCH  12  13
HETATM   13  O2  UNL     1     -51.602   0.199 -23.157  1.00  0.00    -0.340 OA
BRANCH  13  14
HETATM   14  C6  UNL     1     -51.920   0.643 -21.898  1.00  0.00     0.103 A 
HETATM   15  C7  UNL     1     -52.960   1.485 -21.581  1.00  0.00     0.041 A 
HETATM   16  C8  UNL     1     -53.182   1.866 -20.265  1.00  0.00     0.028 A 
HETATM   17  C9  UNL     1     -52.377   1.419 -19.240  1.00  0.00     0.054 A 
HETATM   18 CL1  UNL     1     -52.684   1.921 -17.567  1.00  0.00    -0.083 Cl
HETATM   19  C10 UNL     1     -51.341   0.580 -19.553  1.00  0.00     0.069 A 
HETATM   20  S2  UNL     1     -50.277  -0.022 -18.253  1.00  0.00    -0.048 SA
HETATM   21  C11 UNL     1     -51.110   0.195 -20.851  1.00  0.00     0.155 A 
BRANCH  21  22
HETATM   22  N4  UNL     1     -50.035  -0.679 -21.194  1.00  0.00    -0.111 N 
HETATM   23  O3  UNL     1     -48.934  -0.158 -21.448  1.00  0.00    -0.532 OA
HETATM   24  O4  UNL     1     -50.244  -2.033 -21.233  1.00  0.00    -0.532 OA
ENDBRANCH  21  22
ENDBRANCH  13  14
ENDBRANCH  12  13
ENDBRANCH   9  12
BRANCH   1  25
HETATM   25  S1  UNL     1     -49.803  -6.418 -22.738  1.00  0.00    -0.108 SA
HETATM   26  C1  UNL     1     -49.933  -6.349 -20.912  1.00  0.00     0.097 C 
ENDBRANCH   1  25
TORSDOF 5
ENDMDL
