MODEL 1
REMARK VINA RESULT: -7.815410820      0.000      0.000
REMARK  6 active torsions:
REMARK  status: ('A' for Active; 'I' for Inactive)
REMARK    1  A    between atoms: N1_2  and  C1_4 
REMARK    2  A    between atoms: C4_7  and  C5_8 
REMARK    3  A    between atoms: N2_9  and  N3_11 
REMARK    4  A    between atoms: N3_11  and  C6_13 
REMARK    5  A    between atoms: C7_18  and  C8_19 
REMARK    6  A    between atoms: C14_27  and  N6_28 
ROOT
HETATM    1  N3  UNL     1     -52.745   0.952 -23.841  1.00  0.00    -0.279 N 
ATOM      2  H3  UNL     1     -53.459   1.387 -24.427  1.00  0.00     0.189 HD
ENDROOT
BRANCH   1   3
HETATM    3  N2  UNL     1     -51.664   0.187 -24.368  1.00  0.00    -0.309 N 
HETATM    4  C5  UNL     1     -52.001  -0.616 -25.349  1.00  0.00     0.121 C 
ATOM      5  H2  UNL     1     -50.710   0.257 -24.013  1.00  0.00     0.186 HD
BRANCH   4   6
HETATM    6  C4  UNL     1     -51.025  -1.467 -25.987  1.00  0.00     0.014 A 
HETATM    7  C3  UNL     1     -49.793  -1.657 -25.326  1.00  0.00     0.018 A 
HETATM    8  C2  UNL     1     -48.789  -2.437 -25.834  1.00  0.00     0.037 A 
HETATM    9  C1  UNL     1     -48.952  -3.080 -27.042  1.00  0.00     0.105 A 
HETATM   10  C15 UNL     1     -50.140  -2.897 -27.683  1.00  0.00     0.073 A 
HETATM   11  C14 UNL     1     -51.191  -2.098 -27.180  1.00  0.00     0.117 A 
BRANCH   9  12
HETATM   12  N1  UNL     1     -47.924  -3.901 -27.593  1.00  0.00    -0.116 N 
HETATM   13  O1  UNL     1     -47.513  -3.730 -28.743  1.00  0.00    -0.532 OA
HETATM   14  O2  UNL     1     -47.396  -4.904 -26.832  1.00  0.00    -0.532 OA
ENDBRANCH   9  12
BRANCH  11  15
HETATM   15  N6  UNL     1     -52.357  -1.980 -27.942  1.00  0.00    -0.115 N 
HETATM   16  O3  UNL     1     -52.371  -1.132 -28.895  1.00  0.00    -0.532 OA
HETATM   17  O4  UNL     1     -53.508  -2.647 -27.747  1.00  0.00    -0.532 OA
ENDBRANCH  11  15
ENDBRANCH   4   6
ENDBRANCH   1   3
BRANCH   1  18
HETATM   18  C6  UNL     1     -52.737   1.048 -22.522  1.00  0.00     0.180 A 
HETATM   19  N4  UNL     1     -53.701   1.518 -21.725  1.00  0.00    -0.278 N 
HETATM   20  N5  UNL     1     -53.499   1.579 -20.478  1.00  0.00    -0.291 N 
ATOM     21  H4  UNL     1     -54.591   1.824 -22.118  1.00  0.00     0.189 HD
HETATM   22  C7  UNL     1     -52.328   1.174 -19.966  1.00  0.00     0.102 A 
ATOM     23  H5  UNL     1     -54.227   1.937 -19.861  1.00  0.00     0.187 HD
HETATM   24  S1  UNL     1     -51.512   0.691 -21.383  1.00  0.00    -0.031 SA
BRANCH  22  25
HETATM   25  C8  UNL     1     -51.939   1.210 -18.569  1.00  0.00    -0.001 A 
HETATM   26  C9  UNL     1     -52.700   1.803 -17.618  1.00  0.00     0.016 A 
HETATM   27  C10 UNL     1     -52.315   1.805 -16.264  1.00  0.00     0.024 A 
HETATM   28  C11 UNL     1     -51.143   1.200 -15.871  1.00  0.00     0.034 A 
HETATM   29 CL1  UNL     1     -50.643   1.156 -14.217  1.00  0.00    -0.084 Cl
HETATM   30  C12 UNL     1     -50.360   0.595 -16.844  1.00  0.00     0.024 A 
HETATM   31  C13 UNL     1     -50.755   0.606 -18.127  1.00  0.00     0.016 A 
ENDBRANCH  22  25
ENDBRANCH   1  18
TORSDOF 6
ENDMDL
MODEL 2
REMARK VINA RESULT: -7.802971631      0.175      1.107
REMARK  6 active torsions:
REMARK  status: ('A' for Active; 'I' for Inactive)
REMARK    1  A    between atoms: N1_2  and  C1_4 
REMARK    2  A    between atoms: C4_7  and  C5_8 
REMARK    3  A    between atoms: N2_9  and  N3_11 
REMARK    4  A    between atoms: N3_11  and  C6_13 
REMARK    5  A    between atoms: C7_18  and  C8_19 
REMARK    6  A    between atoms: C14_27  and  N6_28 
ROOT
HETATM    1  N3  UNL     1     -52.736   0.951 -23.812  1.00  0.00    -0.279 N 
ATOM      2  H3  UNL     1     -53.477   1.385 -24.362  1.00  0.00     0.189 HD
ENDROOT
BRANCH   1   3
HETATM    3  N2  UNL     1     -51.646   0.241 -24.395  1.00  0.00    -0.309 N 
HETATM    4  C5  UNL     1     -52.004  -0.782 -25.133  1.00  0.00     0.121 C 
ATOM      5  H2  UNL     1     -50.671   0.507 -24.251  1.00  0.00     0.186 HD
BRANCH   4   6
HETATM    6  C4  UNL     1     -51.021  -1.611 -25.789  1.00  0.00     0.014 A 
HETATM    7  C3  UNL     1     -49.815  -1.864 -25.100  1.00  0.00     0.018 A 
HETATM    8  C2  UNL     1     -48.808  -2.631 -25.620  1.00  0.00     0.037 A 
HETATM    9  C1  UNL     1     -48.940  -3.196 -26.869  1.00  0.00     0.105 A 
HETATM   10  C15 UNL     1     -50.102  -2.953 -27.538  1.00  0.00     0.073 A 
HETATM   11  C14 UNL     1     -51.156  -2.166 -27.023  1.00  0.00     0.117 A 
BRANCH   9  12
HETATM   12  N1  UNL     1     -47.907  -4.002 -27.435  1.00  0.00    -0.116 N 
HETATM   13  O1  UNL     1     -47.410  -4.941 -26.810  1.00  0.00    -0.532 OA
HETATM   14  O2  UNL     1     -47.454  -3.714 -28.690  1.00  0.00    -0.532 OA
ENDBRANCH   9  12
BRANCH  11  15
HETATM   15  N6  UNL     1     -52.293  -1.980 -27.815  1.00  0.00    -0.115 N 
HETATM   16  O3  UNL     1     -52.242  -1.111 -28.748  1.00  0.00    -0.532 OA
HETATM   17  O4  UNL     1     -53.476  -2.601 -27.669  1.00  0.00    -0.532 OA
ENDBRANCH  11  15
ENDBRANCH   4   6
ENDBRANCH   1   3
BRANCH   1  18
HETATM   18  C6  UNL     1     -52.696   0.995 -22.491  1.00  0.00     0.180 A 
HETATM   19  N4  UNL     1     -53.664   1.372 -21.650  1.00  0.00    -0.278 N 
HETATM   20  N5  UNL     1     -53.432   1.397 -20.407  1.00  0.00    -0.291 N 
ATOM     21  H4  UNL     1     -54.582   1.637 -22.008  1.00  0.00     0.189 HD
HETATM   22  C7  UNL     1     -52.224   1.046 -19.943  1.00  0.00     0.102 A 
ATOM     23  H5  UNL     1     -54.163   1.684 -19.758  1.00  0.00     0.187 HD
HETATM   24  S1  UNL     1     -51.420   0.672 -21.399  1.00  0.00    -0.031 SA
BRANCH  22  25
HETATM   25  C8  UNL     1     -51.799   1.052 -18.557  1.00  0.00    -0.001 A 
HETATM   26  C9  UNL     1     -50.622   0.515 -18.153  1.00  0.00     0.016 A 
HETATM   27  C10 UNL     1     -50.219   0.555 -16.805  1.00  0.00     0.024 A 
HETATM   28  C11 UNL     1     -51.022   1.144 -15.854  1.00  0.00     0.034 A 
HETATM   29 CL1  UNL     1     -50.557   1.236 -14.191  1.00  0.00    -0.084 Cl
HETATM   30  C12 UNL     1     -52.229   1.691 -16.263  1.00  0.00     0.024 A 
HETATM   31  C13 UNL     1     -52.585   1.641 -17.558  1.00  0.00     0.016 A 
ENDBRANCH  22  25
ENDBRANCH   1  18
TORSDOF 6
ENDMDL
MODEL 3
REMARK VINA RESULT: -7.769872767      5.427      9.419
REMARK  6 active torsions:
REMARK  status: ('A' for Active; 'I' for Inactive)
REMARK    1  A    between atoms: N1_2  and  C1_4 
REMARK    2  A    between atoms: C4_7  and  C5_8 
REMARK    3  A    between atoms: N2_9  and  N3_11 
REMARK    4  A    between atoms: N3_11  and  C6_13 
REMARK    5  A    between atoms: C7_18  and  C8_19 
REMARK    6  A    between atoms: C14_27  and  N6_28 
ROOT
HETATM    1  N3  UNL     1     -52.301  -0.013 -24.917  1.00  0.00    -0.279 N 
ATOM      2  H3  UNL     1     -52.922   0.564 -25.485  1.00  0.00     0.189 HD
ENDROOT
BRANCH   1   3
HETATM    3  N2  UNL     1     -52.404  -0.105 -23.498  1.00  0.00    -0.309 N 
HETATM    4  C5  UNL     1     -51.750   0.828 -22.849  1.00  0.00     0.121 C 
ATOM      5  H2  UNL     1     -52.941  -0.835 -23.028  1.00  0.00     0.186 HD
BRANCH   4   6
HETATM    6  C4  UNL     1     -51.747   0.872 -21.405  1.00  0.00     0.014 A 
HETATM    7  C3  UNL     1     -50.683   0.231 -20.735  1.00  0.00     0.018 A 
HETATM    8  C2  UNL     1     -50.573   0.202 -19.371  1.00  0.00     0.037 A 
HETATM    9  C1  UNL     1     -51.524   0.813 -18.585  1.00  0.00     0.105 A 
HETATM   10  C15 UNL     1     -52.553   1.433 -19.228  1.00  0.00     0.073 A 
HETATM   11  C14 UNL     1     -52.688   1.477 -20.634  1.00  0.00     0.117 A 
BRANCH   9  12
HETATM   12  N1  UNL     1     -51.434   0.801 -17.161  1.00  0.00    -0.116 N 
HETATM   13  O1  UNL     1     -50.375   0.536 -16.587  1.00  0.00    -0.532 OA
HETATM   14  O2  UNL     1     -52.549   1.075 -16.423  1.00  0.00    -0.532 OA
ENDBRANCH   9  12
BRANCH  11  15
HETATM   15  N6  UNL     1     -53.800   2.133 -21.173  1.00  0.00    -0.115 N 
HETATM   16  O3  UNL     1     -54.082   3.298 -20.734  1.00  0.00    -0.532 OA
HETATM   17  O4  UNL     1     -54.648   1.641 -22.092  1.00  0.00    -0.532 OA
ENDBRANCH  11  15
ENDBRANCH   4   6
ENDBRANCH   1   3
BRANCH   1  18
HETATM   18  C6  UNL     1     -51.325  -0.744 -25.428  1.00  0.00     0.180 A 
HETATM   19  N4  UNL     1     -50.571  -0.478 -26.499  1.00  0.00    -0.278 N 
HETATM   20  N5  UNL     1     -49.709  -1.323 -26.875  1.00  0.00    -0.291 N 
ATOM     21  H4  UNL     1     -50.691   0.398 -27.008  1.00  0.00     0.189 HD
HETATM   22  C7  UNL     1     -49.556  -2.472 -26.201  1.00  0.00     0.102 A 
ATOM     23  H5  UNL     1     -49.129  -1.131 -27.691  1.00  0.00     0.187 HD
HETATM   24  S1  UNL     1     -50.729  -2.283 -24.980  1.00  0.00    -0.031 SA
BRANCH  22  25
HETATM   25  C8  UNL     1     -48.635  -3.545 -26.527  1.00  0.00    -0.001 A 
HETATM   26  C9  UNL     1     -48.196  -4.433 -25.602  1.00  0.00     0.016 A 
HETATM   27  C10 UNL     1     -47.322  -5.481 -25.945  1.00  0.00     0.024 A 
HETATM   28  C11 UNL     1     -46.886  -5.628 -27.243  1.00  0.00     0.034 A 
HETATM   29 CL1  UNL     1     -45.832  -6.915 -27.715  1.00  0.00    -0.084 Cl
HETATM   30  C12 UNL     1     -47.331  -4.719 -28.192  1.00  0.00     0.024 A 
HETATM   31  C13 UNL     1     -48.168  -3.731 -27.834  1.00  0.00     0.016 A 
ENDBRANCH  22  25
ENDBRANCH   1  18
TORSDOF 6
ENDMDL
MODEL 4
REMARK VINA RESULT: -7.626888299      5.910     10.294
REMARK  6 active torsions:
REMARK  status: ('A' for Active; 'I' for Inactive)
REMARK    1  A    between atoms: N1_2  and  C1_4 
REMARK    2  A    between atoms: C4_7  and  C5_8 
REMARK    3  A    between atoms: N2_9  and  N3_11 
REMARK    4  A    between atoms: N3_11  and  C6_13 
REMARK    5  A    between atoms: C7_18  and  C8_19 
REMARK    6  A    between atoms: C14_27  and  N6_28 
ROOT
HETATM    1  N3  UNL     1     -49.460  -4.381 -22.471  1.00  0.00    -0.279 N 
ATOM      2  H3  UNL     1     -49.006  -4.884 -21.708  1.00  0.00     0.189 HD
ENDROOT
BRANCH   1   3
HETATM    3  N2  UNL     1     -50.542  -3.475 -22.271  1.00  0.00    -0.309 N 
HETATM    4  C5  UNL     1     -50.173  -2.233 -22.062  1.00  0.00     0.121 C 
ATOM      5  H2  UNL     1     -51.520  -3.766 -22.289  1.00  0.00     0.186 HD
BRANCH   4   6
HETATM    6  C4  UNL     1     -51.148  -1.192 -21.833  1.00  0.00     0.014 A 
HETATM    7  C3  UNL     1     -51.424  -0.312 -22.901  1.00  0.00     0.018 A 
HETATM    8  C2  UNL     1     -52.324   0.715 -22.804  1.00  0.00     0.037 A 
HETATM    9  C1  UNL     1     -53.009   0.929 -21.628  1.00  0.00     0.105 A 
HETATM   10  C15 UNL     1     -52.743   0.081 -20.595  1.00  0.00     0.073 A 
HETATM   11  C14 UNL     1     -51.819  -0.985 -20.670  1.00  0.00     0.117 A 
BRANCH   9  12
HETATM   12  N1  UNL     1     -53.954   1.990 -21.499  1.00  0.00    -0.116 N 
HETATM   13  O1  UNL     1     -54.864   2.143 -22.318  1.00  0.00    -0.532 OA
HETATM   14  O2  UNL     1     -53.838   2.859 -20.453  1.00  0.00    -0.532 OA
ENDBRANCH   9  12
BRANCH  11  15
HETATM   15  N6  UNL     1     -51.626  -1.776 -19.534  1.00  0.00    -0.115 N 
HETATM   16  O3  UNL     1     -51.089  -1.238 -18.509  1.00  0.00    -0.532 OA
HETATM   17  O4  UNL     1     -51.911  -3.085 -19.416  1.00  0.00    -0.532 OA
ENDBRANCH  11  15
ENDBRANCH   4   6
ENDBRANCH   1   3
BRANCH   1  18
HETATM   18  C6  UNL     1     -49.098  -4.507 -23.736  1.00  0.00     0.180 A 
HETATM   19  N4  UNL     1     -49.875  -4.466 -24.823  1.00  0.00    -0.278 N 
HETATM   20  N5  UNL     1     -49.359  -4.656 -25.962  1.00  0.00    -0.291 N 
ATOM     21  H4  UNL     1     -50.875  -4.282 -24.734  1.00  0.00     0.189 HD
HETATM   22  C7  UNL     1     -48.044  -4.895 -26.072  1.00  0.00     0.102 A 
ATOM     23  H5  UNL     1     -49.943  -4.628 -26.797  1.00  0.00     0.187 HD
HETATM   24  S1  UNL     1     -47.572  -4.835 -24.436  1.00  0.00    -0.031 SA
BRANCH  22  25
HETATM   25  C8  UNL     1     -47.317  -5.160 -27.298  1.00  0.00    -0.001 A 
HETATM   26  C9  UNL     1     -46.388  -6.142 -27.397  1.00  0.00     0.016 A 
HETATM   27  C10 UNL     1     -45.713  -6.397 -28.604  1.00  0.00     0.024 A 
HETATM   28  C11 UNL     1     -45.982  -5.645 -29.726  1.00  0.00     0.034 A 
HETATM   29 CL1  UNL     1     -45.194  -5.940 -31.237  1.00  0.00    -0.084 Cl
HETATM   30  C12 UNL     1     -46.930  -4.638 -29.628  1.00  0.00     0.024 A 
HETATM   31  C13 UNL     1     -47.561  -4.420 -28.463  1.00  0.00     0.016 A 
ENDBRANCH  22  25
ENDBRANCH   1  18
TORSDOF 6
ENDMDL
MODEL 5
REMARK VINA RESULT: -7.618821629      1.678      1.951
REMARK  6 active torsions:
REMARK  status: ('A' for Active; 'I' for Inactive)
REMARK    1  A    between atoms: N1_2  and  C1_4 
REMARK    2  A    between atoms: C4_7  and  C5_8 
REMARK    3  A    between atoms: N2_9  and  N3_11 
REMARK    4  A    between atoms: N3_11  and  C6_13 
REMARK    5  A    between atoms: C7_18  and  C8_19 
REMARK    6  A    between atoms: C14_27  and  N6_28 
ROOT
HETATM    1  N3  UNL     1     -52.939   1.067 -23.633  1.00  0.00    -0.279 N 
ATOM      2  H3  UNL     1     -53.708   1.480 -24.161  1.00  0.00     0.189 HD
ENDROOT
BRANCH   1   3
HETATM    3  N2  UNL     1     -51.841   0.398 -24.249  1.00  0.00    -0.309 N 
HETATM    4  C5  UNL     1     -52.078  -0.856 -24.554  1.00  0.00     0.121 C 
ATOM      5  H2  UNL     1     -50.948   0.855 -24.436  1.00  0.00     0.186 HD
BRANCH   4   6
HETATM    6  C4  UNL     1     -51.067  -1.677 -25.177  1.00  0.00     0.014 A 
HETATM    7  C3  UNL     1     -50.304  -1.099 -26.214  1.00  0.00     0.018 A 
HETATM    8  C2  UNL     1     -49.321  -1.778 -26.882  1.00  0.00     0.037 A 
HETATM    9  C1  UNL     1     -49.036  -3.086 -26.556  1.00  0.00     0.105 A 
HETATM   10  C15 UNL     1     -49.772  -3.648 -25.556  1.00  0.00     0.073 A 
HETATM   11  C14 UNL     1     -50.791  -2.967 -24.852  1.00  0.00     0.117 A 
BRANCH   9  12
HETATM   12  N1  UNL     1     -48.015  -3.817 -27.233  1.00  0.00    -0.116 N 
HETATM   13  O1  UNL     1     -47.627  -3.488 -28.357  1.00  0.00    -0.532 OA
HETATM   14  O2  UNL     1     -47.469  -4.910 -26.626  1.00  0.00    -0.532 OA
ENDBRANCH   9  12
BRANCH  11  15
HETATM   15  N6  UNL     1     -51.484  -3.661 -23.855  1.00  0.00    -0.115 N 
HETATM   16  O3  UNL     1     -50.964  -3.723 -22.692  1.00  0.00    -0.532 OA
HETATM   17  O4  UNL     1     -52.644  -4.323 -24.004  1.00  0.00    -0.532 OA
ENDBRANCH  11  15
ENDBRANCH   4   6
ENDBRANCH   1   3
BRANCH   1  18
HETATM   18  C6  UNL     1     -52.867   1.104 -22.313  1.00  0.00     0.180 A 
HETATM   19  N4  UNL     1     -53.827   1.437 -21.445  1.00  0.00    -0.278 N 
HETATM   20  N5  UNL     1     -53.563   1.463 -20.208  1.00  0.00    -0.291 N 
ATOM     21  H4  UNL     1     -54.763   1.668 -21.777  1.00  0.00     0.189 HD
HETATM   22  C7  UNL     1     -52.331   1.156 -19.778  1.00  0.00     0.102 A 
ATOM     23  H5  UNL     1     -54.288   1.717 -19.538  1.00  0.00     0.187 HD
HETATM   24  S1  UNL     1     -51.551   0.824 -21.256  1.00  0.00    -0.031 SA
BRANCH  22  25
HETATM   25  C8  UNL     1     -51.871   1.170 -18.403  1.00  0.00    -0.001 A 
HETATM   26  C9  UNL     1     -52.600   1.711 -17.397  1.00  0.00     0.016 A 
HETATM   27  C10 UNL     1     -52.145   1.691 -16.065  1.00  0.00     0.024 A 
HETATM   28  C11 UNL     1     -50.934   1.117 -15.751  1.00  0.00     0.034 A 
HETATM   29 CL1  UNL     1     -50.347   1.047 -14.126  1.00  0.00    -0.084 Cl
HETATM   30  C12 UNL     1     -50.184   0.564 -16.778  1.00  0.00     0.024 A 
HETATM   31  C13 UNL     1     -50.646   0.596 -18.039  1.00  0.00     0.016 A 
ENDBRANCH  22  25
ENDBRANCH   1  18
TORSDOF 6
ENDMDL
