MODEL 1
REMARK VINA RESULT: -8.979645029      0.000      0.000
REMARK  5 active torsions:
REMARK  status: ('A' for Active; 'I' for Inactive)
REMARK    1  A    between atoms: C3_4  and  O1_5 
REMARK    2  A    between atoms: O1_5  and  C4_6 
REMARK    3  A    between atoms: C7_9  and  N2_10 
REMARK    4  A    between atoms: C11_18  and  C12_19 
REMARK    5  A    between atoms: C12_19  and  C13_21 
ROOT
HETATM    1  N1  UNL     1     -55.665   1.061 -25.720  1.00  0.00    -0.191 NA
HETATM    2  C1  UNL     1     -54.796   0.969 -24.961  1.00  0.00     0.108 C 
HETATM    3  C2  UNL     1     -53.737   0.852 -24.003  1.00  0.00     0.154 A 
HETATM    4  C3  UNL     1     -52.593   0.165 -24.329  1.00  0.00     0.216 A 
HETATM    5  O4  UNL     1     -51.652   0.075 -23.429  1.00  0.00    -0.298 OA
HETATM    6  C10 UNL     1     -51.780   0.619 -22.246  1.00  0.00     0.164 A 
HETATM    7  C11 UNL     1     -52.906   1.331 -21.840  1.00  0.00     0.089 A 
HETATM    8  C19 UNL     1     -53.924   1.451 -22.756  1.00  0.00     0.213 A 
HETATM    9  O6  UNL     1     -54.957   2.069 -22.457  1.00  0.00    -0.286 OA
ENDROOT
BRANCH   4  10
HETATM   10  O1  UNL     1     -52.476  -0.401 -25.596  1.00  0.00    -0.285 OA
BRANCH  10  11
HETATM   11  C4  UNL     1     -51.384  -1.186 -25.948  1.00  0.00     0.100 A 
HETATM   12  C5  UNL     1     -50.312  -0.737 -26.684  1.00  0.00     0.041 A 
HETATM   13  C6  UNL     1     -49.250  -1.580 -27.001  1.00  0.00     0.039 A 
HETATM   14  C7  UNL     1     -49.219  -2.901 -26.596  1.00  0.00     0.104 A 
HETATM   15  C8  UNL     1     -50.297  -3.347 -25.858  1.00  0.00     0.062 A 
HETATM   16  C9  UNL     1     -51.350  -2.517 -25.542  1.00  0.00     0.070 A 
HETATM   17 CL1  UNL     1     -52.693  -3.169 -24.626  1.00  0.00    -0.081 Cl
BRANCH  14  18
HETATM   18  N2  UNL     1     -48.127  -3.740 -26.931  1.00  0.00    -0.116 N 
HETATM   19  O2  UNL     1     -47.643  -4.598 -26.204  1.00  0.00    -0.532 OA
HETATM   20  O3  UNL     1     -47.563  -3.578 -28.174  1.00  0.00    -0.532 OA
ENDBRANCH  14  18
ENDBRANCH  10  11
ENDBRANCH   4  10
BRANCH   7  21
HETATM   21  C12 UNL     1     -52.983   1.903 -20.492  1.00  0.00     0.198 C 
HETATM   22  O5  UNL     1     -53.732   2.902 -20.349  1.00  0.00    -0.286 OA
BRANCH  21  23
HETATM   23  C13 UNL     1     -52.241   1.354 -19.362  1.00  0.00     0.015 A 
HETATM   24  C14 UNL     1     -52.580   1.631 -18.057  1.00  0.00     0.017 A 
HETATM   25  C15 UNL     1     -51.847   1.118 -16.982  1.00  0.00     0.027 A 
HETATM   26  C16 UNL     1     -50.755   0.312 -17.191  1.00  0.00     0.046 A 
HETATM   27  N3  UNL     1     -49.996  -0.222 -16.094  1.00  0.00    -0.102 NA
HETATM   28  C17 UNL     1     -50.397   0.020 -18.494  1.00  0.00     0.027 A 
HETATM   29  C18 UNL     1     -51.134   0.538 -19.540  1.00  0.00     0.017 A 
ENDBRANCH  21  23
ENDBRANCH   7  21
TORSDOF 5
ENDMDL
MODEL 2
REMARK VINA RESULT: -8.949533153      2.482      8.556
REMARK  5 active torsions:
REMARK  status: ('A' for Active; 'I' for Inactive)
REMARK    1  A    between atoms: C3_4  and  O1_5 
REMARK    2  A    between atoms: O1_5  and  C4_6 
REMARK    3  A    between atoms: C7_9  and  N2_10 
REMARK    4  A    between atoms: C11_18  and  C12_19 
REMARK    5  A    between atoms: C12_19  and  C13_21 
ROOT
HETATM    1  N1  UNL     1     -54.126  -0.849 -25.859  1.00  0.00    -0.191 NA
HETATM    2  C1  UNL     1     -53.137  -1.178 -25.358  1.00  0.00     0.108 C 
HETATM    3  C2  UNL     1     -51.902  -1.594 -24.759  1.00  0.00     0.154 A 
HETATM    4  C3  UNL     1     -51.287  -0.789 -23.832  1.00  0.00     0.216 A 
HETATM    5  O4  UNL     1     -50.162  -1.199 -23.312  1.00  0.00    -0.298 OA
HETATM    6  C10 UNL     1     -49.624  -2.341 -23.655  1.00  0.00     0.164 A 
HETATM    7  C11 UNL     1     -50.185  -3.212 -24.585  1.00  0.00     0.089 A 
HETATM    8  C19 UNL     1     -51.371  -2.821 -25.160  1.00  0.00     0.213 A 
HETATM    9  O6  UNL     1     -51.922  -3.549 -25.999  1.00  0.00    -0.286 OA
ENDROOT
BRANCH   4  10
HETATM   10  O1  UNL     1     -51.880   0.420 -23.478  1.00  0.00    -0.285 OA
BRANCH  10  11
HETATM   11  C4  UNL     1     -52.055   0.788 -22.149  1.00  0.00     0.100 A 
HETATM   12  C5  UNL     1     -51.117   0.593 -21.162  1.00  0.00     0.041 A 
HETATM   13  C6  UNL     1     -51.359   0.987 -19.848  1.00  0.00     0.039 A 
HETATM   14  C7  UNL     1     -52.546   1.587 -19.472  1.00  0.00     0.104 A 
HETATM   15  C8  UNL     1     -53.484   1.779 -20.465  1.00  0.00     0.062 A 
HETATM   16  C9  UNL     1     -53.250   1.392 -21.767  1.00  0.00     0.070 A 
HETATM   17 CL1  UNL     1     -54.504   1.646 -22.963  1.00  0.00    -0.081 Cl
BRANCH  14  18
HETATM   18  N2  UNL     1     -52.770   1.978 -18.128  1.00  0.00    -0.116 N 
HETATM   19  O2  UNL     1     -53.136   3.088 -17.765  1.00  0.00    -0.532 OA
HETATM   20  O3  UNL     1     -52.559   1.034 -17.151  1.00  0.00    -0.532 OA
ENDBRANCH  14  18
ENDBRANCH  10  11
ENDBRANCH   4  10
BRANCH   7  21
HETATM   21  C12 UNL     1     -49.517  -4.472 -24.928  1.00  0.00     0.198 C 
HETATM   22  O5  UNL     1     -49.702  -5.436 -24.145  1.00  0.00    -0.286 OA
BRANCH  21  23
HETATM   23  C13 UNL     1     -48.680  -4.618 -26.114  1.00  0.00     0.015 A 
HETATM   24  C14 UNL     1     -48.538  -3.610 -27.040  1.00  0.00     0.017 A 
HETATM   25  C15 UNL     1     -47.751  -3.769 -28.185  1.00  0.00     0.027 A 
HETATM   26  C16 UNL     1     -47.085  -4.945 -28.429  1.00  0.00     0.046 A 
HETATM   27  N3  UNL     1     -46.271  -5.119 -29.600  1.00  0.00    -0.102 NA
HETATM   28  C17 UNL     1     -47.213  -5.971 -27.510  1.00  0.00     0.027 A 
HETATM   29  C18 UNL     1     -47.995  -5.793 -26.387  1.00  0.00     0.017 A 
ENDBRANCH  21  23
ENDBRANCH   7  21
TORSDOF 5
ENDMDL
MODEL 3
REMARK VINA RESULT: -8.909082110      2.972      8.171
REMARK  5 active torsions:
REMARK  status: ('A' for Active; 'I' for Inactive)
REMARK    1  A    between atoms: C3_4  and  O1_5 
REMARK    2  A    between atoms: O1_5  and  C4_6 
REMARK    3  A    between atoms: C7_9  and  N2_10 
REMARK    4  A    between atoms: C11_18  and  C12_19 
REMARK    5  A    between atoms: C12_19  and  C13_21 
ROOT
HETATM    1  N1  UNL     1     -53.766  -1.942 -28.832  1.00  0.00    -0.191 NA
HETATM    2  C1  UNL     1     -52.828  -1.930 -28.155  1.00  0.00     0.108 C 
HETATM    3  C2  UNL     1     -51.651  -1.914 -27.337  1.00  0.00     0.154 A 
HETATM    4  C3  UNL     1     -51.622  -1.152 -26.195  1.00  0.00     0.216 A 
HETATM    5  O4  UNL     1     -50.531  -1.159 -25.479  1.00  0.00    -0.298 OA
HETATM    6  C10 UNL     1     -49.487  -1.866 -25.825  1.00  0.00     0.164 A 
HETATM    7  C11 UNL     1     -49.437  -2.664 -26.965  1.00  0.00     0.089 A 
HETATM    8  C19 UNL     1     -50.564  -2.687 -27.753  1.00  0.00     0.213 A 
HETATM    9  O6  UNL     1     -50.585  -3.374 -28.785  1.00  0.00    -0.286 OA
ENDROOT
BRANCH   4  10
HETATM   10  O1  UNL     1     -52.747  -0.411 -25.842  1.00  0.00    -0.285 OA
BRANCH  10  11
HETATM   11  C4  UNL     1     -52.871   0.177 -24.589  1.00  0.00     0.100 A 
HETATM   12  C5  UNL     1     -51.931   0.076 -23.589  1.00  0.00     0.041 A 
HETATM   13  C6  UNL     1     -52.121   0.692 -22.354  1.00  0.00     0.039 A 
HETATM   14  C7  UNL     1     -53.256   1.429 -22.072  1.00  0.00     0.104 A 
HETATM   15  C8  UNL     1     -54.196   1.526 -23.077  1.00  0.00     0.062 A 
HETATM   16  C9  UNL     1     -54.013   0.919 -24.301  1.00  0.00     0.070 A 
HETATM   17 CL1  UNL     1     -55.268   1.068 -25.514  1.00  0.00    -0.081 Cl
BRANCH  14  18
HETATM   18  N2  UNL     1     -53.428   2.046 -20.808  1.00  0.00    -0.116 N 
HETATM   19  O2  UNL     1     -54.081   3.060 -20.597  1.00  0.00    -0.532 OA
HETATM   20  O3  UNL     1     -52.809   1.460 -19.729  1.00  0.00    -0.532 OA
ENDBRANCH  14  18
ENDBRANCH  10  11
ENDBRANCH   4  10
BRANCH   7  21
HETATM   21  C12 UNL     1     -48.226  -3.420 -27.298  1.00  0.00     0.198 C 
HETATM   22  O5  UNL     1     -47.562  -3.011 -28.283  1.00  0.00    -0.286 OA
BRANCH  21  23
HETATM   23  C13 UNL     1     -47.795  -4.588 -26.536  1.00  0.00     0.015 A 
HETATM   24  C14 UNL     1     -47.947  -4.668 -25.170  1.00  0.00     0.017 A 
HETATM   25  C15 UNL     1     -47.510  -5.783 -24.446  1.00  0.00     0.027 A 
HETATM   26  C16 UNL     1     -46.910  -6.846 -25.077  1.00  0.00     0.046 A 
HETATM   27  N3  UNL     1     -46.460  -7.996 -24.344  1.00  0.00    -0.102 NA
HETATM   28  C17 UNL     1     -46.749  -6.785 -26.449  1.00  0.00     0.027 A 
HETATM   29  C18 UNL     1     -47.187  -5.676 -27.143  1.00  0.00     0.017 A 
ENDBRANCH  21  23
ENDBRANCH   7  21
TORSDOF 5
ENDMDL
MODEL 4
REMARK VINA RESULT: -8.882390174      3.463      8.947
REMARK  5 active torsions:
REMARK  status: ('A' for Active; 'I' for Inactive)
REMARK    1  A    between atoms: C3_4  and  O1_5 
REMARK    2  A    between atoms: O1_5  and  C4_6 
REMARK    3  A    between atoms: C7_9  and  N2_10 
REMARK    4  A    between atoms: C11_18  and  C12_19 
REMARK    5  A    between atoms: C12_19  and  C13_21 
ROOT
HETATM    1  N1  UNL     1     -51.345  -3.516 -19.725  1.00  0.00    -0.191 NA
HETATM    2  C1  UNL     1     -50.425  -3.303 -20.392  1.00  0.00     0.108 C 
HETATM    3  C2  UNL     1     -49.296  -3.050 -21.239  1.00  0.00     0.154 A 
HETATM    4  C3  UNL     1     -48.676  -1.825 -21.205  1.00  0.00     0.216 A 
HETATM    5  O4  UNL     1     -47.655  -1.630 -21.994  1.00  0.00    -0.298 OA
HETATM    6  C10 UNL     1     -47.222  -2.566 -22.799  1.00  0.00     0.164 A 
HETATM    7  C11 UNL     1     -47.794  -3.832 -22.892  1.00  0.00     0.089 A 
HETATM    8  C19 UNL     1     -48.875  -4.082 -22.080  1.00  0.00     0.213 A 
HETATM    9  O6  UNL     1     -49.434  -5.188 -22.116  1.00  0.00    -0.286 OA
ENDROOT
BRANCH   4  10
HETATM   10  O1  UNL     1     -49.150  -0.845 -20.336  1.00  0.00    -0.285 OA
BRANCH  10  11
HETATM   11  C4  UNL     1     -50.301  -0.117 -20.614  1.00  0.00     0.100 A 
HETATM   12  C5  UNL     1     -50.773   0.131 -21.882  1.00  0.00     0.041 A 
HETATM   13  C6  UNL     1     -51.936   0.870 -22.088  1.00  0.00     0.039 A 
HETATM   14  C7  UNL     1     -52.668   1.390 -21.036  1.00  0.00     0.104 A 
HETATM   15  C8  UNL     1     -52.189   1.139 -19.767  1.00  0.00     0.062 A 
HETATM   16  C9  UNL     1     -51.040   0.408 -19.558  1.00  0.00     0.070 A 
HETATM   17 CL1  UNL     1     -50.485   0.159 -17.915  1.00  0.00    -0.081 Cl
BRANCH  14  18
HETATM   18  N2  UNL     1     -53.847   2.140 -21.271  1.00  0.00    -0.116 N 
HETATM   19  O2  UNL     1     -54.665   1.916 -22.154  1.00  0.00    -0.532 OA
HETATM   20  O3  UNL     1     -54.094   3.206 -20.440  1.00  0.00    -0.532 OA
ENDBRANCH  14  18
ENDBRANCH  10  11
ENDBRANCH   4  10
BRANCH   7  21
HETATM   21  C12 UNL     1     -47.262  -4.827 -23.828  1.00  0.00     0.198 C 
HETATM   22  O5  UNL     1     -46.570  -5.751 -23.332  1.00  0.00    -0.286 OA
BRANCH  21  23
HETATM   23  C13 UNL     1     -47.512  -4.767 -25.264  1.00  0.00     0.015 A 
HETATM   24  C14 UNL     1     -47.009  -5.705 -26.136  1.00  0.00     0.017 A 
HETATM   25  C15 UNL     1     -47.236  -5.625 -27.514  1.00  0.00     0.027 A 
HETATM   26  C16 UNL     1     -47.976  -4.599 -28.051  1.00  0.00     0.046 A 
HETATM   27  N3  UNL     1     -48.218  -4.508 -29.464  1.00  0.00    -0.102 NA
HETATM   28  C17 UNL     1     -48.492  -3.646 -27.192  1.00  0.00     0.027 A 
HETATM   29  C18 UNL     1     -48.255  -3.745 -25.836  1.00  0.00     0.017 A 
ENDBRANCH  21  23
ENDBRANCH   7  21
TORSDOF 5
ENDMDL
MODEL 5
REMARK VINA RESULT: -8.866078041      3.162      4.497
REMARK  5 active torsions:
REMARK  status: ('A' for Active; 'I' for Inactive)
REMARK    1  A    between atoms: C3_4  and  O1_5 
REMARK    2  A    between atoms: O1_5  and  C4_6 
REMARK    3  A    between atoms: C7_9  and  N2_10 
REMARK    4  A    between atoms: C11_18  and  C12_19 
REMARK    5  A    between atoms: C12_19  and  C13_21 
ROOT
HETATM    1  N1  UNL     1     -53.941   2.411 -20.719  1.00  0.00    -0.191 NA
HETATM    2  C1  UNL     1     -53.010   1.845 -20.331  1.00  0.00     0.108 C 
HETATM    3  C2  UNL     1     -51.870   1.133 -19.832  1.00  0.00     0.154 A 
HETATM    4  C3  UNL     1     -50.992   0.547 -20.710  1.00  0.00     0.216 A 
HETATM    5  O4  UNL     1     -49.969  -0.097 -20.219  1.00  0.00    -0.298 OA
HETATM    6  C10 UNL     1     -49.772  -0.189 -18.929  1.00  0.00     0.164 A 
HETATM    7  C11 UNL     1     -50.613   0.378 -17.975  1.00  0.00     0.089 A 
HETATM    8  C19 UNL     1     -51.707   1.065 -18.447  1.00  0.00     0.213 A 
HETATM    9  O6  UNL     1     -52.499   1.590 -17.652  1.00  0.00    -0.286 OA
ENDROOT
BRANCH   4  10
HETATM   10  O1  UNL     1     -51.219   0.662 -22.080  1.00  0.00    -0.285 OA
BRANCH  10  11
HETATM   11  C4  UNL     1     -51.467  -0.450 -22.875  1.00  0.00     0.100 A 
HETATM   12  C5  UNL     1     -50.850  -1.670 -22.717  1.00  0.00     0.041 A 
HETATM   13  C6  UNL     1     -51.148  -2.744 -23.553  1.00  0.00     0.039 A 
HETATM   14  C7  UNL     1     -52.071  -2.640 -24.576  1.00  0.00     0.104 A 
HETATM   15  C8  UNL     1     -52.686  -1.415 -24.731  1.00  0.00     0.062 A 
HETATM   16  C9  UNL     1     -52.396  -0.349 -23.908  1.00  0.00     0.070 A 
HETATM   17 CL1  UNL     1     -53.201   1.181 -24.189  1.00  0.00    -0.081 Cl
BRANCH  14  18
HETATM   18  N2  UNL     1     -52.357  -3.746 -25.414  1.00  0.00    -0.116 N 
HETATM   19  O2  UNL     1     -52.372  -4.918 -25.059  1.00  0.00    -0.532 OA
HETATM   20  O3  UNL     1     -52.639  -3.485 -26.734  1.00  0.00    -0.532 OA
ENDBRANCH  14  18
ENDBRANCH  10  11
ENDBRANCH   4  10
BRANCH   7  21
HETATM   21  C12 UNL     1     -50.335   0.222 -16.544  1.00  0.00     0.198 C 
HETATM   22  O5  UNL     1     -49.516   1.031 -16.041  1.00  0.00    -0.286 OA
BRANCH  21  23
HETATM   23  C13 UNL     1     -50.967  -0.810 -15.729  1.00  0.00     0.015 A 
HETATM   24  C14 UNL     1     -51.655  -0.514 -14.575  1.00  0.00     0.017 A 
HETATM   25  C15 UNL     1     -52.238  -1.514 -13.789  1.00  0.00     0.027 A 
HETATM   26  C16 UNL     1     -52.143  -2.838 -14.143  1.00  0.00     0.046 A 
HETATM   27  N3  UNL     1     -52.740  -3.873 -13.345  1.00  0.00    -0.102 NA
HETATM   28  C17 UNL     1     -51.457  -3.157 -15.300  1.00  0.00     0.027 A 
HETATM   29  C18 UNL     1     -50.889  -2.154 -16.061  1.00  0.00     0.017 A 
ENDBRANCH  21  23
ENDBRANCH   7  21
TORSDOF 5
ENDMDL
