MODEL 1
REMARK VINA RESULT: -7.706478628      0.000      0.000
REMARK  6 active torsions:
REMARK  status: ('A' for Active; 'I' for Inactive)
REMARK    1  A    between atoms: S1_3  and  C2_4 
REMARK    2  A    between atoms: C2_4  and  C3_5 
REMARK    3  A    between atoms: C3_5  and  O1_6 
REMARK    4  A    between atoms: O1_6  and  C4_7 
REMARK    5  A    between atoms: C4_7  and  C5_9 
REMARK    6  A    between atoms: C9_13  and  C10_14 
ROOT
HETATM    1  N1  UNL     1     -48.611  -0.505 -21.726  1.00  0.00    -0.184 NA
HETATM    2  C1  UNL     1     -49.146  -0.407 -20.694  1.00  0.00     0.133 C 
HETATM    3  S1  UNL     1     -49.936  -0.280 -19.126  1.00  0.00    -0.049 SA
ENDROOT
BRANCH   3   4
HETATM    4  C2  UNL     1     -51.737  -0.525 -19.328  1.00  0.00     0.117 C 
BRANCH   4   5
HETATM    5  C3  UNL     1     -52.473   0.773 -19.208  1.00  0.00     0.190 C 
BRANCH   5   6
HETATM    6  O1  UNL     1     -52.204   1.549 -20.342  1.00  0.00    -0.317 OA
BRANCH   6   7
HETATM    7  C4  UNL     1     -53.114   1.937 -21.290  1.00  0.00     0.293 C 
HETATM    8  O2  UNL     1     -53.889   2.891 -20.993  1.00  0.00    -0.259 OA
BRANCH   7   9
HETATM    9  C5  UNL     1     -53.165   1.261 -22.576  1.00  0.00     0.040 A 
HETATM   10  C6  UNL     1     -54.155   1.599 -23.466  1.00  0.00     0.017 A 
HETATM   11  C7  UNL     1     -54.186   0.948 -24.678  1.00  0.00     0.002 A 
HETATM   12  C8  UNL     1     -53.255  -0.027 -25.016  1.00  0.00     0.012 A 
HETATM   13  C9  UNL     1     -52.247  -0.380 -24.127  1.00  0.00    -0.017 A 
HETATM   14  C19 UNL     1     -52.238   0.286 -22.922  1.00  0.00     0.030 A 
BRANCH  13  15
HETATM   15  C10 UNL     1     -51.281  -1.401 -24.498  1.00  0.00     0.073 A 
HETATM   16  C11 UNL     1     -51.108  -2.494 -23.676  1.00  0.00     0.172 A 
HETATM   17  N2  UNL     1     -51.884  -2.578 -22.499  1.00  0.00    -0.073 NA
HETATM   18  O3  UNL     1     -50.225  -3.439 -24.002  1.00  0.00    -0.292 OA
HETATM   19  C12 UNL     1     -49.503  -3.360 -25.097  1.00  0.00     0.113 A 
HETATM   20  C13 UNL     1     -48.604  -4.360 -25.392  1.00  0.00     0.069 A 
HETATM   21  C17 UNL     1     -49.647  -2.272 -25.954  1.00  0.00     0.051 A 
HETATM   22 CL1  UNL     1     -48.411  -5.733 -24.328  1.00  0.00    -0.081 Cl
HETATM   23  C14 UNL     1     -47.836  -4.293 -26.542  1.00  0.00     0.027 A 
HETATM   24  C15 UNL     1     -47.992  -3.208 -27.378  1.00  0.00     0.003 A 
HETATM   25  C16 UNL     1     -48.886  -2.206 -27.092  1.00  0.00     0.018 A 
HETATM   26  C18 UNL     1     -50.547  -1.276 -25.655  1.00  0.00     0.200 A 
HETATM   27  O4  UNL     1     -50.726  -0.268 -26.384  1.00  0.00    -0.286 OA
ENDBRANCH  13  15
ENDBRANCH   7   9
ENDBRANCH   6   7
ENDBRANCH   5   6
ENDBRANCH   4   5
ENDBRANCH   3   4
TORSDOF 6
ENDMDL
MODEL 2
REMARK VINA RESULT: -7.611894348      3.252      4.721
REMARK  6 active torsions:
REMARK  status: ('A' for Active; 'I' for Inactive)
REMARK    1  A    between atoms: S1_3  and  C2_4 
REMARK    2  A    between atoms: C2_4  and  C3_5 
REMARK    3  A    between atoms: C3_5  and  O1_6 
REMARK    4  A    between atoms: O1_6  and  C4_7 
REMARK    5  A    between atoms: C4_7  and  C5_9 
REMARK    6  A    between atoms: C9_13  and  C10_14 
ROOT
HETATM    1  N1  UNL     1     -53.187  -2.668 -27.681  1.00  0.00    -0.184 NA
HETATM    2  C1  UNL     1     -53.151  -1.889 -26.814  1.00  0.00     0.133 C 
HETATM    3  S1  UNL     1     -53.092  -0.734 -25.487  1.00  0.00    -0.049 SA
ENDROOT
BRANCH   3   4
HETATM    4  C2  UNL     1     -54.621   0.270 -25.482  1.00  0.00     0.117 C 
BRANCH   4   5
HETATM    5  C3  UNL     1     -54.492   1.443 -24.561  1.00  0.00     0.190 C 
BRANCH   5   6
HETATM    6  O1  UNL     1     -53.629   1.099 -23.513  1.00  0.00    -0.317 OA
BRANCH   6   7
HETATM    7  C4  UNL     1     -53.761   1.476 -22.203  1.00  0.00     0.293 C 
HETATM    8  O2  UNL     1     -54.728   2.238 -21.913  1.00  0.00    -0.259 OA
BRANCH   7   9
HETATM    9  C5  UNL     1     -52.813   1.004 -21.207  1.00  0.00     0.040 A 
HETATM   10  C6  UNL     1     -52.785   1.612 -19.975  1.00  0.00     0.017 A 
HETATM   11  C7  UNL     1     -51.881   1.150 -19.046  1.00  0.00     0.002 A 
HETATM   12  C8  UNL     1     -51.011   0.102 -19.320  1.00  0.00     0.012 A 
HETATM   13  C9  UNL     1     -51.027  -0.524 -20.561  1.00  0.00    -0.017 A 
HETATM   14  C19 UNL     1     -51.941  -0.043 -21.472  1.00  0.00     0.030 A 
BRANCH  13  15
HETATM   15  C10 UNL     1     -50.111  -1.619 -20.830  1.00  0.00     0.073 A 
HETATM   16  C11 UNL     1     -50.464  -2.899 -20.460  1.00  0.00     0.172 A 
HETATM   17  N2  UNL     1     -51.713  -3.094 -19.830  1.00  0.00    -0.073 NA
HETATM   18  O3  UNL     1     -49.634  -3.915 -20.700  1.00  0.00    -0.292 OA
HETATM   19  C12 UNL     1     -48.472  -3.732 -21.285  1.00  0.00     0.113 A 
HETATM   20  C13 UNL     1     -47.648  -4.812 -21.512  1.00  0.00     0.069 A 
HETATM   21  C17 UNL     1     -48.077  -2.455 -21.675  1.00  0.00     0.051 A 
HETATM   22 CL1  UNL     1     -48.128  -6.421 -21.030  1.00  0.00    -0.081 Cl
HETATM   23  C14 UNL     1     -46.421  -4.637 -22.128  1.00  0.00     0.027 A 
HETATM   24  C15 UNL     1     -46.046  -3.366 -22.506  1.00  0.00     0.003 A 
HETATM   25  C16 UNL     1     -46.861  -2.283 -22.285  1.00  0.00     0.018 A 
HETATM   26  C18 UNL     1     -48.903  -1.381 -21.446  1.00  0.00     0.200 A 
HETATM   27  O4  UNL     1     -48.608  -0.203 -21.772  1.00  0.00    -0.286 OA
ENDBRANCH  13  15
ENDBRANCH   7   9
ENDBRANCH   6   7
ENDBRANCH   5   6
ENDBRANCH   4   5
ENDBRANCH   3   4
TORSDOF 6
ENDMDL
MODEL 3
REMARK VINA RESULT: -7.518270903      3.070      6.892
REMARK  6 active torsions:
REMARK  status: ('A' for Active; 'I' for Inactive)
REMARK    1  A    between atoms: S1_3  and  C2_4 
REMARK    2  A    between atoms: C2_4  and  C3_5 
REMARK    3  A    between atoms: C3_5  and  O1_6 
REMARK    4  A    between atoms: O1_6  and  C4_7 
REMARK    5  A    between atoms: C4_7  and  C5_9 
REMARK    6  A    between atoms: C9_13  and  C10_14 
ROOT
HETATM    1  N1  UNL     1     -51.302  -3.813 -21.117  1.00  0.00    -0.184 NA
HETATM    2  C1  UNL     1     -50.431  -4.569 -21.291  1.00  0.00     0.133 C 
HETATM    3  S1  UNL     1     -49.103  -5.691 -21.569  1.00  0.00    -0.049 SA
ENDROOT
BRANCH   3   4
HETATM    4  C2  UNL     1     -49.749  -7.229 -22.319  1.00  0.00     0.117 C 
BRANCH   4   5
HETATM    5  C3  UNL     1     -49.169  -7.448 -23.680  1.00  0.00     0.190 C 
BRANCH   5   6
HETATM    6  O1  UNL     1     -49.468  -6.340 -24.482  1.00  0.00    -0.317 OA
BRANCH   6   7
HETATM    7  C4  UNL     1     -48.599  -5.688 -25.316  1.00  0.00     0.293 C 
HETATM    8  O2  UNL     1     -47.615  -6.348 -25.757  1.00  0.00    -0.259 OA
BRANCH   7   9
HETATM    9  C5  UNL     1     -48.824  -4.294 -25.663  1.00  0.00     0.040 A 
HETATM   10  C6  UNL     1     -48.240  -3.789 -26.799  1.00  0.00     0.017 A 
HETATM   11  C7  UNL     1     -48.465  -2.468 -27.110  1.00  0.00     0.002 A 
HETATM   12  C8  UNL     1     -49.255  -1.646 -26.315  1.00  0.00     0.012 A 
HETATM   13  C9  UNL     1     -49.853  -2.142 -25.162  1.00  0.00    -0.017 A 
HETATM   14  C19 UNL     1     -49.612  -3.467 -24.874  1.00  0.00     0.030 A 
BRANCH  13  15
HETATM   15  C10 UNL     1     -50.676  -1.269 -24.343  1.00  0.00     0.073 A 
HETATM   16  C11 UNL     1     -51.887  -0.830 -24.834  1.00  0.00     0.172 A 
HETATM   17  N2  UNL     1     -52.281  -1.252 -26.122  1.00  0.00    -0.073 NA
HETATM   18  O3  UNL     1     -52.654  -0.028 -24.094  1.00  0.00    -0.292 OA
HETATM   19  C12 UNL     1     -52.287   0.364 -22.895  1.00  0.00     0.113 A 
HETATM   20  C13 UNL     1     -53.113   1.192 -22.168  1.00  0.00     0.069 A 
HETATM   21  C17 UNL     1     -51.071  -0.056 -22.363  1.00  0.00     0.051 A 
HETATM   22 CL1  UNL     1     -54.642   1.729 -22.821  1.00  0.00    -0.081 Cl
HETATM   23  C14 UNL     1     -52.741   1.615 -20.903  1.00  0.00     0.027 A 
HETATM   24  C15 UNL     1     -51.534   1.189 -20.392  1.00  0.00     0.003 A 
HETATM   25  C16 UNL     1     -50.704   0.363 -21.110  1.00  0.00     0.018 A 
HETATM   26  C18 UNL     1     -50.251  -0.883 -23.092  1.00  0.00     0.200 A 
HETATM   27  O4  UNL     1     -49.141  -1.299 -22.672  1.00  0.00    -0.286 OA
ENDBRANCH  13  15
ENDBRANCH   7   9
ENDBRANCH   6   7
ENDBRANCH   5   6
ENDBRANCH   4   5
ENDBRANCH   3   4
TORSDOF 6
ENDMDL
MODEL 4
REMARK VINA RESULT: -7.460501374      3.276      5.176
REMARK  6 active torsions:
REMARK  status: ('A' for Active; 'I' for Inactive)
REMARK    1  A    between atoms: S1_3  and  C2_4 
REMARK    2  A    between atoms: C2_4  and  C3_5 
REMARK    3  A    between atoms: C3_5  and  O1_6 
REMARK    4  A    between atoms: O1_6  and  C4_7 
REMARK    5  A    between atoms: C4_7  and  C5_9 
REMARK    6  A    between atoms: C9_13  and  C10_14 
ROOT
HETATM    1  N1  UNL     1     -53.191  -2.609 -27.761  1.00  0.00    -0.184 NA
HETATM    2  C1  UNL     1     -53.164  -1.860 -26.867  1.00  0.00     0.133 C 
HETATM    3  S1  UNL     1     -53.120  -0.750 -25.502  1.00  0.00    -0.049 SA
ENDROOT
BRANCH   3   4
HETATM    4  C2  UNL     1     -54.660   0.235 -25.465  1.00  0.00     0.117 C 
BRANCH   4   5
HETATM    5  C3  UNL     1     -54.519   1.420 -24.561  1.00  0.00     0.190 C 
BRANCH   5   6
HETATM    6  O1  UNL     1     -53.682   1.075 -23.493  1.00  0.00    -0.317 OA
BRANCH   6   7
HETATM    7  C4  UNL     1     -53.785   1.532 -22.206  1.00  0.00     0.293 C 
HETATM    8  O2  UNL     1     -54.664   2.411 -21.972  1.00  0.00    -0.259 OA
BRANCH   7   9
HETATM    9  C5  UNL     1     -52.906   1.012 -21.171  1.00  0.00     0.040 A 
HETATM   10  C6  UNL     1     -52.931   1.589 -19.925  1.00  0.00     0.017 A 
HETATM   11  C7  UNL     1     -52.092   1.081 -18.960  1.00  0.00     0.002 A 
HETATM   12  C8  UNL     1     -51.234   0.017 -19.212  1.00  0.00     0.012 A 
HETATM   13  C9  UNL     1     -51.197  -0.578 -20.468  1.00  0.00    -0.017 A 
HETATM   14  C19 UNL     1     -52.047  -0.051 -21.416  1.00  0.00     0.030 A 
BRANCH  13  15
HETATM   15  C10 UNL     1     -50.295  -1.690 -20.714  1.00  0.00     0.073 A 
HETATM   16  C11 UNL     1     -49.015  -1.434 -21.157  1.00  0.00     0.172 A 
HETATM   17  N2  UNL     1     -48.630  -0.090 -21.353  1.00  0.00    -0.073 NA
HETATM   18  O3  UNL     1     -48.176  -2.444 -21.387  1.00  0.00    -0.292 OA
HETATM   19  C12 UNL     1     -48.534  -3.695 -21.205  1.00  0.00     0.113 A 
HETATM   20  C13 UNL     1     -47.633  -4.704 -21.456  1.00  0.00     0.069 A 
HETATM   21  C17 UNL     1     -49.819  -3.997 -20.759  1.00  0.00     0.051 A 
HETATM   22 CL1  UNL     1     -46.018  -4.343 -22.016  1.00  0.00    -0.081 Cl
HETATM   23  C14 UNL     1     -47.995  -6.027 -21.269  1.00  0.00     0.027 A 
HETATM   24  C15 UNL     1     -49.270  -6.307 -20.827  1.00  0.00     0.003 A 
HETATM   25  C16 UNL     1     -50.176  -5.307 -20.573  1.00  0.00     0.018 A 
HETATM   26  C18 UNL     1     -50.715  -2.985 -20.508  1.00  0.00     0.200 A 
HETATM   27  O4  UNL     1     -51.888  -3.188 -20.105  1.00  0.00    -0.286 OA
ENDBRANCH  13  15
ENDBRANCH   7   9
ENDBRANCH   6   7
ENDBRANCH   5   6
ENDBRANCH   4   5
ENDBRANCH   3   4
TORSDOF 6
ENDMDL
MODEL 5
REMARK VINA RESULT: -7.406163540      2.385      3.817
REMARK  6 active torsions:
REMARK  status: ('A' for Active; 'I' for Inactive)
REMARK    1  A    between atoms: S1_3  and  C2_4 
REMARK    2  A    between atoms: C2_4  and  C3_5 
REMARK    3  A    between atoms: C3_5  and  O1_6 
REMARK    4  A    between atoms: O1_6  and  C4_7 
REMARK    5  A    between atoms: C4_7  and  C5_9 
REMARK    6  A    between atoms: C9_13  and  C10_14 
ROOT
HETATM    1  N1  UNL     1     -53.366  -2.207 -28.375  1.00  0.00    -0.184 NA
HETATM    2  C1  UNL     1     -53.512  -1.586 -27.399  1.00  0.00     0.133 C 
HETATM    3  S1  UNL     1     -53.728  -0.671 -25.910  1.00  0.00    -0.049 SA
ENDROOT
BRANCH   3   4
HETATM    4  C2  UNL     1     -55.353   0.169 -25.940  1.00  0.00     0.117 C 
BRANCH   4   5
HETATM    5  C3  UNL     1     -55.533   1.033 -24.731  1.00  0.00     0.190 C 
BRANCH   5   6
HETATM    6  O1  UNL     1     -54.271   1.384 -24.236  1.00  0.00    -0.317 OA
BRANCH   6   7
HETATM    7  C4  UNL     1     -53.912   1.449 -22.915  1.00  0.00     0.293 C 
HETATM    8  O2  UNL     1     -54.724   2.004 -22.120  1.00  0.00    -0.259 OA
BRANCH   7   9
HETATM    9  C5  UNL     1     -52.643   0.893 -22.474  1.00  0.00     0.040 A 
HETATM   10  C6  UNL     1     -52.074   1.371 -21.318  1.00  0.00     0.017 A 
HETATM   11  C7  UNL     1     -50.874   0.832 -20.917  1.00  0.00     0.002 A 
HETATM   12  C8  UNL     1     -50.234  -0.167 -21.642  1.00  0.00     0.012 A 
HETATM   13  C9  UNL     1     -50.796  -0.661 -22.813  1.00  0.00    -0.017 A 
HETATM   14  C19 UNL     1     -51.998  -0.105 -23.192  1.00  0.00     0.030 A 
BRANCH  13  15
HETATM   15  C10 UNL     1     -50.114  -1.706 -23.557  1.00  0.00     0.073 A 
HETATM   16  C11 UNL     1     -49.803  -2.890 -22.924  1.00  0.00     0.172 A 
HETATM   17  N2  UNL     1     -50.164  -3.041 -21.567  1.00  0.00    -0.073 NA
HETATM   18  O3  UNL     1     -49.177  -3.859 -23.594  1.00  0.00    -0.292 OA
HETATM   19  C12 UNL     1     -48.841  -3.719 -24.856  1.00  0.00     0.113 A 
HETATM   20  C13 UNL     1     -48.195  -4.746 -25.506  1.00  0.00     0.069 A 
HETATM   21  C17 UNL     1     -49.136  -2.537 -25.532  1.00  0.00     0.051 A 
HETATM   22 CL1  UNL     1     -47.817  -6.235 -24.673  1.00  0.00    -0.081 Cl
HETATM   23  C14 UNL     1     -47.834  -4.615 -26.836  1.00  0.00     0.027 A 
HETATM   24  C15 UNL     1     -48.135  -3.439 -27.489  1.00  0.00     0.003 A 
HETATM   25  C16 UNL     1     -48.778  -2.408 -26.850  1.00  0.00     0.018 A 
HETATM   26  C18 UNL     1     -49.781  -1.515 -24.879  1.00  0.00     0.200 A 
HETATM   27  O4  UNL     1     -50.077  -0.424 -25.429  1.00  0.00    -0.286 OA
ENDBRANCH  13  15
ENDBRANCH   7   9
ENDBRANCH   6   7
ENDBRANCH   5   6
ENDBRANCH   4   5
ENDBRANCH   3   4
TORSDOF 6
ENDMDL
