MODEL 1
REMARK VINA RESULT: -7.918473428      0.000      0.000
REMARK  7 active torsions:
REMARK  status: ('A' for Active; 'I' for Inactive)
REMARK    1  A    between atoms: N1_2  and  C1_4 
REMARK    2  A    between atoms: C4_7  and  C5_8 
REMARK    3  A    between atoms: N2_9  and  N3_11 
REMARK    4  A    between atoms: C6_12  and  O3_13 
REMARK    5  A    between atoms: C7_15  and  C8_16 
REMARK    6  A    between atoms: N4_23  and  O4_24 
REMARK    7  A    between atoms: C14_26  and  C15_27 
ROOT
HETATM    1  N3  UNL     1     -51.174  -0.763 -24.024  1.00  0.00    -0.211 N 
HETATM    2  C6  UNL     1     -50.090  -1.542 -24.266  1.00  0.00     0.194 A 
HETATM    3  C7  UNL     1     -50.224  -2.219 -25.471  1.00  0.00     0.127 A 
HETATM    4  N4  UNL     1     -51.424  -1.802 -25.914  1.00  0.00    -0.198 N 
HETATM    5  C14 UNL     1     -52.002  -0.923 -25.043  1.00  0.00     0.191 A 
ENDROOT
BRANCH   1   6
HETATM    6  N2  UNL     1     -51.411   0.071 -22.911  1.00  0.00    -0.299 N 
HETATM    7  C5  UNL     1     -51.713  -0.507 -21.799  1.00  0.00     0.145 C 
ATOM      8  H2  UNL     1     -51.346   1.087 -22.983  1.00  0.00     0.186 HD
BRANCH   7   9
HETATM    9  C4  UNL     1     -51.978   0.257 -20.581  1.00  0.00     0.095 A 
HETATM   10  C3  UNL     1     -52.750   1.389 -20.535  1.00  0.00     0.043 A 
HETATM   11  C2  UNL     1     -52.758   1.806 -19.228  1.00  0.00     0.065 A 
HETATM   12  C1  UNL     1     -51.989   0.914 -18.516  1.00  0.00     0.215 A 
HETATM   13  O6  UNL     1     -51.557   0.024 -19.366  1.00  0.00    -0.287 OA
BRANCH  12  14
HETATM   14  N1  UNL     1     -51.751   1.002 -17.123  1.00  0.00    -0.090 N 
HETATM   15  O1  UNL     1     -52.681   1.104 -16.302  1.00  0.00    -0.530 OA
HETATM   16  O2  UNL     1     -50.477   0.979 -16.625  1.00  0.00    -0.530 OA
ENDBRANCH  12  14
ENDBRANCH   7   9
ENDBRANCH   1   6
BRANCH   2  17
HETATM   17  O3  UNL     1     -49.062  -1.568 -23.358  1.00  0.00    -0.343 OA
ATOM     18  H3  UNL     1     -48.391  -0.896 -23.393  1.00  0.00     0.219 HD
ENDBRANCH   2  17
BRANCH   5  19
HETATM   19  C15 UNL     1     -53.307  -0.274 -25.213  1.00  0.00     0.123 A 
HETATM   20  C16 UNL     1     -53.674   0.916 -24.631  1.00  0.00     0.043 A 
HETATM   21  C17 UNL     1     -54.983   1.181 -25.044  1.00  0.00     0.027 A 
HETATM   22  C18 UNL     1     -55.319   0.124 -25.854  1.00  0.00     0.142 A 
HETATM   23  O5  UNL     1     -54.301  -0.726 -25.935  1.00  0.00    -0.319 OA
ENDBRANCH   5  19
BRANCH   3  24
HETATM   24  C8  UNL     1     -49.295  -3.132 -26.071  1.00  0.00    -0.002 A 
HETATM   25  C9  UNL     1     -48.950  -4.342 -25.511  1.00  0.00     0.017 A 
HETATM   26  C10 UNL     1     -48.055  -5.239 -26.072  1.00  0.00     0.043 A 
HETATM   27  C11 UNL     1     -47.462  -4.922 -27.267  1.00  0.00     0.116 A 
HETATM   28  F1  UNL     1     -46.585  -5.792 -27.826  1.00  0.00    -0.206 F 
HETATM   29  C12 UNL     1     -47.775  -3.722 -27.869  1.00  0.00     0.043 A 
HETATM   30  C13 UNL     1     -48.681  -2.847 -27.269  1.00  0.00     0.017 A 
ENDBRANCH   3  24
BRANCH   4  31
HETATM   31  O4  UNL     1     -52.078  -2.139 -27.056  1.00  0.00    -0.281 OA
ATOM     32  H4  UNL     1     -52.826  -2.714 -27.170  1.00  0.00     0.245 HD
ENDBRANCH   4  31
TORSDOF 7
ENDMDL
MODEL 2
REMARK VINA RESULT: -7.552753097      1.047      1.322
REMARK  7 active torsions:
REMARK  status: ('A' for Active; 'I' for Inactive)
REMARK    1  A    between atoms: N1_2  and  C1_4 
REMARK    2  A    between atoms: C4_7  and  C5_8 
REMARK    3  A    between atoms: N2_9  and  N3_11 
REMARK    4  A    between atoms: C6_12  and  O3_13 
REMARK    5  A    between atoms: C7_15  and  C8_16 
REMARK    6  A    between atoms: N4_23  and  O4_24 
REMARK    7  A    between atoms: C14_26  and  C15_27 
ROOT
HETATM    1  N3  UNL     1     -50.368  -1.068 -23.762  1.00  0.00    -0.211 N 
HETATM    2  C6  UNL     1     -49.373  -1.913 -24.134  1.00  0.00     0.194 A 
HETATM    3  C7  UNL     1     -49.629  -2.459 -25.385  1.00  0.00     0.127 A 
HETATM    4  N4  UNL     1     -50.805  -1.900 -25.720  1.00  0.00    -0.198 N 
HETATM    5  C14 UNL     1     -51.256  -1.059 -24.742  1.00  0.00     0.191 A 
ENDROOT
BRANCH   1   6
HETATM    6  N2  UNL     1     -50.472  -0.325 -22.567  1.00  0.00    -0.299 N 
HETATM    7  C5  UNL     1     -50.784  -0.974 -21.499  1.00  0.00     0.145 C 
ATOM      8  H2  UNL     1     -50.308   0.682 -22.550  1.00  0.00     0.186 HD
BRANCH   7   9
HETATM    9  C4  UNL     1     -50.919  -0.308 -20.204  1.00  0.00     0.095 A 
HETATM   10  C3  UNL     1     -49.969  -0.345 -19.216  1.00  0.00     0.043 A 
HETATM   11  C2  UNL     1     -50.461   0.393 -18.170  1.00  0.00     0.065 A 
HETATM   12  C1  UNL     1     -51.698   0.859 -18.552  1.00  0.00     0.215 A 
HETATM   13  O6  UNL     1     -51.913   0.414 -19.760  1.00  0.00    -0.287 OA
BRANCH  12  14
HETATM   14  N1  UNL     1     -52.531   1.666 -17.740  1.00  0.00    -0.090 N 
HETATM   15  O1  UNL     1     -52.846   1.332 -16.583  1.00  0.00    -0.530 OA
HETATM   16  O2  UNL     1     -53.027   2.854 -18.204  1.00  0.00    -0.530 OA
ENDBRANCH  12  14
ENDBRANCH   7   9
ENDBRANCH   1   6
BRANCH   2  17
HETATM   17  O3  UNL     1     -48.309  -2.113 -23.292  1.00  0.00    -0.343 OA
ATOM     18  H3  UNL     1     -47.504  -2.482 -23.636  1.00  0.00     0.219 HD
ENDBRANCH   2  17
BRANCH   5  19
HETATM   19  C15 UNL     1     -52.502  -0.285 -24.779  1.00  0.00     0.123 A 
HETATM   20  C16 UNL     1     -52.749   0.842 -24.032  1.00  0.00     0.043 A 
HETATM   21  C17 UNL     1     -54.039   1.270 -24.359  1.00  0.00     0.027 A 
HETATM   22  C18 UNL     1     -54.485   0.364 -25.291  1.00  0.00     0.142 A 
HETATM   23  O5  UNL     1     -53.549  -0.550 -25.519  1.00  0.00    -0.319 OA
ENDBRANCH   5  19
BRANCH   3  24
HETATM   24  C8  UNL     1     -48.819  -3.390 -26.116  1.00  0.00    -0.002 A 
HETATM   25  C9  UNL     1     -48.437  -4.618 -25.622  1.00  0.00     0.017 A 
HETATM   26  C10 UNL     1     -47.655  -5.532 -26.309  1.00  0.00     0.043 A 
HETATM   27  C11 UNL     1     -47.220  -5.214 -27.571  1.00  0.00     0.116 A 
HETATM   28  F1  UNL     1     -46.456  -6.100 -28.253  1.00  0.00    -0.206 F 
HETATM   29  C12 UNL     1     -47.576  -3.996 -28.111  1.00  0.00     0.043 A 
HETATM   30  C13 UNL     1     -48.365  -3.105 -27.383  1.00  0.00     0.017 A 
ENDBRANCH   3  24
BRANCH   4  31
HETATM   31  O4  UNL     1     -51.543  -2.069 -26.848  1.00  0.00    -0.281 OA
ATOM     32  H4  UNL     1     -52.388  -2.490 -26.952  1.00  0.00     0.245 HD
ENDBRANCH   4  31
TORSDOF 7
ENDMDL
MODEL 3
REMARK VINA RESULT: -7.486937203      4.058      9.486
REMARK  7 active torsions:
REMARK  status: ('A' for Active; 'I' for Inactive)
REMARK    1  A    between atoms: N1_2  and  C1_4 
REMARK    2  A    between atoms: C4_7  and  C5_8 
REMARK    3  A    between atoms: N2_9  and  N3_11 
REMARK    4  A    between atoms: C6_12  and  O3_13 
REMARK    5  A    between atoms: C7_15  and  C8_16 
REMARK    6  A    between atoms: N4_23  and  O4_24 
REMARK    7  A    between atoms: C14_26  and  C15_27 
ROOT
HETATM    1  N3  UNL     1     -49.602  -1.952 -26.027  1.00  0.00    -0.211 N 
HETATM    2  C6  UNL     1     -50.778  -1.362 -26.362  1.00  0.00     0.194 A 
HETATM    3  C7  UNL     1     -51.484  -0.984 -25.227  1.00  0.00     0.127 A 
HETATM    4  N4  UNL     1     -50.674  -1.377 -24.228  1.00  0.00    -0.198 N 
HETATM    5  C14 UNL     1     -49.536  -1.962 -24.706  1.00  0.00     0.191 A 
ENDROOT
BRANCH   1   6
HETATM    6  N2  UNL     1     -48.614  -2.468 -26.891  1.00  0.00    -0.299 N 
HETATM    7  C5  UNL     1     -48.790  -3.665 -27.334  1.00  0.00     0.145 C 
ATOM      8  H2  UNL     1     -47.796  -1.918 -27.154  1.00  0.00     0.186 HD
BRANCH   7   9
HETATM    9  C4  UNL     1     -47.832  -4.302 -28.236  1.00  0.00     0.095 A 
HETATM   10  C3  UNL     1     -46.996  -5.326 -27.873  1.00  0.00     0.043 A 
HETATM   11  C2  UNL     1     -46.260  -5.645 -28.986  1.00  0.00     0.065 A 
HETATM   12  C1  UNL     1     -46.670  -4.805 -29.996  1.00  0.00     0.215 A 
HETATM   13  O6  UNL     1     -47.599  -4.037 -29.495  1.00  0.00    -0.287 OA
BRANCH  12  14
HETATM   14  N1  UNL     1     -46.145  -4.823 -31.310  1.00  0.00    -0.090 N 
HETATM   15  O1  UNL     1     -45.377  -5.722 -31.700  1.00  0.00    -0.530 OA
HETATM   16  O2  UNL     1     -46.465  -3.841 -32.208  1.00  0.00    -0.530 OA
ENDBRANCH  12  14
ENDBRANCH   7   9
ENDBRANCH   1   6
BRANCH   2  17
HETATM   17  O3  UNL     1     -51.107  -1.220 -27.686  1.00  0.00    -0.343 OA
ATOM     18  H3  UNL     1     -50.460  -0.882 -28.294  1.00  0.00     0.219 HD
ENDBRANCH   2  17
BRANCH   5  19
HETATM   19  C15 UNL     1     -48.438  -2.502 -23.894  1.00  0.00     0.123 A 
HETATM   20  C16 UNL     1     -47.658  -1.763 -23.038  1.00  0.00     0.043 A 
HETATM   21  C17 UNL     1     -46.739  -2.646 -22.465  1.00  0.00     0.027 A 
HETATM   22  C18 UNL     1     -47.030  -3.868 -23.020  1.00  0.00     0.142 A 
HETATM   23  O5  UNL     1     -48.046  -3.750 -23.867  1.00  0.00    -0.319 OA
ENDBRANCH   5  19
BRANCH   3  24
HETATM   24  C8  UNL     1     -52.762  -0.336 -25.167  1.00  0.00    -0.002 A 
HETATM   25  C9  UNL     1     -53.851  -0.733 -25.910  1.00  0.00     0.017 A 
HETATM   26  C10 UNL     1     -55.094  -0.122 -25.869  1.00  0.00     0.043 A 
HETATM   27  C11 UNL     1     -55.276   0.953 -25.036  1.00  0.00     0.116 A 
HETATM   28  F1  UNL     1     -56.487   1.558 -24.986  1.00  0.00    -0.206 F 
HETATM   29  C12 UNL     1     -54.215   1.388 -24.270  1.00  0.00     0.043 A 
HETATM   30  C13 UNL     1     -52.980   0.745 -24.344  1.00  0.00     0.017 A 
ENDBRANCH   3  24
BRANCH   4  31
HETATM   31  O4  UNL     1     -50.853  -1.261 -22.886  1.00  0.00    -0.281 OA
ATOM     32  H4  UNL     1     -50.261  -1.496 -22.181  1.00  0.00     0.245 HD
ENDBRANCH   4  31
TORSDOF 7
ENDMDL
MODEL 4
REMARK VINA RESULT: -7.480056471      4.319      8.377
REMARK  7 active torsions:
REMARK  status: ('A' for Active; 'I' for Inactive)
REMARK    1  A    between atoms: N1_2  and  C1_4 
REMARK    2  A    between atoms: C4_7  and  C5_8 
REMARK    3  A    between atoms: N2_9  and  N3_11 
REMARK    4  A    between atoms: C6_12  and  O3_13 
REMARK    5  A    between atoms: C7_15  and  C8_16 
REMARK    6  A    between atoms: N4_23  and  O4_24 
REMARK    7  A    between atoms: C14_26  and  C15_27 
ROOT
HETATM    1  N3  UNL     1     -51.499  -2.950 -23.389  1.00  0.00    -0.211 N 
HETATM    2  C6  UNL     1     -51.676  -2.331 -22.194  1.00  0.00     0.194 A 
HETATM    3  C7  UNL     1     -51.945  -0.980 -22.370  1.00  0.00     0.127 A 
HETATM    4  N4  UNL     1     -51.917  -0.843 -23.708  1.00  0.00    -0.198 N 
HETATM    5  C14 UNL     1     -51.648  -2.031 -24.327  1.00  0.00     0.191 A 
ENDROOT
BRANCH   1   6
HETATM    6  N2  UNL     1     -51.210  -4.311 -23.625  1.00  0.00    -0.299 N 
HETATM    7  C5  UNL     1     -49.972  -4.665 -23.569  1.00  0.00     0.145 C 
ATOM      8  H2  UNL     1     -51.948  -4.984 -23.833  1.00  0.00     0.186 HD
BRANCH   7   9
HETATM    9  C4  UNL     1     -49.556  -6.048 -23.796  1.00  0.00     0.095 A 
HETATM   10  C3  UNL     1     -49.073  -6.877 -22.817  1.00  0.00     0.043 A 
HETATM   11  C2  UNL     1     -48.797  -8.078 -23.420  1.00  0.00     0.065 A 
HETATM   12  C1  UNL     1     -49.120  -7.944 -24.751  1.00  0.00     0.215 A 
HETATM   13  O6  UNL     1     -49.562  -6.727 -24.912  1.00  0.00    -0.287 OA
BRANCH  12  14
HETATM   14  N1  UNL     1     -48.977  -8.973 -25.713  1.00  0.00    -0.090 N 
HETATM   15  O1  UNL     1     -48.050  -9.801 -25.657  1.00  0.00    -0.530 OA
HETATM   16  O2  UNL     1     -49.862  -9.093 -26.750  1.00  0.00    -0.530 OA
ENDBRANCH  12  14
ENDBRANCH   7   9
ENDBRANCH   1   6
BRANCH   2  17
HETATM   17  O3  UNL     1     -51.575  -3.060 -21.036  1.00  0.00    -0.343 OA
ATOM     18  H3  UNL     1     -52.258  -3.682 -20.815  1.00  0.00     0.219 HD
ENDBRANCH   2  17
BRANCH   5  19
HETATM   19  C15 UNL     1     -51.545  -2.242 -25.776  1.00  0.00     0.123 A 
HETATM   20  C16 UNL     1     -52.579  -2.646 -26.586  1.00  0.00     0.043 A 
HETATM   21  C17 UNL     1     -52.067  -2.726 -27.885  1.00  0.00     0.027 A 
HETATM   22  C18 UNL     1     -50.748  -2.362 -27.768  1.00  0.00     0.142 A 
HETATM   23  O5  UNL     1     -50.467  -2.080 -26.501  1.00  0.00    -0.319 OA
ENDBRANCH   5  19
BRANCH   3  24
HETATM   24  C8  UNL     1     -52.189   0.004 -21.356  1.00  0.00    -0.002 A 
HETATM   25  C9  UNL     1     -53.171   0.966 -21.449  1.00  0.00     0.017 A 
HETATM   26  C10 UNL     1     -53.424   1.925 -20.483  1.00  0.00     0.043 A 
HETATM   27  C11 UNL     1     -52.658   1.937 -19.345  1.00  0.00     0.116 A 
HETATM   28  F1  UNL     1     -52.896   2.870 -18.392  1.00  0.00    -0.206 F 
HETATM   29  C12 UNL     1     -51.662   0.994 -19.204  1.00  0.00     0.043 A 
HETATM   30  C13 UNL     1     -51.440   0.046 -20.203  1.00  0.00     0.017 A 
ENDBRANCH   3  24
BRANCH   4  31
HETATM   31  O4  UNL     1     -52.115   0.272 -24.458  1.00  0.00    -0.281 OA
ATOM     32  H4  UNL     1     -52.189   0.353 -25.402  1.00  0.00     0.245 HD
ENDBRANCH   4  31
TORSDOF 7
ENDMDL
MODEL 5
REMARK VINA RESULT: -7.476731661      4.020      8.660
REMARK  7 active torsions:
REMARK  status: ('A' for Active; 'I' for Inactive)
REMARK    1  A    between atoms: N1_2  and  C1_4 
REMARK    2  A    between atoms: C4_7  and  C5_8 
REMARK    3  A    between atoms: N2_9  and  N3_11 
REMARK    4  A    between atoms: C6_12  and  O3_13 
REMARK    5  A    between atoms: C7_15  and  C8_16 
REMARK    6  A    between atoms: N4_23  and  O4_24 
REMARK    7  A    between atoms: C14_26  and  C15_27 
ROOT
HETATM    1  N3  UNL     1     -50.715  -2.585 -25.271  1.00  0.00    -0.211 N 
HETATM    2  C6  UNL     1     -50.548  -2.374 -23.941  1.00  0.00     0.194 A 
HETATM    3  C7  UNL     1     -51.415  -1.390 -23.482  1.00  0.00     0.127 A 
HETATM    4  N4  UNL     1     -52.086  -1.043 -24.594  1.00  0.00    -0.198 N 
HETATM    5  C14 UNL     1     -51.667  -1.761 -25.678  1.00  0.00     0.191 A 
ENDROOT
BRANCH   1   6
HETATM    6  N2  UNL     1     -50.026  -3.497 -26.098  1.00  0.00    -0.299 N 
HETATM    7  C5  UNL     1     -48.898  -3.109 -26.585  1.00  0.00     0.145 C 
ATOM      8  H2  UNL     1     -50.404  -4.423 -26.300  1.00  0.00     0.186 HD
BRANCH   7   9
HETATM    9  C4  UNL     1     -48.097  -3.970 -27.453  1.00  0.00     0.095 A 
HETATM   10  C3  UNL     1     -47.562  -5.171 -27.064  1.00  0.00     0.043 A 
HETATM   11  C2  UNL     1     -46.887  -5.670 -28.149  1.00  0.00     0.065 A 
HETATM   12  C1  UNL     1     -47.031  -4.758 -29.169  1.00  0.00     0.215 A 
HETATM   13  O6  UNL     1     -47.754  -3.778 -28.700  1.00  0.00    -0.287 OA
BRANCH  12  14
HETATM   14  N1  UNL     1     -46.475  -4.912 -30.461  1.00  0.00    -0.090 N 
HETATM   15  O1  UNL     1     -45.726  -5.865 -30.746  1.00  0.00    -0.530 OA
HETATM   16  O2  UNL     1     -46.744  -4.010 -31.455  1.00  0.00    -0.530 OA
ENDBRANCH  12  14
ENDBRANCH   7   9
ENDBRANCH   1   6
BRANCH   2  17
HETATM   17  O3  UNL     1     -49.610  -3.104 -23.256  1.00  0.00    -0.343 OA
ATOM     18  H3  UNL     1     -49.351  -2.830 -22.384  1.00  0.00     0.219 HD
ENDBRANCH   2  17
BRANCH   5  19
HETATM   19  C15 UNL     1     -52.185  -1.639 -27.045  1.00  0.00     0.123 A 
HETATM   20  C16 UNL     1     -51.499  -1.082 -28.098  1.00  0.00     0.043 A 
HETATM   21  C17 UNL     1     -52.338  -1.159 -29.214  1.00  0.00     0.027 A 
HETATM   22  C18 UNL     1     -53.482  -1.763 -28.753  1.00  0.00     0.142 A 
HETATM   23  O5  UNL     1     -53.362  -2.035 -27.459  1.00  0.00    -0.319 OA
ENDBRANCH   5  19
BRANCH   3  24
HETATM   24  C8  UNL     1     -51.540  -0.889 -22.144  1.00  0.00    -0.002 A 
HETATM   25  C9  UNL     1     -51.287   0.420 -21.795  1.00  0.00     0.017 A 
HETATM   26  C10 UNL     1     -51.401   0.925 -20.511  1.00  0.00     0.043 A 
HETATM   27  C11 UNL     1     -51.792   0.084 -19.501  1.00  0.00     0.116 A 
HETATM   28  F1  UNL     1     -51.907   0.567 -18.240  1.00  0.00    -0.206 F 
HETATM   29  C12 UNL     1     -52.057  -1.236 -19.799  1.00  0.00     0.043 A 
HETATM   30  C13 UNL     1     -51.929  -1.704 -21.106  1.00  0.00     0.017 A 
ENDBRANCH   3  24
BRANCH   4  31
HETATM   31  O4  UNL     1     -53.070  -0.117 -24.746  1.00  0.00    -0.281 OA
ATOM     32  H4  UNL     1     -54.012  -0.239 -24.738  1.00  0.00     0.245 HD
ENDBRANCH   4  31
TORSDOF 7
ENDMDL
