MODEL 1
REMARK VINA RESULT: -7.114293161      0.000      0.000
REMARK  8 active torsions:
REMARK  status: ('A' for Active; 'I' for Inactive)
REMARK    1  A    between atoms: C2_2  and  O1_3 
REMARK    2  A    between atoms: O1_3  and  C3_4 
REMARK    3  A    between atoms: C3_4  and  O3_6 
REMARK    4  A    between atoms: O3_6  and  C4_7 
REMARK    5  A    between atoms: C4_7  and  O4_8 
REMARK    6  A    between atoms: O4_8  and  C5_9 
REMARK    7  A    between atoms: C5_9  and  C6_11 
REMARK    8  A    between atoms: C9_15  and  C10_16 
ROOT
HETATM    1  C6  UNL     1     -50.844  -0.062 -21.536  1.00  0.00     0.140 A 
HETATM    2  C7  UNL     1     -51.218  -0.354 -22.853  1.00  0.00     0.082 A 
HETATM    3  N1  UNL     1     -50.362  -1.202 -23.571  1.00  0.00    -0.100 NA
HETATM    4  C8  UNL     1     -52.357   0.205 -23.359  1.00  0.00     0.034 A 
HETATM    5  C9  UNL     1     -52.807  -0.015 -24.627  1.00  0.00    -0.011 A 
HETATM    6  C16 UNL     1     -54.001   0.625 -25.043  1.00  0.00     0.013 A 
HETATM    7  C17 UNL     1     -54.722   1.450 -24.233  1.00  0.00     0.004 A 
HETATM    8  C18 UNL     1     -54.259   1.656 -22.972  1.00  0.00     0.038 A 
HETATM    9  C19 UNL     1     -53.096   1.052 -22.523  1.00  0.00     0.092 A 
HETATM   10  O6  UNL     1     -52.715   1.303 -21.296  1.00  0.00    -0.274 OA
HETATM   11  C20 UNL     1     -51.653   0.786 -20.812  1.00  0.00     0.306 A 
HETATM   12  O7  UNL     1     -51.289   1.036 -19.612  1.00  0.00    -0.259 OA
ENDROOT
BRANCH   1  13
HETATM   13  C5  UNL     1     -49.639  -0.651 -20.998  1.00  0.00     0.303 C 
HETATM   14  O5  UNL     1     -48.568  -0.001 -20.992  1.00  0.00    -0.259 OA
BRANCH  13  15
HETATM   15  O4  UNL     1     -49.582  -1.931 -20.472  1.00  0.00    -0.291 OA
BRANCH  15  16
HETATM   16  C4  UNL     1     -50.623  -2.512 -19.709  1.00  0.00     0.360 C 
BRANCH  16  17
HETATM   17  O3  UNL     1     -51.581  -3.154 -20.511  1.00  0.00    -0.272 OA
BRANCH  17  18
HETATM   18  C3  UNL     1     -51.154  -4.171 -21.341  1.00  0.00     0.408 C 
HETATM   19  O2  UNL     1     -50.492  -5.123 -20.870  1.00  0.00    -0.229 OA
BRANCH  18  20
HETATM   20  O1  UNL     1     -51.430  -4.185 -22.691  1.00  0.00    -0.298 OA
BRANCH  20  21
HETATM   21  C2  UNL     1     -50.938  -5.194 -23.531  1.00  0.00     0.176 C 
HETATM   22  C1  UNL     1     -49.827  -4.655 -24.382  1.00  0.00     0.034 C 
ENDBRANCH  20  21
ENDBRANCH  18  20
ENDBRANCH  17  18
ENDBRANCH  16  17
ENDBRANCH  15  16
ENDBRANCH  13  15
ENDBRANCH   1  13
BRANCH   5  23
HETATM   23  C10 UNL     1     -52.169  -0.890 -25.567  1.00  0.00    -0.025 A 
HETATM   24  C11 UNL     1     -51.148  -0.434 -26.359  1.00  0.00     0.015 A 
HETATM   25  C12 UNL     1     -50.588  -1.244 -27.351  1.00  0.00     0.043 A 
HETATM   26  C13 UNL     1     -51.072  -2.504 -27.524  1.00  0.00     0.116 A 
HETATM   27  F1  UNL     1     -50.533  -3.315 -28.494  1.00  0.00    -0.206 F 
HETATM   28  C14 UNL     1     -52.092  -2.976 -26.741  1.00  0.00     0.043 A 
HETATM   29  C15 UNL     1     -52.635  -2.164 -25.766  1.00  0.00     0.015 A 
ENDBRANCH   5  23
TORSDOF 8
ENDMDL
MODEL 2
REMARK VINA RESULT: -7.050537444      1.977      3.051
REMARK  8 active torsions:
REMARK  status: ('A' for Active; 'I' for Inactive)
REMARK    1  A    between atoms: C2_2  and  O1_3 
REMARK    2  A    between atoms: O1_3  and  C3_4 
REMARK    3  A    between atoms: C3_4  and  O3_6 
REMARK    4  A    between atoms: O3_6  and  C4_7 
REMARK    5  A    between atoms: C4_7  and  O4_8 
REMARK    6  A    between atoms: O4_8  and  C5_9 
REMARK    7  A    between atoms: C5_9  and  C6_11 
REMARK    8  A    between atoms: C9_15  and  C10_16 
ROOT
HETATM    1  C6  UNL     1     -51.166  -2.870 -21.113  1.00  0.00     0.140 A 
HETATM    2  C7  UNL     1     -51.409  -2.163 -22.297  1.00  0.00     0.082 A 
HETATM    3  N1  UNL     1     -50.966  -2.766 -23.484  1.00  0.00    -0.100 NA
HETATM    4  C8  UNL     1     -52.029  -0.948 -22.230  1.00  0.00     0.034 A 
HETATM    5  C9  UNL     1     -52.309  -0.182 -23.322  1.00  0.00    -0.011 A 
HETATM    6  C16 UNL     1     -52.951   1.066 -23.128  1.00  0.00     0.013 A 
HETATM    7  C17 UNL     1     -53.304   1.536 -21.899  1.00  0.00     0.004 A 
HETATM    8  C18 UNL     1     -53.018   0.758 -20.821  1.00  0.00     0.038 A 
HETATM    9  C19 UNL     1     -52.390  -0.469 -20.964  1.00  0.00     0.092 A 
HETATM   10  O6  UNL     1     -52.146  -1.157 -19.878  1.00  0.00    -0.274 OA
HETATM   11  C20 UNL     1     -51.569  -2.294 -19.928  1.00  0.00     0.306 A 
HETATM   12  O7  UNL     1     -51.335  -2.960 -18.862  1.00  0.00    -0.259 OA
ENDROOT
BRANCH   1  13
HETATM   13  C5  UNL     1     -50.509  -4.156 -21.181  1.00  0.00     0.303 C 
HETATM   14  O5  UNL     1     -51.187  -5.205 -21.273  1.00  0.00    -0.259 OA
BRANCH  13  15
HETATM   15  O4  UNL     1     -49.134  -4.315 -21.152  1.00  0.00    -0.291 OA
BRANCH  15  16
HETATM   16  C4  UNL     1     -48.444  -5.319 -21.870  1.00  0.00     0.360 C 
BRANCH  16  17
HETATM   17  O3  UNL     1     -48.489  -5.111 -23.260  1.00  0.00    -0.272 OA
BRANCH  17  18
HETATM   18  C3  UNL     1     -47.643  -4.165 -23.800  1.00  0.00     0.408 C 
HETATM   19  O2  UNL     1     -46.532  -3.945 -23.267  1.00  0.00    -0.229 OA
BRANCH  18  20
HETATM   20  O1  UNL     1     -47.972  -3.437 -24.923  1.00  0.00    -0.298 OA
BRANCH  20  21
HETATM   21  C2  UNL     1     -48.477  -4.053 -26.077  1.00  0.00     0.176 C 
HETATM   22  C1  UNL     1     -48.182  -3.207 -27.279  1.00  0.00     0.034 C 
ENDBRANCH  20  21
ENDBRANCH  18  20
ENDBRANCH  17  18
ENDBRANCH  16  17
ENDBRANCH  15  16
ENDBRANCH  13  15
ENDBRANCH   1  13
BRANCH   5  23
HETATM   23  C10 UNL     1     -52.031  -0.575 -24.673  1.00  0.00    -0.025 A 
HETATM   24  C11 UNL     1     -50.843  -0.231 -25.266  1.00  0.00     0.015 A 
HETATM   25  C12 UNL     1     -50.601  -0.515 -26.613  1.00  0.00     0.043 A 
HETATM   26  C13 UNL     1     -51.567  -1.144 -27.337  1.00  0.00     0.116 A 
HETATM   27  F1  UNL     1     -51.347  -1.432 -28.663  1.00  0.00    -0.206 F 
HETATM   28  C14 UNL     1     -52.759  -1.494 -26.761  1.00  0.00     0.043 A 
HETATM   29  C15 UNL     1     -52.984  -1.206 -25.430  1.00  0.00     0.015 A 
ENDBRANCH   5  23
TORSDOF 8
ENDMDL
MODEL 3
REMARK VINA RESULT: -7.048230524      1.920      3.247
REMARK  8 active torsions:
REMARK  status: ('A' for Active; 'I' for Inactive)
REMARK    1  A    between atoms: C2_2  and  O1_3 
REMARK    2  A    between atoms: O1_3  and  C3_4 
REMARK    3  A    between atoms: C3_4  and  O3_6 
REMARK    4  A    between atoms: O3_6  and  C4_7 
REMARK    5  A    between atoms: C4_7  and  O4_8 
REMARK    6  A    between atoms: O4_8  and  C5_9 
REMARK    7  A    between atoms: C5_9  and  C6_11 
REMARK    8  A    between atoms: C9_15  and  C10_16 
ROOT
HETATM    1  C6  UNL     1     -51.235  -2.964 -21.172  1.00  0.00     0.140 A 
HETATM    2  C7  UNL     1     -51.456  -2.230 -22.344  1.00  0.00     0.082 A 
HETATM    3  N1  UNL     1     -51.056  -2.837 -23.544  1.00  0.00    -0.100 NA
HETATM    4  C8  UNL     1     -52.016  -0.987 -22.253  1.00  0.00     0.034 A 
HETATM    5  C9  UNL     1     -52.272  -0.194 -23.332  1.00  0.00    -0.011 A 
HETATM    6  C16 UNL     1     -52.851   1.080 -23.114  1.00  0.00     0.013 A 
HETATM    7  C17 UNL     1     -53.167   1.550 -21.874  1.00  0.00     0.004 A 
HETATM    8  C18 UNL     1     -52.907   0.744 -20.810  1.00  0.00     0.038 A 
HETATM    9  C19 UNL     1     -52.340  -0.509 -20.977  1.00  0.00     0.092 A 
HETATM   10  O6  UNL     1     -52.118  -1.224 -19.902  1.00  0.00    -0.274 OA
HETATM   11  C20 UNL     1     -51.597  -2.386 -19.975  1.00  0.00     0.306 A 
HETATM   12  O7  UNL     1     -51.384  -3.077 -18.921  1.00  0.00    -0.259 OA
ENDROOT
BRANCH   1  13
HETATM   13  C5  UNL     1     -50.641  -4.279 -21.265  1.00  0.00     0.303 C 
HETATM   14  O5  UNL     1     -51.368  -5.289 -21.406  1.00  0.00    -0.259 OA
BRANCH  13  15
HETATM   15  O4  UNL     1     -49.277  -4.508 -21.207  1.00  0.00    -0.291 OA
BRANCH  15  16
HETATM   16  C4  UNL     1     -48.578  -5.323 -22.129  1.00  0.00     0.360 C 
BRANCH  16  17
HETATM   17  O3  UNL     1     -47.452  -4.678 -22.667  1.00  0.00    -0.272 OA
BRANCH  17  18
HETATM   18  C3  UNL     1     -47.638  -3.851 -23.756  1.00  0.00     0.408 C 
HETATM   19  O2  UNL     1     -47.719  -4.341 -24.904  1.00  0.00    -0.229 OA
BRANCH  18  20
HETATM   20  O1  UNL     1     -47.739  -2.482 -23.632  1.00  0.00    -0.298 OA
BRANCH  20  21
HETATM   21  C2  UNL     1     -47.229  -1.805 -22.515  1.00  0.00     0.176 C 
HETATM   22  C1  UNL     1     -48.276  -0.893 -21.948  1.00  0.00     0.034 C 
ENDBRANCH  20  21
ENDBRANCH  18  20
ENDBRANCH  17  18
ENDBRANCH  16  17
ENDBRANCH  15  16
ENDBRANCH  13  15
ENDBRANCH   1  13
BRANCH   5  23
HETATM   23  C10 UNL     1     -52.027  -0.580 -24.691  1.00  0.00    -0.025 A 
HETATM   24  C11 UNL     1     -50.833  -0.283 -25.294  1.00  0.00     0.015 A 
HETATM   25  C12 UNL     1     -50.619  -0.559 -26.647  1.00  0.00     0.043 A 
HETATM   26  C13 UNL     1     -51.621  -1.134 -27.368  1.00  0.00     0.116 A 
HETATM   27  F1  UNL     1     -51.430  -1.414 -28.700  1.00  0.00    -0.206 F 
HETATM   28  C14 UNL     1     -52.820  -1.438 -26.781  1.00  0.00     0.043 A 
HETATM   29  C15 UNL     1     -53.016  -1.159 -25.444  1.00  0.00     0.015 A 
ENDBRANCH   5  23
TORSDOF 8
ENDMDL
MODEL 4
REMARK VINA RESULT: -7.023228854      1.470      1.832
REMARK  8 active torsions:
REMARK  status: ('A' for Active; 'I' for Inactive)
REMARK    1  A    between atoms: C2_2  and  O1_3 
REMARK    2  A    between atoms: O1_3  and  C3_4 
REMARK    3  A    between atoms: C3_4  and  O3_6 
REMARK    4  A    between atoms: O3_6  and  C4_7 
REMARK    5  A    between atoms: C4_7  and  O4_8 
REMARK    6  A    between atoms: O4_8  and  C5_9 
REMARK    7  A    between atoms: C5_9  and  C6_11 
REMARK    8  A    between atoms: C9_15  and  C10_16 
ROOT
HETATM    1  C6  UNL     1     -50.815  -0.004 -21.569  1.00  0.00     0.140 A 
HETATM    2  C7  UNL     1     -51.202  -0.311 -22.879  1.00  0.00     0.082 A 
HETATM    3  N1  UNL     1     -50.340  -1.147 -23.604  1.00  0.00    -0.100 NA
HETATM    4  C8  UNL     1     -52.358   0.223 -23.372  1.00  0.00     0.034 A 
HETATM    5  C9  UNL     1     -52.822  -0.012 -24.632  1.00  0.00    -0.011 A 
HETATM    6  C16 UNL     1     -54.033   0.603 -25.035  1.00  0.00     0.013 A 
HETATM    7  C17 UNL     1     -54.758   1.419 -24.219  1.00  0.00     0.004 A 
HETATM    8  C18 UNL     1     -54.281   1.641 -22.965  1.00  0.00     0.038 A 
HETATM    9  C19 UNL     1     -53.101   1.062 -22.530  1.00  0.00     0.092 A 
HETATM   10  O6  UNL     1     -52.707   1.327 -21.310  1.00  0.00    -0.274 OA
HETATM   11  C20 UNL     1     -51.630   0.832 -20.838  1.00  0.00     0.306 A 
HETATM   12  O7  UNL     1     -51.253   1.096 -19.645  1.00  0.00    -0.259 OA
ENDROOT
BRANCH   1  13
HETATM   13  C5  UNL     1     -49.591  -0.568 -21.045  1.00  0.00     0.303 C 
HETATM   14  O5  UNL     1     -48.519   0.075 -21.119  1.00  0.00    -0.259 OA
BRANCH  13  15
HETATM   15  O4  UNL     1     -49.518  -1.814 -20.446  1.00  0.00    -0.291 OA
BRANCH  15  16
HETATM   16  C4  UNL     1     -48.411  -2.685 -20.579  1.00  0.00     0.360 C 
BRANCH  16  17
HETATM   17  O3  UNL     1     -48.409  -3.365 -21.809  1.00  0.00    -0.272 OA
BRANCH  17  18
HETATM   18  C3  UNL     1     -47.310  -3.215 -22.629  1.00  0.00     0.408 C 
HETATM   19  O2  UNL     1     -46.596  -2.192 -22.535  1.00  0.00    -0.229 OA
BRANCH  18  20
HETATM   20  O1  UNL     1     -46.956  -4.161 -23.567  1.00  0.00    -0.298 OA
BRANCH  20  21
HETATM   21  C2  UNL     1     -47.885  -4.667 -24.488  1.00  0.00     0.176 C 
HETATM   22  C1  UNL     1     -48.294  -3.590 -25.447  1.00  0.00     0.034 C 
ENDBRANCH  20  21
ENDBRANCH  18  20
ENDBRANCH  17  18
ENDBRANCH  16  17
ENDBRANCH  15  16
ENDBRANCH  13  15
ENDBRANCH   1  13
BRANCH   5  23
HETATM   23  C10 UNL     1     -52.181  -0.881 -25.576  1.00  0.00    -0.025 A 
HETATM   24  C11 UNL     1     -51.191  -0.406 -26.397  1.00  0.00     0.015 A 
HETATM   25  C12 UNL     1     -50.631  -1.212 -27.392  1.00  0.00     0.043 A 
HETATM   26  C13 UNL     1     -51.083  -2.488 -27.538  1.00  0.00     0.116 A 
HETATM   27  F1  UNL     1     -50.544  -3.296 -28.511  1.00  0.00    -0.206 F 
HETATM   28  C14 UNL     1     -52.071  -2.978 -26.726  1.00  0.00     0.043 A 
HETATM   29  C15 UNL     1     -52.615  -2.170 -25.748  1.00  0.00     0.015 A 
ENDBRANCH   5  23
TORSDOF 8
ENDMDL
MODEL 5
REMARK VINA RESULT: -6.957195558      3.066      6.592
REMARK  8 active torsions:
REMARK  status: ('A' for Active; 'I' for Inactive)
REMARK    1  A    between atoms: C2_2  and  O1_3 
REMARK    2  A    between atoms: O1_3  and  C3_4 
REMARK    3  A    between atoms: C3_4  and  O3_6 
REMARK    4  A    between atoms: O3_6  and  C4_7 
REMARK    5  A    between atoms: C4_7  and  O4_8 
REMARK    6  A    between atoms: O4_8  and  C5_9 
REMARK    7  A    between atoms: C5_9  and  C6_11 
REMARK    8  A    between atoms: C9_15  and  C10_16 
ROOT
HETATM    1  C6  UNL     1     -51.169  -3.918 -23.560  1.00  0.00     0.140 A 
HETATM    2  C7  UNL     1     -51.416  -2.855 -22.682  1.00  0.00     0.082 A 
HETATM    3  N1  UNL     1     -51.972  -1.697 -23.245  1.00  0.00    -0.100 NA
HETATM    4  C8  UNL     1     -51.090  -2.995 -21.363  1.00  0.00     0.034 A 
HETATM    5  C9  UNL     1     -51.287  -2.022 -20.429  1.00  0.00    -0.011 A 
HETATM    6  C16 UNL     1     -50.904  -2.279 -19.090  1.00  0.00     0.013 A 
HETATM    7  C17 UNL     1     -50.347  -3.457 -18.691  1.00  0.00     0.004 A 
HETATM    8  C18 UNL     1     -50.159  -4.417 -19.635  1.00  0.00     0.038 A 
HETATM    9  C19 UNL     1     -50.518  -4.208 -20.957  1.00  0.00     0.092 A 
HETATM   10  O6  UNL     1     -50.302  -5.180 -21.807  1.00  0.00    -0.274 OA
HETATM   11  C20 UNL     1     -50.604  -5.061 -23.041  1.00  0.00     0.306 A 
HETATM   12  O7  UNL     1     -50.390  -6.016 -23.864  1.00  0.00    -0.259 OA
ENDROOT
BRANCH   1  13
HETATM   13  C5  UNL     1     -51.513  -3.772 -24.956  1.00  0.00     0.303 C 
HETATM   14  O5  UNL     1     -52.565  -4.286 -25.404  1.00  0.00    -0.259 OA
BRANCH  13  15
HETATM   15  O4  UNL     1     -50.733  -3.080 -25.868  1.00  0.00    -0.291 OA
BRANCH  15  16
HETATM   16  C4  UNL     1     -51.252  -2.441 -27.018  1.00  0.00     0.360 C 
BRANCH  16  17
HETATM   17  O3  UNL     1     -51.960  -1.268 -26.706  1.00  0.00    -0.272 OA
BRANCH  17  18
HETATM   18  C3  UNL     1     -53.330  -1.275 -26.868  1.00  0.00     0.408 C 
HETATM   19  O2  UNL     1     -53.823  -1.544 -27.987  1.00  0.00    -0.229 OA
BRANCH  18  20
HETATM   20  O1  UNL     1     -54.197  -0.995 -25.834  1.00  0.00    -0.298 OA
BRANCH  20  21
HETATM   21  C2  UNL     1     -54.820   0.255 -25.716  1.00  0.00     0.176 C 
HETATM   22  C1  UNL     1     -54.170   1.050 -24.623  1.00  0.00     0.034 C 
ENDBRANCH  20  21
ENDBRANCH  18  20
ENDBRANCH  17  18
ENDBRANCH  16  17
ENDBRANCH  15  16
ENDBRANCH  13  15
ENDBRANCH   1  13
BRANCH   5  23
HETATM   23  C10 UNL     1     -51.900  -0.755 -20.705  1.00  0.00    -0.025 A 
HETATM   24  C11 UNL     1     -51.150   0.293 -21.174  1.00  0.00     0.015 A 
HETATM   25  C12 UNL     1     -51.711   1.561 -21.347  1.00  0.00     0.043 A 
HETATM   26  C13 UNL     1     -53.025   1.747 -21.043  1.00  0.00     0.116 A 
HETATM   27  F1  UNL     1     -53.594   2.987 -21.207  1.00  0.00    -0.206 F 
HETATM   28  C14 UNL     1     -53.788   0.712 -20.574  1.00  0.00     0.043 A 
HETATM   29  C15 UNL     1     -53.220  -0.535 -20.407  1.00  0.00     0.015 A 
ENDBRANCH   5  23
TORSDOF 8
ENDMDL
