MODEL 1
REMARK VINA RESULT: -7.651051095      0.000      0.000
REMARK  6 active torsions:
REMARK  status: ('A' for Active; 'I' for Inactive)
REMARK       I    between atoms: C1_2  and  N1_3 
REMARK    1  A    between atoms: C1_2  and  C7_14 
REMARK    2  A    between atoms: N1_3  and  N2_5 
REMARK    3  A    between atoms: C2_7  and  C3_8 
REMARK    4  A    between atoms: C8_18  and  C9_19 
REMARK       I    between atoms: C9_19  and  N4_21 
REMARK    5  A    between atoms: N4_21  and  N5_23 
REMARK    6  A    between atoms: C10_25  and  C11_26 
ROOT
HETATM    1  C7  UNL     1     -52.865   1.271 -19.699  1.00  0.00     0.198 A 
HETATM    2  N3  UNL     1     -52.871   1.552 -18.390  1.00  0.00    -0.238 N 
ATOM      3  H3  UNL     1     -53.474   2.239 -17.934  1.00  0.00     0.197 HD
HETATM    4  O2  UNL     1     -51.984   0.808 -17.793  1.00  0.00    -0.212 OA
HETATM    5  C8  UNL     1     -51.378   0.036 -18.647  1.00  0.00     0.242 A 
HETATM    6  N6  UNL     1     -51.929   0.321 -19.856  1.00  0.00    -0.311 N 
ATOM      7  H6  UNL     1     -51.672  -0.116 -20.741  1.00  0.00     0.170 HD
ENDROOT
BRANCH   5   8
HETATM    8  C9  UNL     1     -50.338  -0.921 -18.350  1.00  0.00     0.313 C 
HETATM    9  O3  UNL     1     -50.473  -1.687 -17.365  1.00  0.00    -0.262 OA
HETATM   10  N4  UNL     1     -49.147  -1.044 -19.125  1.00  0.00    -0.263 N 
ATOM     11  H4  UNL     1     -49.027  -0.428 -19.929  1.00  0.00     0.190 HD
BRANCH  10  12
HETATM   12  N5  UNL     1     -48.151  -1.952 -18.842  1.00  0.00    -0.308 N 
HETATM   13  C10 UNL     1     -47.736  -2.779 -19.708  1.00  0.00     0.127 C 
ATOM     14  H5  UNL     1     -47.736  -1.960 -17.910  1.00  0.00     0.186 HD
BRANCH  13  15
HETATM   15  C11 UNL     1     -48.254  -2.862 -21.068  1.00  0.00     0.046 A 
HETATM   16  S2  UNL     1     -47.514  -2.319 -22.504  1.00  0.00    -0.073 SA
HETATM   17  C12 UNL     1     -48.717  -2.768 -23.626  1.00  0.00     0.098 A 
HETATM   18 CL1  UNL     1     -48.737  -2.556 -25.390  1.00  0.00    -0.074 Cl
HETATM   19  C13 UNL     1     -49.675  -3.335 -22.832  1.00  0.00     0.085 A 
HETATM   20 CL2  UNL     1     -51.166  -3.971 -23.585  1.00  0.00    -0.080 Cl
HETATM   21  C14 UNL     1     -49.441  -3.387 -21.515  1.00  0.00     0.076 A 
HETATM   22 CL3  UNL     1     -50.576  -4.092 -20.325  1.00  0.00    -0.081 Cl
ENDBRANCH  13  15
ENDBRANCH  10  12
ENDBRANCH   5   8
BRANCH   1  23
HETATM   23  C1  UNL     1     -53.675   1.841 -20.757  1.00  0.00     0.305 C 
HETATM   24  O1  UNL     1     -54.066   3.046 -20.693  1.00  0.00    -0.263 OA
HETATM   25  N1  UNL     1     -54.069   1.091 -21.906  1.00  0.00    -0.264 N 
ATOM     26  H1  UNL     1     -53.784   0.118 -22.015  1.00  0.00     0.190 HD
BRANCH  25  27
HETATM   27  N2  UNL     1     -54.847   1.711 -22.871  1.00  0.00    -0.308 N 
HETATM   28  C2  UNL     1     -54.682   1.510 -24.106  1.00  0.00     0.129 C 
ATOM     29  H2  UNL     1     -55.580   2.353 -22.571  1.00  0.00     0.186 HD
BRANCH  28  30
HETATM   30  C3  UNL     1     -53.645   0.596 -24.603  1.00  0.00     0.060 A 
HETATM   31  S1  UNL     1     -52.003   0.449 -24.145  1.00  0.00    -0.098 SA
HETATM   32  C4  UNL     1     -51.530  -0.814 -25.182  1.00  0.00     0.053 A 
HETATM   33  C5  UNL     1     -52.683  -1.092 -25.869  1.00  0.00     0.051 A 
HETATM   34  C6  UNL     1     -53.766  -0.369 -25.572  1.00  0.00     0.135 A 
HETATM   35  F1  UNL     1     -54.991  -0.559 -26.202  1.00  0.00    -0.205 F 
ENDBRANCH  28  30
ENDBRANCH  25  27
ENDBRANCH   1  23
TORSDOF 6
ENDMDL
MODEL 2
REMARK VINA RESULT: -7.631100844      3.147      6.046
REMARK  6 active torsions:
REMARK  status: ('A' for Active; 'I' for Inactive)
REMARK       I    between atoms: C1_2  and  N1_3 
REMARK    1  A    between atoms: C1_2  and  C7_14 
REMARK    2  A    between atoms: N1_3  and  N2_5 
REMARK    3  A    between atoms: C2_7  and  C3_8 
REMARK    4  A    between atoms: C8_18  and  C9_19 
REMARK       I    between atoms: C9_19  and  N4_21 
REMARK    5  A    between atoms: N4_21  and  N5_23 
REMARK    6  A    between atoms: C10_25  and  C11_26 
ROOT
HETATM    1  C7  UNL     1     -53.721   1.202 -22.585  1.00  0.00     0.198 A 
HETATM    2  N3  UNL     1     -54.798   1.775 -23.137  1.00  0.00    -0.238 N 
ATOM      3  H3  UNL     1     -55.390   2.477 -22.691  1.00  0.00     0.197 HD
HETATM    4  O2  UNL     1     -54.967   1.292 -24.335  1.00  0.00    -0.212 OA
HETATM    5  C8  UNL     1     -54.048   0.414 -24.613  1.00  0.00     0.242 A 
HETATM    6  N6  UNL     1     -53.255   0.350 -23.512  1.00  0.00    -0.311 N 
ATOM      7  H6  UNL     1     -52.436  -0.249 -23.407  1.00  0.00     0.170 HD
ENDROOT
BRANCH   5   8
HETATM    8  C9  UNL     1     -53.917  -0.328 -25.845  1.00  0.00     0.313 C 
HETATM    9  O3  UNL     1     -54.912  -0.439 -26.603  1.00  0.00    -0.262 OA
HETATM   10  N4  UNL     1     -52.702  -0.952 -26.254  1.00  0.00    -0.263 N 
ATOM     11  H4  UNL     1     -51.886  -0.867 -25.648  1.00  0.00     0.190 HD
BRANCH  10  12
HETATM   12  N5  UNL     1     -52.574  -1.664 -27.427  1.00  0.00    -0.308 N 
HETATM   13  C10 UNL     1     -51.942  -2.761 -27.477  1.00  0.00     0.127 C 
ATOM     14  H5  UNL     1     -53.000  -1.297 -28.279  1.00  0.00     0.186 HD
BRANCH  13  15
HETATM   15  C11 UNL     1     -51.294  -3.379 -26.327  1.00  0.00     0.046 A 
HETATM   16  S2  UNL     1     -52.002  -4.361 -25.129  1.00  0.00    -0.073 SA
HETATM   17  C12 UNL     1     -50.626  -4.673 -24.171  1.00  0.00     0.098 A 
HETATM   18 CL1  UNL     1     -50.491  -5.641 -22.688  1.00  0.00    -0.074 Cl
HETATM   19  C13 UNL     1     -49.640  -3.989 -24.827  1.00  0.00     0.085 A 
HETATM   20 CL2  UNL     1     -47.976  -4.023 -24.176  1.00  0.00    -0.080 Cl
HETATM   21  C14 UNL     1     -49.978  -3.322 -25.938  1.00  0.00     0.076 A 
HETATM   22 CL3  UNL     1     -48.825  -2.374 -26.925  1.00  0.00    -0.081 Cl
ENDBRANCH  13  15
ENDBRANCH  10  12
ENDBRANCH   5   8
BRANCH   1  23
HETATM   23  C1  UNL     1     -53.145   1.420 -21.273  1.00  0.00     0.305 C 
HETATM   24  O1  UNL     1     -53.557   2.366 -20.536  1.00  0.00    -0.263 OA
HETATM   25  N1  UNL     1     -52.101   0.598 -20.751  1.00  0.00    -0.264 N 
ATOM     26  H1  UNL     1     -51.729  -0.180 -21.296  1.00  0.00     0.190 HD
BRANCH  25  27
HETATM   27  N2  UNL     1     -51.603   0.877 -19.489  1.00  0.00    -0.308 N 
HETATM   28  C2  UNL     1     -50.633   0.243 -18.987  1.00  0.00     0.129 C 
ATOM     29  H2  UNL     1     -52.036   1.622 -18.944  1.00  0.00     0.186 HD
BRANCH  28  30
HETATM   30  C3  UNL     1     -49.965  -0.841 -19.720  1.00  0.00     0.060 A 
HETATM   31  S1  UNL     1     -49.996  -2.530 -19.448  1.00  0.00    -0.098 SA
HETATM   32  C4  UNL     1     -48.981  -3.041 -20.715  1.00  0.00     0.053 A 
HETATM   33  C5  UNL     1     -48.639  -1.862 -21.325  1.00  0.00     0.051 A 
HETATM   34  C6  UNL     1     -49.142  -0.735 -20.814  1.00  0.00     0.135 A 
HETATM   35  F1  UNL     1     -48.866   0.518 -21.348  1.00  0.00    -0.205 F 
ENDBRANCH  28  30
ENDBRANCH  25  27
ENDBRANCH   1  23
TORSDOF 6
ENDMDL
MODEL 3
REMARK VINA RESULT: -7.596378092      1.029      1.510
REMARK  6 active torsions:
REMARK  status: ('A' for Active; 'I' for Inactive)
REMARK       I    between atoms: C1_2  and  N1_3 
REMARK    1  A    between atoms: C1_2  and  C7_14 
REMARK    2  A    between atoms: N1_3  and  N2_5 
REMARK    3  A    between atoms: C2_7  and  C3_8 
REMARK    4  A    between atoms: C8_18  and  C9_19 
REMARK       I    between atoms: C9_19  and  N4_21 
REMARK    5  A    between atoms: N4_21  and  N5_23 
REMARK    6  A    between atoms: C10_25  and  C11_26 
ROOT
HETATM    1  C7  UNL     1     -52.867   1.276 -19.693  1.00  0.00     0.198 A 
HETATM    2  N3  UNL     1     -52.885   1.565 -18.386  1.00  0.00    -0.238 N 
ATOM      3  H3  UNL     1     -53.490   2.256 -17.940  1.00  0.00     0.197 HD
HETATM    4  O2  UNL     1     -52.006   0.822 -17.776  1.00  0.00    -0.212 OA
HETATM    5  C8  UNL     1     -51.394   0.044 -18.621  1.00  0.00     0.242 A 
HETATM    6  N6  UNL     1     -51.932   0.323 -19.836  1.00  0.00    -0.311 N 
ATOM      7  H6  UNL     1     -51.669  -0.120 -20.716  1.00  0.00     0.170 HD
ENDROOT
BRANCH   5   8
HETATM    8  C9  UNL     1     -50.359  -0.914 -18.308  1.00  0.00     0.313 C 
HETATM    9  O3  UNL     1     -50.489  -1.651 -17.300  1.00  0.00    -0.262 OA
HETATM   10  N4  UNL     1     -49.178  -1.070 -19.092  1.00  0.00    -0.263 N 
ATOM     11  H4  UNL     1     -49.062  -0.478 -19.915  1.00  0.00     0.190 HD
BRANCH  10  12
HETATM   12  N5  UNL     1     -48.187  -1.979 -18.795  1.00  0.00    -0.308 N 
HETATM   13  C10 UNL     1     -47.958  -2.983 -19.534  1.00  0.00     0.127 C 
ATOM     14  H5  UNL     1     -47.622  -1.842 -17.957  1.00  0.00     0.186 HD
BRANCH  13  15
HETATM   15  C11 UNL     1     -48.700  -3.282 -20.752  1.00  0.00     0.046 A 
HETATM   16  S2  UNL     1     -50.290  -3.880 -20.890  1.00  0.00    -0.073 SA
HETATM   17  C12 UNL     1     -50.416  -3.955 -22.589  1.00  0.00     0.098 A 
HETATM   18 CL1  UNL     1     -51.787  -4.485 -23.586  1.00  0.00    -0.074 Cl
HETATM   19  C13 UNL     1     -49.193  -3.504 -23.003  1.00  0.00     0.085 A 
HETATM   20 CL2  UNL     1     -48.850  -3.404 -24.754  1.00  0.00    -0.080 Cl
HETATM   21  C14 UNL     1     -48.307  -3.156 -22.062  1.00  0.00     0.076 A 
HETATM   22 CL3  UNL     1     -46.662  -2.546 -22.415  1.00  0.00    -0.081 Cl
ENDBRANCH  13  15
ENDBRANCH  10  12
ENDBRANCH   5   8
BRANCH   1  23
HETATM   23  C1  UNL     1     -53.666   1.843 -20.762  1.00  0.00     0.305 C 
HETATM   24  O1  UNL     1     -54.076   3.041 -20.696  1.00  0.00    -0.263 OA
HETATM   25  N1  UNL     1     -54.027   1.096 -21.924  1.00  0.00    -0.264 N 
ATOM     26  H1  UNL     1     -53.724   0.128 -22.035  1.00  0.00     0.190 HD
BRANCH  25  27
HETATM   27  N2  UNL     1     -54.795   1.711 -22.899  1.00  0.00    -0.308 N 
HETATM   28  C2  UNL     1     -54.635   1.487 -24.130  1.00  0.00     0.129 C 
ATOM     29  H2  UNL     1     -55.518   2.370 -22.609  1.00  0.00     0.186 HD
BRANCH  28  30
HETATM   30  C3  UNL     1     -53.613   0.548 -24.612  1.00  0.00     0.060 A 
HETATM   31  S1  UNL     1     -51.983   0.359 -24.129  1.00  0.00    -0.098 SA
HETATM   32  C4  UNL     1     -51.526  -0.914 -25.161  1.00  0.00     0.053 A 
HETATM   33  C5  UNL     1     -52.674  -1.161 -25.866  1.00  0.00     0.051 A 
HETATM   34  C6  UNL     1     -53.743  -0.412 -25.585  1.00  0.00     0.135 A 
HETATM   35  F1  UNL     1     -54.962  -0.571 -26.235  1.00  0.00    -0.205 F 
ENDBRANCH  28  30
ENDBRANCH  25  27
ENDBRANCH   1  23
TORSDOF 6
ENDMDL
MODEL 4
REMARK VINA RESULT: -7.595402816      4.917      7.833
REMARK  6 active torsions:
REMARK  status: ('A' for Active; 'I' for Inactive)
REMARK       I    between atoms: C1_2  and  N1_3 
REMARK    1  A    between atoms: C1_2  and  C7_14 
REMARK    2  A    between atoms: N1_3  and  N2_5 
REMARK    3  A    between atoms: C2_7  and  C3_8 
REMARK    4  A    between atoms: C8_18  and  C9_19 
REMARK       I    between atoms: C9_19  and  N4_21 
REMARK    5  A    between atoms: N4_21  and  N5_23 
REMARK    6  A    between atoms: C10_25  and  C11_26 
ROOT
HETATM    1  C7  UNL     1     -52.066  -2.390 -27.668  1.00  0.00     0.198 A 
HETATM    2  N3  UNL     1     -53.018  -2.184 -28.586  1.00  0.00    -0.238 N 
ATOM      3  H3  UNL     1     -53.018  -2.561 -29.535  1.00  0.00     0.197 HD
HETATM    4  O2  UNL     1     -53.944  -1.425 -28.073  1.00  0.00    -0.212 OA
HETATM    5  C8  UNL     1     -53.654  -1.109 -26.844  1.00  0.00     0.242 A 
HETATM    6  N6  UNL     1     -52.468  -1.715 -26.579  1.00  0.00    -0.311 N 
ATOM      7  H6  UNL     1     -51.963  -1.665 -25.694  1.00  0.00     0.170 HD
ENDROOT
BRANCH   5   8
HETATM    8  C9  UNL     1     -54.445  -0.283 -25.963  1.00  0.00     0.313 C 
HETATM    9  O3  UNL     1     -55.695  -0.286 -26.077  1.00  0.00    -0.262 OA
HETATM   10  N4  UNL     1     -53.876   0.549 -24.954  1.00  0.00    -0.263 N 
ATOM     11  H4  UNL     1     -52.862   0.559 -24.850  1.00  0.00     0.190 HD
BRANCH  10  12
HETATM   12  N5  UNL     1     -54.628   1.342 -24.114  1.00  0.00    -0.308 N 
HETATM   13  C10 UNL     1     -54.266   1.583 -22.923  1.00  0.00     0.127 C 
ATOM     14  H5  UNL     1     -55.499   1.744 -24.459  1.00  0.00     0.186 HD
BRANCH  13  15
HETATM   15  C11 UNL     1     -53.044   1.062 -22.323  1.00  0.00     0.046 A 
HETATM   16  S2  UNL     1     -51.798   0.181 -23.082  1.00  0.00    -0.073 SA
HETATM   17  C12 UNL     1     -50.764  -0.048 -21.746  1.00  0.00     0.098 A 
HETATM   18 CL1  UNL     1     -49.202  -0.891 -21.673  1.00  0.00    -0.074 Cl
HETATM   19  C13 UNL     1     -51.434   0.579 -20.733  1.00  0.00     0.085 A 
HETATM   20 CL2  UNL     1     -50.715   0.601 -19.096  1.00  0.00    -0.080 Cl
HETATM   21  C14 UNL     1     -52.607   1.153 -21.024  1.00  0.00     0.076 A 
HETATM   22 CL3  UNL     1     -53.622   2.017 -19.830  1.00  0.00    -0.081 Cl
ENDBRANCH  13  15
ENDBRANCH  10  12
ENDBRANCH   5   8
BRANCH   1  23
HETATM   23  C1  UNL     1     -50.847  -3.166 -27.778  1.00  0.00     0.305 C 
HETATM   24  O1  UNL     1     -50.261  -3.292 -28.895  1.00  0.00    -0.263 OA
HETATM   25  N1  UNL     1     -50.252  -3.818 -26.656  1.00  0.00    -0.264 N 
ATOM     26  H1  UNL     1     -50.677  -3.752 -25.731  1.00  0.00     0.190 HD
BRANCH  25  27
HETATM   27  N2  UNL     1     -49.088  -4.543 -26.847  1.00  0.00    -0.308 N 
HETATM   28  C2  UNL     1     -48.507  -5.155 -25.908  1.00  0.00     0.129 C 
ATOM     29  H2  UNL     1     -48.685  -4.584 -27.783  1.00  0.00     0.186 HD
BRANCH  28  30
HETATM   30  C3  UNL     1     -49.037  -5.136 -24.538  1.00  0.00     0.060 A 
HETATM   31  S1  UNL     1     -50.143  -6.195 -23.776  1.00  0.00    -0.098 SA
HETATM   32  C4  UNL     1     -50.211  -5.476 -22.235  1.00  0.00     0.053 A 
HETATM   33  C5  UNL     1     -49.356  -4.412 -22.358  1.00  0.00     0.051 A 
HETATM   34  C6  UNL     1     -48.756  -4.238 -23.538  1.00  0.00     0.135 A 
HETATM   35  F1  UNL     1     -47.870  -3.194 -23.781  1.00  0.00    -0.205 F 
ENDBRANCH  28  30
ENDBRANCH  25  27
ENDBRANCH   1  23
TORSDOF 6
ENDMDL
MODEL 5
REMARK VINA RESULT: -7.585448885      4.115      5.913
REMARK  6 active torsions:
REMARK  status: ('A' for Active; 'I' for Inactive)
REMARK       I    between atoms: C1_2  and  N1_3 
REMARK    1  A    between atoms: C1_2  and  C7_14 
REMARK    2  A    between atoms: N1_3  and  N2_5 
REMARK    3  A    between atoms: C2_7  and  C3_8 
REMARK    4  A    between atoms: C8_18  and  C9_19 
REMARK       I    between atoms: C9_19  and  N4_21 
REMARK    5  A    between atoms: N4_21  and  N5_23 
REMARK    6  A    between atoms: C10_25  and  C11_26 
ROOT
HETATM    1  C7  UNL     1     -53.808  -0.749 -26.037  1.00  0.00     0.198 A 
HETATM    2  N3  UNL     1     -54.074  -1.156 -27.285  1.00  0.00    -0.238 N 
ATOM      3  H3  UNL     1     -54.806  -0.780 -27.887  1.00  0.00     0.197 HD
HETATM    4  O2  UNL     1     -53.246  -2.110 -27.603  1.00  0.00    -0.212 OA
HETATM    5  C8  UNL     1     -52.432  -2.364 -26.620  1.00  0.00     0.242 A 
HETATM    6  N6  UNL     1     -52.780  -1.508 -25.625  1.00  0.00    -0.311 N 
ATOM      7  H6  UNL     1     -52.332  -1.451 -24.710  1.00  0.00     0.170 HD
ENDROOT
BRANCH   5   8
HETATM    8  C9  UNL     1     -51.383  -3.356 -26.611  1.00  0.00     0.313 C 
HETATM    9  O3  UNL     1     -50.572  -3.401 -27.568  1.00  0.00    -0.262 OA
HETATM   10  N4  UNL     1     -51.215  -4.304 -25.558  1.00  0.00    -0.263 N 
ATOM     11  H4  UNL     1     -51.866  -4.276 -24.774  1.00  0.00     0.190 HD
BRANCH  10  12
HETATM   12  N5  UNL     1     -50.217  -5.254 -25.548  1.00  0.00    -0.308 N 
HETATM   13  C10 UNL     1     -49.352  -5.304 -24.623  1.00  0.00     0.127 C 
ATOM     14  H5  UNL     1     -50.173  -5.936 -26.305  1.00  0.00     0.186 HD
BRANCH  13  15
HETATM   15  C11 UNL     1     -49.315  -4.383 -23.494  1.00  0.00     0.046 A 
HETATM   16  S2  UNL     1     -49.718  -4.703 -21.869  1.00  0.00    -0.073 SA
HETATM   17  C12 UNL     1     -49.420  -3.164 -21.198  1.00  0.00     0.098 A 
HETATM   18 CL1  UNL     1     -49.596  -2.625 -19.514  1.00  0.00    -0.074 Cl
HETATM   19  C13 UNL     1     -49.009  -2.437 -22.280  1.00  0.00     0.085 A 
HETATM   20 CL2  UNL     1     -48.573  -0.717 -22.058  1.00  0.00    -0.080 Cl
HETATM   21  C14 UNL     1     -48.952  -3.059 -23.463  1.00  0.00     0.076 A 
HETATM   22 CL3  UNL     1     -48.439  -2.270 -24.985  1.00  0.00    -0.081 Cl
ENDBRANCH  13  15
ENDBRANCH  10  12
ENDBRANCH   5   8
BRANCH   1  23
HETATM   23  C1  UNL     1     -54.461   0.284 -25.258  1.00  0.00     0.305 C 
HETATM   24  O1  UNL     1     -55.525   0.832 -25.675  1.00  0.00    -0.263 OA
HETATM   25  N1  UNL     1     -53.950   0.731 -24.002  1.00  0.00    -0.264 N 
ATOM     26  H1  UNL     1     -53.099   0.326 -23.612  1.00  0.00     0.190 HD
BRANCH  25  27
HETATM   27  N2  UNL     1     -54.634   1.725 -23.321  1.00  0.00    -0.308 N 
HETATM   28  C2  UNL     1     -54.487   1.924 -22.084  1.00  0.00     0.129 C 
ATOM     29  H2  UNL     1     -55.280   2.319 -23.841  1.00  0.00     0.186 HD
BRANCH  28  30
HETATM   30  C3  UNL     1     -53.572   1.104 -21.279  1.00  0.00     0.060 A 
HETATM   31  S1  UNL     1     -53.915  -0.114 -20.128  1.00  0.00    -0.098 SA
HETATM   32  C4  UNL     1     -52.329  -0.540 -19.681  1.00  0.00     0.053 A 
HETATM   33  C5  UNL     1     -51.562   0.293 -20.453  1.00  0.00     0.051 A 
HETATM   34  C6  UNL     1     -52.199   1.135 -21.271  1.00  0.00     0.135 A 
HETATM   35  F1  UNL     1     -51.527   2.026 -22.100  1.00  0.00    -0.205 F 
ENDBRANCH  28  30
ENDBRANCH  25  27
ENDBRANCH   1  23
TORSDOF 6
ENDMDL
