MODEL 1
REMARK VINA RESULT: -8.630571020      0.000      0.000
REMARK  6 active torsions:
REMARK  status: ('A' for Active; 'I' for Inactive)
REMARK    1  A    between atoms: C4_7  and  C5_8 
REMARK    2  A    between atoms: C12_17  and  N2_18 
REMARK       I    between atoms: N2_18  and  C13_20 
REMARK    3  A    between atoms: C13_20  and  C14_22 
REMARK    4  A    between atoms: C14_22  and  N3_23 
REMARK    5  A    between atoms: C15_28  and  C16_29 
REMARK    6  A    between atoms: C19_32  and  N6_33 
ROOT
HETATM    1  N2  UNL     1     -51.571   1.157 -21.392  1.00  0.00    -0.322 N 
ATOM      2  H2  UNL     1     -51.081   2.047 -21.480  1.00  0.00     0.169 HD
HETATM    3  C13 UNL     1     -52.830   1.101 -20.744  1.00  0.00     0.243 C 
HETATM    4  O1  UNL     1     -53.473   0.021 -20.612  1.00  0.00    -0.271 OA
ENDROOT
BRANCH   1   5
HETATM    5  C12 UNL     1     -50.993  -0.029 -21.919  1.00  0.00     0.085 A 
HETATM    6  C1  UNL     1     -50.154  -0.773 -21.119  1.00  0.00     0.116 A 
HETATM    7  N1  UNL     1     -49.900  -0.321 -19.797  1.00  0.00    -0.097 NA
HETATM    8  C2  UNL     1     -49.589  -1.926 -21.621  1.00  0.00     0.182 A 
HETATM    9  F1  UNL     1     -48.756  -2.665 -20.829  1.00  0.00    -0.201 F 
HETATM   10  C3  UNL     1     -49.886  -2.299 -22.919  1.00  0.00     0.169 A 
HETATM   11  F2  UNL     1     -49.335  -3.430 -23.420  1.00  0.00    -0.202 F 
HETATM   12  C4  UNL     1     -50.725  -1.567 -23.739  1.00  0.00     0.043 A 
HETATM   13  C11 UNL     1     -51.286  -0.415 -23.227  1.00  0.00     0.077 A 
HETATM   14 CL1  UNL     1     -52.352   0.528 -24.248  1.00  0.00    -0.081 Cl
BRANCH  12  15
HETATM   15  C5  UNL     1     -51.003  -2.012 -25.108  1.00  0.00     0.018 A 
HETATM   16  C6  UNL     1     -50.179  -1.616 -26.150  1.00  0.00     0.015 A 
HETATM   17  C7  UNL     1     -50.414  -2.019 -27.448  1.00  0.00     0.001 A 
HETATM   18  C8  UNL     1     -51.484  -2.833 -27.751  1.00  0.00     0.003 A 
HETATM   19  C9  UNL     1     -52.318  -3.239 -26.729  1.00  0.00     0.043 A 
HETATM   20  C10 UNL     1     -52.068  -2.826 -25.429  1.00  0.00     0.127 A 
HETATM   21  F3  UNL     1     -52.882  -3.223 -24.426  1.00  0.00    -0.205 F 
ENDBRANCH  12  15
ENDBRANCH   1   5
BRANCH   3  22
HETATM   22  C14 UNL     1     -53.447   2.322 -20.189  1.00  0.00     0.274 C 
BRANCH  22  23
HETATM   23  N3  UNL     1     -53.268   2.321 -18.755  1.00  0.00    -0.209 N 
HETATM   24  N4  UNL     1     -53.607   3.220 -17.849  1.00  0.00    -0.224 N 
HETATM   25  N5  UNL     1     -53.272   2.843 -16.639  1.00  0.00    -0.266 N 
ATOM     26  H4  UNL     1     -54.072   4.101 -18.065  1.00  0.00     0.210 HD
HETATM   27  C15 UNL     1     -52.688   1.643 -16.758  1.00  0.00     0.172 A 
ATOM     28  H5  UNL     1     -53.426   3.362 -15.775  1.00  0.00     0.190 HD
HETATM   29  N7  UNL     1     -52.694   1.338 -18.065  1.00  0.00    -0.264 N 
ATOM     30  H7  UNL     1     -52.316   0.481 -18.468  1.00  0.00     0.190 HD
BRANCH  27  31
HETATM   31  C16 UNL     1     -52.141   0.812 -15.672  1.00  0.00     0.124 A 
HETATM   32  C17 UNL     1     -50.847   0.401 -15.563  1.00  0.00     0.046 A 
HETATM   33  C18 UNL     1     -50.797  -0.344 -14.406  1.00  0.00     0.066 A 
HETATM   34  C19 UNL     1     -52.073  -0.356 -13.851  1.00  0.00     0.215 A 
HETATM   35  O4  UNL     1     -52.820   0.353 -14.661  1.00  0.00    -0.285 OA
BRANCH  34  36
HETATM   36  N6  UNL     1     -52.489  -1.002 -12.655  1.00  0.00    -0.090 N 
HETATM   37  O2  UNL     1     -51.742  -1.805 -12.083  1.00  0.00    -0.530 OA
HETATM   38  O3  UNL     1     -53.718  -0.742 -12.122  1.00  0.00    -0.530 OA
ENDBRANCH  34  36
ENDBRANCH  27  31
ENDBRANCH  22  23
ENDBRANCH   3  22
TORSDOF 6
ENDMDL
MODEL 2
REMARK VINA RESULT: -8.566182999      1.896      3.150
REMARK  6 active torsions:
REMARK  status: ('A' for Active; 'I' for Inactive)
REMARK    1  A    between atoms: C4_7  and  C5_8 
REMARK    2  A    between atoms: C12_17  and  N2_18 
REMARK       I    between atoms: N2_18  and  C13_20 
REMARK    3  A    between atoms: C13_20  and  C14_22 
REMARK    4  A    between atoms: C14_22  and  N3_23 
REMARK    5  A    between atoms: C15_28  and  C16_29 
REMARK    6  A    between atoms: C19_32  and  N6_33 
ROOT
HETATM    1  N2  UNL     1     -52.712   1.513 -22.472  1.00  0.00    -0.322 N 
ATOM      2  H2  UNL     1     -52.330   2.443 -22.642  1.00  0.00     0.169 HD
HETATM    3  C13 UNL     1     -53.267   1.194 -21.207  1.00  0.00     0.243 C 
HETATM    4  O1  UNL     1     -53.751   0.055 -20.950  1.00  0.00    -0.271 OA
ENDROOT
BRANCH   1   5
HETATM    5  C12 UNL     1     -52.688   0.534 -23.500  1.00  0.00     0.085 A 
HETATM    6  C1  UNL     1     -53.687   0.540 -24.449  1.00  0.00     0.116 A 
HETATM    7  N1  UNL     1     -54.702   1.529 -24.359  1.00  0.00    -0.097 NA
HETATM    8  C2  UNL     1     -53.672  -0.406 -25.451  1.00  0.00     0.182 A 
HETATM    9  F1  UNL     1     -54.662  -0.401 -26.393  1.00  0.00    -0.201 F 
HETATM   10  C3  UNL     1     -52.649  -1.336 -25.471  1.00  0.00     0.169 A 
HETATM   11  F2  UNL     1     -52.627  -2.269 -26.452  1.00  0.00    -0.202 F 
HETATM   12  C4  UNL     1     -51.637  -1.361 -24.529  1.00  0.00     0.043 A 
HETATM   13  C11 UNL     1     -51.660  -0.409 -23.530  1.00  0.00     0.077 A 
HETATM   14 CL1  UNL     1     -50.388  -0.421 -22.325  1.00  0.00    -0.081 Cl
BRANCH  12  15
HETATM   15  C5  UNL     1     -50.577  -2.371 -24.600  1.00  0.00     0.018 A 
HETATM   16  C6  UNL     1     -49.484  -2.178 -25.430  1.00  0.00     0.015 A 
HETATM   17  C7  UNL     1     -48.471  -3.110 -25.518  1.00  0.00     0.001 A 
HETATM   18  C8  UNL     1     -48.516  -4.271 -24.777  1.00  0.00     0.003 A 
HETATM   19  C9  UNL     1     -49.595  -4.485 -23.944  1.00  0.00     0.043 A 
HETATM   20  C10 UNL     1     -50.605  -3.538 -23.867  1.00  0.00     0.127 A 
HETATM   21  F3  UNL     1     -51.663  -3.744 -23.051  1.00  0.00    -0.205 F 
ENDBRANCH  12  15
ENDBRANCH   1   5
BRANCH   3  22
HETATM   22  C14 UNL     1     -53.300   2.197 -20.124  1.00  0.00     0.274 C 
BRANCH  22  23
HETATM   23  N3  UNL     1     -52.631   1.651 -18.965  1.00  0.00    -0.209 N 
HETATM   24  N4  UNL     1     -51.549   0.900 -18.877  1.00  0.00    -0.224 N 
HETATM   25  N5  UNL     1     -51.257   0.612 -17.632  1.00  0.00    -0.266 N 
ATOM     26  H4  UNL     1     -51.006   0.582 -19.679  1.00  0.00     0.210 HD
HETATM   27  C15 UNL     1     -52.189   1.200 -16.872  1.00  0.00     0.172 A 
ATOM     28  H5  UNL     1     -50.472   0.048 -17.305  1.00  0.00     0.190 HD
HETATM   29  N7  UNL     1     -53.026   1.834 -17.708  1.00  0.00    -0.264 N 
ATOM     30  H7  UNL     1     -53.841   2.376 -17.422  1.00  0.00     0.190 HD
BRANCH  27  31
HETATM   31  C16 UNL     1     -52.288   1.165 -15.402  1.00  0.00     0.124 A 
HETATM   32  C17 UNL     1     -51.798   2.109 -14.551  1.00  0.00     0.046 A 
HETATM   33  C18 UNL     1     -52.119   1.663 -13.288  1.00  0.00     0.066 A 
HETATM   34  C19 UNL     1     -52.797   0.456 -13.422  1.00  0.00     0.215 A 
HETATM   35  O4  UNL     1     -52.860   0.223 -14.709  1.00  0.00    -0.285 OA
BRANCH  34  36
HETATM   36  N6  UNL     1     -53.317  -0.362 -12.382  1.00  0.00    -0.090 N 
HETATM   37  O2  UNL     1     -54.302   0.002 -11.728  1.00  0.00    -0.530 OA
HETATM   38  O3  UNL     1     -52.734  -1.562 -12.091  1.00  0.00    -0.530 OA
ENDBRANCH  34  36
ENDBRANCH  27  31
ENDBRANCH  22  23
ENDBRANCH   3  22
TORSDOF 6
ENDMDL
MODEL 3
REMARK VINA RESULT: -8.540101028      5.750      9.042
REMARK  6 active torsions:
REMARK  status: ('A' for Active; 'I' for Inactive)
REMARK    1  A    between atoms: C4_7  and  C5_8 
REMARK    2  A    between atoms: C12_17  and  N2_18 
REMARK       I    between atoms: N2_18  and  C13_20 
REMARK    3  A    between atoms: C13_20  and  C14_22 
REMARK    4  A    between atoms: C14_22  and  N3_23 
REMARK    5  A    between atoms: C15_28  and  C16_29 
REMARK    6  A    between atoms: C19_32  and  N6_33 
ROOT
HETATM    1  N2  UNL     1     -47.866  -3.107 -23.107  1.00  0.00    -0.322 N 
ATOM      2  H2  UNL     1     -47.212  -2.566 -23.673  1.00  0.00     0.169 HD
HETATM    3  C13 UNL     1     -48.285  -4.390 -23.538  1.00  0.00     0.243 C 
HETATM    4  O1  UNL     1     -49.094  -5.095 -22.869  1.00  0.00    -0.271 OA
ENDROOT
BRANCH   1   5
HETATM    5  C12 UNL     1     -48.358  -2.575 -21.885  1.00  0.00     0.085 A 
HETATM    6  C1  UNL     1     -47.639  -2.785 -20.729  1.00  0.00     0.116 A 
HETATM    7  N1  UNL     1     -46.431  -3.527 -20.807  1.00  0.00    -0.097 NA
HETATM    8  C2  UNL     1     -48.110  -2.272 -19.539  1.00  0.00     0.182 A 
HETATM    9  F1  UNL     1     -47.398  -2.480 -18.391  1.00  0.00    -0.201 F 
HETATM   10  C3  UNL     1     -49.295  -1.560 -19.545  1.00  0.00     0.169 A 
HETATM   11  F2  UNL     1     -49.764  -1.053 -18.380  1.00  0.00    -0.202 F 
HETATM   12  C4  UNL     1     -50.033  -1.338 -20.693  1.00  0.00     0.043 A 
HETATM   13  C11 UNL     1     -49.553  -1.855 -21.880  1.00  0.00     0.077 A 
HETATM   14 CL1  UNL     1     -50.472  -1.586 -23.348  1.00  0.00    -0.081 Cl
BRANCH  12  15
HETATM   15  C5  UNL     1     -51.283  -0.575 -20.639  1.00  0.00     0.018 A 
HETATM   16  C6  UNL     1     -51.300   0.763 -20.999  1.00  0.00     0.015 A 
HETATM   17  C7  UNL     1     -52.460   1.507 -20.960  1.00  0.00     0.001 A 
HETATM   18  C8  UNL     1     -53.649   0.937 -20.557  1.00  0.00     0.003 A 
HETATM   19  C9  UNL     1     -53.657  -0.394 -20.195  1.00  0.00     0.043 A 
HETATM   20  C10 UNL     1     -52.481  -1.128 -20.240  1.00  0.00     0.127 A 
HETATM   21  F3  UNL     1     -52.485  -2.433 -19.886  1.00  0.00    -0.205 F 
ENDBRANCH  12  15
ENDBRANCH   1   5
BRANCH   3  22
HETATM   22  C14 UNL     1     -47.786  -4.960 -24.804  1.00  0.00     0.274 C 
BRANCH  22  23
HETATM   23  N3  UNL     1     -48.628  -4.498 -25.884  1.00  0.00    -0.209 N 
HETATM   24  N4  UNL     1     -48.524  -4.680 -27.188  1.00  0.00    -0.224 N 
HETATM   25  N5  UNL     1     -49.501  -4.096 -27.840  1.00  0.00    -0.266 N 
ATOM     26  H4  UNL     1     -47.776  -5.210 -27.633  1.00  0.00     0.210 HD
HETATM   27  C15 UNL     1     -50.278  -3.506 -26.922  1.00  0.00     0.172 A 
ATOM     28  H5  UNL     1     -49.642  -4.092 -28.850  1.00  0.00     0.190 HD
HETATM   29  N7  UNL     1     -49.726  -3.763 -25.726  1.00  0.00    -0.264 N 
ATOM     30  H7  UNL     1     -50.094  -3.444 -24.830  1.00  0.00     0.190 HD
BRANCH  27  31
HETATM   31  C16 UNL     1     -51.502  -2.724 -27.166  1.00  0.00     0.124 A 
HETATM   32  C17 UNL     1     -52.180  -2.660 -28.346  1.00  0.00     0.046 A 
HETATM   33  C18 UNL     1     -53.245  -1.820 -28.109  1.00  0.00     0.066 A 
HETATM   34  C19 UNL     1     -53.173  -1.404 -26.783  1.00  0.00     0.215 A 
HETATM   35  O4  UNL     1     -52.109  -1.982 -26.286  1.00  0.00    -0.285 OA
BRANCH  34  36
HETATM   36  N6  UNL     1     -54.066  -0.531 -26.104  1.00  0.00    -0.090 N 
HETATM   37  O2  UNL     1     -55.231  -0.393 -26.495  1.00  0.00    -0.530 OA
HETATM   38  O3  UNL     1     -53.646   0.168 -25.009  1.00  0.00    -0.530 OA
ENDBRANCH  34  36
ENDBRANCH  27  31
ENDBRANCH  22  23
ENDBRANCH   3  22
TORSDOF 6
ENDMDL
MODEL 4
REMARK VINA RESULT: -8.533431004      1.343      1.402
REMARK  6 active torsions:
REMARK  status: ('A' for Active; 'I' for Inactive)
REMARK    1  A    between atoms: C4_7  and  C5_8 
REMARK    2  A    between atoms: C12_17  and  N2_18 
REMARK       I    between atoms: N2_18  and  C13_20 
REMARK    3  A    between atoms: C13_20  and  C14_22 
REMARK    4  A    between atoms: C14_22  and  N3_23 
REMARK    5  A    between atoms: C15_28  and  C16_29 
REMARK    6  A    between atoms: C19_32  and  N6_33 
ROOT
HETATM    1  N2  UNL     1     -52.928  -0.444 -21.219  1.00  0.00    -0.322 N 
ATOM      2  H2  UNL     1     -53.942  -0.552 -21.201  1.00  0.00     0.169 HD
HETATM    3  C13 UNL     1     -52.337   0.775 -20.798  1.00  0.00     0.243 C 
HETATM    4  O1  UNL     1     -51.086   0.954 -20.803  1.00  0.00    -0.271 OA
ENDROOT
BRANCH   1   5
HETATM    5  C12 UNL     1     -52.104  -1.512 -21.665  1.00  0.00     0.085 A 
HETATM    6  C1  UNL     1     -51.738  -2.490 -20.767  1.00  0.00     0.116 A 
HETATM    7  N1  UNL     1     -52.200  -2.390 -19.428  1.00  0.00    -0.097 NA
HETATM    8  C2  UNL     1     -50.939  -3.531 -21.191  1.00  0.00     0.182 A 
HETATM    9  F1  UNL     1     -50.575  -4.503 -20.302  1.00  0.00    -0.201 F 
HETATM   10  C3  UNL     1     -50.530  -3.558 -22.511  1.00  0.00     0.169 A 
HETATM   11  F2  UNL     1     -49.745  -4.577 -22.936  1.00  0.00    -0.202 F 
HETATM   12  C4  UNL     1     -50.885  -2.586 -23.429  1.00  0.00     0.043 A 
HETATM   13  C11 UNL     1     -51.686  -1.549 -22.995  1.00  0.00     0.077 A 
HETATM   14 CL1  UNL     1     -52.148  -0.306 -24.140  1.00  0.00    -0.081 Cl
BRANCH  12  15
HETATM   15  C5  UNL     1     -50.421  -2.667 -24.817  1.00  0.00     0.018 A 
HETATM   16  C6  UNL     1     -49.170  -2.180 -25.163  1.00  0.00     0.015 A 
HETATM   17  C7  UNL     1     -48.705  -2.242 -26.460  1.00  0.00     0.001 A 
HETATM   18  C8  UNL     1     -49.477  -2.795 -27.459  1.00  0.00     0.003 A 
HETATM   19  C9  UNL     1     -50.725  -3.286 -27.138  1.00  0.00     0.043 A 
HETATM   20  C10 UNL     1     -51.178  -3.216 -25.829  1.00  0.00     0.127 A 
HETATM   21  F3  UNL     1     -52.401  -3.697 -25.511  1.00  0.00    -0.205 F 
ENDBRANCH  12  15
ENDBRANCH   1   5
BRANCH   3  22
HETATM   22  C14 UNL     1     -53.174   1.897 -20.333  1.00  0.00     0.274 C 
BRANCH  22  23
HETATM   23  N3  UNL     1     -53.076   1.983 -18.893  1.00  0.00    -0.209 N 
HETATM   24  N4  UNL     1     -53.548   2.888 -18.056  1.00  0.00    -0.224 N 
HETATM   25  N5  UNL     1     -53.247   2.603 -16.812  1.00  0.00    -0.266 N 
ATOM     26  H4  UNL     1     -54.081   3.708 -18.342  1.00  0.00     0.210 HD
HETATM   27  C15 UNL     1     -52.548   1.461 -16.836  1.00  0.00     0.172 A 
ATOM     28  H5  UNL     1     -53.497   3.146 -15.985  1.00  0.00     0.190 HD
HETATM   29  N7  UNL     1     -52.452   1.094 -18.123  1.00  0.00    -0.264 N 
ATOM     30  H7  UNL     1     -51.974   0.259 -18.461  1.00  0.00     0.190 HD
BRANCH  27  31
HETATM   31  C16 UNL     1     -51.986   0.740 -15.681  1.00  0.00     0.124 A 
HETATM   32  C17 UNL     1     -50.665   0.486 -15.471  1.00  0.00     0.046 A 
HETATM   33  C18 UNL     1     -50.611  -0.204 -14.280  1.00  0.00     0.066 A 
HETATM   34  C19 UNL     1     -51.913  -0.343 -13.809  1.00  0.00     0.215 A 
HETATM   35  O4  UNL     1     -52.677   0.243 -14.696  1.00  0.00    -0.285 OA
BRANCH  34  36
HETATM   36  N6  UNL     1     -52.334  -0.988 -12.614  1.00  0.00    -0.090 N 
HETATM   37  O2  UNL     1     -51.577  -1.763 -12.018  1.00  0.00    -0.530 OA
HETATM   38  O3  UNL     1     -53.581  -0.757 -12.109  1.00  0.00    -0.530 OA
ENDBRANCH  34  36
ENDBRANCH  27  31
ENDBRANCH  22  23
ENDBRANCH   3  22
TORSDOF 6
ENDMDL
MODEL 5
REMARK VINA RESULT: -8.524801518      2.466      3.711
REMARK  6 active torsions:
REMARK  status: ('A' for Active; 'I' for Inactive)
REMARK    1  A    between atoms: C4_7  and  C5_8 
REMARK    2  A    between atoms: C12_17  and  N2_18 
REMARK       I    between atoms: N2_18  and  C13_20 
REMARK    3  A    between atoms: C13_20  and  C14_22 
REMARK    4  A    between atoms: C14_22  and  N3_23 
REMARK    5  A    between atoms: C15_28  and  C16_29 
REMARK    6  A    between atoms: C19_32  and  N6_33 
ROOT
HETATM    1  N2  UNL     1     -50.308  -0.167 -20.111  1.00  0.00    -0.322 N 
ATOM      2  H2  UNL     1     -49.474   0.411 -20.011  1.00  0.00     0.169 HD
HETATM    3  C13 UNL     1     -50.575  -1.196 -19.172  1.00  0.00     0.243 C 
HETATM    4  O1  UNL     1     -51.596  -1.936 -19.255  1.00  0.00    -0.271 OA
ENDROOT
BRANCH   1   5
HETATM    5  C12 UNL     1     -51.205   0.055 -21.190  1.00  0.00     0.085 A 
HETATM    6  C1  UNL     1     -52.276   0.901 -21.003  1.00  0.00     0.116 A 
HETATM    7  N1  UNL     1     -52.440   1.518 -19.735  1.00  0.00    -0.097 NA
HETATM    8  C2  UNL     1     -53.151   1.122 -22.045  1.00  0.00     0.182 A 
HETATM    9  F1  UNL     1     -54.214   1.961 -21.862  1.00  0.00    -0.201 F 
HETATM   10  C3  UNL     1     -52.923   0.483 -23.250  1.00  0.00     0.169 A 
HETATM   11  F2  UNL     1     -53.778   0.696 -24.279  1.00  0.00    -0.202 F 
HETATM   12  C4  UNL     1     -51.855  -0.369 -23.459  1.00  0.00     0.043 A 
HETATM   13  C11 UNL     1     -50.984  -0.584 -22.410  1.00  0.00     0.077 A 
HETATM   14 CL1  UNL     1     -49.624  -1.662 -22.652  1.00  0.00    -0.081 Cl
BRANCH  12  15
HETATM   15  C5  UNL     1     -51.664  -1.019 -24.759  1.00  0.00     0.018 A 
HETATM   16  C6  UNL     1     -50.918  -0.395 -25.748  1.00  0.00     0.015 A 
HETATM   17  C7  UNL     1     -50.720  -0.981 -26.980  1.00  0.00     0.001 A 
HETATM   18  C8  UNL     1     -51.262  -2.215 -27.269  1.00  0.00     0.003 A 
HETATM   19  C9  UNL     1     -52.008  -2.854 -26.301  1.00  0.00     0.043 A 
HETATM   20  C10 UNL     1     -52.198  -2.252 -25.066  1.00  0.00     0.127 A 
HETATM   21  F3  UNL     1     -52.928  -2.876 -24.115  1.00  0.00    -0.205 F 
ENDBRANCH  12  15
ENDBRANCH   1   5
BRANCH   3  22
HETATM   22  C14 UNL     1     -49.656  -1.443 -18.044  1.00  0.00     0.274 C 
BRANCH  22  23
HETATM   23  N3  UNL     1     -50.409  -2.010 -16.948  1.00  0.00    -0.209 N 
HETATM   24  N4  UNL     1     -50.729  -3.265 -16.689  1.00  0.00    -0.224 N 
HETATM   25  N5  UNL     1     -51.424  -3.370 -15.582  1.00  0.00    -0.266 N 
ATOM     26  H4  UNL     1     -50.468  -4.055 -17.278  1.00  0.00     0.210 HD
HETATM   27  C15 UNL     1     -51.564  -2.130 -15.096  1.00  0.00     0.172 A 
ATOM     28  H5  UNL     1     -51.788  -4.230 -15.171  1.00  0.00     0.190 HD
HETATM   29  N7  UNL     1     -50.934  -1.307 -15.948  1.00  0.00    -0.264 N 
ATOM     30  H7  UNL     1     -50.867  -0.295 -15.844  1.00  0.00     0.190 HD
BRANCH  27  31
HETATM   31  C16 UNL     1     -52.272  -1.735 -13.866  1.00  0.00     0.124 A 
HETATM   32  C17 UNL     1     -52.544  -2.551 -12.810  1.00  0.00     0.046 A 
HETATM   33  C18 UNL     1     -53.211  -1.761 -11.900  1.00  0.00     0.066 A 
HETATM   34  C19 UNL     1     -53.319  -0.484 -12.443  1.00  0.00     0.215 A 
HETATM   35  O4  UNL     1     -52.738  -0.545 -13.615  1.00  0.00    -0.285 OA
BRANCH  34  36
HETATM   36  N6  UNL     1     -53.933   0.655 -11.854  1.00  0.00    -0.090 N 
HETATM   37  O2  UNL     1     -55.067   0.576 -11.367  1.00  0.00    -0.530 OA
HETATM   38  O3  UNL     1     -53.276   1.851 -11.819  1.00  0.00    -0.530 OA
ENDBRANCH  34  36
ENDBRANCH  27  31
ENDBRANCH  22  23
ENDBRANCH   3  22
TORSDOF 6
ENDMDL
