MODEL 1
REMARK VINA RESULT: -8.039527010      0.000      0.000
REMARK  6 active torsions:
REMARK  status: ('A' for Active; 'I' for Inactive)
REMARK    1  A    between atoms: C2_3  and  C3_4 
REMARK       I    between atoms: C3_4  and  N2_6 
REMARK    2  A    between atoms: N2_6  and  N3_7 
REMARK    3  A    between atoms: C4_9  and  C5_10 
REMARK    4  A    between atoms: C6_12  and  N4_13 
REMARK    5  A    between atoms: N6_23  and  C10_24 
REMARK    6  A    between atoms: C10_24  and  C11_25 
ROOT
HETATM    1  N1  UNL     1     -48.956  -1.782 -26.912  1.00  0.00    -0.080 NA
HETATM    2  C1  UNL     1     -49.700  -2.717 -26.155  1.00  0.00     0.154 A 
HETATM    3  C2  UNL     1     -49.398  -4.057 -25.885  1.00  0.00     0.161 A 
HETATM    4  N5  UNL     1     -50.417  -4.617 -25.213  1.00  0.00    -0.324 N 
ATOM      5  H5  UNL     1     -50.474  -5.581 -24.888  1.00  0.00     0.168 HD
HETATM    6  C9  UNL     1     -51.394  -3.610 -25.044  1.00  0.00     0.183 A 
HETATM    7 CL2  UNL     1     -52.897  -3.892 -24.189  1.00  0.00    -0.044 Cl
HETATM    8  N6  UNL     1     -50.941  -2.515 -25.608  1.00  0.00    -0.305 N 
ENDROOT
BRANCH   3   9
HETATM    9  C3  UNL     1     -48.095  -4.690 -26.266  1.00  0.00     0.365 C 
HETATM   10  O1  UNL     1     -47.452  -5.172 -25.244  1.00  0.00    -0.247 OA
HETATM   11  N2  UNL     1     -47.719  -4.716 -27.543  1.00  0.00    -0.280 NA
BRANCH  11  12
HETATM   12  N3  UNL     1     -47.346  -4.746 -28.780  1.00  0.00    -0.240 N 
HETATM   13  C4  UNL     1     -47.097  -5.563 -29.699  1.00  0.00     0.160 C 
ATOM     14  H3  UNL     1     -47.209  -3.794 -29.121  1.00  0.00     0.201 HD
BRANCH  13  15
HETATM   15  C5  UNL     1     -46.685  -5.059 -30.989  1.00  0.00     0.117 A 
HETATM   16  O2  UNL     1     -46.983  -3.893 -31.537  1.00  0.00    -0.285 OA
HETATM   17  C6  UNL     1     -46.450  -3.759 -32.711  1.00  0.00     0.217 A 
HETATM   18  C7  UNL     1     -45.748  -4.889 -32.985  1.00  0.00     0.089 A 
HETATM   19  C8  UNL     1     -45.886  -5.733 -31.903  1.00  0.00     0.073 A 
HETATM   20 CL1  UNL     1     -45.189  -7.333 -31.713  1.00  0.00    -0.081 Cl
BRANCH  17  21
HETATM   21  N4  UNL     1     -46.568  -2.621 -33.565  1.00  0.00    -0.090 N 
HETATM   22  O3  UNL     1     -47.352  -2.655 -34.523  1.00  0.00    -0.530 OA
HETATM   23  O4  UNL     1     -45.868  -1.488 -33.361  1.00  0.00    -0.530 OA
ENDBRANCH  17  21
ENDBRANCH  13  15
ENDBRANCH  11  12
ENDBRANCH   3   9
BRANCH   8  24
HETATM   24  C10 UNL     1     -51.488  -1.168 -25.605  1.00  0.00     0.173 C 
BRANCH  24  25
HETATM   25  C11 UNL     1     -51.444  -0.554 -24.217  1.00  0.00    -0.018 A 
HETATM   26  C12 UNL     1     -50.377  -0.783 -23.358  1.00  0.00     0.012 A 
HETATM   27  C13 UNL     1     -50.445  -0.395 -22.029  1.00  0.00     0.024 A 
HETATM   28  C14 UNL     1     -51.550   0.213 -21.522  1.00  0.00     0.035 A 
HETATM   29 CL3  UNL     1     -51.565   0.686 -19.819  1.00  0.00    -0.084 Cl
HETATM   30  C15 UNL     1     -52.612   0.454 -22.342  1.00  0.00     0.048 A 
HETATM   31  C16 UNL     1     -52.545   0.069 -23.675  1.00  0.00     0.043 A 
HETATM   32 CL4  UNL     1     -53.865   0.513 -24.778  1.00  0.00    -0.084 Cl
ENDBRANCH  24  25
ENDBRANCH   8  24
TORSDOF 6
ENDMDL
MODEL 2
REMARK VINA RESULT: -7.794501501      7.019     11.688
REMARK  6 active torsions:
REMARK  status: ('A' for Active; 'I' for Inactive)
REMARK    1  A    between atoms: C2_3  and  C3_4 
REMARK       I    between atoms: C3_4  and  N2_6 
REMARK    2  A    between atoms: N2_6  and  N3_7 
REMARK    3  A    between atoms: C4_9  and  C5_10 
REMARK    4  A    between atoms: C6_12  and  N4_13 
REMARK    5  A    between atoms: N6_23  and  C10_24 
REMARK    6  A    between atoms: C10_24  and  C11_25 
ROOT
HETATM    1  N1  UNL     1     -48.469  -2.573 -21.520  1.00  0.00    -0.080 NA
HETATM    2  C1  UNL     1     -49.673  -3.242 -21.840  1.00  0.00     0.154 A 
HETATM    3  C2  UNL     1     -50.232  -4.372 -21.231  1.00  0.00     0.161 A 
HETATM    4  N5  UNL     1     -51.332  -4.744 -21.904  1.00  0.00    -0.324 N 
ATOM      5  H5  UNL     1     -51.939  -5.534 -21.689  1.00  0.00     0.168 HD
HETATM    6  C9  UNL     1     -51.486  -3.827 -22.968  1.00  0.00     0.183 A 
HETATM    7 CL2  UNL     1     -52.819  -3.916 -24.101  1.00  0.00    -0.044 Cl
HETATM    8  N6  UNL     1     -50.498  -2.966 -22.900  1.00  0.00    -0.305 N 
ENDROOT
BRANCH   3   9
HETATM    9  C3  UNL     1     -49.667  -4.988 -19.987  1.00  0.00     0.365 C 
HETATM   10  O1  UNL     1     -48.864  -5.978 -20.237  1.00  0.00    -0.247 OA
HETATM   11  N2  UNL     1     -50.005  -4.501 -18.795  1.00  0.00    -0.280 NA
BRANCH  11  12
HETATM   12  N3  UNL     1     -50.327  -4.035 -17.633  1.00  0.00    -0.240 N 
HETATM   13  C4  UNL     1     -50.790  -3.000 -17.098  1.00  0.00     0.160 C 
ATOM     14  H3  UNL     1     -50.145  -4.740 -16.918  1.00  0.00     0.201 HD
BRANCH  13  15
HETATM   15  C5  UNL     1     -50.973  -2.977 -15.664  1.00  0.00     0.117 A 
HETATM   16  O2  UNL     1     -52.102  -3.105 -14.989  1.00  0.00    -0.285 OA
HETATM   17  C6  UNL     1     -51.911  -3.036 -13.708  1.00  0.00     0.217 A 
HETATM   18  C7  UNL     1     -50.584  -2.851 -13.491  1.00  0.00     0.089 A 
HETATM   19  C8  UNL     1     -49.966  -2.808 -14.722  1.00  0.00     0.073 A 
HETATM   20 CL1  UNL     1     -48.254  -2.590 -15.041  1.00  0.00    -0.081 Cl
BRANCH  17  21
HETATM   21  N4  UNL     1     -52.917  -3.144 -12.700  1.00  0.00    -0.090 N 
HETATM   22  O3  UNL     1     -53.171  -2.166 -11.983  1.00  0.00    -0.530 OA
HETATM   23  O4  UNL     1     -53.625  -4.273 -12.503  1.00  0.00    -0.530 OA
ENDBRANCH  17  21
ENDBRANCH  13  15
ENDBRANCH  11  12
ENDBRANCH   3   9
BRANCH   8  24
HETATM   24  C10 UNL     1     -50.261  -1.754 -23.668  1.00  0.00     0.173 C 
BRANCH  24  25
HETATM   25  C11 UNL     1     -51.052  -0.583 -23.113  1.00  0.00    -0.018 A 
HETATM   26  C12 UNL     1     -50.751  -0.026 -21.877  1.00  0.00     0.012 A 
HETATM   27  C13 UNL     1     -51.605   0.896 -21.291  1.00  0.00     0.024 A 
HETATM   28  C14 UNL     1     -52.759   1.282 -21.898  1.00  0.00     0.035 A 
HETATM   29 CL3  UNL     1     -53.796   2.466 -21.097  1.00  0.00    -0.084 Cl
HETATM   30  C15 UNL     1     -53.078   0.755 -23.115  1.00  0.00     0.048 A 
HETATM   31  C16 UNL     1     -52.224  -0.167 -23.704  1.00  0.00     0.043 A 
HETATM   32 CL4  UNL     1     -52.562  -0.741 -25.351  1.00  0.00    -0.084 Cl
ENDBRANCH  24  25
ENDBRANCH   8  24
TORSDOF 6
ENDMDL
MODEL 3
REMARK VINA RESULT: -7.775955354      6.741     11.206
REMARK  6 active torsions:
REMARK  status: ('A' for Active; 'I' for Inactive)
REMARK    1  A    between atoms: C2_3  and  C3_4 
REMARK       I    between atoms: C3_4  and  N2_6 
REMARK    2  A    between atoms: N2_6  and  N3_7 
REMARK    3  A    between atoms: C4_9  and  C5_10 
REMARK    4  A    between atoms: C6_12  and  N4_13 
REMARK    5  A    between atoms: N6_23  and  C10_24 
REMARK    6  A    between atoms: C10_24  and  C11_25 
ROOT
HETATM    1  N1  UNL     1     -49.399  -2.062 -22.409  1.00  0.00    -0.080 NA
HETATM    2  C1  UNL     1     -50.424  -3.027 -22.545  1.00  0.00     0.154 A 
HETATM    3  C2  UNL     1     -50.949  -3.884 -21.570  1.00  0.00     0.161 A 
HETATM    4  N5  UNL     1     -51.840  -4.712 -22.138  1.00  0.00    -0.324 N 
ATOM      5  H5  UNL     1     -52.375  -5.443 -21.670  1.00  0.00     0.168 HD
HETATM    6  C9  UNL     1     -51.891  -4.376 -23.509  1.00  0.00     0.183 A 
HETATM    7 CL2  UNL     1     -52.951  -5.193 -24.640  1.00  0.00    -0.044 Cl
HETATM    8  N6  UNL     1     -51.049  -3.389 -23.710  1.00  0.00    -0.305 N 
ENDROOT
BRANCH   3   9
HETATM    9  C3  UNL     1     -50.573  -3.797 -20.122  1.00  0.00     0.365 C 
HETATM   10  O1  UNL     1     -49.953  -4.859 -19.700  1.00  0.00    -0.247 OA
HETATM   11  N2  UNL     1     -50.875  -2.706 -19.423  1.00  0.00    -0.280 NA
BRANCH  11  12
HETATM   12  N3  UNL     1     -51.166  -1.650 -18.736  1.00  0.00    -0.240 N 
HETATM   13  C4  UNL     1     -50.677  -0.543 -18.407  1.00  0.00     0.160 C 
ATOM     14  H3  UNL     1     -52.095  -1.751 -18.327  1.00  0.00     0.201 HD
BRANCH  13  15
HETATM   15  C5  UNL     1     -51.453   0.340 -17.565  1.00  0.00     0.117 A 
HETATM   16  O2  UNL     1     -51.392   0.466 -16.250  1.00  0.00    -0.285 OA
HETATM   17  C6  UNL     1     -52.231   1.351 -15.809  1.00  0.00     0.217 A 
HETATM   18  C7  UNL     1     -52.900   1.862 -16.874  1.00  0.00     0.089 A 
HETATM   19  C8  UNL     1     -52.423   1.231 -18.003  1.00  0.00     0.073 A 
HETATM   20 CL1  UNL     1     -52.933   1.500 -19.661  1.00  0.00    -0.081 Cl
BRANCH  17  21
HETATM   21  N4  UNL     1     -52.412   1.733 -14.445  1.00  0.00    -0.090 N 
HETATM   22  O3  UNL     1     -52.699   0.871 -13.603  1.00  0.00    -0.530 OA
HETATM   23  O4  UNL     1     -52.266   3.004 -14.023  1.00  0.00    -0.530 OA
ENDBRANCH  17  21
ENDBRANCH  13  15
ENDBRANCH  11  12
ENDBRANCH   3   9
BRANCH   8  24
HETATM   24  C10 UNL     1     -50.815  -2.589 -24.902  1.00  0.00     0.173 C 
BRANCH  24  25
HETATM   25  C11 UNL     1     -51.903  -1.548 -25.094  1.00  0.00    -0.018 A 
HETATM   26  C12 UNL     1     -52.039  -0.474 -24.224  1.00  0.00     0.012 A 
HETATM   27  C13 UNL     1     -53.155   0.347 -24.284  1.00  0.00     0.024 A 
HETATM   28  C14 UNL     1     -54.150   0.128 -25.185  1.00  0.00     0.035 A 
HETATM   29 CL3  UNL     1     -55.541   1.218 -25.208  1.00  0.00    -0.084 Cl
HETATM   30  C15 UNL     1     -54.042  -0.916 -26.054  1.00  0.00     0.048 A 
HETATM   31  C16 UNL     1     -52.924  -1.738 -25.997  1.00  0.00     0.043 A 
HETATM   32 CL4  UNL     1     -52.712  -3.007 -27.222  1.00  0.00    -0.084 Cl
ENDBRANCH  24  25
ENDBRANCH   8  24
TORSDOF 6
ENDMDL
MODEL 4
REMARK VINA RESULT: -7.719465729      7.262     11.962
REMARK  6 active torsions:
REMARK  status: ('A' for Active; 'I' for Inactive)
REMARK    1  A    between atoms: C2_3  and  C3_4 
REMARK       I    between atoms: C3_4  and  N2_6 
REMARK    2  A    between atoms: N2_6  and  N3_7 
REMARK    3  A    between atoms: C4_9  and  C5_10 
REMARK    4  A    between atoms: C6_12  and  N4_13 
REMARK    5  A    between atoms: N6_23  and  C10_24 
REMARK    6  A    between atoms: C10_24  and  C11_25 
ROOT
HETATM    1  N1  UNL     1     -48.672  -2.332 -21.007  1.00  0.00    -0.080 NA
HETATM    2  C1  UNL     1     -49.800  -3.060 -21.450  1.00  0.00     0.154 A 
HETATM    3  C2  UNL     1     -50.388  -4.193 -20.873  1.00  0.00     0.161 A 
HETATM    4  N5  UNL     1     -51.380  -4.632 -21.664  1.00  0.00    -0.324 N 
ATOM      5  H5  UNL     1     -51.979  -5.440 -21.497  1.00  0.00     0.168 HD
HETATM    6  C9  UNL     1     -51.433  -3.758 -22.772  1.00  0.00     0.183 A 
HETATM    7 CL2  UNL     1     -52.609  -3.940 -24.059  1.00  0.00    -0.044 Cl
HETATM    8  N6  UNL     1     -50.495  -2.854 -22.614  1.00  0.00    -0.305 N 
ENDROOT
BRANCH   3   9
HETATM    9  C3  UNL     1     -49.963  -4.743 -19.546  1.00  0.00     0.365 C 
HETATM   10  O1  UNL     1     -49.247  -5.822 -19.656  1.00  0.00    -0.247 OA
HETATM   11  N2  UNL     1     -50.321  -4.122 -18.425  1.00  0.00    -0.280 NA
BRANCH  11  12
HETATM   12  N3  UNL     1     -50.665  -3.525 -17.331  1.00  0.00    -0.240 N 
HETATM   13  C4  UNL     1     -50.199  -2.752 -16.461  1.00  0.00     0.160 C 
ATOM     14  H3  UNL     1     -51.630  -3.761 -17.099  1.00  0.00     0.201 HD
BRANCH  13  15
HETATM   15  C5  UNL     1     -51.042  -2.354 -15.356  1.00  0.00     0.117 A 
HETATM   16  O2  UNL     1     -51.672  -3.135 -14.495  1.00  0.00    -0.285 OA
HETATM   17  C6  UNL     1     -52.347  -2.451 -13.625  1.00  0.00     0.217 A 
HETATM   18  C7  UNL     1     -52.172  -1.134 -13.899  1.00  0.00     0.089 A 
HETATM   19  C8  UNL     1     -51.346  -1.047 -14.999  1.00  0.00     0.073 A 
HETATM   20 CL1  UNL     1     -50.784   0.416 -15.790  1.00  0.00    -0.081 Cl
BRANCH  17  21
HETATM   21  N4  UNL     1     -53.130  -2.987 -12.557  1.00  0.00    -0.090 N 
HETATM   22  O3  UNL     1     -53.385  -2.279 -11.573  1.00  0.00    -0.530 OA
HETATM   23  O4  UNL     1     -53.627  -4.239 -12.581  1.00  0.00    -0.530 OA
ENDBRANCH  17  21
ENDBRANCH  13  15
ENDBRANCH  11  12
ENDBRANCH   3   9
BRANCH   8  24
HETATM   24  C10 UNL     1     -50.209  -1.658 -23.391  1.00  0.00     0.173 C 
BRANCH  24  25
HETATM   25  C11 UNL     1     -51.062  -0.487 -22.941  1.00  0.00    -0.018 A 
HETATM   26  C12 UNL     1     -50.872   0.115 -21.704  1.00  0.00     0.012 A 
HETATM   27  C13 UNL     1     -51.787   1.038 -21.219  1.00  0.00     0.024 A 
HETATM   28  C14 UNL     1     -52.895   1.380 -21.929  1.00  0.00     0.035 A 
HETATM   29 CL3  UNL     1     -54.014   2.568 -21.252  1.00  0.00    -0.084 Cl
HETATM   30  C15 UNL     1     -53.106   0.808 -23.148  1.00  0.00     0.048 A 
HETATM   31  C16 UNL     1     -52.191  -0.114 -23.637  1.00  0.00     0.043 A 
HETATM   32 CL4  UNL     1     -52.386  -0.748 -25.284  1.00  0.00    -0.084 Cl
ENDBRANCH  24  25
ENDBRANCH   8  24
TORSDOF 6
ENDMDL
MODEL 5
REMARK VINA RESULT: -7.675266595      2.041      2.982
REMARK  6 active torsions:
REMARK  status: ('A' for Active; 'I' for Inactive)
REMARK    1  A    between atoms: C2_3  and  C3_4 
REMARK       I    between atoms: C3_4  and  N2_6 
REMARK    2  A    between atoms: N2_6  and  N3_7 
REMARK    3  A    between atoms: C4_9  and  C5_10 
REMARK    4  A    between atoms: C6_12  and  N4_13 
REMARK    5  A    between atoms: N6_23  and  C10_24 
REMARK    6  A    between atoms: C10_24  and  C11_25 
ROOT
HETATM    1  N1  UNL     1     -49.192  -2.393 -25.992  1.00  0.00    -0.080 NA
HETATM    2  C1  UNL     1     -49.721  -2.826 -24.754  1.00  0.00     0.154 A 
HETATM    3  C2  UNL     1     -49.596  -4.080 -24.143  1.00  0.00     0.161 A 
HETATM    4  N5  UNL     1     -50.333  -4.105 -23.022  1.00  0.00    -0.324 N 
ATOM      5  H5  UNL     1     -50.434  -4.888 -22.377  1.00  0.00     0.168 HD
HETATM    6  C9  UNL     1     -50.942  -2.835 -22.907  1.00  0.00     0.183 A 
HETATM    7 CL2  UNL     1     -51.982  -2.408 -21.564  1.00  0.00    -0.044 Cl
HETATM    8  N6  UNL     1     -50.563  -2.116 -23.937  1.00  0.00    -0.305 N 
ENDROOT
BRANCH   3   9
HETATM    9  C3  UNL     1     -48.714  -5.164 -24.684  1.00  0.00     0.365 C 
HETATM   10  O1  UNL     1     -48.226  -5.926 -23.751  1.00  0.00    -0.247 OA
HETATM   11  N2  UNL     1     -48.513  -5.262 -25.996  1.00  0.00    -0.280 NA
BRANCH  11  12
HETATM   12  N3  UNL     1     -48.312  -5.366 -27.269  1.00  0.00    -0.240 N 
HETATM   13  C4  UNL     1     -47.374  -5.448 -28.098  1.00  0.00     0.160 C 
ATOM     14  H3  UNL     1     -49.206  -5.387 -27.757  1.00  0.00     0.201 HD
BRANCH  13  15
HETATM   15  C5  UNL     1     -47.693  -5.550 -29.504  1.00  0.00     0.117 A 
HETATM   16  O2  UNL     1     -47.538  -4.628 -30.440  1.00  0.00    -0.285 OA
HETATM   17  C6  UNL     1     -47.929  -5.047 -31.603  1.00  0.00     0.217 A 
HETATM   18  C7  UNL     1     -48.374  -6.322 -31.461  1.00  0.00     0.089 A 
HETATM   19  C8  UNL     1     -48.236  -6.662 -30.133  1.00  0.00     0.073 A 
HETATM   20 CL1  UNL     1     -48.655  -8.194 -29.383  1.00  0.00    -0.081 Cl
BRANCH  17  21
HETATM   21  N4  UNL     1     -47.889  -4.305 -32.822  1.00  0.00    -0.090 N 
HETATM   22  O3  UNL     1     -47.298  -3.217 -32.855  1.00  0.00    -0.530 OA
HETATM   23  O4  UNL     1     -48.457  -4.751 -33.959  1.00  0.00    -0.530 OA
ENDBRANCH  17  21
ENDBRANCH  13  15
ENDBRANCH  11  12
ENDBRANCH   3   9
BRANCH   8  24
HETATM   24  C10 UNL     1     -50.791  -0.709 -24.230  1.00  0.00     0.173 C 
BRANCH  24  25
HETATM   25  C11 UNL     1     -52.255  -0.435 -24.524  1.00  0.00    -0.018 A 
HETATM   26  C12 UNL     1     -52.898  -1.019 -25.607  1.00  0.00     0.012 A 
HETATM   27  C13 UNL     1     -54.165  -0.601 -25.987  1.00  0.00     0.024 A 
HETATM   28  C14 UNL     1     -54.815   0.389 -25.320  1.00  0.00     0.035 A 
HETATM   29 CL3  UNL     1     -56.430   0.867 -25.855  1.00  0.00    -0.084 Cl
HETATM   30  C15 UNL     1     -54.210   0.979 -24.250  1.00  0.00     0.048 A 
HETATM   31  C16 UNL     1     -52.943   0.560 -23.867  1.00  0.00     0.043 A 
HETATM   32 CL4  UNL     1     -52.216   1.222 -22.387  1.00  0.00    -0.084 Cl
ENDBRANCH  24  25
ENDBRANCH   8  24
TORSDOF 6
ENDMDL
