MODEL 1
REMARK VINA RESULT: -7.679593831      0.000      0.000
REMARK  7 active torsions:
REMARK  status: ('A' for Active; 'I' for Inactive)
REMARK    1  A    between atoms: N1_1  and  C1_4 
REMARK    2  A    between atoms: C2_10  and  N4_11 
REMARK    3  A    between atoms: C3_15  and  C4_16 
REMARK       I    between atoms: C4_16  and  N7_18 
REMARK    4  A    between atoms: N7_18  and  N8_20 
REMARK    5  A    between atoms: C6_25  and  C7_26 
REMARK    6  A    between atoms: C7_26  and  S1_27 
REMARK    7  A    between atoms: S1_27  and  C8_28 
ROOT
HETATM    1  N4  UNL     1     -52.267  -3.116 -25.783  1.00  0.00    -0.220 N 
HETATM    2  N5  UNL     1     -52.526  -4.370 -25.407  1.00  0.00    -0.013 NA
HETATM    3  N6  UNL     1     -52.062  -4.542 -24.173  1.00  0.00    -0.277 N 
ATOM      4  H6  UNL     1     -52.116  -5.403 -23.630  1.00  0.00     0.184 HD
HETATM    5  C3  UNL     1     -51.500  -3.367 -23.752  1.00  0.00     0.141 A 
HETATM    6  C6  UNL     1     -51.624  -2.498 -24.785  1.00  0.00     0.077 A 
ENDROOT
BRANCH   1   7
HETATM    7  C2  UNL     1     -52.908  -2.393 -26.854  1.00  0.00     0.193 A 
HETATM    8  C1  UNL     1     -52.410  -2.652 -28.164  1.00  0.00     0.169 A 
HETATM    9  N2  UNL     1     -53.213  -1.956 -29.024  1.00  0.00    -0.222 N 
HETATM   10  O1  UNL     1     -54.089  -1.349 -28.306  1.00  0.00    -0.153 OA
ATOM     11  H2  UNL     1     -53.132  -1.925 -30.040  1.00  0.00     0.198 HD
HETATM   12  N3  UNL     1     -53.920  -1.602 -27.033  1.00  0.00    -0.221 N 
ATOM     13  H3  UNL     1     -54.504  -1.229 -26.285  1.00  0.00     0.198 HD
BRANCH   8  14
HETATM   14  N1  UNL     1     -51.435  -3.370 -28.572  1.00  0.00    -0.381 N 
ATOM     15  H12 UNL     1     -51.134  -4.310 -28.313  1.00  0.00     0.157 HD
ATOM     16  H11 UNL     1     -50.782  -3.047 -29.285  1.00  0.00     0.157 HD
ENDBRANCH   8  14
ENDBRANCH   1   7
BRANCH   6  17
HETATM   17  C7  UNL     1     -51.079  -1.072 -24.869  1.00  0.00     0.141 C 
BRANCH  17  18
HETATM   18  S1  UNL     1     -52.372  -0.009 -24.211  1.00  0.00    -0.122 SA
BRANCH  18  19
HETATM   19  C8  UNL     1     -52.294   0.374 -22.512  1.00  0.00     0.022 A 
HETATM   20  C9  UNL     1     -51.220   0.113 -21.680  1.00  0.00     0.022 A 
HETATM   21  C10 UNL     1     -51.259   0.443 -20.356  1.00  0.00     0.025 A 
HETATM   22  C11 UNL     1     -52.340   1.055 -19.758  1.00  0.00     0.035 A 
HETATM   23 CL3  UNL     1     -52.370   1.418 -18.041  1.00  0.00    -0.084 Cl
HETATM   24  C12 UNL     1     -53.424   1.346 -20.555  1.00  0.00     0.049 A 
HETATM   25  C13 UNL     1     -53.406   1.009 -21.922  1.00  0.00     0.052 A 
HETATM   26 CL4  UNL     1     -54.765   1.394 -22.909  1.00  0.00    -0.083 Cl
ENDBRANCH  18  19
ENDBRANCH  17  18
ENDBRANCH   6  17
BRANCH   5  27
HETATM   27  C4  UNL     1     -50.989  -3.201 -22.429  1.00  0.00     0.289 C 
HETATM   28  O2  UNL     1     -51.815  -3.283 -21.440  1.00  0.00    -0.264 OA
HETATM   29  N7  UNL     1     -49.605  -2.987 -22.160  1.00  0.00    -0.263 N 
ATOM     30  H7  UNL     1     -48.941  -2.873 -22.926  1.00  0.00     0.190 HD
BRANCH  29  31
HETATM   31  N8  UNL     1     -49.158  -2.935 -20.791  1.00  0.00    -0.277 N 
HETATM   32  C5  UNL     1     -47.848  -2.919 -20.695  1.00  0.00     0.190 C 
HETATM   33 CL1  UNL     1     -47.158  -2.886 -19.075  1.00  0.00    -0.050 Cl
HETATM   34 CL2  UNL     1     -46.817  -2.915 -22.082  1.00  0.00    -0.050 Cl
ATOM     35  H8  UNL     1     -49.786  -2.913 -19.988  1.00  0.00     0.189 HD
ENDBRANCH  29  31
ENDBRANCH   5  27
TORSDOF 7
ENDMDL
MODEL 2
REMARK VINA RESULT: -7.650203088      3.110      3.639
REMARK  7 active torsions:
REMARK  status: ('A' for Active; 'I' for Inactive)
REMARK    1  A    between atoms: N1_1  and  C1_4 
REMARK    2  A    between atoms: C2_10  and  N4_11 
REMARK    3  A    between atoms: C3_15  and  C4_16 
REMARK       I    between atoms: C4_16  and  N7_18 
REMARK    4  A    between atoms: N7_18  and  N8_20 
REMARK    5  A    between atoms: C6_25  and  C7_26 
REMARK    6  A    between atoms: C7_26  and  S1_27 
REMARK    7  A    between atoms: S1_27  and  C8_28 
ROOT
HETATM    1  N4  UNL     1     -50.725  -2.149 -26.494  1.00  0.00    -0.220 N 
HETATM    2  N5  UNL     1     -49.672  -1.958 -27.291  1.00  0.00    -0.013 NA
HETATM    3  N6  UNL     1     -48.717  -2.813 -26.934  1.00  0.00    -0.277 N 
ATOM      4  H6  UNL     1     -47.796  -2.892 -27.366  1.00  0.00     0.184 HD
HETATM    5  C3  UNL     1     -49.177  -3.569 -25.891  1.00  0.00     0.141 A 
HETATM    6  C6  UNL     1     -50.427  -3.120 -25.622  1.00  0.00     0.077 A 
ENDROOT
BRANCH   1   7
HETATM    7  C2  UNL     1     -52.081  -1.731 -26.753  1.00  0.00     0.193 A 
HETATM    8  C1  UNL     1     -52.652  -2.195 -27.974  1.00  0.00     0.169 A 
HETATM    9  N2  UNL     1     -53.953  -1.778 -27.972  1.00  0.00    -0.222 N 
HETATM   10  O1  UNL     1     -54.136  -1.135 -26.874  1.00  0.00    -0.153 OA
ATOM     11  H2  UNL     1     -54.646  -1.944 -28.701  1.00  0.00     0.198 HD
HETATM   12  N3  UNL     1     -53.045  -1.106 -26.152  1.00  0.00    -0.221 N 
ATOM     13  H3  UNL     1     -52.964  -0.653 -25.242  1.00  0.00     0.198 HD
BRANCH   8  14
HETATM   14  N1  UNL     1     -52.155  -2.872 -28.937  1.00  0.00    -0.381 N 
ATOM     15  H12 UNL     1     -51.854  -2.596 -29.872  1.00  0.00     0.157 HD
ATOM     16  H11 UNL     1     -51.978  -3.874 -28.863  1.00  0.00     0.157 HD
ENDBRANCH   8  14
ENDBRANCH   1   7
BRANCH   6  17
HETATM   17  C7  UNL     1     -51.350  -3.566 -24.488  1.00  0.00     0.141 C 
BRANCH  17  18
HETATM   18  S1  UNL     1     -50.715  -2.785 -22.997  1.00  0.00    -0.122 SA
BRANCH  18  19
HETATM   19  C8  UNL     1     -51.546  -1.360 -22.435  1.00  0.00     0.022 A 
HETATM   20  C9  UNL     1     -51.657  -0.169 -23.129  1.00  0.00     0.022 A 
HETATM   21  C10 UNL     1     -52.321   0.898 -22.598  1.00  0.00     0.025 A 
HETATM   22  C11 UNL     1     -52.930   0.872 -21.361  1.00  0.00     0.035 A 
HETATM   23 CL3  UNL     1     -53.733   2.282 -20.691  1.00  0.00    -0.084 Cl
HETATM   24  C12 UNL     1     -52.857  -0.300 -20.643  1.00  0.00     0.049 A 
HETATM   25  C13 UNL     1     -52.171  -1.410 -21.171  1.00  0.00     0.052 A 
HETATM   26 CL4  UNL     1     -52.102  -2.874 -20.267  1.00  0.00    -0.083 Cl
ENDBRANCH  18  19
ENDBRANCH  17  18
ENDBRANCH   6  17
BRANCH   5  27
HETATM   27  C4  UNL     1     -48.415  -4.643 -25.337  1.00  0.00     0.289 C 
HETATM   28  O2  UNL     1     -47.424  -4.353 -24.563  1.00  0.00    -0.264 OA
HETATM   29  N7  UNL     1     -48.731  -6.012 -25.577  1.00  0.00    -0.263 N 
ATOM     30  H7  UNL     1     -49.481  -6.265 -26.220  1.00  0.00     0.190 HD
BRANCH  29  31
HETATM   31  N8  UNL     1     -47.976  -7.034 -24.896  1.00  0.00    -0.277 N 
HETATM   32  C5  UNL     1     -48.662  -7.597 -23.927  1.00  0.00     0.190 C 
HETATM   33 CL1  UNL     1     -47.851  -8.846 -22.986  1.00  0.00    -0.050 Cl
HETATM   34 CL2  UNL     1     -50.297  -7.163 -23.575  1.00  0.00    -0.050 Cl
ATOM     35  H8  UNL     1     -47.019  -7.290 -25.138  1.00  0.00     0.189 HD
ENDBRANCH  29  31
ENDBRANCH   5  27
TORSDOF 7
ENDMDL
MODEL 3
REMARK VINA RESULT: -7.588640139      2.815      3.298
REMARK  7 active torsions:
REMARK  status: ('A' for Active; 'I' for Inactive)
REMARK    1  A    between atoms: N1_1  and  C1_4 
REMARK    2  A    between atoms: C2_10  and  N4_11 
REMARK    3  A    between atoms: C3_15  and  C4_16 
REMARK       I    between atoms: C4_16  and  N7_18 
REMARK    4  A    between atoms: N7_18  and  N8_20 
REMARK    5  A    between atoms: C6_25  and  C7_26 
REMARK    6  A    between atoms: C7_26  and  S1_27 
REMARK    7  A    between atoms: S1_27  and  C8_28 
ROOT
HETATM    1  N4  UNL     1     -50.695  -1.939 -26.520  1.00  0.00    -0.220 N 
HETATM    2  N5  UNL     1     -49.675  -1.612 -27.316  1.00  0.00    -0.013 NA
HETATM    3  N6  UNL     1     -48.655  -2.421 -27.041  1.00  0.00    -0.277 N 
ATOM      4  H6  UNL     1     -47.740  -2.400 -27.492  1.00  0.00     0.184 HD
HETATM    5  C3  UNL     1     -49.039  -3.286 -26.053  1.00  0.00     0.141 A 
HETATM    6  C6  UNL     1     -50.312  -2.950 -25.731  1.00  0.00     0.077 A 
ENDROOT
BRANCH   1   7
HETATM    7  C2  UNL     1     -52.082  -1.600 -26.725  1.00  0.00     0.193 A 
HETATM    8  C1  UNL     1     -52.676  -2.106 -27.918  1.00  0.00     0.169 A 
HETATM    9  N2  UNL     1     -53.998  -1.763 -27.865  1.00  0.00    -0.222 N 
HETATM   10  O1  UNL     1     -54.171  -1.122 -26.764  1.00  0.00    -0.153 OA
ATOM     11  H2  UNL     1     -54.709  -1.975 -28.563  1.00  0.00     0.198 HD
HETATM   12  N3  UNL     1     -53.055  -1.025 -26.089  1.00  0.00    -0.221 N 
ATOM     13  H3  UNL     1     -52.962  -0.561 -25.185  1.00  0.00     0.198 HD
BRANCH   8  14
HETATM   14  N1  UNL     1     -52.181  -2.762 -28.896  1.00  0.00    -0.381 N 
ATOM     15  H12 UNL     1     -51.940  -3.749 -28.995  1.00  0.00     0.157 HD
ATOM     16  H11 UNL     1     -51.952  -2.322 -29.788  1.00  0.00     0.157 HD
ENDBRANCH   8  14
ENDBRANCH   1   7
BRANCH   6  17
HETATM   17  C7  UNL     1     -51.178  -3.547 -24.622  1.00  0.00     0.141 C 
BRANCH  17  18
HETATM   18  S1  UNL     1     -50.572  -2.835 -23.085  1.00  0.00    -0.122 SA
BRANCH  18  19
HETATM   19  C8  UNL     1     -51.421  -1.444 -22.468  1.00  0.00     0.022 A 
HETATM   20  C9  UNL     1     -51.526  -0.220 -23.105  1.00  0.00     0.022 A 
HETATM   21  C10 UNL     1     -52.206   0.816 -22.534  1.00  0.00     0.025 A 
HETATM   22  C11 UNL     1     -52.837   0.726 -21.310  1.00  0.00     0.035 A 
HETATM   23 CL3  UNL     1     -53.660   2.097 -20.587  1.00  0.00    -0.084 Cl
HETATM   24  C12 UNL     1     -52.769  -0.480 -20.650  1.00  0.00     0.049 A 
HETATM   25  C13 UNL     1     -52.068  -1.558 -21.219  1.00  0.00     0.052 A 
HETATM   26 CL4  UNL     1     -52.006  -3.065 -20.387  1.00  0.00    -0.083 Cl
ENDBRANCH  18  19
ENDBRANCH  17  18
ENDBRANCH   6  17
BRANCH   5  27
HETATM   27  C4  UNL     1     -48.193  -4.341 -25.597  1.00  0.00     0.289 C 
HETATM   28  O2  UNL     1     -48.019  -5.362 -26.369  1.00  0.00    -0.264 OA
HETATM   29  N7  UNL     1     -47.508  -4.292 -24.347  1.00  0.00    -0.263 N 
ATOM     30  H7  UNL     1     -47.665  -3.519 -23.702  1.00  0.00     0.190 HD
BRANCH  29  31
HETATM   31  N8  UNL     1     -46.590  -5.352 -24.010  1.00  0.00    -0.277 N 
HETATM   32  C5  UNL     1     -45.638  -4.947 -23.201  1.00  0.00     0.190 C 
HETATM   33 CL1  UNL     1     -44.424  -6.131 -22.728  1.00  0.00    -0.050 Cl
HETATM   34 CL2  UNL     1     -45.559  -3.329 -22.598  1.00  0.00    -0.050 Cl
ATOM     35  H8  UNL     1     -46.671  -6.306 -24.359  1.00  0.00     0.189 HD
ENDBRANCH  29  31
ENDBRANCH   5  27
TORSDOF 7
ENDMDL
MODEL 4
REMARK VINA RESULT: -7.538791003      4.188      6.393
REMARK  7 active torsions:
REMARK  status: ('A' for Active; 'I' for Inactive)
REMARK    1  A    between atoms: N1_1  and  C1_4 
REMARK    2  A    between atoms: C2_10  and  N4_11 
REMARK    3  A    between atoms: C3_15  and  C4_16 
REMARK       I    between atoms: C4_16  and  N7_18 
REMARK    4  A    between atoms: N7_18  and  N8_20 
REMARK    5  A    between atoms: C6_25  and  C7_26 
REMARK    6  A    between atoms: C7_26  and  S1_27 
REMARK    7  A    between atoms: S1_27  and  C8_28 
ROOT
HETATM    1  N4  UNL     1     -52.788  -0.893 -20.825  1.00  0.00    -0.220 N 
HETATM    2  N5  UNL     1     -52.834  -1.845 -19.892  1.00  0.00    -0.013 NA
HETATM    3  N6  UNL     1     -51.831  -2.693 -20.109  1.00  0.00    -0.277 N 
ATOM      4  H6  UNL     1     -51.621  -3.522 -19.555  1.00  0.00     0.184 HD
HETATM    5  C3  UNL     1     -51.128  -2.263 -21.202  1.00  0.00     0.141 A 
HETATM    6  C6  UNL     1     -51.759  -1.147 -21.642  1.00  0.00     0.077 A 
ENDROOT
BRANCH   1   7
HETATM    7  C2  UNL     1     -53.419   0.403 -20.757  1.00  0.00     0.193 A 
HETATM    8  C1  UNL     1     -53.009   1.238 -19.677  1.00  0.00     0.169 A 
HETATM    9  N2  UNL     1     -53.641   2.436 -19.857  1.00  0.00    -0.222 N 
HETATM   10  O1  UNL     1     -54.349   2.326 -20.924  1.00  0.00    -0.153 OA
ATOM     11  H2  UNL     1     -53.566   3.259 -19.260  1.00  0.00     0.198 HD
HETATM   12  N3  UNL     1     -54.223   1.139 -21.459  1.00  0.00    -0.221 N 
ATOM     13  H3  UNL     1     -54.691   0.834 -22.313  1.00  0.00     0.198 HD
BRANCH   8  14
HETATM   14  N1  UNL     1     -52.219   1.024 -18.695  1.00  0.00    -0.381 N 
ATOM     15  H12 UNL     1     -52.024   1.569 -17.855  1.00  0.00     0.157 HD
ATOM     16  H11 UNL     1     -51.637   0.189 -18.637  1.00  0.00     0.157 HD
ENDBRANCH   8  14
ENDBRANCH   1   7
BRANCH   6  17
HETATM   17  C7  UNL     1     -51.432  -0.327 -22.890  1.00  0.00     0.141 C 
BRANCH  17  18
HETATM   18  S1  UNL     1     -52.022  -1.295 -24.287  1.00  0.00    -0.122 SA
BRANCH  18  19
HETATM   19  C8  UNL     1     -50.815  -2.011 -25.320  1.00  0.00     0.022 A 
HETATM   20  C9  UNL     1     -49.460  -2.073 -25.048  1.00  0.00     0.022 A 
HETATM   21  C10 UNL     1     -48.590  -2.647 -25.928  1.00  0.00     0.025 A 
HETATM   22  C11 UNL     1     -48.982  -3.208 -27.125  1.00  0.00     0.035 A 
HETATM   23 CL3  UNL     1     -47.824  -3.894 -28.253  1.00  0.00    -0.084 Cl
HETATM   24  C12 UNL     1     -50.324  -3.181 -27.428  1.00  0.00     0.049 A 
HETATM   25  C13 UNL     1     -51.237  -2.589 -26.536  1.00  0.00     0.052 A 
HETATM   26 CL4  UNL     1     -52.916  -2.577 -26.922  1.00  0.00    -0.083 Cl
ENDBRANCH  18  19
ENDBRANCH  17  18
ENDBRANCH   6  17
BRANCH   5  27
HETATM   27  C4  UNL     1     -49.934  -2.913 -21.640  1.00  0.00     0.289 C 
HETATM   28  O2  UNL     1     -48.809  -2.303 -21.470  1.00  0.00    -0.264 OA
HETATM   29  N7  UNL     1     -49.936  -4.217 -22.218  1.00  0.00    -0.263 N 
ATOM     30  H7  UNL     1     -50.815  -4.698 -22.405  1.00  0.00     0.190 HD
BRANCH  29  31
HETATM   31  N8  UNL     1     -48.677  -4.843 -22.537  1.00  0.00    -0.277 N 
HETATM   32  C5  UNL     1     -48.741  -5.557 -23.637  1.00  0.00     0.190 C 
HETATM   33 CL1  UNL     1     -47.280  -6.406 -24.133  1.00  0.00    -0.050 Cl
HETATM   34 CL2  UNL     1     -50.179  -5.667 -24.589  1.00  0.00    -0.050 Cl
ATOM     35  H8  UNL     1     -47.834  -4.743 -21.972  1.00  0.00     0.189 HD
ENDBRANCH  29  31
ENDBRANCH   5  27
TORSDOF 7
ENDMDL
MODEL 5
REMARK VINA RESULT: -7.509868509      3.373      3.944
REMARK  7 active torsions:
REMARK  status: ('A' for Active; 'I' for Inactive)
REMARK    1  A    between atoms: N1_1  and  C1_4 
REMARK    2  A    between atoms: C2_10  and  N4_11 
REMARK    3  A    between atoms: C3_15  and  C4_16 
REMARK       I    between atoms: C4_16  and  N7_18 
REMARK    4  A    between atoms: N7_18  and  N8_20 
REMARK    5  A    between atoms: C6_25  and  C7_26 
REMARK    6  A    between atoms: C7_26  and  S1_27 
REMARK    7  A    between atoms: S1_27  and  C8_28 
ROOT
HETATM    1  N4  UNL     1     -50.757  -1.951 -26.509  1.00  0.00    -0.220 N 
HETATM    2  N5  UNL     1     -49.728  -1.671 -27.310  1.00  0.00    -0.013 NA
HETATM    3  N6  UNL     1     -48.731  -2.502 -27.017  1.00  0.00    -0.277 N 
ATOM      4  H6  UNL     1     -47.816  -2.517 -27.466  1.00  0.00     0.184 HD
HETATM    5  C3  UNL     1     -49.140  -3.333 -26.009  1.00  0.00     0.141 A 
HETATM    6  C6  UNL     1     -50.403  -2.954 -25.697  1.00  0.00     0.077 A 
ENDROOT
BRANCH   1   7
HETATM    7  C2  UNL     1     -52.134  -1.579 -26.723  1.00  0.00     0.193 A 
HETATM    8  C1  UNL     1     -52.723  -2.046 -27.934  1.00  0.00     0.169 A 
HETATM    9  N2  UNL     1     -54.038  -1.676 -27.889  1.00  0.00    -0.222 N 
HETATM   10  O1  UNL     1     -54.212  -1.056 -26.777  1.00  0.00    -0.153 OA
ATOM     11  H2  UNL     1     -54.745  -1.857 -28.601  1.00  0.00     0.198 HD
HETATM   12  N3  UNL     1     -53.102  -0.997 -26.086  1.00  0.00    -0.221 N 
ATOM     13  H3  UNL     1     -53.011  -0.554 -25.172  1.00  0.00     0.198 HD
BRANCH   8  14
HETATM   14  N1  UNL     1     -52.230  -2.691 -28.921  1.00  0.00    -0.381 N 
ATOM     15  H12 UNL     1     -52.596  -3.468 -29.470  1.00  0.00     0.157 HD
ATOM     16  H11 UNL     1     -51.315  -2.469 -29.314  1.00  0.00     0.157 HD
ENDBRANCH   8  14
ENDBRANCH   1   7
BRANCH   6  17
HETATM   17  C7  UNL     1     -51.286  -3.502 -24.575  1.00  0.00     0.141 C 
BRANCH  17  18
HETATM   18  S1  UNL     1     -50.658  -2.776 -23.054  1.00  0.00    -0.122 SA
BRANCH  18  19
HETATM   19  C8  UNL     1     -51.493  -1.374 -22.442  1.00  0.00     0.022 A 
HETATM   20  C9  UNL     1     -51.614  -0.162 -23.099  1.00  0.00     0.022 A 
HETATM   21  C10 UNL     1     -52.281   0.884 -22.531  1.00  0.00     0.025 A 
HETATM   22  C11 UNL     1     -52.882   0.817 -21.291  1.00  0.00     0.035 A 
HETATM   23 CL3  UNL     1     -53.688   2.201 -20.574  1.00  0.00    -0.084 Cl
HETATM   24  C12 UNL     1     -52.798  -0.376 -20.610  1.00  0.00     0.049 A 
HETATM   25  C13 UNL     1     -52.110  -1.465 -21.177  1.00  0.00     0.052 A 
HETATM   26 CL4  UNL     1     -52.027  -2.957 -20.318  1.00  0.00    -0.083 Cl
ENDBRANCH  18  19
ENDBRANCH  17  18
ENDBRANCH   6  17
BRANCH   5  27
HETATM   27  C4  UNL     1     -48.323  -4.401 -25.529  1.00  0.00     0.289 C 
HETATM   28  O2  UNL     1     -47.555  -4.175 -24.516  1.00  0.00    -0.264 OA
HETATM   29  N7  UNL     1     -48.355  -5.709 -26.097  1.00  0.00    -0.263 N 
ATOM     30  H7  UNL     1     -48.919  -5.899 -26.924  1.00  0.00     0.190 HD
BRANCH  29  31
HETATM   31  N8  UNL     1     -47.577  -6.757 -25.485  1.00  0.00    -0.277 N 
HETATM   32  C5  UNL     1     -46.557  -7.118 -26.229  1.00  0.00     0.190 C 
HETATM   33 CL1  UNL     1     -45.533  -8.415 -25.619  1.00  0.00    -0.050 Cl
HETATM   34 CL2  UNL     1     -46.199  -6.364 -27.742  1.00  0.00    -0.050 Cl
ATOM     35  H8  UNL     1     -47.794  -7.170 -24.578  1.00  0.00     0.189 HD
ENDBRANCH  29  31
ENDBRANCH   5  27
TORSDOF 7
ENDMDL
