MODEL 1
REMARK VINA RESULT: -7.445837241      0.000      0.000
REMARK  9 active torsions:
REMARK  status: ('A' for Active; 'I' for Inactive)
REMARK    1  A    between atoms: C4_4  and  N1_5 
REMARK    2  A    between atoms: C5_7  and  O1_8 
REMARK    3  A    between atoms: C5_7  and  C6_10 
REMARK    4  A    between atoms: C6_10  and  S1_11 
REMARK    5  A    between atoms: S1_11  and  C7_12 
REMARK    6  A    between atoms: C8_17  and  S2_18 
REMARK    7  A    between atoms: S2_18  and  C9_19 
REMARK    8  A    between atoms: C9_19  and  C10_20 
REMARK    9  A    between atoms: C11_23  and  C12_24 
ROOT
HETATM    1  C10 UNL     1     -51.623   0.011 -23.803  1.00  0.00     0.042 A 
HETATM    2  N4  UNL     1     -52.723   0.701 -23.571  1.00  0.00    -0.352 N 
ATOM      3  H4  UNL     1     -53.377   1.018 -24.286  1.00  0.00     0.166 HD
HETATM    4  C11 UNL     1     -52.855   0.924 -22.240  1.00  0.00     0.140 A 
HETATM    5  C13 UNL     1     -51.738   0.368 -21.593  1.00  0.00     0.088 A 
HETATM    6 CL1  UNL     1     -51.384   0.450 -19.903  1.00  0.00    -0.080 Cl
HETATM    7  C14 UNL     1     -51.006  -0.151 -22.598  1.00  0.00     0.091 A 
HETATM    8  C15 UNL     1     -49.715  -0.800 -22.437  1.00  0.00     0.103 C 
HETATM    9  N5  UNL     1     -48.643  -1.202 -22.300  1.00  0.00    -0.191 NA
ENDROOT
BRANCH   1  10
HETATM   10  C9  UNL     1     -51.452  -0.742 -25.096  1.00  0.00     0.141 C 
BRANCH  10  11
HETATM   11  S2  UNL     1     -52.622  -2.013 -25.359  1.00  0.00    -0.079 SA
BRANCH  11  12
HETATM   12  C8  UNL     1     -52.073  -3.540 -24.552  1.00  0.00     0.204 A 
HETATM   13  N3  UNL     1     -52.174  -4.812 -25.031  1.00  0.00    -0.272 N 
HETATM   14  N2  UNL     1     -51.728  -5.687 -24.167  1.00  0.00    -0.272 N 
ATOM     15  H3  UNL     1     -52.549  -5.052 -25.949  1.00  0.00     0.189 HD
HETATM   16  C7  UNL     1     -51.292  -4.964 -23.098  1.00  0.00     0.204 A 
ATOM     17  H2  UNL     1     -51.710  -6.702 -24.272  1.00  0.00     0.189 HD
HETATM   18  O2  UNL     1     -51.532  -3.703 -23.402  1.00  0.00    -0.262 OA
BRANCH  16  19
HETATM   19  S1  UNL     1     -50.541  -5.545 -21.601  1.00  0.00    -0.077 SA
BRANCH  19  20
HETATM   20  C6  UNL     1     -48.813  -6.047 -21.964  1.00  0.00     0.167 C 
BRANCH  20  21
HETATM   21  C5  UNL     1     -48.033  -4.876 -22.270  1.00  0.00     0.126 C 
HETATM   22  N1  UNL     1     -47.449  -4.623 -23.459  1.00  0.00    -0.325 N 
ATOM     23  H1  UNL     1     -46.454  -4.848 -23.487  1.00  0.00     0.169 HD
BRANCH  22  24
HETATM   24  C4  UNL     1     -47.905  -4.155 -24.552  1.00  0.00     0.129 A 
HETATM   25  C3  UNL     1     -47.683  -4.813 -25.809  1.00  0.00     0.084 A 
HETATM   26  C2  UNL     1     -48.306  -4.015 -26.761  1.00  0.00     0.076 A 
HETATM   27  C1  UNL     1     -48.318  -4.414 -28.185  1.00  0.00     0.079 C 
HETATM   28  O3  UNL     1     -48.831  -3.019 -26.116  1.00  0.00    -0.241 OA
HETATM   29  N6  UNL     1     -48.653  -3.069 -24.878  1.00  0.00    -0.245 N 
ATOM     30  H6  UNL     1     -49.018  -2.391 -24.209  1.00  0.00     0.196 HD
ENDBRANCH  22  24
BRANCH  21  31
HETATM   31  O1  UNL     1     -47.891  -4.008 -21.272  1.00  0.00    -0.349 OA
ATOM     32  H1  UNL     1     -47.987  -4.306 -20.375  1.00  0.00     0.219 HD
ENDBRANCH  21  31
ENDBRANCH  20  21
ENDBRANCH  19  20
ENDBRANCH  16  19
ENDBRANCH  11  12
ENDBRANCH  10  11
ENDBRANCH   1  10
BRANCH   4  33
HETATM   33  C12 UNL     1     -54.081   1.350 -21.491  1.00  0.00     0.434 C 
HETATM   34  F1  UNL     1     -54.527   0.421 -20.599  1.00  0.00    -0.165 F 
HETATM   35  F2  UNL     1     -54.968   1.624 -22.572  1.00  0.00    -0.165 F 
HETATM   36  F3  UNL     1     -53.841   2.615 -20.911  1.00  0.00    -0.165 F 
ENDBRANCH   4  33
TORSDOF 9
ENDMDL
MODEL 2
REMARK VINA RESULT: -7.382355564      1.928      3.421
REMARK  9 active torsions:
REMARK  status: ('A' for Active; 'I' for Inactive)
REMARK    1  A    between atoms: C4_4  and  N1_5 
REMARK    2  A    between atoms: C5_7  and  O1_8 
REMARK    3  A    between atoms: C5_7  and  C6_10 
REMARK    4  A    between atoms: C6_10  and  S1_11 
REMARK    5  A    between atoms: S1_11  and  C7_12 
REMARK    6  A    between atoms: C8_17  and  S2_18 
REMARK    7  A    between atoms: S2_18  and  C9_19 
REMARK    8  A    between atoms: C9_19  and  C10_20 
REMARK    9  A    between atoms: C11_23  and  C12_24 
ROOT
HETATM    1  C10 UNL     1     -51.642   0.049 -23.742  1.00  0.00     0.042 A 
HETATM    2  N4  UNL     1     -52.735   0.744 -23.494  1.00  0.00    -0.352 N 
ATOM      3  H4  UNL     1     -53.394   1.072 -24.200  1.00  0.00     0.166 HD
HETATM    4  C11 UNL     1     -52.852   0.958 -22.160  1.00  0.00     0.140 A 
HETATM    5  C13 UNL     1     -51.733   0.389 -21.528  1.00  0.00     0.088 A 
HETATM    6 CL1  UNL     1     -51.361   0.455 -19.842  1.00  0.00    -0.080 Cl
HETATM    7  C14 UNL     1     -51.014  -0.126 -22.546  1.00  0.00     0.091 A 
HETATM    8  C15 UNL     1     -49.726  -0.785 -22.402  1.00  0.00     0.103 C 
HETATM    9  N5  UNL     1     -48.655  -1.195 -22.280  1.00  0.00    -0.191 NA
ENDROOT
BRANCH   1  10
HETATM   10  C9  UNL     1     -51.489  -0.694 -25.043  1.00  0.00     0.141 C 
BRANCH  10  11
HETATM   11  S2  UNL     1     -52.086  -2.336 -25.018  1.00  0.00    -0.079 SA
BRANCH  11  12
HETATM   12  C8  UNL     1     -50.700  -3.503 -25.077  1.00  0.00     0.204 A 
HETATM   13  N3  UNL     1     -50.197  -4.137 -26.174  1.00  0.00    -0.272 N 
HETATM   14  N2  UNL     1     -49.230  -4.955 -25.853  1.00  0.00    -0.272 N 
ATOM     15  H3  UNL     1     -50.534  -3.990 -27.126  1.00  0.00     0.189 HD
HETATM   16  C7  UNL     1     -49.071  -4.834 -24.506  1.00  0.00     0.204 A 
ATOM     17  H2  UNL     1     -48.702  -5.561 -26.482  1.00  0.00     0.189 HD
HETATM   18  O2  UNL     1     -49.979  -3.957 -24.121  1.00  0.00    -0.262 OA
BRANCH  16  19
HETATM   19  S1  UNL     1     -47.900  -5.646 -23.451  1.00  0.00    -0.077 SA
BRANCH  19  20
HETATM   20  C6  UNL     1     -48.590  -7.270 -22.946  1.00  0.00     0.167 C 
BRANCH  20  21
HETATM   21  C5  UNL     1     -50.005  -7.135 -22.717  1.00  0.00     0.126 C 
HETATM   22  N1  UNL     1     -50.565  -6.639 -21.594  1.00  0.00    -0.325 N 
ATOM     23  H1  UNL     1     -50.897  -7.355 -20.947  1.00  0.00     0.169 HD
BRANCH  22  24
HETATM   24  C4  UNL     1     -50.757  -5.447 -21.190  1.00  0.00     0.129 A 
HETATM   25  C3  UNL     1     -49.984  -4.873 -20.124  1.00  0.00     0.084 A 
HETATM   26  C2  UNL     1     -50.480  -3.587 -19.956  1.00  0.00     0.076 A 
HETATM   27  C1  UNL     1     -49.883  -2.675 -18.957  1.00  0.00     0.079 C 
HETATM   28  O3  UNL     1     -51.424  -3.441 -20.835  1.00  0.00    -0.241 OA
HETATM   29  N6  UNL     1     -51.596  -4.445 -21.562  1.00  0.00    -0.245 N 
ATOM     30  H6  UNL     1     -52.270  -4.503 -22.324  1.00  0.00     0.196 HD
ENDBRANCH  22  24
BRANCH  21  31
HETATM   31  O1  UNL     1     -50.787  -7.554 -23.709  1.00  0.00    -0.349 OA
ATOM     32  H1  UNL     1     -51.276  -8.362 -23.610  1.00  0.00     0.219 HD
ENDBRANCH  21  31
ENDBRANCH  20  21
ENDBRANCH  19  20
ENDBRANCH  16  19
ENDBRANCH  11  12
ENDBRANCH  10  11
ENDBRANCH   1  10
BRANCH   4  33
HETATM   33  C12 UNL     1     -54.068   1.386 -21.395  1.00  0.00     0.434 C 
HETATM   34  F1  UNL     1     -54.539   0.435 -20.541  1.00  0.00    -0.165 F 
HETATM   35  F2  UNL     1     -54.946   1.725 -22.465  1.00  0.00    -0.165 F 
HETATM   36  F3  UNL     1     -53.796   2.620 -20.766  1.00  0.00    -0.165 F 
ENDBRANCH   4  33
TORSDOF 9
ENDMDL
MODEL 3
REMARK VINA RESULT: -7.249864922      1.966      2.761
REMARK  9 active torsions:
REMARK  status: ('A' for Active; 'I' for Inactive)
REMARK    1  A    between atoms: C4_4  and  N1_5 
REMARK    2  A    between atoms: C5_7  and  O1_8 
REMARK    3  A    between atoms: C5_7  and  C6_10 
REMARK    4  A    between atoms: C6_10  and  S1_11 
REMARK    5  A    between atoms: S1_11  and  C7_12 
REMARK    6  A    between atoms: C8_17  and  S2_18 
REMARK    7  A    between atoms: S2_18  and  C9_19 
REMARK    8  A    between atoms: C9_19  and  C10_20 
REMARK    9  A    between atoms: C11_23  and  C12_24 
ROOT
HETATM    1  C10 UNL     1     -52.480  -0.784 -25.140  1.00  0.00     0.042 A 
HETATM    2  N4  UNL     1     -51.678  -0.705 -24.096  1.00  0.00    -0.352 N 
ATOM      3  H4  UNL     1     -50.776  -1.175 -24.014  1.00  0.00     0.166 HD
HETATM    4  C11 UNL     1     -52.230   0.093 -23.149  1.00  0.00     0.140 A 
HETATM    5  C13 UNL     1     -53.487   0.515 -23.616  1.00  0.00     0.088 A 
HETATM    6 CL1  UNL     1     -54.630   1.484 -22.754  1.00  0.00    -0.080 Cl
HETATM    7  C14 UNL     1     -53.599  -0.073 -24.823  1.00  0.00     0.091 A 
HETATM    8  C15 UNL     1     -54.763   0.023 -25.689  1.00  0.00     0.103 C 
HETATM    9  N5  UNL     1     -55.738   0.015 -26.304  1.00  0.00    -0.191 NA
ENDROOT
BRANCH   1  10
HETATM   10  C9  UNL     1     -51.950  -1.223 -26.480  1.00  0.00     0.141 C 
BRANCH  10  11
HETATM   11  S2  UNL     1     -52.311  -2.881 -26.898  1.00  0.00    -0.079 SA
BRANCH  11  12
HETATM   12  C8  UNL     1     -52.240  -3.925 -25.418  1.00  0.00     0.204 A 
HETATM   13  N3  UNL     1     -52.706  -5.198 -25.280  1.00  0.00    -0.272 N 
HETATM   14  N2  UNL     1     -52.542  -5.639 -24.060  1.00  0.00    -0.272 N 
ATOM     15  H3  UNL     1     -53.129  -5.740 -26.035  1.00  0.00     0.189 HD
HETATM   16  C7  UNL     1     -51.921  -4.635 -23.383  1.00  0.00     0.204 A 
ATOM     17  H2  UNL     1     -52.822  -6.549 -23.692  1.00  0.00     0.189 HD
HETATM   18  O2  UNL     1     -51.779  -3.655 -24.255  1.00  0.00    -0.262 OA
BRANCH  16  19
HETATM   19  S1  UNL     1     -51.384  -4.606 -21.693  1.00  0.00    -0.077 SA
BRANCH  19  20
HETATM   20  C6  UNL     1     -49.925  -5.706 -21.520  1.00  0.00     0.167 C 
BRANCH  20  21
HETATM   21  C5  UNL     1     -48.724  -4.938 -21.722  1.00  0.00     0.126 C 
HETATM   22  N1  UNL     1     -48.137  -4.719 -22.916  1.00  0.00    -0.325 N 
ATOM     23  H1  UNL     1     -47.343  -5.331 -23.106  1.00  0.00     0.169 HD
BRANCH  22  24
HETATM   24  C4  UNL     1     -48.386  -3.891 -23.852  1.00  0.00     0.129 A 
HETATM   25  C3  UNL     1     -48.207  -4.233 -25.235  1.00  0.00     0.084 A 
HETATM   26  C2  UNL     1     -48.559  -3.093 -25.948  1.00  0.00     0.076 A 
HETATM   27  C1  UNL     1     -48.537  -3.095 -27.427  1.00  0.00     0.079 C 
HETATM   28  O3  UNL     1     -48.908  -2.205 -25.069  1.00  0.00    -0.241 OA
HETATM   29  N6  UNL     1     -48.850  -2.615 -23.887  1.00  0.00    -0.245 N 
ATOM     30  H6  UNL     1     -49.115  -2.068 -23.068  1.00  0.00     0.196 HD
ENDBRANCH  22  24
BRANCH  21  31
HETATM   31  O1  UNL     1     -48.176  -4.434 -20.620  1.00  0.00    -0.349 OA
ATOM     32  H1  UNL     1     -48.185  -3.494 -20.481  1.00  0.00     0.219 HD
ENDBRANCH  21  31
ENDBRANCH  20  21
ENDBRANCH  19  20
ENDBRANCH  16  19
ENDBRANCH  11  12
ENDBRANCH  10  11
ENDBRANCH   1  10
BRANCH   4  33
HETATM   33  C12 UNL     1     -51.558   0.736 -21.975  1.00  0.00     0.434 C 
HETATM   34  F1  UNL     1     -51.655   2.095 -21.966  1.00  0.00    -0.165 F 
HETATM   35  F2  UNL     1     -50.234   0.227 -22.118  1.00  0.00    -0.165 F 
HETATM   36  F3  UNL     1     -52.035   0.131 -20.792  1.00  0.00    -0.165 F 
ENDBRANCH   4  33
TORSDOF 9
ENDMDL
MODEL 4
REMARK VINA RESULT: -7.210358614      2.189      3.809
REMARK  9 active torsions:
REMARK  status: ('A' for Active; 'I' for Inactive)
REMARK    1  A    between atoms: C4_4  and  N1_5 
REMARK    2  A    between atoms: C5_7  and  O1_8 
REMARK    3  A    between atoms: C5_7  and  C6_10 
REMARK    4  A    between atoms: C6_10  and  S1_11 
REMARK    5  A    between atoms: S1_11  and  C7_12 
REMARK    6  A    between atoms: C8_17  and  S2_18 
REMARK    7  A    between atoms: S2_18  and  C9_19 
REMARK    8  A    between atoms: C9_19  and  C10_20 
REMARK    9  A    between atoms: C11_23  and  C12_24 
ROOT
HETATM    1  C10 UNL     1     -50.367  -2.005 -21.597  1.00  0.00     0.042 A 
HETATM    2  N4  UNL     1     -50.612  -1.090 -22.516  1.00  0.00    -0.352 N 
ATOM      3  H4  UNL     1     -50.008  -0.883 -23.311  1.00  0.00     0.166 HD
HETATM    4  C11 UNL     1     -51.786  -0.468 -22.245  1.00  0.00     0.140 A 
HETATM    5  C13 UNL     1     -52.296  -1.003 -21.050  1.00  0.00     0.088 A 
HETATM    6 CL1  UNL     1     -53.730  -0.498 -20.228  1.00  0.00    -0.080 Cl
HETATM    7  C14 UNL     1     -51.374  -1.917 -20.684  1.00  0.00     0.091 A 
HETATM    8  C15 UNL     1     -51.431  -2.712 -19.469  1.00  0.00     0.103 C 
HETATM    9  N5  UNL     1     -51.434  -3.244 -18.446  1.00  0.00    -0.191 NA
ENDROOT
BRANCH   1  10
HETATM   10  C9  UNL     1     -49.392  -3.120 -21.871  1.00  0.00     0.141 C 
BRANCH  10  11
HETATM   11  S2  UNL     1     -50.128  -4.686 -22.115  1.00  0.00    -0.079 SA
BRANCH  11  12
HETATM   12  C8  UNL     1     -51.245  -4.632 -23.542  1.00  0.00     0.204 A 
HETATM   13  N3  UNL     1     -51.958  -5.665 -24.075  1.00  0.00    -0.272 N 
HETATM   14  N2  UNL     1     -52.622  -5.290 -25.137  1.00  0.00    -0.272 N 
ATOM     15  H3  UNL     1     -51.972  -6.610 -23.692  1.00  0.00     0.189 HD
HETATM   16  C7  UNL     1     -52.362  -3.963 -25.289  1.00  0.00     0.204 A 
ATOM     17  H2  UNL     1     -53.214  -5.873 -25.730  1.00  0.00     0.189 HD
HETATM   18  O2  UNL     1     -51.539  -3.649 -24.308  1.00  0.00    -0.262 OA
BRANCH  16  19
HETATM   19  S1  UNL     1     -52.984  -2.846 -26.519  1.00  0.00    -0.077 SA
BRANCH  19  20
HETATM   20  C6  UNL     1     -51.903  -1.362 -26.567  1.00  0.00     0.167 C 
BRANCH  20  21
HETATM   21  C5  UNL     1     -50.836  -1.582 -27.508  1.00  0.00     0.126 C 
HETATM   22  N1  UNL     1     -49.546  -1.796 -27.180  1.00  0.00    -0.325 N 
ATOM     23  H1  UNL     1     -48.956  -0.967 -27.259  1.00  0.00     0.169 HD
BRANCH  22  24
HETATM   24  C4  UNL     1     -48.924  -2.837 -26.792  1.00  0.00     0.129 A 
HETATM   25  C3  UNL     1     -48.312  -3.746 -27.720  1.00  0.00     0.084 A 
HETATM   26  C2  UNL     1     -47.753  -4.752 -26.941  1.00  0.00     0.076 A 
HETATM   27  C1  UNL     1     -46.992  -5.853 -27.570  1.00  0.00     0.079 C 
HETATM   28  O3  UNL     1     -48.010  -4.445 -25.707  1.00  0.00    -0.241 OA
HETATM   29  N6  UNL     1     -48.641  -3.372 -25.575  1.00  0.00    -0.245 N 
ATOM     30  H6  UNL     1     -48.904  -2.957 -24.681  1.00  0.00     0.196 HD
ENDBRANCH  22  24
BRANCH  21  31
HETATM   31  O1  UNL     1     -51.191  -1.552 -28.790  1.00  0.00    -0.349 OA
ATOM     32  H1  UNL     1     -52.002  -1.965 -29.061  1.00  0.00     0.219 HD
ENDBRANCH  21  31
ENDBRANCH  20  21
ENDBRANCH  19  20
ENDBRANCH  16  19
ENDBRANCH  11  12
ENDBRANCH  10  11
ENDBRANCH   1  10
BRANCH   4  33
HETATM   33  C12 UNL     1     -52.620   0.372 -23.163  1.00  0.00     0.434 C 
HETATM   34  F1  UNL     1     -53.342   1.332 -22.520  1.00  0.00    -0.165 F 
HETATM   35  F2  UNL     1     -53.396  -0.634 -23.809  1.00  0.00    -0.165 F 
HETATM   36  F3  UNL     1     -51.794   0.883 -24.187  1.00  0.00    -0.165 F 
ENDBRANCH   4  33
TORSDOF 9
ENDMDL
MODEL 5
REMARK VINA RESULT: -7.192638570      1.611      1.771
REMARK  9 active torsions:
REMARK  status: ('A' for Active; 'I' for Inactive)
REMARK    1  A    between atoms: C4_4  and  N1_5 
REMARK    2  A    between atoms: C5_7  and  O1_8 
REMARK    3  A    between atoms: C5_7  and  C6_10 
REMARK    4  A    between atoms: C6_10  and  S1_11 
REMARK    5  A    between atoms: S1_11  and  C7_12 
REMARK    6  A    between atoms: C8_17  and  S2_18 
REMARK    7  A    between atoms: S2_18  and  C9_19 
REMARK    8  A    between atoms: C9_19  and  C10_20 
REMARK    9  A    between atoms: C11_23  and  C12_24 
ROOT
HETATM    1  C10 UNL     1     -51.737  -0.090 -23.816  1.00  0.00     0.042 A 
HETATM    2  N4  UNL     1     -52.816   0.616 -23.540  1.00  0.00    -0.352 N 
ATOM      3  H4  UNL     1     -53.507   0.922 -24.226  1.00  0.00     0.166 HD
HETATM    4  C11 UNL     1     -52.869   0.876 -22.211  1.00  0.00     0.140 A 
HETATM    5  C13 UNL     1     -51.722   0.326 -21.614  1.00  0.00     0.088 A 
HETATM    6 CL1  UNL     1     -51.271   0.448 -19.949  1.00  0.00    -0.080 Cl
HETATM    7  C14 UNL     1     -51.052  -0.227 -22.645  1.00  0.00     0.091 A 
HETATM    8  C15 UNL     1     -49.761  -0.884 -22.540  1.00  0.00     0.103 C 
HETATM    9  N5  UNL     1     -48.686  -1.294 -22.455  1.00  0.00    -0.191 NA
ENDROOT
BRANCH   1  10
HETATM   10  C9  UNL     1     -51.646  -0.878 -25.097  1.00  0.00     0.141 C 
BRANCH  10  11
HETATM   11  S2  UNL     1     -52.794  -2.190 -25.227  1.00  0.00    -0.079 SA
BRANCH  11  12
HETATM   12  C8  UNL     1     -51.997  -3.759 -24.794  1.00  0.00     0.204 A 
HETATM   13  N3  UNL     1     -52.457  -5.018 -25.043  1.00  0.00    -0.272 N 
HETATM   14  N2  UNL     1     -51.659  -5.927 -24.546  1.00  0.00    -0.272 N 
ATOM     15  H3  UNL     1     -53.316  -5.224 -25.553  1.00  0.00     0.189 HD
HETATM   16  C7  UNL     1     -50.626  -5.244 -23.978  1.00  0.00     0.204 A 
ATOM     17  H2  UNL     1     -51.785  -6.939 -24.576  1.00  0.00     0.189 HD
HETATM   18  O2  UNL     1     -50.901  -3.967 -24.166  1.00  0.00    -0.262 OA
BRANCH  16  19
HETATM   19  S1  UNL     1     -49.189  -5.888 -23.163  1.00  0.00    -0.077 SA
BRANCH  19  20
HETATM   20  C6  UNL     1     -48.465  -7.214 -24.206  1.00  0.00     0.167 C 
BRANCH  20  21
HETATM   21  C5  UNL     1     -47.401  -6.663 -25.004  1.00  0.00     0.126 C 
HETATM   22  N1  UNL     1     -47.482  -6.391 -26.323  1.00  0.00    -0.325 N 
ATOM     23  H1  UNL     1     -47.068  -7.107 -26.919  1.00  0.00     0.169 HD
BRANCH  22  24
HETATM   24  C4  UNL     1     -47.978  -5.408 -26.963  1.00  0.00     0.129 A 
HETATM   25  C3  UNL     1     -48.134  -4.112 -26.363  1.00  0.00     0.084 A 
HETATM   26  C2  UNL     1     -48.712  -3.316 -27.344  1.00  0.00     0.076 A 
HETATM   27  C1  UNL     1     -48.981  -1.884 -27.087  1.00  0.00     0.079 C 
HETATM   28  O3  UNL     1     -48.860  -4.071 -28.388  1.00  0.00    -0.241 OA
HETATM   29  N6  UNL     1     -48.441  -5.240 -28.229  1.00  0.00    -0.245 N 
ATOM     30  H6  UNL     1     -48.447  -5.963 -28.948  1.00  0.00     0.196 HD
ENDBRANCH  22  24
BRANCH  21  31
HETATM   31  O1  UNL     1     -46.263  -6.429 -24.356  1.00  0.00    -0.349 OA
ATOM     32  H1  UNL     1     -46.179  -5.646 -23.826  1.00  0.00     0.219 HD
ENDBRANCH  21  31
ENDBRANCH  20  21
ENDBRANCH  19  20
ENDBRANCH  16  19
ENDBRANCH  11  12
ENDBRANCH  10  11
ENDBRANCH   1  10
BRANCH   4  33
HETATM   33  C12 UNL     1     -54.046   1.334 -21.404  1.00  0.00     0.434 C 
HETATM   34  F1  UNL     1     -54.476   0.415 -20.494  1.00  0.00    -0.165 F 
HETATM   35  F2  UNL     1     -54.975   1.635 -22.442  1.00  0.00    -0.165 F 
HETATM   36  F3  UNL     1     -53.745   2.589 -20.834  1.00  0.00    -0.165 F 
ENDBRANCH   4  33
TORSDOF 9
ENDMDL
