MODEL 1
REMARK VINA RESULT: -5.883940682      0.000      0.000
REMARK  6 active torsions:
REMARK  status: ('A' for Active; 'I' for Inactive)
REMARK    1  A    between atoms: C2_2  and  C3_3 
REMARK    2  A    between atoms: C3_3  and  N1_4 
REMARK       I    between atoms: N1_4  and  C4_6 
REMARK       I    between atoms: C4_6  and  N4_14 
REMARK    3  A    between atoms: N2_7  and  C5_9 
REMARK    4  A    between atoms: N4_14  and  C7_16 
REMARK    5  A    between atoms: C7_16  and  C8_17 
REMARK    6  A    between atoms: C8_17  and  N5_18 
ROOT
HETATM    1  N1  UNL     1     178.172  16.108  85.910  1.00  0.00    -0.226 N 
ATOM      2  H1  UNL     1     178.940  16.200  86.575  1.00  0.00     0.177 HD
HETATM    3  C4  UNL     1     176.869  16.631  86.245  1.00  0.00     0.675 C 
HETATM    4  N2  UNL     1     176.776  17.709  86.947  1.00  0.00    -0.182 N 
ATOM      5  H2  UNL     1     175.840  18.052  87.165  1.00  0.00     0.185 HD
HETATM    6  N4  UNL     1     175.758  15.898  85.768  1.00  0.00    -0.225 N 
ATOM      7  H4  UNL     1     175.617  14.966  86.156  1.00  0.00     0.177 HD
ENDROOT
BRANCH   1   8
HETATM    8  C3  UNL     1     178.397  15.453  84.640  1.00  0.00     0.137 C 
BRANCH   8   9
HETATM    9  C2  UNL     1     178.800  16.500  83.618  1.00  0.00     0.016 C 
HETATM   10  C1  UNL     1     177.798  16.495  82.512  1.00  0.00     0.006 C 
ENDBRANCH   8   9
ENDBRANCH   1   8
BRANCH   4  11
HETATM   11  C5  UNL     1     177.865  18.443  87.432  1.00  0.00     0.087 C 
HETATM   12  C6  UNL     1     178.687  19.329  86.535  1.00  0.00     0.089 C 
HETATM   13  N3  UNL     1     178.216  18.395  88.672  1.00  0.00    -0.389 N 
ATOM     14  H32 UNL     1     177.659  17.795  89.279  1.00  0.00     0.157 HD
ATOM     15  H31 UNL     1     179.010  18.929  89.025  1.00  0.00     0.157 HD
ENDBRANCH   4  11
BRANCH   6  16
HETATM   16  C7  UNL     1     174.805  16.350  84.782  1.00  0.00     0.157 C 
BRANCH  16  17
HETATM   17  C8  UNL     1     174.407  15.203  83.917  1.00  0.00     0.137 C 
BRANCH  17  18
HETATM   18  N5  UNL     1     173.093  14.715  84.118  1.00  0.00    -0.408 N 
HETATM   19  C9  UNL     1     172.866  13.874  85.243  1.00  0.00     0.144 C 
HETATM   20  C10 UNL     1     171.396  13.439  85.217  1.00  0.00     0.251 C 
HETATM   21  N6  UNL     1     170.994  13.411  83.830  1.00  0.00    -0.072 N 
HETATM   22  C11 UNL     1     170.887  14.737  83.245  1.00  0.00     0.251 C 
ATOM     23  H62 UNL     1     171.618  12.820  83.281  1.00  0.00     0.277 HD
ATOM     24  H61 UNL     1     170.125  12.890  83.713  1.00  0.00     0.277 HD
HETATM   25  C12 UNL     1     172.016  15.603  83.817  1.00  0.00     0.144 C 
ENDBRANCH  17  18
ENDBRANCH  16  17
ENDBRANCH   6  16
TORSDOF 6
ENDMDL
MODEL 2
REMARK VINA RESULT: -5.774228064      2.378      3.739
REMARK  6 active torsions:
REMARK  status: ('A' for Active; 'I' for Inactive)
REMARK    1  A    between atoms: C2_2  and  C3_3 
REMARK    2  A    between atoms: C3_3  and  N1_4 
REMARK       I    between atoms: N1_4  and  C4_6 
REMARK       I    between atoms: C4_6  and  N4_14 
REMARK    3  A    between atoms: N2_7  and  C5_9 
REMARK    4  A    between atoms: N4_14  and  C7_16 
REMARK    5  A    between atoms: C7_16  and  C8_17 
REMARK    6  A    between atoms: C8_17  and  N5_18 
ROOT
HETATM    1  N1  UNL     1     176.209  13.097  85.018  1.00  0.00    -0.226 N 
ATOM      2  H1  UNL     1     177.132  13.394  85.335  1.00  0.00     0.177 HD
HETATM    3  C4  UNL     1     175.116  14.039  85.015  1.00  0.00     0.675 C 
HETATM    4  N2  UNL     1     175.344  15.280  84.749  1.00  0.00    -0.182 N 
ATOM      5  H2  UNL     1     174.549  15.919  84.755  1.00  0.00     0.185 HD
HETATM    6  N4  UNL     1     173.838  13.517  85.319  1.00  0.00    -0.225 N 
ATOM      7  H4  UNL     1     173.694  13.167  86.267  1.00  0.00     0.177 HD
ENDROOT
BRANCH   1   8
HETATM    8  C3  UNL     1     176.007  11.735  84.574  1.00  0.00     0.137 C 
BRANCH   8   9
HETATM    9  C2  UNL     1     177.249  11.274  83.835  1.00  0.00     0.016 C 
HETATM   10  C1  UNL     1     178.039  12.476  83.438  1.00  0.00     0.006 C 
ENDBRANCH   8   9
ENDBRANCH   1   8
BRANCH   4  11
HETATM   11  C5  UNL     1     176.603  15.814  84.452  1.00  0.00     0.087 C 
HETATM   12  C6  UNL     1     177.034  16.094  83.037  1.00  0.00     0.089 C 
HETATM   13  N3  UNL     1     177.456  16.094  85.378  1.00  0.00    -0.389 N 
ATOM     14  H32 UNL     1     177.165  15.905  86.337  1.00  0.00     0.157 HD
ATOM     15  H31 UNL     1     178.374  16.483  85.162  1.00  0.00     0.157 HD
ENDBRANCH   4  11
BRANCH   6  16
HETATM   16  C7  UNL     1     172.718  13.433  84.412  1.00  0.00     0.157 C 
BRANCH  16  17
HETATM   17  C8  UNL     1     171.530  14.088  85.030  1.00  0.00     0.137 C 
BRANCH  17  18
HETATM   18  N5  UNL     1     171.179  15.349  84.490  1.00  0.00    -0.408 N 
HETATM   19  C9  UNL     1     171.816  16.500  85.034  1.00  0.00     0.144 C 
HETATM   20  C10 UNL     1     171.241  17.733  84.329  1.00  0.00     0.251 C 
HETATM   21  N6  UNL     1     169.885  17.405  83.952  1.00  0.00    -0.072 N 
HETATM   22  C11 UNL     1     169.818  16.431  82.876  1.00  0.00     0.251 C 
ATOM     23  H62 UNL     1     169.348  17.092  84.761  1.00  0.00     0.277 HD
ATOM     24  H61 UNL     1     169.358  18.246  83.716  1.00  0.00     0.277 HD
HETATM   25  C12 UNL     1     170.946  15.412  83.083  1.00  0.00     0.144 C 
ENDBRANCH  17  18
ENDBRANCH  16  17
ENDBRANCH   6  16
TORSDOF 6
ENDMDL
MODEL 3
REMARK VINA RESULT: -5.699303195      2.277      6.281
REMARK  6 active torsions:
REMARK  status: ('A' for Active; 'I' for Inactive)
REMARK    1  A    between atoms: C2_2  and  C3_3 
REMARK    2  A    between atoms: C3_3  and  N1_4 
REMARK       I    between atoms: N1_4  and  C4_6 
REMARK       I    between atoms: C4_6  and  N4_14 
REMARK    3  A    between atoms: N2_7  and  C5_9 
REMARK    4  A    between atoms: N4_14  and  C7_16 
REMARK    5  A    between atoms: C7_16  and  C8_17 
REMARK    6  A    between atoms: C8_17  and  N5_18 
ROOT
HETATM    1  N1  UNL     1     174.243  15.783  85.397  1.00  0.00    -0.226 N 
ATOM      2  H1  UNL     1     173.302  15.736  85.789  1.00  0.00     0.177 HD
HETATM    3  C4  UNL     1     174.866  14.586  84.886  1.00  0.00     0.675 C 
HETATM    4  N2  UNL     1     174.143  13.688  84.307  1.00  0.00    -0.182 N 
ATOM      5  H2  UNL     1     174.615  12.855  83.957  1.00  0.00     0.185 HD
HETATM    6  N4  UNL     1     176.264  14.480  85.069  1.00  0.00    -0.225 N 
ATOM      7  H4  UNL     1     176.601  14.392  86.027  1.00  0.00     0.177 HD
ENDROOT
BRANCH   1   8
HETATM    8  C3  UNL     1     174.941  17.050  85.358  1.00  0.00     0.137 C 
BRANCH   8   9
HETATM    9  C2  UNL     1     174.046  18.079  84.694  1.00  0.00     0.016 C 
HETATM   10  C1  UNL     1     172.627  17.756  85.021  1.00  0.00     0.006 C 
ENDBRANCH   8   9
ENDBRANCH   1   8
BRANCH   4  11
HETATM   11  C5  UNL     1     172.758  13.775  84.123  1.00  0.00     0.087 C 
HETATM   12  C6  UNL     1     172.152  14.633  83.045  1.00  0.00     0.089 C 
HETATM   13  N3  UNL     1     171.934  13.122  84.870  1.00  0.00    -0.389 N 
ATOM     14  H32 UNL     1     172.345  12.540  85.600  1.00  0.00     0.157 HD
ATOM     15  H31 UNL     1     170.924  13.185  84.737  1.00  0.00     0.157 HD
ENDBRANCH   4  11
BRANCH   6  16
HETATM   16  C7  UNL     1     177.258  14.485  84.022  1.00  0.00     0.157 C 
BRANCH  16  17
HETATM   17  C8  UNL     1     178.312  15.489  84.345  1.00  0.00     0.137 C 
BRANCH  17  18
HETATM   18  N5  UNL     1     178.192  16.735  83.682  1.00  0.00    -0.408 N 
HETATM   19  C9  UNL     1     179.205  17.706  83.913  1.00  0.00     0.144 C 
HETATM   20  C10 UNL     1     178.830  18.972  83.134  1.00  0.00     0.251 C 
HETATM   21  N6  UNL     1     177.388  19.005  83.061  1.00  0.00    -0.072 N 
HETATM   22  C11 UNL     1     176.842  17.984  82.184  1.00  0.00     0.251 C 
ATOM     23  H62 UNL     1     176.975  18.946  83.992  1.00  0.00     0.277 HD
ATOM     24  H61 UNL     1     177.058  19.932  82.792  1.00  0.00     0.277 HD
HETATM   25  C12 UNL     1     177.686  16.714  82.347  1.00  0.00     0.144 C 
ENDBRANCH  17  18
ENDBRANCH  16  17
ENDBRANCH   6  16
TORSDOF 6
ENDMDL
MODEL 4
REMARK VINA RESULT: -5.658616804      2.060      6.290
REMARK  6 active torsions:
REMARK  status: ('A' for Active; 'I' for Inactive)
REMARK    1  A    between atoms: C2_2  and  C3_3 
REMARK    2  A    between atoms: C3_3  and  N1_4 
REMARK       I    between atoms: N1_4  and  C4_6 
REMARK       I    between atoms: C4_6  and  N4_14 
REMARK    3  A    between atoms: N2_7  and  C5_9 
REMARK    4  A    between atoms: N4_14  and  C7_16 
REMARK    5  A    between atoms: C7_16  and  C8_17 
REMARK    6  A    between atoms: C8_17  and  N5_18 
ROOT
HETATM    1  N1  UNL     1     174.175  16.081  85.135  1.00  0.00    -0.226 N 
ATOM      2  H1  UNL     1     173.216  16.114  85.481  1.00  0.00     0.177 HD
HETATM    3  C4  UNL     1     174.806  14.805  84.896  1.00  0.00     0.675 C 
HETATM    4  N2  UNL     1     174.101  13.816  84.464  1.00  0.00    -0.182 N 
ATOM      5  H2  UNL     1     174.578  12.929  84.304  1.00  0.00     0.185 HD
HETATM    6  N4  UNL     1     176.192  14.731  85.166  1.00  0.00    -0.225 N 
ATOM      7  H4  UNL     1     176.480  14.828  86.140  1.00  0.00     0.177 HD
ENDROOT
BRANCH   1   8
HETATM    8  C3  UNL     1     174.892  17.314  84.889  1.00  0.00     0.137 C 
BRANCH   8   9
HETATM    9  C2  UNL     1     175.082  18.038  86.208  1.00  0.00     0.016 C 
HETATM   10  C1  UNL     1     176.545  18.162  86.475  1.00  0.00     0.006 C 
ENDBRANCH   8   9
ENDBRANCH   1   8
BRANCH   4  11
HETATM   11  C5  UNL     1     172.728  13.871  84.197  1.00  0.00     0.087 C 
HETATM   12  C6  UNL     1     171.701  13.549  85.249  1.00  0.00     0.089 C 
HETATM   13  N3  UNL     1     172.276  14.201  83.035  1.00  0.00    -0.389 N 
ATOM     14  H32 UNL     1     172.972  14.419  82.321  1.00  0.00     0.157 HD
ATOM     15  H31 UNL     1     171.276  14.241  82.840  1.00  0.00     0.157 HD
ENDBRANCH   4  11
BRANCH   6  16
HETATM   16  C7  UNL     1     177.237  14.531  84.190  1.00  0.00     0.157 C 
BRANCH  16  17
HETATM   17  C8  UNL     1     178.360  15.472  84.466  1.00  0.00     0.137 C 
BRANCH  17  18
HETATM   18  N5  UNL     1     178.319  16.696  83.754  1.00  0.00    -0.408 N 
HETATM   19  C9  UNL     1     179.375  17.623  83.975  1.00  0.00     0.144 C 
HETATM   20  C10 UNL     1     179.085  18.875  83.139  1.00  0.00     0.251 C 
HETATM   21  N6  UNL     1     177.648  18.978  83.027  1.00  0.00    -0.072 N 
HETATM   22  C11 UNL     1     177.072  17.952  82.174  1.00  0.00     0.251 C 
ATOM     23  H62 UNL     1     177.210  18.975  83.948  1.00  0.00     0.277 HD
ATOM     24  H61 UNL     1     177.373  19.909  82.715  1.00  0.00     0.277 HD
HETATM   25  C12 UNL     1     177.847  16.648  82.407  1.00  0.00     0.144 C 
ENDBRANCH  17  18
ENDBRANCH  16  17
ENDBRANCH   6  16
TORSDOF 6
ENDMDL
MODEL 5
REMARK VINA RESULT: -5.626541395      2.112      6.436
REMARK  6 active torsions:
REMARK  status: ('A' for Active; 'I' for Inactive)
REMARK    1  A    between atoms: C2_2  and  C3_3 
REMARK    2  A    between atoms: C3_3  and  N1_4 
REMARK       I    between atoms: N1_4  and  C4_6 
REMARK       I    between atoms: C4_6  and  N4_14 
REMARK    3  A    between atoms: N2_7  and  C5_9 
REMARK    4  A    between atoms: N4_14  and  C7_16 
REMARK    5  A    between atoms: C7_16  and  C8_17 
REMARK    6  A    between atoms: C8_17  and  N5_18 
ROOT
HETATM    1  N1  UNL     1     174.652  14.231  84.557  1.00  0.00    -0.226 N 
ATOM      2  H1  UNL     1     174.507  13.395  85.123  1.00  0.00     0.177 HD
HETATM    3  C4  UNL     1     175.985  14.760  84.391  1.00  0.00     0.675 C 
HETATM    4  N2  UNL     1     176.989  13.953  84.329  1.00  0.00    -0.182 N 
ATOM      5  H2  UNL     1     177.916  14.360  84.211  1.00  0.00     0.185 HD
HETATM    6  N4  UNL     1     176.095  16.167  84.310  1.00  0.00    -0.225 N 
ATOM      7  H4  UNL     1     175.857  16.700  85.147  1.00  0.00     0.177 HD
ENDROOT
BRANCH   1   8
HETATM    8  C3  UNL     1     173.521  14.877  83.927  1.00  0.00     0.137 C 
BRANCH   8   9
HETATM    9  C2  UNL     1     172.385  14.954  84.930  1.00  0.00     0.016 C 
HETATM   10  C1  UNL     1     171.899  13.571  85.205  1.00  0.00     0.006 C 
ENDBRANCH   8   9
ENDBRANCH   1   8
BRANCH   4  11
HETATM   11  C5  UNL     1     176.898  12.559  84.414  1.00  0.00     0.087 C 
HETATM   12  C6  UNL     1     177.744  11.655  83.558  1.00  0.00     0.089 C 
HETATM   13  N3  UNL     1     176.084  11.980  85.231  1.00  0.00    -0.389 N 
ATOM     14  H32 UNL     1     175.511  12.593  85.811  1.00  0.00     0.157 HD
ATOM     15  H31 UNL     1     176.018  10.965  85.292  1.00  0.00     0.157 HD
ENDBRANCH   4  11
BRANCH   6  16
HETATM   16  C7  UNL     1     176.513  16.920  83.151  1.00  0.00     0.157 C 
BRANCH  16  17
HETATM   17  C8  UNL     1     177.658  17.801  83.519  1.00  0.00     0.137 C 
BRANCH  17  18
HETATM   18  N5  UNL     1     178.335  17.454  84.713  1.00  0.00    -0.408 N 
HETATM   19  C9  UNL     1     179.578  16.771  84.592  1.00  0.00     0.144 C 
HETATM   20  C10 UNL     1     180.085  16.463  86.005  1.00  0.00     0.251 C 
HETATM   21  N6  UNL     1     178.919  16.310  86.843  1.00  0.00    -0.072 N 
HETATM   22  C11 UNL     1     178.223  17.563  87.080  1.00  0.00     0.251 C 
ATOM     23  H62 UNL     1     178.286  15.607  86.461  1.00  0.00     0.277 HD
ATOM     24  H61 UNL     1     179.160  15.854  87.724  1.00  0.00     0.277 HD
HETATM   25  C12 UNL     1     178.278  18.390  85.789  1.00  0.00     0.144 C 
ENDBRANCH  17  18
ENDBRANCH  16  17
ENDBRANCH   6  16
TORSDOF 6
ENDMDL
