MODEL 1
REMARK VINA RESULT: -6.374601401      0.000      0.000
REMARK  6 active torsions:
REMARK  status: ('A' for Active; 'I' for Inactive)
REMARK    1  A    between atoms: C3_8  and  N3_9 
REMARK    2  A    between atoms: N5_15  and  C8_16 
REMARK    3  A    between atoms: C9_17  and  C10_18 
REMARK    4  A    between atoms: C10_18  and  C11_19 
REMARK    5  A    between atoms: C11_19  and  C12_20 
REMARK    6  A    between atoms: C12_20  and  N6_21 
ROOT
HETATM    1  N1  UNL     1     172.174  13.094  84.289  1.00  0.00    -0.370 N 
ATOM      2  H11 UNL     1     171.243  13.431  84.046  1.00  0.00     0.159 HD
ATOM      3  H12 UNL     1     172.248  12.080  84.372  1.00  0.00     0.159 HD
HETATM    4  C1  UNL     1     173.140  13.886  84.472  1.00  0.00     0.191 C 
HETATM    5  N2  UNL     1     174.470  13.405  84.819  1.00  0.00    -0.358 N 
ATOM      6  H2  UNL     1     174.721  12.417  84.834  1.00  0.00     0.162 HD
HETATM    7  C2  UNL     1     175.411  14.476  85.142  1.00  0.00     0.177 C 
HETATM    8  C3  UNL     1     175.397  15.424  83.997  1.00  0.00     0.353 C 
HETATM    9  N4  UNL     1     174.105  15.992  83.703  1.00  0.00    -0.094 NA
HETATM   10  N5  UNL     1     173.038  15.284  84.356  1.00  0.00    -0.239 N 
ENDROOT
BRANCH  10  11
HETATM   11  C8  UNL     1     171.970  16.091  84.812  1.00  0.00     0.111 C 
HETATM   12  C9  UNL     1     170.959  16.681  83.966  1.00  0.00    -0.008 C 
BRANCH  12  13
HETATM   13  C10 UNL     1     169.876  16.044  83.232  1.00  0.00     0.030 C 
BRANCH  13  14
HETATM   14  C11 UNL     1     168.963  16.840  82.388  1.00  0.00     0.031 C 
BRANCH  14  15
HETATM   15  C12 UNL     1     167.598  17.176  82.787  1.00  0.00     0.230 C 
BRANCH  15  16
HETATM   16  N6  UNL     1     166.678  17.175  81.632  1.00  0.00    -0.079 N 
ATOM     17  H63 UNL     1     165.754  17.520  81.890  1.00  0.00     0.274 HD
ATOM     18  H62 UNL     1     166.931  17.893  80.953  1.00  0.00     0.274 HD
ATOM     19  H61 UNL     1     166.623  16.254  81.197  1.00  0.00     0.274 HD
ENDBRANCH  15  16
ENDBRANCH  14  15
ENDBRANCH  13  14
ENDBRANCH  12  13
ENDBRANCH  10  11
BRANCH   8  20
HETATM   20  N3  UNL     1     176.327  16.523  84.088  1.00  0.00     0.111 N 
HETATM   21  C4  UNL     1     177.480  16.313  84.890  1.00  0.00     0.275 C 
HETATM   22  C5  UNL     1     178.564  15.826  83.973  1.00  0.00     0.032 C 
HETATM   23  C6  UNL     1     178.242  16.557  82.683  1.00  0.00     0.032 C 
HETATM   24  C7  UNL     1     176.800  16.950  82.786  1.00  0.00     0.275 C 
ENDBRANCH   8  20
TORSDOF 6
ENDMDL
MODEL 2
REMARK VINA RESULT: -6.266502221      2.106      3.503
REMARK  6 active torsions:
REMARK  status: ('A' for Active; 'I' for Inactive)
REMARK    1  A    between atoms: C3_8  and  N3_9 
REMARK    2  A    between atoms: N5_15  and  C8_16 
REMARK    3  A    between atoms: C9_17  and  C10_18 
REMARK    4  A    between atoms: C10_18  and  C11_19 
REMARK    5  A    between atoms: C11_19  and  C12_20 
REMARK    6  A    between atoms: C12_20  and  N6_21 
ROOT
HETATM    1  N1  UNL     1     175.303  13.151  84.923  1.00  0.00    -0.370 N 
ATOM      2  H11 UNL     1     174.698  12.450  84.496  1.00  0.00     0.159 HD
ATOM      3  H12 UNL     1     176.234  12.813  85.169  1.00  0.00     0.159 HD
HETATM    4  C1  UNL     1     174.909  14.334  85.125  1.00  0.00     0.191 C 
HETATM    5  N2  UNL     1     175.773  15.336  85.733  1.00  0.00    -0.358 N 
ATOM      6  H2  UNL     1     176.760  15.174  85.935  1.00  0.00     0.162 HD
HETATM    7  C2  UNL     1     175.090  16.594  86.027  1.00  0.00     0.177 C 
HETATM    8  C3  UNL     1     174.451  17.043  84.762  1.00  0.00     0.353 C 
HETATM    9  N4  UNL     1     173.512  16.108  84.198  1.00  0.00    -0.094 NA
HETATM   10  N5  UNL     1     173.626  14.801  84.786  1.00  0.00    -0.239 N 
ENDROOT
BRANCH  10  11
HETATM   11  C8  UNL     1     172.407  14.105  84.950  1.00  0.00     0.111 C 
HETATM   12  C9  UNL     1     171.116  14.583  84.515  1.00  0.00    -0.008 C 
BRANCH  12  13
HETATM   13  C10 UNL     1     170.590  14.739  83.166  1.00  0.00     0.030 C 
BRANCH  13  14
HETATM   14  C11 UNL     1     170.188  16.067  82.660  1.00  0.00     0.031 C 
BRANCH  14  15
HETATM   15  C12 UNL     1     169.128  16.864  83.273  1.00  0.00     0.230 C 
BRANCH  15  16
HETATM   16  N6  UNL     1     167.974  17.022  82.365  1.00  0.00    -0.079 N 
ATOM     17  H63 UNL     1     167.501  16.133  82.204  1.00  0.00     0.274 HD
ATOM     18  H62 UNL     1     167.211  17.528  82.816  1.00  0.00     0.274 HD
ATOM     19  H61 UNL     1     168.245  17.464  81.486  1.00  0.00     0.274 HD
ENDBRANCH  15  16
ENDBRANCH  14  15
ENDBRANCH  13  14
ENDBRANCH  12  13
ENDBRANCH  10  11
BRANCH   8  20
HETATM   20  N3  UNL     1     173.784  18.321  84.822  1.00  0.00     0.111 N 
HETATM   21  C4  UNL     1     172.369  18.304  84.702  1.00  0.00     0.275 C 
HETATM   22  C5  UNL     1     171.815  18.254  86.096  1.00  0.00     0.032 C 
HETATM   23  C6  UNL     1     172.841  19.056  86.874  1.00  0.00     0.032 C 
HETATM   24  C7  UNL     1     174.087  19.041  86.043  1.00  0.00     0.275 C 
ENDBRANCH   8  20
TORSDOF 6
ENDMDL
MODEL 3
REMARK VINA RESULT: -6.164789914      2.144      2.817
REMARK  6 active torsions:
REMARK  status: ('A' for Active; 'I' for Inactive)
REMARK    1  A    between atoms: C3_8  and  N3_9 
REMARK    2  A    between atoms: N5_15  and  C8_16 
REMARK    3  A    between atoms: C9_17  and  C10_18 
REMARK    4  A    between atoms: C10_18  and  C11_19 
REMARK    5  A    between atoms: C11_19  and  C12_20 
REMARK    6  A    between atoms: C12_20  and  N6_21 
ROOT
HETATM    1  N1  UNL     1     174.223  13.698  85.413  1.00  0.00    -0.370 N 
ATOM      2  H11 UNL     1     173.275  14.043  85.560  1.00  0.00     0.159 HD
ATOM      3  H12 UNL     1     174.370  12.730  85.699  1.00  0.00     0.159 HD
HETATM    4  C1  UNL     1     175.126  14.429  84.920  1.00  0.00     0.191 C 
HETATM    5  N2  UNL     1     176.480  13.937  84.709  1.00  0.00    -0.358 N 
ATOM      6  H2  UNL     1     176.749  12.964  84.849  1.00  0.00     0.162 HD
HETATM    7  C2  UNL     1     177.417  14.974  84.278  1.00  0.00     0.177 C 
HETATM    8  C3  UNL     1     176.822  15.621  83.079  1.00  0.00     0.353 C 
HETATM    9  N4  UNL     1     175.523  16.208  83.295  1.00  0.00    -0.094 NA
HETATM   10  N5  UNL     1     174.924  15.764  84.525  1.00  0.00    -0.239 N 
ENDROOT
BRANCH  10  11
HETATM   11  C8  UNL     1     174.167  16.740  85.212  1.00  0.00     0.111 C 
HETATM   12  C9  UNL     1     172.869  17.222  84.802  1.00  0.00    -0.008 C 
BRANCH  12  13
HETATM   13  C10 UNL     1     171.582  16.540  84.803  1.00  0.00     0.030 C 
BRANCH  13  14
HETATM   14  C11 UNL     1     171.080  15.872  83.585  1.00  0.00     0.031 C 
BRANCH  14  15
HETATM   15  C12 UNL     1     171.593  14.589  83.111  1.00  0.00     0.230 C 
BRANCH  15  16
HETATM   16  N6  UNL     1     171.012  13.460  83.864  1.00  0.00    -0.079 N 
ATOM     17  H63 UNL     1     170.144  13.728  84.329  1.00  0.00     0.274 HD
ATOM     18  H62 UNL     1     170.642  12.745  83.238  1.00  0.00     0.274 HD
ATOM     19  H61 UNL     1     171.681  13.065  84.526  1.00  0.00     0.274 HD
ENDBRANCH  15  16
ENDBRANCH  14  15
ENDBRANCH  13  14
ENDBRANCH  12  13
ENDBRANCH  10  11
BRANCH   8  20
HETATM   20  N3  UNL     1     177.637  16.631  82.449  1.00  0.00     0.111 N 
HETATM   21  C4  UNL     1     177.090  17.941  82.390  1.00  0.00     0.275 C 
HETATM   22  C5  UNL     1     177.592  18.676  83.598  1.00  0.00     0.032 C 
HETATM   23  C6  UNL     1     178.969  18.068  83.791  1.00  0.00     0.032 C 
HETATM   24  C7  UNL     1     178.939  16.754  83.074  1.00  0.00     0.275 C 
ENDBRANCH   8  20
TORSDOF 6
ENDMDL
MODEL 4
REMARK VINA RESULT: -6.111340638      2.181      3.531
REMARK  6 active torsions:
REMARK  status: ('A' for Active; 'I' for Inactive)
REMARK    1  A    between atoms: C3_8  and  N3_9 
REMARK    2  A    between atoms: N5_15  and  C8_16 
REMARK    3  A    between atoms: C9_17  and  C10_18 
REMARK    4  A    between atoms: C10_18  and  C11_19 
REMARK    5  A    between atoms: C11_19  and  C12_20 
REMARK    6  A    between atoms: C12_20  and  N6_21 
ROOT
HETATM    1  N1  UNL     1     171.693  13.248  84.539  1.00  0.00    -0.370 N 
ATOM      2  H11 UNL     1     170.879  13.518  83.987  1.00  0.00     0.159 HD
ATOM      3  H12 UNL     1     171.644  12.307  84.932  1.00  0.00     0.159 HD
HETATM    4  C1  UNL     1     172.668  14.032  84.713  1.00  0.00     0.191 C 
HETATM    5  N2  UNL     1     173.830  13.646  85.501  1.00  0.00    -0.358 N 
ATOM      6  H2  UNL     1     173.970  12.704  85.866  1.00  0.00     0.162 HD
HETATM    7  C2  UNL     1     174.777  14.738  85.717  1.00  0.00     0.177 C 
HETATM    8  C3  UNL     1     175.116  15.286  84.377  1.00  0.00     0.353 C 
HETATM    9  N4  UNL     1     173.989  15.770  83.622  1.00  0.00    -0.094 NA
HETATM   10  N5  UNL     1     172.736  15.328  84.171  1.00  0.00    -0.239 N 
ENDROOT
BRANCH  10  11
HETATM   11  C8  UNL     1     171.680  16.264  84.094  1.00  0.00     0.111 C 
HETATM   12  C9  UNL     1     171.461  17.345  85.026  1.00  0.00    -0.008 C 
BRANCH  12  13
HETATM   13  C10 UNL     1     172.232  18.563  85.233  1.00  0.00     0.030 C 
BRANCH  13  14
HETATM   14  C11 UNL     1     173.303  18.616  86.248  1.00  0.00     0.031 C 
BRANCH  14  15
HETATM   15  C12 UNL     1     173.125  19.228  87.562  1.00  0.00     0.230 C 
BRANCH  15  16
HETATM   16  N6  UNL     1     174.308  19.023  88.422  1.00  0.00    -0.079 N 
ATOM     17  H63 UNL     1     174.838  19.886  88.540  1.00  0.00     0.274 HD
ATOM     18  H62 UNL     1     174.040  18.867  89.394  1.00  0.00     0.274 HD
ATOM     19  H61 UNL     1     174.899  18.267  88.074  1.00  0.00     0.274 HD
ENDBRANCH  15  16
ENDBRANCH  14  15
ENDBRANCH  13  14
ENDBRANCH  12  13
ENDBRANCH  10  11
BRANCH   8  20
HETATM   20  N3  UNL     1     176.108  16.334  84.366  1.00  0.00     0.111 N 
HETATM   21  C4  UNL     1     177.264  16.121  85.165  1.00  0.00     0.275 C 
HETATM   22  C5  UNL     1     178.300  15.503  84.273  1.00  0.00     0.032 C 
HETATM   23  C6  UNL     1     177.994  16.149  82.935  1.00  0.00     0.032 C 
HETATM   24  C7  UNL     1     176.579  16.630  83.028  1.00  0.00     0.275 C 
ENDBRANCH   8  20
TORSDOF 6
ENDMDL
MODEL 5
REMARK VINA RESULT: -6.021724721      3.698      6.702
REMARK  6 active torsions:
REMARK  status: ('A' for Active; 'I' for Inactive)
REMARK    1  A    between atoms: C3_8  and  N3_9 
REMARK    2  A    between atoms: N5_15  and  C8_16 
REMARK    3  A    between atoms: C9_17  and  C10_18 
REMARK    4  A    between atoms: C10_18  and  C11_19 
REMARK    5  A    between atoms: C11_19  and  C12_20 
REMARK    6  A    between atoms: C12_20  and  N6_21 
ROOT
HETATM    1  N1  UNL     1     177.608  17.282  87.079  1.00  0.00    -0.370 N 
ATOM      2  H11 UNL     1     177.357  18.083  87.659  1.00  0.00     0.159 HD
ATOM      3  H12 UNL     1     178.540  16.907  87.256  1.00  0.00     0.159 HD
HETATM    4  C1  UNL     1     176.814  16.812  86.216  1.00  0.00     0.191 C 
HETATM    5  N2  UNL     1     177.172  15.668  85.389  1.00  0.00    -0.358 N 
ATOM      6  H2  UNL     1     178.025  15.126  85.524  1.00  0.00     0.162 HD
HETATM    7  C2  UNL     1     176.191  15.373  84.347  1.00  0.00     0.177 C 
HETATM    8  C3  UNL     1     174.873  15.235  85.022  1.00  0.00     0.353 C 
HETATM    9  N4  UNL     1     174.452  16.398  85.761  1.00  0.00    -0.094 NA
HETATM   10  N5  UNL     1     175.529  17.327  85.972  1.00  0.00    -0.239 N 
ENDROOT
BRANCH  10  11
HETATM   11  C8  UNL     1     175.165  18.692  85.922  1.00  0.00     0.111 C 
HETATM   12  C9  UNL     1     174.701  19.467  87.049  1.00  0.00    -0.008 C 
BRANCH  12  13
HETATM   13  C10 UNL     1     175.431  19.931  88.220  1.00  0.00     0.030 C 
BRANCH  13  14
HETATM   14  C11 UNL     1     174.819  19.880  89.563  1.00  0.00     0.031 C 
BRANCH  14  15
HETATM   15  C12 UNL     1     175.579  20.090  90.793  1.00  0.00     0.230 C 
BRANCH  15  16
HETATM   16  N6  UNL     1     176.272  18.858  91.220  1.00  0.00    -0.079 N 
ATOM     17  H63 UNL     1     175.722  18.338  91.904  1.00  0.00     0.274 HD
ATOM     18  H62 UNL     1     176.293  18.163  90.473  1.00  0.00     0.274 HD
ATOM     19  H61 UNL     1     177.210  19.057  91.570  1.00  0.00     0.274 HD
ENDBRANCH  15  16
ENDBRANCH  14  15
ENDBRANCH  13  14
ENDBRANCH  12  13
ENDBRANCH  10  11
BRANCH   8  20
HETATM   20  N3  UNL     1     173.773  14.862  84.166  1.00  0.00     0.111 N 
HETATM   21  C4  UNL     1     173.255  13.550  84.335  1.00  0.00     0.275 C 
HETATM   22  C5  UNL     1     172.113  13.655  85.303  1.00  0.00     0.032 C 
HETATM   23  C6  UNL     1     171.548  15.026  84.981  1.00  0.00     0.032 C 
HETATM   24  C7  UNL     1     172.650  15.769  84.291  1.00  0.00     0.275 C 
ENDBRANCH   8  20
TORSDOF 6
ENDMDL
