MODEL 1
REMARK VINA RESULT: -5.807473979      0.000      0.000
REMARK  6 active torsions:
REMARK  status: ('A' for Active; 'I' for Inactive)
REMARK    1  A    between atoms: C3_7  and  N3_8 
REMARK    2  A    between atoms: N3_8  and  C4_10 
REMARK    3  A    between atoms: C4_10  and  C5_11 
REMARK    4  A    between atoms: C5_11  and  C6_12 
REMARK    5  A    between atoms: C6_12  and  C7_13 
REMARK    6  A    between atoms: C7_13  and  N4_14 
ROOT
HETATM    1  C1  UNL     1     177.310  18.728  87.095  1.00  0.00     0.147 C 
HETATM    2  N1  UNL     1     176.485  17.639  86.903  1.00  0.00    -0.379 N 
ATOM      3  H1  UNL     1     175.831  17.513  87.676  1.00  0.00     0.160 HD
HETATM    4  C2  UNL     1     176.342  16.776  86.027  1.00  0.00     0.139 A 
HETATM    5  N2  UNL     1     175.355  15.811  86.223  1.00  0.00    -0.175 N 
ATOM      6  H2  UNL     1     174.792  15.842  87.073  1.00  0.00     0.186 HD
HETATM    7  C3  UNL     1     175.126  14.849  85.330  1.00  0.00     0.679 A 
HETATM    8  N5  UNL     1     175.837  14.763  84.198  1.00  0.00    -0.194 N 
ATOM      9  H5  UNL     1     175.636  14.015  83.534  1.00  0.00     0.184 HD
HETATM   10  C9  UNL     1     176.800  15.640  83.928  1.00  0.00     0.047 A 
HETATM   11  C10 UNL     1     177.599  15.555  82.677  1.00  0.00     0.070 C 
HETATM   12  C11 UNL     1     177.044  16.655  84.866  1.00  0.00     0.111 A 
HETATM   13  C12 UNL     1     178.091  17.580  84.532  1.00  0.00     0.105 C 
HETATM   14  N6  UNL     1     178.947  18.314  84.228  1.00  0.00    -0.191 NA
ENDROOT
BRANCH   7  15
HETATM   15  N3  UNL     1     174.176  13.967  85.583  1.00  0.00    -0.226 N 
ATOM     16  H3  UNL     1     174.104  13.565  86.518  1.00  0.00     0.177 HD
BRANCH  15  17
HETATM   17  C4  UNL     1     173.243  13.560  84.569  1.00  0.00     0.138 C 
BRANCH  17  18
HETATM   18  C5  UNL     1     171.822  13.527  85.093  1.00  0.00     0.022 C 
BRANCH  18  19
HETATM   19  C6  UNL     1     170.870  14.264  84.209  1.00  0.00     0.029 C 
BRANCH  19  20
HETATM   20  C7  UNL     1     171.531  15.477  83.588  1.00  0.00     0.231 C 
BRANCH  20  21
HETATM   21  N4  UNL     1     171.163  16.653  84.358  1.00  0.00    -0.079 N 
HETATM   22  C8  UNL     1     172.373  17.347  84.769  1.00  0.00     0.266 C 
ATOM     23  H42 UNL     1     170.518  17.263  83.854  1.00  0.00     0.276 HD
ATOM     24  H41 UNL     1     170.558  16.427  85.148  1.00  0.00     0.276 HD
ENDBRANCH  20  21
ENDBRANCH  19  20
ENDBRANCH  18  19
ENDBRANCH  17  18
ENDBRANCH  15  17
ENDBRANCH   7  15
TORSDOF 6
ENDMDL
MODEL 2
REMARK VINA RESULT: -5.797728397      2.083      3.379
REMARK  6 active torsions:
REMARK  status: ('A' for Active; 'I' for Inactive)
REMARK    1  A    between atoms: C3_7  and  N3_8 
REMARK    2  A    between atoms: N3_8  and  C4_10 
REMARK    3  A    between atoms: C4_10  and  C5_11 
REMARK    4  A    between atoms: C5_11  and  C6_12 
REMARK    5  A    between atoms: C6_12  and  C7_13 
REMARK    6  A    between atoms: C7_13  and  N4_14 
ROOT
HETATM    1  C1  UNL     1     178.071  12.068  83.570  1.00  0.00     0.147 C 
HETATM    2  N1  UNL     1     176.791  12.287  84.036  1.00  0.00    -0.379 N 
ATOM      3  H1  UNL     1     176.240  11.428  84.059  1.00  0.00     0.160 HD
HETATM    4  C2  UNL     1     176.145  13.265  84.432  1.00  0.00     0.139 A 
HETATM    5  N2  UNL     1     174.825  13.053  84.831  1.00  0.00    -0.175 N 
ATOM      6  H2  UNL     1     174.438  12.111  84.778  1.00  0.00     0.186 HD
HETATM    7  C3  UNL     1     174.058  14.045  85.277  1.00  0.00     0.679 A 
HETATM    8  N5  UNL     1     174.519  15.300  85.364  1.00  0.00    -0.194 N 
ATOM      9  H5  UNL     1     173.906  16.038  85.711  1.00  0.00     0.184 HD
HETATM   10  C9  UNL     1     175.765  15.597  85.004  1.00  0.00     0.047 A 
HETATM   11  C10 UNL     1     176.290  16.985  85.092  1.00  0.00     0.070 C 
HETATM   12  C11 UNL     1     176.576  14.553  84.534  1.00  0.00     0.111 A 
HETATM   13  C12 UNL     1     177.914  14.918  84.159  1.00  0.00     0.105 C 
HETATM   14  N6  UNL     1     178.994  15.251  83.864  1.00  0.00    -0.191 NA
ENDROOT
BRANCH   7  15
HETATM   15  N3  UNL     1     172.817  13.771  85.634  1.00  0.00    -0.226 N 
ATOM     16  H3  UNL     1     172.580  13.727  86.626  1.00  0.00     0.177 HD
BRANCH  15  17
HETATM   17  C4  UNL     1     171.791  13.533  84.657  1.00  0.00     0.138 C 
BRANCH  17  18
HETATM   18  C5  UNL     1     170.842  14.708  84.540  1.00  0.00     0.022 C 
BRANCH  18  19
HETATM   19  C6  UNL     1     170.913  15.369  83.203  1.00  0.00     0.029 C 
BRANCH  19  20
HETATM   20  C7  UNL     1     170.043  16.608  83.159  1.00  0.00     0.231 C 
BRANCH  20  21
HETATM   21  N4  UNL     1     169.068  16.456  82.092  1.00  0.00    -0.079 N 
HETATM   22  C8  UNL     1     167.863  17.190  82.444  1.00  0.00     0.266 C 
ATOM     23  H42 UNL     1     169.440  16.732  81.183  1.00  0.00     0.276 HD
ATOM     24  H41 UNL     1     168.878  15.477  81.877  1.00  0.00     0.276 HD
ENDBRANCH  20  21
ENDBRANCH  19  20
ENDBRANCH  18  19
ENDBRANCH  17  18
ENDBRANCH  15  17
ENDBRANCH   7  15
TORSDOF 6
ENDMDL
MODEL 3
REMARK VINA RESULT: -5.768102970      1.971      5.696
REMARK  6 active torsions:
REMARK  status: ('A' for Active; 'I' for Inactive)
REMARK    1  A    between atoms: C3_7  and  N3_8 
REMARK    2  A    between atoms: N3_8  and  C4_10 
REMARK    3  A    between atoms: C4_10  and  C5_11 
REMARK    4  A    between atoms: C5_11  and  C6_12 
REMARK    5  A    between atoms: C6_12  and  C7_13 
REMARK    6  A    between atoms: C7_13  and  N4_14 
ROOT
HETATM    1  C1  UNL     1     170.616  14.478  82.882  1.00  0.00     0.147 C 
HETATM    2  N1  UNL     1     171.943  14.299  83.220  1.00  0.00    -0.379 N 
ATOM      3  H1  UNL     1     172.311  13.413  82.873  1.00  0.00     0.160 HD
HETATM    4  C2  UNL     1     172.796  14.947  83.838  1.00  0.00     0.139 A 
HETATM    5  N2  UNL     1     174.070  14.392  83.961  1.00  0.00    -0.175 N 
ATOM      6  H2  UNL     1     174.253  13.478  83.547  1.00  0.00     0.186 HD
HETATM    7  C3  UNL     1     175.052  15.021  84.604  1.00  0.00     0.679 A 
HETATM    8  N5  UNL     1     174.863  16.222  85.166  1.00  0.00    -0.194 N 
ATOM      9  H5  UNL     1     175.635  16.678  85.651  1.00  0.00     0.184 HD
HETATM   10  C9  UNL     1     173.679  16.828  85.101  1.00  0.00     0.047 A 
HETATM   11  C10 UNL     1     173.453  18.159  85.722  1.00  0.00     0.070 C 
HETATM   12  C11 UNL     1     172.643  16.168  84.424  1.00  0.00     0.111 A 
HETATM   13  C12 UNL     1     171.385  16.859  84.376  1.00  0.00     0.105 C 
HETATM   14  N6  UNL     1     170.377  17.450  84.356  1.00  0.00    -0.191 NA
ENDROOT
BRANCH   7  15
HETATM   15  N3  UNL     1     176.232  14.433  84.683  1.00  0.00    -0.226 N 
ATOM     16  H3  UNL     1     176.284  13.454  84.966  1.00  0.00     0.177 HD
BRANCH  15  17
HETATM   17  C4  UNL     1     177.444  15.142  84.379  1.00  0.00     0.138 C 
BRANCH  17  18
HETATM   18  C5  UNL     1     177.588  15.399  82.893  1.00  0.00     0.022 C 
BRANCH  18  19
HETATM   19  C6  UNL     1     178.040  16.790  82.595  1.00  0.00     0.029 C 
BRANCH  19  20
HETATM   20  C7  UNL     1     176.906  17.780  82.760  1.00  0.00     0.231 C 
BRANCH  20  21
HETATM   21  N4  UNL     1     176.848  18.624  81.577  1.00  0.00    -0.079 N 
HETATM   22  C8  UNL     1     176.575  19.993  81.986  1.00  0.00     0.266 C 
ATOM     23  H42 UNL     1     177.690  18.550  81.005  1.00  0.00     0.276 HD
ATOM     24  H41 UNL     1     176.178  18.282  80.889  1.00  0.00     0.276 HD
ENDBRANCH  20  21
ENDBRANCH  19  20
ENDBRANCH  18  19
ENDBRANCH  17  18
ENDBRANCH  15  17
ENDBRANCH   7  15
TORSDOF 6
ENDMDL
MODEL 4
REMARK VINA RESULT: -5.757355636      1.930      2.644
REMARK  6 active torsions:
REMARK  status: ('A' for Active; 'I' for Inactive)
REMARK    1  A    between atoms: C3_7  and  N3_8 
REMARK    2  A    between atoms: N3_8  and  C4_10 
REMARK    3  A    between atoms: C4_10  and  C5_11 
REMARK    4  A    between atoms: C5_11  and  C6_12 
REMARK    5  A    between atoms: C6_12  and  C7_13 
REMARK    6  A    between atoms: C7_13  and  N4_14 
ROOT
HETATM    1  C1  UNL     1     178.382  18.826  88.319  1.00  0.00     0.147 C 
HETATM    2  N1  UNL     1     177.788  17.836  87.562  1.00  0.00    -0.379 N 
ATOM      3  H1  UNL     1     176.872  17.574  87.926  1.00  0.00     0.160 HD
HETATM    4  C2  UNL     1     178.091  17.188  86.552  1.00  0.00     0.139 A 
HETATM    5  N2  UNL     1     177.176  16.243  86.090  1.00  0.00    -0.175 N 
ATOM      6  H2  UNL     1     176.299  16.114  86.595  1.00  0.00     0.186 HD
HETATM    7  C3  UNL     1     177.415  15.505  85.007  1.00  0.00     0.679 A 
HETATM    8  N5  UNL     1     178.551  15.636  84.309  1.00  0.00    -0.194 N 
ATOM      9  H5  UNL     1     178.704  15.056  83.483  1.00  0.00     0.184 HD
HETATM   10  C9  UNL     1     179.483  16.512  84.677  1.00  0.00     0.047 A 
HETATM   11  C10 UNL     1     180.749  16.666  83.915  1.00  0.00     0.070 C 
HETATM   12  C11 UNL     1     179.233  17.291  85.817  1.00  0.00     0.111 A 
HETATM   13  C12 UNL     1     180.265  18.224  86.177  1.00  0.00     0.105 C 
HETATM   14  N6  UNL     1     181.123  18.972  86.439  1.00  0.00    -0.191 NA
ENDROOT
BRANCH   7  15
HETATM   15  N3  UNL     1     176.504  14.627  84.628  1.00  0.00    -0.226 N 
ATOM     16  H3  UNL     1     176.775  13.653  84.491  1.00  0.00     0.177 HD
BRANCH  15  17
HETATM   17  C4  UNL     1     175.138  15.014  84.405  1.00  0.00     0.138 C 
BRANCH  17  18
HETATM   18  C5  UNL     1     174.190  14.299  85.346  1.00  0.00     0.022 C 
BRANCH  18  19
HETATM   19  C6  UNL     1     173.231  13.411  84.624  1.00  0.00     0.029 C 
BRANCH  19  20
HETATM   20  C7  UNL     1     171.825  13.574  85.163  1.00  0.00     0.231 C 
BRANCH  20  21
HETATM   21  N4  UNL     1     170.883  13.369  84.075  1.00  0.00    -0.079 N 
HETATM   22  C8  UNL     1     170.870  14.553  83.231  1.00  0.00     0.266 C 
ATOM     23  H42 UNL     1     171.077  12.517  83.548  1.00  0.00     0.276 HD
ATOM     24  H41 UNL     1     169.951  13.120  84.410  1.00  0.00     0.276 HD
ENDBRANCH  20  21
ENDBRANCH  19  20
ENDBRANCH  18  19
ENDBRANCH  17  18
ENDBRANCH  15  17
ENDBRANCH   7  15
TORSDOF 6
ENDMDL
MODEL 5
REMARK VINA RESULT: -5.702614691      1.944      3.369
REMARK  6 active torsions:
REMARK  status: ('A' for Active; 'I' for Inactive)
REMARK    1  A    between atoms: C3_7  and  N3_8 
REMARK    2  A    between atoms: N3_8  and  C4_10 
REMARK    3  A    between atoms: C4_10  and  C5_11 
REMARK    4  A    between atoms: C5_11  and  C6_12 
REMARK    5  A    between atoms: C6_12  and  C7_13 
REMARK    6  A    between atoms: C7_13  and  N4_14 
ROOT
HETATM    1  C1  UNL     1     175.769  12.514  84.965  1.00  0.00     0.147 C 
HETATM    2  N1  UNL     1     174.974  13.640  85.039  1.00  0.00    -0.379 N 
ATOM      3  H1  UNL     1     174.051  13.433  85.422  1.00  0.00     0.160 HD
HETATM    4  C2  UNL     1     175.102  14.838  84.755  1.00  0.00     0.139 A 
HETATM    5  N2  UNL     1     174.016  15.680  84.992  1.00  0.00    -0.175 N 
ATOM      6  H2  UNL     1     173.160  15.287  85.382  1.00  0.00     0.186 HD
HETATM    7  C3  UNL     1     174.066  16.984  84.724  1.00  0.00     0.679 A 
HETATM    8  N5  UNL     1     175.167  17.550  84.211  1.00  0.00    -0.194 N 
ATOM      9  H5  UNL     1     175.174  18.552  84.017  1.00  0.00     0.184 HD
HETATM   10  C9  UNL     1     176.251  16.823  83.951  1.00  0.00     0.047 A 
HETATM   11  C10 UNL     1     177.479  17.437  83.379  1.00  0.00     0.070 C 
HETATM   12  C11 UNL     1     176.201  15.450  84.233  1.00  0.00     0.111 A 
HETATM   13  C12 UNL     1     177.394  14.705  83.938  1.00  0.00     0.105 C 
HETATM   14  N6  UNL     1     178.380  14.132  83.688  1.00  0.00    -0.191 NA
ENDROOT
BRANCH   7  15
HETATM   15  N3  UNL     1     172.999  17.721  84.971  1.00  0.00    -0.226 N 
ATOM     16  H3  UNL     1     173.088  18.736  84.997  1.00  0.00     0.177 HD
BRANCH  15  17
HETATM   17  C4  UNL     1     171.714  17.122  85.206  1.00  0.00     0.138 C 
BRANCH  17  18
HETATM   18  C5  UNL     1     170.855  17.126  83.958  1.00  0.00     0.022 C 
BRANCH  18  19
HETATM   19  C6  UNL     1     170.202  15.807  83.709  1.00  0.00     0.029 C 
BRANCH  19  20
HETATM   20  C7  UNL     1     171.195  14.801  83.164  1.00  0.00     0.231 C 
BRANCH  20  21
HETATM   21  N4  UNL     1     170.896  13.496  83.731  1.00  0.00    -0.079 N 
HETATM   22  C8  UNL     1     171.388  13.451  85.099  1.00  0.00     0.266 C 
ATOM     23  H42 UNL     1     169.905  13.262  83.667  1.00  0.00     0.276 HD
ATOM     24  H41 UNL     1     171.260  12.732  83.161  1.00  0.00     0.276 HD
ENDBRANCH  20  21
ENDBRANCH  19  20
ENDBRANCH  18  19
ENDBRANCH  17  18
ENDBRANCH  15  17
ENDBRANCH   7  15
TORSDOF 6
ENDMDL
