MODEL 1
REMARK VINA RESULT: -6.771481143      0.000      0.000
REMARK  4 active torsions:
REMARK  status: ('A' for Active; 'I' for Inactive)
REMARK    1  A    between atoms: N2_6  and  C4_8 
REMARK    2  A    between atoms: C4_8  and  C5_9 
REMARK    3  A    between atoms: C5_9  and  C6_10 
REMARK    4  A    between atoms: C6_10  and  N3_11 
REMARK       I    between atoms: N3_11  and  C7_13 
REMARK       I    between atoms: C7_13  and  N5_17 
ROOT
HETATM    1  C4  UNL     1      10.353  13.244  51.361  1.00  0.00     0.125 C 
ENDROOT
BRANCH   1   2
HETATM    2  N2  UNL     1       9.580  12.557  50.345  1.00  0.00    -0.356 N 
HETATM    3  C3  UNL     1       8.892  13.252  49.496  1.00  0.00     0.225 A 
HETATM    4  N1  UNL     1       8.808  14.611  49.444  1.00  0.00    -0.323 N 
HETATM    5  O1  UNL     1       8.142  12.820  48.520  1.00  0.00    -0.270 OA
HETATM    6  C2  UNL     1       8.005  14.990  48.434  1.00  0.00     0.050 A 
ATOM      7  H1  UNL     1       9.286  15.249  50.081  1.00  0.00     0.169 HD
HETATM    8  C1  UNL     1       7.623  16.360  48.004  1.00  0.00     0.072 C 
HETATM    9  C10 UNL     1       7.591  13.802  47.857  1.00  0.00     0.147 A 
HETATM   10 BR1  UNL     1       6.423  13.630  46.358  1.00  0.00    -0.021 Br
ATOM     11  H2  UNL     1       9.576  11.538  50.300  1.00  0.00     0.163 HD
ENDBRANCH   1   2
BRANCH   1  12
HETATM   12  C5  UNL     1       9.831  12.948  52.750  1.00  0.00     0.040 C 
BRANCH  12  13
HETATM   13  C6  UNL     1       8.574  13.672  53.087  1.00  0.00     0.139 C 
BRANCH  13  14
HETATM   14  N3  UNL     1       8.783  14.909  53.768  1.00  0.00    -0.227 N 
HETATM   15  C7  UNL     1       8.818  16.145  53.092  1.00  0.00     0.668 C 
HETATM   16  N4  UNL     1       9.904  16.576  52.598  1.00  0.00    -0.235 N 
HETATM   17  N5  UNL     1       7.613  16.903  52.977  1.00  0.00    -0.227 N 
ATOM     18  H42 UNL     1      10.764  16.034  52.681  1.00  0.00     0.174 HD
ATOM     19  H41 UNL     1       9.929  17.471  52.109  1.00  0.00     0.174 HD
HETATM   20  C8  UNL     1       7.165  17.619  54.169  1.00  0.00     0.168 C 
HETATM   21  C9  UNL     1       6.904  16.936  51.733  1.00  0.00     0.168 C 
ATOM     22  H3  UNL     1       8.912  14.898  54.779  1.00  0.00     0.177 HD
ENDBRANCH  13  14
ENDBRANCH  12  13
ENDBRANCH   1  12
TORSDOF 4
ENDMDL
MODEL 2
REMARK VINA RESULT: -6.695884937      1.614      2.134
REMARK  4 active torsions:
REMARK  status: ('A' for Active; 'I' for Inactive)
REMARK    1  A    between atoms: N2_6  and  C4_8 
REMARK    2  A    between atoms: C4_8  and  C5_9 
REMARK    3  A    between atoms: C5_9  and  C6_10 
REMARK    4  A    between atoms: C6_10  and  N3_11 
REMARK       I    between atoms: N3_11  and  C7_13 
REMARK       I    between atoms: C7_13  and  N5_17 
ROOT
HETATM    1  C4  UNL     1       9.780  11.774  50.305  1.00  0.00     0.125 C 
ENDROOT
BRANCH   1   2
HETATM    2  N2  UNL     1       9.631  13.195  50.055  1.00  0.00    -0.356 N 
HETATM    3  C3  UNL     1       8.840  13.591  49.109  1.00  0.00     0.225 A 
HETATM    4  N1  UNL     1       8.101  12.794  48.287  1.00  0.00    -0.323 N 
HETATM    5  O1  UNL     1       8.577  14.812  48.735  1.00  0.00    -0.270 OA
HETATM    6  C2  UNL     1       7.395  13.544  47.422  1.00  0.00     0.050 A 
ATOM      7  H1  UNL     1       8.085  11.774  48.324  1.00  0.00     0.169 HD
HETATM    8  C1  UNL     1       6.460  13.110  46.352  1.00  0.00     0.072 C 
HETATM    9  C10 UNL     1       7.730  14.848  47.742  1.00  0.00     0.147 A 
HETATM   10 BR1  UNL     1       7.069  16.419  46.884  1.00  0.00    -0.021 Br
ATOM     11  H2  UNL     1      10.144  13.874  50.616  1.00  0.00     0.163 HD
ENDBRANCH   1   2
BRANCH   1  12
HETATM   12  C5  UNL     1      10.053  11.494  51.767  1.00  0.00     0.040 C 
BRANCH  12  13
HETATM   13  C6  UNL     1      10.456  12.699  52.544  1.00  0.00     0.139 C 
BRANCH  13  14
HETATM   14  N3  UNL     1       9.417  13.234  53.363  1.00  0.00    -0.227 N 
HETATM   15  C7  UNL     1       9.347  14.601  53.697  1.00  0.00     0.668 C 
HETATM   16  N4  UNL     1       9.967  15.048  54.709  1.00  0.00    -0.235 N 
HETATM   17  N5  UNL     1       8.566  15.473  52.878  1.00  0.00    -0.227 N 
ATOM     18  H42 UNL     1      10.524  14.425  55.294  1.00  0.00     0.174 HD
ATOM     19  H41 UNL     1       9.917  16.038  54.950  1.00  0.00     0.174 HD
HETATM   20  C8  UNL     1       7.116  15.407  53.037  1.00  0.00     0.168 C 
HETATM   21  C9  UNL     1       9.211  16.357  51.954  1.00  0.00     0.168 C 
ATOM     22  H3  UNL     1       8.699  12.604  53.720  1.00  0.00     0.177 HD
ENDBRANCH  13  14
ENDBRANCH  12  13
ENDBRANCH   1  12
TORSDOF 4
ENDMDL
MODEL 3
REMARK VINA RESULT: -6.433577134      1.152      1.485
REMARK  4 active torsions:
REMARK  status: ('A' for Active; 'I' for Inactive)
REMARK    1  A    between atoms: N2_6  and  C4_8 
REMARK    2  A    between atoms: C4_8  and  C5_9 
REMARK    3  A    between atoms: C5_9  and  C6_10 
REMARK    4  A    between atoms: C6_10  and  N3_11 
REMARK       I    between atoms: N3_11  and  C7_13 
REMARK       I    between atoms: C7_13  and  N5_17 
ROOT
HETATM    1  C4  UNL     1      10.255  12.030  50.807  1.00  0.00     0.125 C 
ENDROOT
BRANCH   1   2
HETATM    2  N2  UNL     1       9.334  11.715  49.732  1.00  0.00    -0.356 N 
HETATM    3  C3  UNL     1       8.753  12.680  49.093  1.00  0.00     0.225 A 
HETATM    4  N1  UNL     1       8.913  14.013  49.324  1.00  0.00    -0.323 N 
HETATM    5  O1  UNL     1       7.903  12.599  48.108  1.00  0.00    -0.270 OA
HETATM    6  C2  UNL     1       8.156  14.729  48.473  1.00  0.00     0.050 A 
ATOM      7  H1  UNL     1       9.521  14.412  50.040  1.00  0.00     0.169 HD
HETATM    8  C1  UNL     1       8.012  16.203  48.359  1.00  0.00     0.072 C 
HETATM    9  C10 UNL     1       7.514  13.777  47.700  1.00  0.00     0.147 A 
HETATM   10 BR1  UNL     1       6.280  14.127  46.286  1.00  0.00    -0.021 Br
ATOM     11  H2  UNL     1       9.145  10.744  49.482  1.00  0.00     0.163 HD
ENDBRANCH   1   2
BRANCH   1  12
HETATM   12  C5  UNL     1       9.609  11.846  52.162  1.00  0.00     0.040 C 
BRANCH  12  13
HETATM   13  C6  UNL     1      10.008  12.875  53.163  1.00  0.00     0.139 C 
BRANCH  13  14
HETATM   14  N3  UNL     1       8.987  13.830  53.450  1.00  0.00    -0.227 N 
HETATM   15  C7  UNL     1       9.242  15.215  53.503  1.00  0.00     0.668 C 
HETATM   16  N4  UNL     1       9.635  15.754  54.582  1.00  0.00    -0.235 N 
HETATM   17  N5  UNL     1       9.051  15.999  52.325  1.00  0.00    -0.227 N 
ATOM     18  H42 UNL     1       9.771  15.194  55.424  1.00  0.00     0.174 HD
ATOM     19  H41 UNL     1       9.820  16.756  54.621  1.00  0.00     0.174 HD
HETATM   20  C8  UNL     1       7.673  16.314  51.957  1.00  0.00     0.168 C 
HETATM   21  C9  UNL     1      10.182  16.438  51.564  1.00  0.00     0.168 C 
ATOM     22  H3  UNL     1       8.038  13.499  53.621  1.00  0.00     0.177 HD
ENDBRANCH  13  14
ENDBRANCH  12  13
ENDBRANCH   1  12
TORSDOF 4
ENDMDL
MODEL 4
REMARK VINA RESULT: -6.287914725      1.969      3.653
REMARK  4 active torsions:
REMARK  status: ('A' for Active; 'I' for Inactive)
REMARK    1  A    between atoms: N2_6  and  C4_8 
REMARK    2  A    between atoms: C4_8  and  C5_9 
REMARK    3  A    between atoms: C5_9  and  C6_10 
REMARK    4  A    between atoms: C6_10  and  N3_11 
REMARK       I    between atoms: N3_11  and  C7_13 
REMARK       I    between atoms: C7_13  and  N5_17 
ROOT
HETATM    1  C4  UNL     1       7.000  15.882  52.061  1.00  0.00     0.125 C 
ENDROOT
BRANCH   1   2
HETATM    2  N2  UNL     1       6.947  16.862  50.993  1.00  0.00    -0.356 N 
HETATM    3  C3  UNL     1       7.024  16.463  49.764  1.00  0.00     0.225 A 
HETATM    4  N1  UNL     1       7.156  15.175  49.340  1.00  0.00    -0.323 N 
HETATM    5  O1  UNL     1       6.995  17.184  48.678  1.00  0.00    -0.270 OA
HETATM    6  C2  UNL     1       7.206  15.129  47.996  1.00  0.00     0.050 A 
ATOM      7  H1  UNL     1       7.210  14.361  49.953  1.00  0.00     0.169 HD
HETATM    8  C1  UNL     1       7.344  13.950  47.103  1.00  0.00     0.072 C 
HETATM    9  C10 UNL     1       7.099  16.451  47.602  1.00  0.00     0.147 A 
HETATM   10 BR1  UNL     1       7.101  17.089  45.803  1.00  0.00    -0.021 Br
ATOM     11  H2  UNL     1       6.850  17.854  51.208  1.00  0.00     0.163 HD
ENDBRANCH   1   2
BRANCH   1  12
HETATM   12  C5  UNL     1       7.277  16.533  53.398  1.00  0.00     0.040 C 
BRANCH  12  13
HETATM   13  C6  UNL     1       8.687  16.387  53.857  1.00  0.00     0.139 C 
BRANCH  13  14
HETATM   14  N3  UNL     1       9.613  16.115  52.805  1.00  0.00    -0.227 N 
HETATM   15  C7  UNL     1      10.415  14.956  52.787  1.00  0.00     0.668 C 
HETATM   16  N4  UNL     1      11.538  14.944  53.376  1.00  0.00    -0.235 N 
HETATM   17  N5  UNL     1       9.943  13.800  52.094  1.00  0.00    -0.227 N 
ATOM     18  H42 UNL     1      11.875  15.771  53.870  1.00  0.00     0.174 HD
ATOM     19  H41 UNL     1      12.119  14.106  53.363  1.00  0.00     0.174 HD
HETATM   20  C8  UNL     1      10.024  13.824  50.636  1.00  0.00     0.168 C 
HETATM   21  C9  UNL     1       9.420  12.687  52.830  1.00  0.00     0.168 C 
ATOM     22  H3  UNL     1       9.696  16.782  52.039  1.00  0.00     0.177 HD
ENDBRANCH  13  14
ENDBRANCH  12  13
ENDBRANCH   1  12
TORSDOF 4
ENDMDL
MODEL 5
REMARK VINA RESULT: -6.082775921      2.937      4.191
REMARK  4 active torsions:
REMARK  status: ('A' for Active; 'I' for Inactive)
REMARK    1  A    between atoms: N2_6  and  C4_8 
REMARK    2  A    between atoms: C4_8  and  C5_9 
REMARK    3  A    between atoms: C5_9  and  C6_10 
REMARK    4  A    between atoms: C6_10  and  N3_11 
REMARK       I    between atoms: N3_11  and  C7_13 
REMARK       I    between atoms: C7_13  and  N5_17 
ROOT
HETATM    1  C4  UNL     1       7.653  14.780  48.263  1.00  0.00     0.125 C 
ENDROOT
BRANCH   1   2
HETATM    2  N2  UNL     1       6.709  15.075  47.203  1.00  0.00    -0.356 N 
HETATM    3  C3  UNL     1       6.881  16.136  46.481  1.00  0.00     0.225 A 
HETATM    4  N1  UNL     1       7.887  17.046  46.609  1.00  0.00    -0.323 N 
HETATM    5  O1  UNL     1       6.147  16.566  45.492  1.00  0.00    -0.270 OA
HETATM    6  C2  UNL     1       7.752  18.022  45.692  1.00  0.00     0.050 A 
ATOM      7  H1  UNL     1       8.635  16.995  47.300  1.00  0.00     0.169 HD
HETATM    8  C1  UNL     1       8.607  19.214  45.460  1.00  0.00     0.072 C 
HETATM    9  C10 UNL     1       6.612  17.677  44.987  1.00  0.00     0.147 A 
HETATM   10 BR1  UNL     1       5.856  18.653  43.531  1.00  0.00    -0.021 Br
ATOM     11  H2  UNL     1       5.919  14.453  47.027  1.00  0.00     0.163 HD
ENDBRANCH   1   2
BRANCH   1  12
HETATM   12  C5  UNL     1       7.960  13.300  48.337  1.00  0.00     0.040 C 
BRANCH  12  13
HETATM   13  C6  UNL     1       9.099  12.967  49.238  1.00  0.00     0.139 C 
BRANCH  13  14
HETATM   14  N3  UNL     1       8.917  13.402  50.585  1.00  0.00    -0.227 N 
HETATM   15  C7  UNL     1       9.852  14.226  51.244  1.00  0.00     0.668 C 
HETATM   16  N4  UNL     1      10.838  13.716  51.856  1.00  0.00    -0.235 N 
HETATM   17  N5  UNL     1       9.668  15.642  51.211  1.00  0.00    -0.227 N 
ATOM     18  H42 UNL     1      10.969  12.704  51.880  1.00  0.00     0.174 HD
ATOM     19  H41 UNL     1      11.514  14.312  52.333  1.00  0.00     0.174 HD
HETATM   20  C8  UNL     1       8.634  16.195  52.083  1.00  0.00     0.168 C 
HETATM   21  C9  UNL     1      10.479  16.451  50.350  1.00  0.00     0.168 C 
ATOM     22  H3  UNL     1       8.081  13.107  51.089  1.00  0.00     0.177 HD
ENDBRANCH  13  14
ENDBRANCH  12  13
ENDBRANCH   1  12
TORSDOF 4
ENDMDL
