MODEL 1
REMARK VINA RESULT: -7.450134908      0.000      0.000
REMARK  7 active torsions:
REMARK  status: ('A' for Active; 'I' for Inactive)
REMARK    1  A    between atoms: C2_2  and  N1_3 
REMARK    2  A    between atoms: N1_3  and  C3_5 
REMARK    3  A    between atoms: C4_8  and  N3_9 
REMARK    4  A    between atoms: N3_9  and  C5_11 
REMARK    5  A    between atoms: C11_17  and  N4_18 
REMARK    6  A    between atoms: N4_18  and  C12_20 
REMARK    7  A    between atoms: C12_20  and  C13_22 
ROOT
HETATM    1  C3  UNL     1       7.808  15.028  48.567  1.00  0.00     0.681 A 
HETATM    2  N2  UNL     1       7.136  14.904  49.718  1.00  0.00    -0.177 N 
ATOM      3  H2  UNL     1       6.852  13.974  50.028  1.00  0.00     0.185 HD
HETATM    4  C4  UNL     1       6.822  15.977  50.483  1.00  0.00     0.120 A 
HETATM    5  C10 UNL     1       7.219  17.211  50.036  1.00  0.00     0.097 A 
HETATM    6  C11 UNL     1       7.922  17.344  48.832  1.00  0.00     0.125 A 
HETATM    7  N5  UNL     1       8.194  16.239  48.135  1.00  0.00    -0.177 N 
ATOM      8  H5  UNL     1       8.707  16.315  47.257  1.00  0.00     0.186 HD
ENDROOT
BRANCH   6   9
HETATM    9  N4  UNL     1       8.289  18.483  48.417  1.00  0.00    -0.331 N 
ATOM     10  H4  UNL     1       7.692  19.294  48.577  1.00  0.00     0.168 HD
BRANCH   9  11
HETATM   11  C12 UNL     1       9.518  18.642  47.735  1.00  0.00     0.151 C 
HETATM   12  S1  UNL     1      10.987  18.432  48.433  1.00  0.00    -0.059 SA
BRANCH  11  13
HETATM   13  C13 UNL     1       9.478  19.012  46.299  1.00  0.00     0.292 C 
HETATM   14  C14 UNL     1       9.190  20.508  46.253  1.00  0.00     0.098 C 
HETATM   15  F1  UNL     1       8.531  18.292  45.612  1.00  0.00    -0.199 F 
HETATM   16  F2  UNL     1      10.707  18.791  45.749  1.00  0.00    -0.199 F 
ENDBRANCH  11  13
ENDBRANCH   9  11
ENDBRANCH   6   9
BRANCH   4  17
HETATM   17  N3  UNL     1       6.126  15.753  51.674  1.00  0.00    -0.371 N 
ATOM     18  H3  UNL     1       5.106  15.784  51.668  1.00  0.00     0.161 HD
BRANCH  17  19
HETATM   19  C5  UNL     1       6.813  15.480  52.908  1.00  0.00     0.083 C 
HETATM   20  C6  UNL     1       7.088  16.747  53.646  1.00  0.00     0.025 C 
HETATM   21  C7  UNL     1       8.589  16.945  53.662  1.00  0.00     0.002 C 
HETATM   22  C8  UNL     1       9.119  15.533  53.542  1.00  0.00     0.002 C 
HETATM   23  C9  UNL     1       8.139  14.789  52.690  1.00  0.00     0.025 C 
ENDBRANCH  17  19
ENDBRANCH   4  17
BRANCH   1  24
HETATM   24  N1  UNL     1       8.105  13.990  47.841  1.00  0.00    -0.226 N 
ATOM     25  H1  UNL     1       9.051  13.863  47.483  1.00  0.00     0.177 HD
BRANCH  24  26
HETATM   26  C2  UNL     1       7.073  13.015  47.547  1.00  0.00     0.133 C 
HETATM   27  C1  UNL     1       6.643  13.242  46.112  1.00  0.00     0.027 C 
ENDBRANCH  24  26
ENDBRANCH   1  24
TORSDOF 7
ENDMDL
MODEL 2
REMARK VINA RESULT: -7.263933409      2.544      5.195
REMARK  7 active torsions:
REMARK  status: ('A' for Active; 'I' for Inactive)
REMARK    1  A    between atoms: C2_2  and  N1_3 
REMARK    2  A    between atoms: N1_3  and  C3_5 
REMARK    3  A    between atoms: C4_8  and  N3_9 
REMARK    4  A    between atoms: N3_9  and  C5_11 
REMARK    5  A    between atoms: C11_17  and  N4_18 
REMARK    6  A    between atoms: N4_18  and  C12_20 
REMARK    7  A    between atoms: C12_20  and  C13_22 
ROOT
HETATM    1  C3  UNL     1       9.021  15.927  52.545  1.00  0.00     0.681 A 
HETATM    2  N2  UNL     1       8.179  15.420  51.636  1.00  0.00    -0.177 N 
ATOM      3  H2  UNL     1       7.252  15.116  51.935  1.00  0.00     0.185 HD
HETATM    4  C4  UNL     1       8.521  15.298  50.331  1.00  0.00     0.120 A 
HETATM    5  C10 UNL     1       9.775  15.716  49.964  1.00  0.00     0.097 A 
HETATM    6  C11 UNL     1      10.659  16.246  50.913  1.00  0.00     0.125 A 
HETATM    7  N5  UNL     1      10.246  16.334  52.179  1.00  0.00    -0.177 N 
ATOM      8  H5  UNL     1      10.875  16.719  52.884  1.00  0.00     0.186 HD
ENDROOT
BRANCH   6   9
HETATM    9  N4  UNL     1      11.816  16.633  50.576  1.00  0.00    -0.331 N 
ATOM     10  H4  UNL     1      12.568  15.950  50.478  1.00  0.00     0.168 HD
BRANCH   9  11
HETATM   11  C12 UNL     1      12.080  18.001  50.334  1.00  0.00     0.151 C 
HETATM   12  S1  UNL     1      12.708  19.025  51.450  1.00  0.00    -0.059 SA
BRANCH  11  13
HETATM   13  C13 UNL     1      11.778  18.544  48.986  1.00  0.00     0.292 C 
HETATM   14  C14 UNL     1      12.317  19.970  48.972  1.00  0.00     0.098 C 
HETATM   15  F1  UNL     1      10.432  18.508  48.710  1.00  0.00    -0.199 F 
HETATM   16  F2  UNL     1      12.455  17.817  48.053  1.00  0.00    -0.199 F 
ENDBRANCH  11  13
ENDBRANCH   9  11
ENDBRANCH   6   9
BRANCH   4  17
HETATM   17  N3  UNL     1       7.576  14.766  49.451  1.00  0.00    -0.371 N 
ATOM     18  H3  UNL     1       6.613  14.647  49.767  1.00  0.00     0.161 HD
BRANCH  17  19
HETATM   19  C5  UNL     1       7.926  14.382  48.109  1.00  0.00     0.083 C 
HETATM   20  C6  UNL     1       7.169  15.198  47.116  1.00  0.00     0.025 C 
HETATM   21  C7  UNL     1       6.221  14.266  46.392  1.00  0.00     0.002 C 
HETATM   22  C8  UNL     1       6.910  12.924  46.507  1.00  0.00     0.002 C 
HETATM   23  C9  UNL     1       7.620  12.930  47.825  1.00  0.00     0.025 C 
ENDBRANCH  17  19
ENDBRANCH   4  17
BRANCH   1  24
HETATM   24  N1  UNL     1       8.680  16.039  53.795  1.00  0.00    -0.226 N 
ATOM     25  H1  UNL     1       8.556  15.207  54.373  1.00  0.00     0.177 HD
BRANCH  24  26
HETATM   26  C2  UNL     1       8.479  17.359  54.357  1.00  0.00     0.133 C 
HETATM   27  C1  UNL     1       7.006  17.682  54.218  1.00  0.00     0.027 C 
ENDBRANCH  24  26
ENDBRANCH   1  24
TORSDOF 7
ENDMDL
MODEL 3
REMARK VINA RESULT: -7.213390643      3.079      5.621
REMARK  7 active torsions:
REMARK  status: ('A' for Active; 'I' for Inactive)
REMARK    1  A    between atoms: C2_2  and  N1_3 
REMARK    2  A    between atoms: N1_3  and  C3_5 
REMARK    3  A    between atoms: C4_8  and  N3_9 
REMARK    4  A    between atoms: N3_9  and  C5_11 
REMARK    5  A    between atoms: C11_17  and  N4_18 
REMARK    6  A    between atoms: N4_18  and  C12_20 
REMARK    7  A    between atoms: C12_20  and  C13_22 
ROOT
HETATM    1  C3  UNL     1       8.836  15.881  52.493  1.00  0.00     0.681 A 
HETATM    2  N2  UNL     1       7.996  15.447  51.545  1.00  0.00    -0.177 N 
ATOM      3  H2  UNL     1       7.050  15.174  51.810  1.00  0.00     0.185 HD
HETATM    4  C4  UNL     1       8.367  15.361  50.245  1.00  0.00     0.120 A 
HETATM    5  C10 UNL     1       9.646  15.736  49.925  1.00  0.00     0.097 A 
HETATM    6  C11 UNL     1      10.527  16.191  50.914  1.00  0.00     0.125 A 
HETATM    7  N5  UNL     1      10.087  16.248  52.173  1.00  0.00    -0.177 N 
ATOM      8  H5  UNL     1      10.714  16.578  52.907  1.00  0.00     0.186 HD
ENDROOT
BRANCH   6   9
HETATM    9  N4  UNL     1      11.709  16.538  50.621  1.00  0.00    -0.331 N 
ATOM     10  H4  UNL     1      12.480  15.889  50.778  1.00  0.00     0.168 HD
BRANCH   9  11
HETATM   11  C12 UNL     1      11.972  17.817  50.077  1.00  0.00     0.151 C 
HETATM   12  S1  UNL     1      11.288  18.386  48.699  1.00  0.00    -0.059 SA
BRANCH  11  13
HETATM   13  C13 UNL     1      12.918  18.704  50.800  1.00  0.00     0.292 C 
HETATM   14  C14 UNL     1      14.138  17.851  51.123  1.00  0.00     0.098 C 
HETATM   15  F1  UNL     1      12.354  19.234  51.936  1.00  0.00    -0.199 F 
HETATM   16  F2  UNL     1      13.304  19.713  49.968  1.00  0.00    -0.199 F 
ENDBRANCH  11  13
ENDBRANCH   9  11
ENDBRANCH   6   9
BRANCH   4  17
HETATM   17  N3  UNL     1       7.421  14.905  49.322  1.00  0.00    -0.371 N 
ATOM     18  H3  UNL     1       6.438  14.874  49.591  1.00  0.00     0.161 HD
BRANCH  17  19
HETATM   19  C5  UNL     1       7.802  14.479  48.002  1.00  0.00     0.083 C 
HETATM   20  C6  UNL     1       7.022  15.220  46.968  1.00  0.00     0.025 C 
HETATM   21  C7  UNL     1       6.120  14.219  46.276  1.00  0.00     0.002 C 
HETATM   22  C8  UNL     1       6.863  12.913  46.455  1.00  0.00     0.002 C 
HETATM   23  C9  UNL     1       7.557  13.004  47.778  1.00  0.00     0.025 C 
ENDBRANCH  17  19
ENDBRANCH   4  17
BRANCH   1  24
HETATM   24  N1  UNL     1       8.469  15.960  53.738  1.00  0.00    -0.226 N 
ATOM     25  H1  UNL     1       8.244  15.116  54.265  1.00  0.00     0.177 HD
BRANCH  24  26
HETATM   26  C2  UNL     1       8.384  17.263  54.369  1.00  0.00     0.133 C 
HETATM   27  C1  UNL     1       6.970  17.764  54.164  1.00  0.00     0.027 C 
ENDBRANCH  24  26
ENDBRANCH   1  24
TORSDOF 7
ENDMDL
MODEL 4
REMARK VINA RESULT: -7.202098602      2.147      4.020
REMARK  7 active torsions:
REMARK  status: ('A' for Active; 'I' for Inactive)
REMARK    1  A    between atoms: C2_2  and  N1_3 
REMARK    2  A    between atoms: N1_3  and  C3_5 
REMARK    3  A    between atoms: C4_8  and  N3_9 
REMARK    4  A    between atoms: N3_9  and  C5_11 
REMARK    5  A    between atoms: C11_17  and  N4_18 
REMARK    6  A    between atoms: N4_18  and  C12_20 
REMARK    7  A    between atoms: C12_20  and  C13_22 
ROOT
HETATM    1  C3  UNL     1       7.190  16.703  50.928  1.00  0.00     0.681 A 
HETATM    2  N2  UNL     1       7.660  15.452  51.007  1.00  0.00    -0.177 N 
ATOM      3  H2  UNL     1       7.606  14.959  51.898  1.00  0.00     0.185 HD
HETATM    4  C4  UNL     1       8.207  14.824  49.939  1.00  0.00     0.120 A 
HETATM    5  C10 UNL     1       8.264  15.518  48.758  1.00  0.00     0.097 A 
HETATM    6  C11 UNL     1       7.773  16.826  48.672  1.00  0.00     0.125 A 
HETATM    7  N5  UNL     1       7.248  17.376  49.769  1.00  0.00    -0.177 N 
ATOM      8  H5  UNL     1       6.884  18.328  49.725  1.00  0.00     0.186 HD
ENDROOT
BRANCH   6   9
HETATM    9  N4  UNL     1       7.824  17.469  47.581  1.00  0.00    -0.331 N 
ATOM     10  H4  UNL     1       7.050  17.403  46.921  1.00  0.00     0.168 HD
BRANCH   9  11
HETATM   11  C12 UNL     1       8.944  18.275  47.269  1.00  0.00     0.151 C 
HETATM   12  S1  UNL     1      10.222  18.496  48.272  1.00  0.00    -0.059 SA
BRANCH  11  13
HETATM   13  C13 UNL     1       8.969  18.956  45.951  1.00  0.00     0.292 C 
HETATM   14  C14 UNL     1       7.863  18.318  45.121  1.00  0.00     0.098 C 
HETATM   15  F1  UNL     1      10.194  18.839  45.339  1.00  0.00    -0.199 F 
HETATM   16  F2  UNL     1       8.672  20.275  46.127  1.00  0.00    -0.199 F 
ENDBRANCH  11  13
ENDBRANCH   9  11
ENDBRANCH   6   9
BRANCH   4  17
HETATM   17  N3  UNL     1       8.665  13.515  50.111  1.00  0.00    -0.371 N 
ATOM     18  H3  UNL     1       8.222  12.760  49.586  1.00  0.00     0.161 HD
BRANCH  17  19
HETATM   19  C5  UNL     1       9.744  13.206  51.010  1.00  0.00     0.083 C 
HETATM   20  C6  UNL     1      10.641  12.172  50.416  1.00  0.00     0.025 C 
HETATM   21  C7  UNL     1      10.506  10.919  51.254  1.00  0.00     0.002 C 
HETATM   22  C8  UNL     1      10.093  11.458  52.607  1.00  0.00     0.002 C 
HETATM   23  C9  UNL     1       9.256  12.669  52.336  1.00  0.00     0.025 C 
ENDBRANCH  17  19
ENDBRANCH   4  17
BRANCH   1  24
HETATM   24  N1  UNL     1       6.667  17.296  51.961  1.00  0.00    -0.226 N 
ATOM     25  H1  UNL     1       6.146  18.166  51.848  1.00  0.00     0.177 HD
BRANCH  24  26
HETATM   26  C2  UNL     1       6.834  16.707  53.275  1.00  0.00     0.133 C 
HETATM   27  C1  UNL     1       7.123  17.840  54.237  1.00  0.00     0.027 C 
ENDBRANCH  24  26
ENDBRANCH   1  24
TORSDOF 7
ENDMDL
MODEL 5
REMARK VINA RESULT: -7.198086223      1.829      2.374
REMARK  7 active torsions:
REMARK  status: ('A' for Active; 'I' for Inactive)
REMARK    1  A    between atoms: C2_2  and  N1_3 
REMARK    2  A    between atoms: N1_3  and  C3_5 
REMARK    3  A    between atoms: C4_8  and  N3_9 
REMARK    4  A    between atoms: N3_9  and  C5_11 
REMARK    5  A    between atoms: C11_17  and  N4_18 
REMARK    6  A    between atoms: N4_18  and  C12_20 
REMARK    7  A    between atoms: C12_20  and  C13_22 
ROOT
HETATM    1  C3  UNL     1       7.026  15.488  47.448  1.00  0.00     0.681 A 
HETATM    2  N2  UNL     1       7.189  14.817  48.594  1.00  0.00    -0.177 N 
ATOM      3  H2  UNL     1       6.820  13.869  48.670  1.00  0.00     0.185 HD
HETATM    4  C4  UNL     1       7.830  15.361  49.657  1.00  0.00     0.120 A 
HETATM    5  C10 UNL     1       8.313  16.637  49.520  1.00  0.00     0.097 A 
HETATM    6  C11 UNL     1       8.144  17.342  48.321  1.00  0.00     0.125 A 
HETATM    7  N5  UNL     1       7.502  16.737  47.320  1.00  0.00    -0.177 N 
ATOM      8  H5  UNL     1       7.369  17.233  46.439  1.00  0.00     0.186 HD
ENDROOT
BRANCH   6   9
HETATM    9  N4  UNL     1       8.589  18.520  48.193  1.00  0.00    -0.331 N 
ATOM     10  H4  UNL     1       8.060  19.304  48.574  1.00  0.00     0.168 HD
BRANCH   9  11
HETATM   11  C12 UNL     1       9.812  18.761  47.526  1.00  0.00     0.151 C 
HETATM   12  S1  UNL     1      11.287  18.544  48.208  1.00  0.00    -0.059 SA
BRANCH  11  13
HETATM   13  C13 UNL     1       9.761  19.231  46.119  1.00  0.00     0.292 C 
HETATM   14  C14 UNL     1       9.262  20.670  46.169  1.00  0.00     0.098 C 
HETATM   15  F1  UNL     1       8.947  18.440  45.345  1.00  0.00    -0.199 F 
HETATM   16  F2  UNL     1      11.024  19.229  45.604  1.00  0.00    -0.199 F 
ENDBRANCH  11  13
ENDBRANCH   9  11
ENDBRANCH   6   9
BRANCH   4  17
HETATM   17  N3  UNL     1       7.962  14.584  50.811  1.00  0.00    -0.371 N 
ATOM     18  H3  UNL     1       7.133  14.371  51.366  1.00  0.00     0.161 HD
BRANCH  17  19
HETATM   19  C5  UNL     1       9.240  14.078  51.237  1.00  0.00     0.083 C 
HETATM   20  C6  UNL     1       9.899  13.324  50.131  1.00  0.00     0.025 C 
HETATM   21  C7  UNL     1       9.963  11.870  50.550  1.00  0.00     0.002 C 
HETATM   22  C8  UNL     1       9.964  11.952  52.061  1.00  0.00     0.002 C 
HETATM   23  C9  UNL     1       9.126  13.140  52.416  1.00  0.00     0.025 C 
ENDBRANCH  17  19
ENDBRANCH   4  17
BRANCH   1  24
HETATM   24  N1  UNL     1       6.409  14.956  46.434  1.00  0.00    -0.226 N 
ATOM     25  H1  UNL     1       6.280  15.485  45.572  1.00  0.00     0.177 HD
BRANCH  24  26
HETATM   26  C2  UNL     1       5.906  13.601  46.545  1.00  0.00     0.133 C 
HETATM   27  C1  UNL     1       6.929  12.693  45.895  1.00  0.00     0.027 C 
ENDBRANCH  24  26
ENDBRANCH   1  24
TORSDOF 7
ENDMDL
