MODEL 1
REMARK VINA RESULT: -6.819052314      0.000      0.000
REMARK  4 active torsions:
REMARK  status: ('A' for Active; 'I' for Inactive)
REMARK    1  A    between atoms: C2_2  and  C3_3 
REMARK    2  A    between atoms: C5_5  and  C6_6 
REMARK    3  A    between atoms: C6_6  and  N1_9 
REMARK       I    between atoms: C9_11  and  N3_13 
REMARK    4  A    between atoms: N3_13  and  C10_15 
ROOT
HETATM    1  N1  UNL     1      58.935   0.513  40.088  1.00  0.00    -0.353 N 
ATOM      2  H1  UNL     1      58.443   1.392  40.250  1.00  0.00     0.163 HD
HETATM    3  C9  UNL     1      60.161   0.483  40.412  1.00  0.00     0.185 C 
HETATM    4  N2  UNL     1      61.014  -0.640  40.265  1.00  0.00    -0.064 NA
HETATM    5  N3  UNL     1      60.731   1.663  40.967  1.00  0.00    -0.358 N 
ATOM      6  H3  UNL     1      61.127   2.356  40.331  1.00  0.00     0.162 HD
ENDROOT
BRANCH   1   7
HETATM    7  C6  UNL     1      58.162  -0.559  39.515  1.00  0.00     0.043 C 
HETATM    8  C7  UNL     1      56.710  -0.084  39.413  1.00  0.00     0.042 C 
HETATM    9  C8  UNL     1      58.760  -0.847  38.155  1.00  0.00     0.042 C 
BRANCH   7  10
HETATM   10  C5  UNL     1      58.198  -1.746  40.403  1.00  0.00     0.006 C 
HETATM   11  C3  UNL     1      57.999  -2.992  40.014  1.00  0.00    -0.086 C 
HETATM   12  C4  UNL     1      57.704  -3.430  38.629  1.00  0.00     0.043 C 
BRANCH  11  13
HETATM   13  C2  UNL     1      58.071  -4.072  41.042  1.00  0.00     0.029 C 
HETATM   14  C1  UNL     1      57.657  -3.536  42.411  1.00  0.00     0.010 C 
ENDBRANCH  11  13
ENDBRANCH   7  10
ENDBRANCH   1   7
BRANCH   5  15
HETATM   15  C10 UNL     1      60.777   1.925  42.377  1.00  0.00     0.101 C 
HETATM   16  C11 UNL     1      61.379   3.294  42.602  1.00  0.00     0.028 C 
HETATM   17  C12 UNL     1      62.875   3.281  42.525  1.00  0.00     0.021 C 
HETATM   18  C13 UNL     1      63.452   2.027  41.970  1.00  0.00     0.114 C 
HETATM   19  N4  UNL     1      62.916   0.819  42.492  1.00  0.00    -0.419 N 
HETATM   20  C14 UNL     1      61.644   0.936  43.129  1.00  0.00     0.139 C 
ATOM     21  H4  UNL     1      63.407  -0.072  42.416  1.00  0.00     0.153 HD
ENDBRANCH   5  15
TORSDOF 4
ENDMDL
MODEL 2
REMARK VINA RESULT: -6.461237255      1.541      2.459
REMARK  4 active torsions:
REMARK  status: ('A' for Active; 'I' for Inactive)
REMARK    1  A    between atoms: C2_2  and  C3_3 
REMARK    2  A    between atoms: C5_5  and  C6_6 
REMARK    3  A    between atoms: C6_6  and  N1_9 
REMARK       I    between atoms: C9_11  and  N3_13 
REMARK    4  A    between atoms: N3_13  and  C10_15 
ROOT
HETATM    1  N1  UNL     1      58.870  -1.242  39.241  1.00  0.00    -0.353 N 
ATOM      2  H1  UNL     1      59.704  -1.765  39.509  1.00  0.00     0.163 HD
HETATM    3  C9  UNL     1      58.696  -0.122  39.812  1.00  0.00     0.185 C 
HETATM    4  N2  UNL     1      57.603   0.750  39.576  1.00  0.00    -0.064 NA
HETATM    5  N3  UNL     1      59.668   0.297  40.763  1.00  0.00    -0.358 N 
ATOM      6  H3  UNL     1      59.550   0.013  41.736  1.00  0.00     0.162 HD
ENDROOT
BRANCH   1   7
HETATM    7  C6  UNL     1      58.017  -1.854  38.254  1.00  0.00     0.043 C 
HETATM    8  C7  UNL     1      56.566  -1.577  38.658  1.00  0.00     0.042 C 
HETATM    9  C8  UNL     1      58.367  -1.221  36.926  1.00  0.00     0.042 C 
BRANCH   7  10
HETATM   10  C5  UNL     1      58.220  -3.322  38.244  1.00  0.00     0.006 C 
HETATM   11  C3  UNL     1      58.244  -4.094  39.315  1.00  0.00    -0.086 C 
HETATM   12  C4  UNL     1      58.071  -3.637  40.715  1.00  0.00     0.043 C 
BRANCH  11  13
HETATM   13  C2  UNL     1      58.460  -5.559  39.125  1.00  0.00     0.029 C 
HETATM   14  C1  UNL     1      58.415  -6.284  40.468  1.00  0.00     0.010 C 
ENDBRANCH  11  13
ENDBRANCH   7  10
ENDBRANCH   1   7
BRANCH   5  15
HETATM   15  C10 UNL     1      60.807   1.100  40.420  1.00  0.00     0.101 C 
HETATM   16  C11 UNL     1      62.066   0.353  40.799  1.00  0.00     0.028 C 
HETATM   17  C12 UNL     1      62.384   0.471  42.258  1.00  0.00     0.021 C 
HETATM   18  C13 UNL     1      61.283   1.034  43.085  1.00  0.00     0.114 C 
HETATM   19  N4  UNL     1      60.653   2.196  42.561  1.00  0.00    -0.419 N 
HETATM   20  C14 UNL     1      60.839   2.420  41.164  1.00  0.00     0.139 C 
ATOM     21  H4  UNL     1      60.105   2.828  43.145  1.00  0.00     0.153 HD
ENDBRANCH   5  15
TORSDOF 4
ENDMDL
MODEL 3
REMARK VINA RESULT: -6.435074750      1.297      1.775
REMARK  4 active torsions:
REMARK  status: ('A' for Active; 'I' for Inactive)
REMARK    1  A    between atoms: C2_2  and  C3_3 
REMARK    2  A    between atoms: C5_5  and  C6_6 
REMARK    3  A    between atoms: C6_6  and  N1_9 
REMARK       I    between atoms: C9_11  and  N3_13 
REMARK    4  A    between atoms: N3_13  and  C10_15 
ROOT
HETATM    1  N1  UNL     1      59.420  -0.652  39.120  1.00  0.00    -0.353 N 
ATOM      2  H1  UNL     1      59.894  -0.530  38.225  1.00  0.00     0.163 HD
HETATM    3  C9  UNL     1      60.101  -0.401  40.161  1.00  0.00     0.185 C 
HETATM    4  N2  UNL     1      59.624  -0.511  41.492  1.00  0.00    -0.064 NA
HETATM    5  N3  UNL     1      61.448   0.025  39.987  1.00  0.00    -0.358 N 
ATOM      6  H3  UNL     1      62.178  -0.685  39.929  1.00  0.00     0.162 HD
ENDROOT
BRANCH   1   7
HETATM    7  C6  UNL     1      58.049  -1.093  39.066  1.00  0.00     0.043 C 
HETATM    8  C7  UNL     1      57.164   0.095  39.454  1.00  0.00     0.042 C 
HETATM    9  C8  UNL     1      57.795  -1.548  37.646  1.00  0.00     0.042 C 
BRANCH   7  10
HETATM   10  C5  UNL     1      57.822  -2.178  40.049  1.00  0.00     0.006 C 
HETATM   11  C3  UNL     1      58.281  -3.411  39.940  1.00  0.00    -0.086 C 
HETATM   12  C4  UNL     1      59.104  -3.932  38.821  1.00  0.00     0.043 C 
BRANCH  11  13
HETATM   13  C2  UNL     1      57.958  -4.384  41.025  1.00  0.00     0.029 C 
HETATM   14  C1  UNL     1      57.681  -3.651  42.335  1.00  0.00     0.010 C 
ENDBRANCH  11  13
ENDBRANCH   7  10
ENDBRANCH   1   7
BRANCH   5  15
HETATM   15  C10 UNL     1      61.828   1.405  39.889  1.00  0.00     0.101 C 
HETATM   16  C11 UNL     1      63.303   1.484  39.561  1.00  0.00     0.028 C 
HETATM   17  C12 UNL     1      64.169   1.299  40.769  1.00  0.00     0.021 C 
HETATM   18  C13 UNL     1      63.451   0.796  41.971  1.00  0.00     0.114 C 
HETATM   19  N4  UNL     1      62.220   1.443  42.268  1.00  0.00    -0.419 N 
HETATM   20  C14 UNL     1      61.627   2.161  41.187  1.00  0.00     0.139 C 
ATOM     21  H4  UNL     1      61.790   1.396  43.192  1.00  0.00     0.153 HD
ENDBRANCH   5  15
TORSDOF 4
ENDMDL
MODEL 4
REMARK VINA RESULT: -6.361547748      1.576      2.083
REMARK  4 active torsions:
REMARK  status: ('A' for Active; 'I' for Inactive)
REMARK    1  A    between atoms: C2_2  and  C3_3 
REMARK    2  A    between atoms: C5_5  and  C6_6 
REMARK    3  A    between atoms: C6_6  and  N1_9 
REMARK       I    between atoms: C9_11  and  N3_13 
REMARK    4  A    between atoms: N3_13  and  C10_15 
ROOT
HETATM    1  N1  UNL     1      59.063  -0.547  40.845  1.00  0.00    -0.353 N 
ATOM      2  H1  UNL     1      58.837  -0.270  41.800  1.00  0.00     0.163 HD
HETATM    3  C9  UNL     1      59.734   0.284  40.159  1.00  0.00     0.185 C 
HETATM    4  N2  UNL     1      60.146   0.085  38.817  1.00  0.00    -0.064 NA
HETATM    5  N3  UNL     1      60.105   1.511  40.777  1.00  0.00    -0.358 N 
ATOM      6  H3  UNL     1      59.459   2.298  40.722  1.00  0.00     0.162 HD
ENDROOT
BRANCH   1   7
HETATM    7  C6  UNL     1      58.587  -1.838  40.420  1.00  0.00     0.043 C 
HETATM    8  C7  UNL     1      57.294  -1.620  39.630  1.00  0.00     0.042 C 
HETATM    9  C8  UNL     1      59.678  -2.443  39.565  1.00  0.00     0.042 C 
BRANCH   7  10
HETATM   10  C5  UNL     1      58.271  -2.679  41.599  1.00  0.00     0.006 C 
HETATM   11  C3  UNL     1      58.035  -3.978  41.565  1.00  0.00    -0.086 C 
HETATM   12  C4  UNL     1      58.042  -4.827  40.349  1.00  0.00     0.043 C 
BRANCH  11  13
HETATM   13  C2  UNL     1      57.731  -4.675  42.849  1.00  0.00     0.029 C 
HETATM   14  C1  UNL     1      56.693  -3.892  43.650  1.00  0.00     0.010 C 
ENDBRANCH  11  13
ENDBRANCH   7  10
ENDBRANCH   1   7
BRANCH   5  15
HETATM   15  C10 UNL     1      61.345   1.694  41.476  1.00  0.00     0.101 C 
HETATM   16  C11 UNL     1      61.057   2.277  42.842  1.00  0.00     0.028 C 
HETATM   17  C12 UNL     1      60.828   3.756  42.796  1.00  0.00     0.021 C 
HETATM   18  C13 UNL     1      60.642   4.309  41.428  1.00  0.00     0.114 C 
HETATM   19  N4  UNL     1      61.576   3.864  40.452  1.00  0.00    -0.419 N 
HETATM   20  C14 UNL     1      62.275   2.662  40.774  1.00  0.00     0.139 C 
ATOM     21  H4  UNL     1      61.736   4.371  39.581  1.00  0.00     0.153 HD
ENDBRANCH   5  15
TORSDOF 4
ENDMDL
MODEL 5
REMARK VINA RESULT: -6.301831262      1.355      6.505
REMARK  4 active torsions:
REMARK  status: ('A' for Active; 'I' for Inactive)
REMARK    1  A    between atoms: C2_2  and  C3_3 
REMARK    2  A    between atoms: C5_5  and  C6_6 
REMARK    3  A    between atoms: C6_6  and  N1_9 
REMARK       I    between atoms: C9_11  and  N3_13 
REMARK    4  A    between atoms: N3_13  and  C10_15 
ROOT
HETATM    1  N1  UNL     1      60.827  -0.725  41.795  1.00  0.00    -0.353 N 
ATOM      2  H1  UNL     1      60.821  -1.704  42.083  1.00  0.00     0.163 HD
HETATM    3  C9  UNL     1      60.170  -0.439  40.748  1.00  0.00     0.185 C 
HETATM    4  N2  UNL     1      60.057   0.859  40.188  1.00  0.00    -0.064 NA
HETATM    5  N3  UNL     1      59.493  -1.496  40.079  1.00  0.00    -0.358 N 
ATOM      6  H3  UNL     1      60.000  -2.026  39.370  1.00  0.00     0.162 HD
ENDROOT
BRANCH   1   7
HETATM    7  C6  UNL     1      61.581   0.183  42.622  1.00  0.00     0.043 C 
HETATM    8  C7  UNL     1      61.534  -0.347  44.058  1.00  0.00     0.042 C 
HETATM    9  C8  UNL     1      62.990   0.204  42.071  1.00  0.00     0.042 C 
BRANCH   7  10
HETATM   10  C5  UNL     1      60.956   1.527  42.606  1.00  0.00     0.006 C 
HETATM   11  C3  UNL     1      61.580   2.659  42.876  1.00  0.00    -0.086 C 
HETATM   12  C4  UNL     1      63.010   2.793  43.242  1.00  0.00     0.043 C 
BRANCH  11  13
HETATM   13  C2  UNL     1      60.797   3.929  42.814  1.00  0.00     0.029 C 
HETATM   14  C1  UNL     1      60.917   4.564  41.430  1.00  0.00     0.010 C 
ENDBRANCH  11  13
ENDBRANCH   7  10
ENDBRANCH   1   7
BRANCH   5  15
HETATM   15  C10 UNL     1      58.131  -1.854  40.353  1.00  0.00     0.101 C 
HETATM   16  C11 UNL     1      57.812  -3.150  39.643  1.00  0.00     0.028 C 
HETATM   17  C12 UNL     1      57.498  -2.947  38.193  1.00  0.00     0.021 C 
HETATM   18  C13 UNL     1      57.835  -1.594  37.674  1.00  0.00     0.114 C 
HETATM   19  N4  UNL     1      57.422  -0.503  38.486  1.00  0.00    -0.419 N 
HETATM   20  C14 UNL     1      57.141  -0.823  39.849  1.00  0.00     0.139 C 
ATOM     21  H4  UNL     1      57.333   0.445  38.120  1.00  0.00     0.153 HD
ENDBRANCH   5  15
TORSDOF 4
ENDMDL
