MODEL 1
REMARK VINA RESULT: -7.242340012      0.000      0.000
REMARK  4 active torsions:
REMARK  status: ('A' for Active; 'I' for Inactive)
REMARK       I    between atoms: C1_4  and  N2_5 
REMARK       I    between atoms: C1_4  and  N4_15 
REMARK    1  A    between atoms: N2_5  and  C2_7 
REMARK    2  A    between atoms: C2_7  and  C3_8 
REMARK    3  A    between atoms: C3_8  and  N3_9 
REMARK    4  A    between atoms: N4_15  and  C9_17 
ROOT
HETATM    1  N1  UNL     1      61.364  -0.493  40.172  1.00  0.00    -0.235 N 
ATOM      2  H11 UNL     1      61.182  -0.274  39.193  1.00  0.00     0.174 HD
ATOM      3  H12 UNL     1      62.306  -0.703  40.500  1.00  0.00     0.174 HD
HETATM    4  C1  UNL     1      60.390  -0.503  40.999  1.00  0.00     0.667 C 
HETATM    5  N2  UNL     1      60.641  -0.806  42.353  1.00  0.00    -0.225 N 
ATOM      6  H2  UNL     1      60.207  -1.631  42.766  1.00  0.00     0.177 HD
HETATM    7  N4  UNL     1      59.087  -0.213  40.546  1.00  0.00    -0.222 N 
ATOM      8  H4  UNL     1      58.589   0.546  41.009  1.00  0.00     0.178 HD
ENDROOT
BRANCH   5   9
HETATM    9  C2  UNL     1      61.510   0.031  43.181  1.00  0.00     0.157 C 
BRANCH   9  10
HETATM   10  C3  UNL     1      60.857   1.367  43.275  1.00  0.00     0.142 C 
BRANCH  10  11
HETATM   11  N3  UNL     1      61.684   2.497  43.088  1.00  0.00    -0.392 N 
HETATM   12  C4  UNL     1      60.909   3.687  43.081  1.00  0.00     0.122 C 
HETATM   13  C5  UNL     1      60.548   3.966  41.622  1.00  0.00     0.020 C 
HETATM   14  C6  UNL     1      61.841   4.420  40.979  1.00  0.00     0.007 C 
HETATM   15  C7  UNL     1      63.032   3.634  41.360  1.00  0.00     0.044 C 
HETATM   16  C8  UNL     1      62.767   2.424  42.202  1.00  0.00     0.058 C 
ENDBRANCH  10  11
ENDBRANCH   9  10
ENDBRANCH   5   9
BRANCH   7  17
HETATM   17  C9  UNL     1      58.409  -0.894  39.491  1.00  0.00     0.099 C 
HETATM   18  C10 UNL     1      58.061  -2.341  39.824  1.00  0.00     0.026 C 
HETATM   19  C11 UNL     1      57.746  -2.995  38.476  1.00  0.00     0.002 C 
HETATM   20  C12 UNL     1      56.654  -2.302  37.734  1.00  0.00     0.000 C 
HETATM   21  C13 UNL     1      56.662  -0.819  37.801  1.00  0.00     0.002 C 
HETATM   22  C14 UNL     1      57.082  -0.237  39.123  1.00  0.00     0.026 C 
ENDBRANCH   7  17
TORSDOF 4
ENDMDL
MODEL 2
REMARK VINA RESULT: -6.875011521      5.495      8.170
REMARK  4 active torsions:
REMARK  status: ('A' for Active; 'I' for Inactive)
REMARK       I    between atoms: C1_4  and  N2_5 
REMARK       I    between atoms: C1_4  and  N4_15 
REMARK    1  A    between atoms: N2_5  and  C2_7 
REMARK    2  A    between atoms: C2_7  and  C3_8 
REMARK    3  A    between atoms: C3_8  and  N3_9 
REMARK    4  A    between atoms: N4_15  and  C9_17 
ROOT
HETATM    1  N1  UNL     1      57.986  -5.096  41.781  1.00  0.00    -0.235 N 
ATOM      2  H11 UNL     1      57.269  -4.396  41.970  1.00  0.00     0.174 HD
ATOM      3  H12 UNL     1      58.428  -5.616  42.538  1.00  0.00     0.174 HD
HETATM    4  C1  UNL     1      58.334  -5.321  40.572  1.00  0.00     0.667 C 
HETATM    5  N2  UNL     1      59.326  -6.288  40.311  1.00  0.00    -0.225 N 
ATOM      6  H2  UNL     1      60.197  -5.999  39.868  1.00  0.00     0.177 HD
HETATM    7  N4  UNL     1      57.723  -4.601  39.526  1.00  0.00    -0.222 N 
ATOM      8  H4  UNL     1      57.276  -5.141  38.786  1.00  0.00     0.178 HD
ENDROOT
BRANCH   5   9
HETATM    9  C2  UNL     1      59.138  -7.696  40.660  1.00  0.00     0.157 C 
BRANCH   9  10
HETATM   10  C3  UNL     1      60.211  -8.046  41.633  1.00  0.00     0.142 C 
BRANCH  10  11
HETATM   11  N3  UNL     1      59.845  -8.098  42.996  1.00  0.00    -0.392 N 
HETATM   12  C4  UNL     1      60.377  -6.982  43.697  1.00  0.00     0.122 C 
HETATM   13  C5  UNL     1      61.730  -7.420  44.256  1.00  0.00     0.020 C 
HETATM   14  C6  UNL     1      61.399  -8.378  45.379  1.00  0.00     0.007 C 
HETATM   15  C7  UNL     1      60.323  -9.343  45.074  1.00  0.00     0.044 C 
HETATM   16  C8  UNL     1      59.824  -9.330  43.662  1.00  0.00     0.058 C 
ENDBRANCH  10  11
ENDBRANCH   9  10
ENDBRANCH   5   9
BRANCH   7  17
HETATM   17  C9  UNL     1      57.678  -3.179  39.418  1.00  0.00     0.099 C 
HETATM   18  C10 UNL     1      59.043  -2.514  39.556  1.00  0.00     0.026 C 
HETATM   19  C11 UNL     1      58.739  -1.038  39.834  1.00  0.00     0.002 C 
HETATM   20  C12 UNL     1      57.903  -0.407  38.776  1.00  0.00     0.000 C 
HETATM   21  C13 UNL     1      56.811  -1.247  38.222  1.00  0.00     0.002 C 
HETATM   22  C14 UNL     1      57.137  -2.708  38.071  1.00  0.00     0.026 C 
ENDBRANCH   7  17
TORSDOF 4
ENDMDL
MODEL 3
REMARK VINA RESULT: -6.820090736      5.028      7.882
REMARK  4 active torsions:
REMARK  status: ('A' for Active; 'I' for Inactive)
REMARK       I    between atoms: C1_4  and  N2_5 
REMARK       I    between atoms: C1_4  and  N4_15 
REMARK    1  A    between atoms: N2_5  and  C2_7 
REMARK    2  A    between atoms: C2_7  and  C3_8 
REMARK    3  A    between atoms: C3_8  and  N3_9 
REMARK    4  A    between atoms: N4_15  and  C9_17 
ROOT
HETATM    1  N1  UNL     1      59.368  -5.083  38.854  1.00  0.00    -0.235 N 
ATOM      2  H11 UNL     1      59.851  -4.194  38.723  1.00  0.00     0.174 HD
ATOM      3  H12 UNL     1      59.672  -5.925  38.367  1.00  0.00     0.174 HD
HETATM    4  C1  UNL     1      58.365  -5.136  39.644  1.00  0.00     0.667 C 
HETATM    5  N2  UNL     1      57.698  -6.365  39.825  1.00  0.00    -0.225 N 
ATOM      6  H2  UNL     1      56.718  -6.441  39.554  1.00  0.00     0.177 HD
HETATM    7  N4  UNL     1      57.946  -3.971  40.317  1.00  0.00    -0.222 N 
ATOM      8  H4  UNL     1      57.890  -4.012  41.334  1.00  0.00     0.178 HD
ENDROOT
BRANCH   5   9
HETATM    9  C2  UNL     1      58.374  -7.532  40.390  1.00  0.00     0.157 C 
BRANCH   9  10
HETATM   10  C3  UNL     1      58.331  -7.380  41.871  1.00  0.00     0.142 C 
BRANCH  10  11
HETATM   11  N3  UNL     1      59.563  -7.165  42.528  1.00  0.00    -0.392 N 
HETATM   12  C4  UNL     1      60.363  -8.338  42.483  1.00  0.00     0.122 C 
HETATM   13  C5  UNL     1      60.057  -9.126  43.756  1.00  0.00     0.020 C 
HETATM   14  C6  UNL     1      60.707  -8.336  44.871  1.00  0.00     0.007 C 
HETATM   15  C7  UNL     1      60.520  -6.873  44.785  1.00  0.00     0.044 C 
HETATM   16  C8  UNL     1      59.600  -6.401  43.701  1.00  0.00     0.058 C 
ENDBRANCH  10  11
ENDBRANCH   9  10
ENDBRANCH   5   9
BRANCH   7  17
HETATM   17  C9  UNL     1      57.592  -2.738  39.692  1.00  0.00     0.099 C 
HETATM   18  C10 UNL     1      58.701  -1.693  39.734  1.00  0.00     0.026 C 
HETATM   19  C11 UNL     1      58.007  -0.364  39.416  1.00  0.00     0.002 C 
HETATM   20  C12 UNL     1      57.289  -0.380  38.111  1.00  0.00     0.000 C 
HETATM   21  C13 UNL     1      56.568  -1.635  37.780  1.00  0.00     0.002 C 
HETATM   22  C14 UNL     1      57.253  -2.903  38.213  1.00  0.00     0.026 C 
ENDBRANCH   7  17
TORSDOF 4
ENDMDL
MODEL 4
REMARK VINA RESULT: -6.775403453      1.559      2.233
REMARK  4 active torsions:
REMARK  status: ('A' for Active; 'I' for Inactive)
REMARK       I    between atoms: C1_4  and  N2_5 
REMARK       I    between atoms: C1_4  and  N4_15 
REMARK    1  A    between atoms: N2_5  and  C2_7 
REMARK    2  A    between atoms: C2_7  and  C3_8 
REMARK    3  A    between atoms: C3_8  and  N3_9 
REMARK    4  A    between atoms: N4_15  and  C9_17 
ROOT
HETATM    1  N1  UNL     1      61.138   0.747  39.574  1.00  0.00    -0.235 N 
ATOM      2  H11 UNL     1      60.912   0.700  38.580  1.00  0.00     0.174 HD
ATOM      3  H12 UNL     1      62.104   0.815  39.893  1.00  0.00     0.174 HD
HETATM    4  C1  UNL     1      60.190   0.719  40.429  1.00  0.00     0.667 C 
HETATM    5  N2  UNL     1      60.503   0.784  41.803  1.00  0.00    -0.225 N 
ATOM      6  H2  UNL     1      60.254  -0.000  42.406  1.00  0.00     0.177 HD
HETATM    7  N4  UNL     1      58.855   0.624  39.988  1.00  0.00    -0.222 N 
ATOM      8  H4  UNL     1      58.207   1.347  40.300  1.00  0.00     0.178 HD
ENDROOT
BRANCH   5   9
HETATM    9  C2  UNL     1      61.174   1.945  42.386  1.00  0.00     0.157 C 
BRANCH   9  10
HETATM   10  C3  UNL     1      62.453   1.455  42.971  1.00  0.00     0.142 C 
BRANCH  10  11
HETATM   11  N3  UNL     1      63.639   1.771  42.270  1.00  0.00    -0.392 N 
HETATM   12  C4  UNL     1      64.775   1.574  43.099  1.00  0.00     0.122 C 
HETATM   13  C5  UNL     1      65.063   2.913  43.777  1.00  0.00     0.020 C 
HETATM   14  C6  UNL     1      65.614   3.798  42.679  1.00  0.00     0.007 C 
HETATM   15  C7  UNL     1      64.899   3.703  41.389  1.00  0.00     0.044 C 
HETATM   16  C8  UNL     1      63.656   2.867  41.398  1.00  0.00     0.058 C 
ENDBRANCH  10  11
ENDBRANCH   9  10
ENDBRANCH   5   9
BRANCH   7  17
HETATM   17  C9  UNL     1      58.336  -0.400  39.141  1.00  0.00     0.099 C 
HETATM   18  C10 UNL     1      58.535  -1.807  39.693  1.00  0.00     0.026 C 
HETATM   19  C11 UNL     1      58.314  -2.738  38.497  1.00  0.00     0.002 C 
HETATM   20  C12 UNL     1      56.979  -2.560  37.859  1.00  0.00     0.000 C 
HETATM   21  C13 UNL     1      56.493  -1.162  37.749  1.00  0.00     0.002 C 
HETATM   22  C14 UNL     1      56.833  -0.268  38.910  1.00  0.00     0.026 C 
ENDBRANCH   7  17
TORSDOF 4
ENDMDL
MODEL 5
REMARK VINA RESULT: -6.659085357      0.671      1.335
REMARK  4 active torsions:
REMARK  status: ('A' for Active; 'I' for Inactive)
REMARK       I    between atoms: C1_4  and  N2_5 
REMARK       I    between atoms: C1_4  and  N4_15 
REMARK    1  A    between atoms: N2_5  and  C2_7 
REMARK    2  A    between atoms: C2_7  and  C3_8 
REMARK    3  A    between atoms: C3_8  and  N3_9 
REMARK    4  A    between atoms: N4_15  and  C9_17 
ROOT
HETATM    1  N1  UNL     1      60.810   0.360  39.600  1.00  0.00    -0.235 N 
ATOM      2  H11 UNL     1      60.128   0.707  38.926  1.00  0.00     0.174 HD
ATOM      3  H12 UNL     1      61.811   0.488  39.453  1.00  0.00     0.174 HD
HETATM    4  C1  UNL     1      60.398  -0.247  40.647  1.00  0.00     0.667 C 
HETATM    5  N2  UNL     1      61.341  -0.727  41.578  1.00  0.00    -0.225 N 
ATOM      6  H2  UNL     1      61.395  -1.729  41.758  1.00  0.00     0.177 HD
HETATM    7  N4  UNL     1      59.015  -0.424  40.850  1.00  0.00    -0.222 N 
ATOM      8  H4  UNL     1      58.621  -0.072  41.722  1.00  0.00     0.178 HD
ENDROOT
BRANCH   5   9
HETATM    9  C2  UNL     1      62.244   0.174  42.294  1.00  0.00     0.157 C 
BRANCH   9  10
HETATM   10  C3  UNL     1      61.390   1.176  42.991  1.00  0.00     0.142 C 
BRANCH  10  11
HETATM   11  N3  UNL     1      61.806   2.525  42.928  1.00  0.00    -0.392 N 
HETATM   12  C4  UNL     1      60.697   3.397  43.089  1.00  0.00     0.122 C 
HETATM   13  C5  UNL     1      60.175   3.707  41.686  1.00  0.00     0.020 C 
HETATM   14  C6  UNL     1      61.216   4.619  41.074  1.00  0.00     0.007 C 
HETATM   15  C7  UNL     1      62.616   4.218  41.324  1.00  0.00     0.044 C 
HETATM   16  C8  UNL     1      62.798   2.901  42.014  1.00  0.00     0.058 C 
ENDBRANCH  10  11
ENDBRANCH   9  10
ENDBRANCH   5   9
BRANCH   7  17
HETATM   17  C9  UNL     1      58.120  -1.056  39.936  1.00  0.00     0.099 C 
HETATM   18  C10 UNL     1      57.559  -0.110  38.880  1.00  0.00     0.026 C 
HETATM   19  C11 UNL     1      56.346  -0.842  38.295  1.00  0.00     0.002 C 
HETATM   20  C12 UNL     1      56.688  -2.181  37.738  1.00  0.00     0.000 C 
HETATM   21  C13 UNL     1      57.670  -2.978  38.515  1.00  0.00     0.002 C 
HETATM   22  C14 UNL     1      58.780  -2.187  39.153  1.00  0.00     0.026 C 
ENDBRANCH   7  17
TORSDOF 4
ENDMDL
