MODEL 1
REMARK VINA RESULT: -6.866957972      0.000      0.000
REMARK  4 active torsions:
REMARK  status: ('A' for Active; 'I' for Inactive)
REMARK    1  A    between atoms: C2_2  and  N1_3 
REMARK    2  A    between atoms: C6_7  and  N2_8 
REMARK       I    between atoms: N2_8  and  C7_10 
REMARK       I    between atoms: C7_10  and  N4_14 
REMARK    3  A    between atoms: N4_14  and  C8_16 
REMARK    4  A    between atoms: C8_16  and  C9_17 
ROOT
HETATM    1  N2  UNL     1      59.583  -1.503  40.074  1.00  0.00    -0.221 N 
ATOM      2  H2  UNL     1      60.496  -1.947  39.970  1.00  0.00     0.178 HD
HETATM    3  C7  UNL     1      59.508  -0.115  39.917  1.00  0.00     0.667 C 
HETATM    4  N3  UNL     1      58.398   0.482  39.695  1.00  0.00    -0.235 N 
ATOM      5  H31 UNL     1      58.342   1.494  39.581  1.00  0.00     0.174 HD
ATOM      6  H32 UNL     1      57.570  -0.109  39.631  1.00  0.00     0.174 HD
HETATM    7  N4  UNL     1      60.671   0.716  40.007  1.00  0.00    -0.226 N 
ATOM      8  H4  UNL     1      61.184   0.990  39.169  1.00  0.00     0.177 HD
ENDROOT
BRANCH   1   9
HETATM    9  C6  UNL     1      58.444  -2.349  40.374  1.00  0.00     0.127 C 
HETATM   10  C5  UNL     1      58.376  -2.435  41.890  1.00  0.00     0.029 C 
HETATM   11  C4  UNL     1      57.713  -3.670  42.390  1.00  0.00     0.032 C 
HETATM   12  C3  UNL     1      58.241  -4.923  41.710  1.00  0.00     0.272 C 
HETATM   13  N1  UNL     1      57.933  -4.777  40.305  1.00  0.00     0.090 N 
HETATM   14  C14 UNL     1      58.705  -3.704  39.763  1.00  0.00     0.297 C 
BRANCH  13  15
HETATM   15  C2  UNL     1      58.370  -5.996  39.632  1.00  0.00     0.268 C 
HETATM   16  C1  UNL     1      58.049  -7.243  40.399  1.00  0.00     0.037 C 
ENDBRANCH  13  15
ENDBRANCH   1   9
BRANCH   7  17
HETATM   17  C8  UNL     1      61.100   1.156  41.310  1.00  0.00     0.143 C 
BRANCH  17  18
HETATM   18  C9  UNL     1      60.657   2.574  41.552  1.00  0.00     0.013 A 
HETATM   19  C10 UNL     1      61.469   3.267  42.701  1.00  0.00     0.017 A 
HETATM   20  C11 UNL     1      61.398   3.761  41.367  1.00  0.00    -0.035 A 
HETATM   21  C12 UNL     1      61.065   5.059  40.845  1.00  0.00     0.011 A 
HETATM   22  C13 UNL     1      62.328   4.262  40.435  1.00  0.00     0.011 A 
ENDBRANCH  17  18
ENDBRANCH   7  17
TORSDOF 4
ENDMDL
MODEL 2
REMARK VINA RESULT: -6.791658182      3.124      8.105
REMARK  4 active torsions:
REMARK  status: ('A' for Active; 'I' for Inactive)
REMARK    1  A    between atoms: C2_2  and  N1_3 
REMARK    2  A    between atoms: C6_7  and  N2_8 
REMARK       I    between atoms: N2_8  and  C7_10 
REMARK       I    between atoms: C7_10  and  N4_14 
REMARK    3  A    between atoms: N4_14  and  C8_16 
REMARK    4  A    between atoms: C8_16  and  C9_17 
ROOT
HETATM    1  N2  UNL     1      58.175  -3.906  40.609  1.00  0.00    -0.221 N 
ATOM      2  H2  UNL     1      57.495  -3.627  41.316  1.00  0.00     0.178 HD
HETATM    3  C7  UNL     1      58.417  -5.272  40.432  1.00  0.00     0.667 C 
HETATM    4  N3  UNL     1      58.976  -5.730  39.377  1.00  0.00    -0.235 N 
ATOM      5  H31 UNL     1      59.152  -6.727  39.247  1.00  0.00     0.174 HD
ATOM      6  H32 UNL     1      59.231  -5.046  38.665  1.00  0.00     0.174 HD
HETATM    7  N4  UNL     1      58.060  -6.234  41.432  1.00  0.00    -0.226 N 
ATOM      8  H4  UNL     1      57.170  -6.731  41.384  1.00  0.00     0.177 HD
ENDROOT
BRANCH   1   9
HETATM    9  C6  UNL     1      58.832  -2.860  39.847  1.00  0.00     0.127 C 
HETATM   10  C5  UNL     1      59.105  -1.735  40.832  1.00  0.00     0.029 C 
HETATM   11  C4  UNL     1      59.201  -0.393  40.195  1.00  0.00     0.032 C 
HETATM   12  C3  UNL     1      58.052  -0.128  39.235  1.00  0.00     0.272 C 
HETATM   13  N1  UNL     1      58.155  -1.132  38.200  1.00  0.00     0.090 N 
HETATM   14  C14 UNL     1      57.882  -2.417  38.762  1.00  0.00     0.297 C 
BRANCH  13  15
HETATM   15  C2  UNL     1      57.102  -0.864  37.225  1.00  0.00     0.268 C 
HETATM   16  C1  UNL     1      55.725  -1.130  37.753  1.00  0.00     0.037 C 
ENDBRANCH  13  15
ENDBRANCH   1   9
BRANCH   7  17
HETATM   17  C8  UNL     1      58.986  -6.482  42.507  1.00  0.00     0.143 C 
BRANCH  17  18
HETATM   18  C9  UNL     1      59.133  -7.963  42.735  1.00  0.00     0.013 A 
HETATM   19  C10 UNL     1      60.504  -8.516  42.210  1.00  0.00     0.017 A 
HETATM   20  C11 UNL     1      60.066  -8.628  43.561  1.00  0.00    -0.035 A 
HETATM   21  C12 UNL     1      59.968  -9.760  44.443  1.00  0.00     0.011 A 
HETATM   22  C13 UNL     1      60.654  -8.424  44.824  1.00  0.00     0.011 A 
ENDBRANCH  17  18
ENDBRANCH   7  17
TORSDOF 4
ENDMDL
MODEL 3
REMARK VINA RESULT: -6.634025202      0.834      1.174
REMARK  4 active torsions:
REMARK  status: ('A' for Active; 'I' for Inactive)
REMARK    1  A    between atoms: C2_2  and  N1_3 
REMARK    2  A    between atoms: C6_7  and  N2_8 
REMARK       I    between atoms: N2_8  and  C7_10 
REMARK       I    between atoms: C7_10  and  N4_14 
REMARK    3  A    between atoms: N4_14  and  C8_16 
REMARK    4  A    between atoms: C8_16  and  C9_17 
ROOT
HETATM    1  N2  UNL     1      59.379  -1.361  39.989  1.00  0.00    -0.221 N 
ATOM      2  H2  UNL     1      60.313  -1.753  39.873  1.00  0.00     0.178 HD
HETATM    3  C7  UNL     1      59.211   0.012  39.779  1.00  0.00     0.667 C 
HETATM    4  N3  UNL     1      58.060   0.529  39.571  1.00  0.00    -0.235 N 
ATOM      5  H31 UNL     1      57.938   1.530  39.418  1.00  0.00     0.174 HD
ATOM      6  H32 UNL     1      57.269  -0.114  39.559  1.00  0.00     0.174 HD
HETATM    7  N4  UNL     1      60.322   0.915  39.797  1.00  0.00    -0.226 N 
ATOM      8  H4  UNL     1      60.791   1.184  38.932  1.00  0.00     0.177 HD
ENDROOT
BRANCH   1   9
HETATM    9  C6  UNL     1      58.304  -2.263  40.362  1.00  0.00     0.127 C 
HETATM   10  C5  UNL     1      58.353  -2.367  41.877  1.00  0.00     0.029 C 
HETATM   11  C4  UNL     1      57.786  -3.637  42.408  1.00  0.00     0.032 C 
HETATM   12  C3  UNL     1      58.319  -4.857  41.673  1.00  0.00     0.272 C 
HETATM   13  N1  UNL     1      57.900  -4.710  40.297  1.00  0.00     0.090 N 
HETATM   14  C14 UNL     1      58.580  -3.598  39.714  1.00  0.00     0.297 C 
BRANCH  13  15
HETATM   15  C2  UNL     1      58.341  -5.901  39.577  1.00  0.00     0.268 C 
HETATM   16  C1  UNL     1      58.251  -7.154  40.394  1.00  0.00     0.037 C 
ENDBRANCH  13  15
ENDBRANCH   1   9
BRANCH   7  17
HETATM   17  C8  UNL     1      60.763   1.435  41.067  1.00  0.00     0.143 C 
BRANCH  17  18
HETATM   18  C9  UNL     1      61.673   2.616  40.857  1.00  0.00     0.013 A 
HETATM   19  C10 UNL     1      61.259   3.853  41.729  1.00  0.00     0.017 A 
HETATM   20  C11 UNL     1      62.537   3.226  41.793  1.00  0.00    -0.035 A 
HETATM   21  C12 UNL     1      63.869   3.760  41.700  1.00  0.00     0.011 A 
HETATM   22  C13 UNL     1      63.396   2.809  42.828  1.00  0.00     0.011 A 
ENDBRANCH  17  18
ENDBRANCH   7  17
TORSDOF 4
ENDMDL
MODEL 4
REMARK VINA RESULT: -6.512860694      3.063      7.636
REMARK  4 active torsions:
REMARK  status: ('A' for Active; 'I' for Inactive)
REMARK    1  A    between atoms: C2_2  and  N1_3 
REMARK    2  A    between atoms: C6_7  and  N2_8 
REMARK       I    between atoms: N2_8  and  C7_10 
REMARK       I    between atoms: C7_10  and  N4_14 
REMARK    3  A    between atoms: N4_14  and  C8_16 
REMARK    4  A    between atoms: C8_16  and  C9_17 
ROOT
HETATM    1  N2  UNL     1      58.843  -4.038  42.156  1.00  0.00    -0.221 N 
ATOM      2  H2  UNL     1      59.838  -3.854  42.027  1.00  0.00     0.178 HD
HETATM    3  C7  UNL     1      58.425  -4.547  43.390  1.00  0.00     0.667 C 
HETATM    4  N3  UNL     1      57.202  -4.495  43.765  1.00  0.00    -0.235 N 
ATOM      5  H31 UNL     1      56.897  -4.866  44.665  1.00  0.00     0.174 HD
ATOM      6  H32 UNL     1      56.548  -4.055  43.118  1.00  0.00     0.174 HD
HETATM    7  N4  UNL     1      59.344  -5.165  44.298  1.00  0.00    -0.226 N 
ATOM      8  H4  UNL     1      59.777  -4.628  45.049  1.00  0.00     0.177 HD
ENDROOT
BRANCH   1   9
HETATM    9  C6  UNL     1      57.949  -3.757  41.049  1.00  0.00     0.127 C 
HETATM   10  C5  UNL     1      58.506  -4.518  39.858  1.00  0.00     0.029 C 
HETATM   11  C4  UNL     1      58.139  -3.924  38.543  1.00  0.00     0.032 C 
HETATM   12  C3  UNL     1      58.378  -2.423  38.502  1.00  0.00     0.272 C 
HETATM   13  N1  UNL     1      57.520  -1.853  39.516  1.00  0.00     0.090 N 
HETATM   14  C14 UNL     1      57.974  -2.268  40.805  1.00  0.00     0.297 C 
BRANCH  13  15
HETATM   15  C2  UNL     1      57.678  -0.403  39.458  1.00  0.00     0.268 C 
HETATM   16  C1  UNL     1      59.091   0.047  39.670  1.00  0.00     0.037 C 
ENDBRANCH  13  15
ENDBRANCH   1   9
BRANCH   7  17
HETATM   17  C8  UNL     1      59.642  -6.564  44.126  1.00  0.00     0.143 C 
BRANCH  17  18
HETATM   18  C9  UNL     1      59.965  -6.853  42.684  1.00  0.00     0.013 A 
HETATM   19  C10 UNL     1      60.304  -8.364  42.438  1.00  0.00     0.017 A 
HETATM   20  C11 UNL     1      59.251  -7.667  41.778  1.00  0.00    -0.035 A 
HETATM   21  C12 UNL     1      58.918  -7.533  40.385  1.00  0.00     0.011 A 
HETATM   22  C13 UNL     1      57.901  -7.941  41.481  1.00  0.00     0.011 A 
ENDBRANCH  17  18
ENDBRANCH   7  17
TORSDOF 4
ENDMDL
MODEL 5
REMARK VINA RESULT: -6.490031117      4.692      6.168
REMARK  4 active torsions:
REMARK  status: ('A' for Active; 'I' for Inactive)
REMARK    1  A    between atoms: C2_2  and  N1_3 
REMARK    2  A    between atoms: C6_7  and  N2_8 
REMARK       I    between atoms: N2_8  and  C7_10 
REMARK       I    between atoms: C7_10  and  N4_14 
REMARK    3  A    between atoms: N4_14  and  C8_16 
REMARK    4  A    between atoms: C8_16  and  C9_17 
ROOT
HETATM    1  N2  UNL     1      59.542  -6.429  40.869  1.00  0.00    -0.221 N 
ATOM      2  H2  UNL     1      60.538  -6.440  40.652  1.00  0.00     0.178 HD
HETATM    3  C7  UNL     1      58.654  -6.052  39.855  1.00  0.00     0.667 C 
HETATM    4  N3  UNL     1      57.405  -6.322  39.914  1.00  0.00    -0.235 N 
ATOM      5  H31 UNL     1      56.757  -6.048  39.175  1.00  0.00     0.174 HD
ATOM      6  H32 UNL     1      57.090  -6.835  40.738  1.00  0.00     0.174 HD
HETATM    7  N4  UNL     1      59.096  -5.332  38.698  1.00  0.00    -0.226 N 
ATOM      8  H4  UNL     1      59.337  -5.824  37.838  1.00  0.00     0.177 HD
ENDROOT
BRANCH   1   9
HETATM    9  C6  UNL     1      59.132  -6.804  42.209  1.00  0.00     0.127 C 
HETATM   10  C5  UNL     1      59.034  -5.507  42.994  1.00  0.00     0.029 C 
HETATM   11  C4  UNL     1      59.226  -5.679  44.460  1.00  0.00     0.032 C 
HETATM   12  C3  UNL     1      60.447  -6.524  44.786  1.00  0.00     0.272 C 
HETATM   13  N1  UNL     1      60.202  -7.824  44.202  1.00  0.00     0.090 N 
HETATM   14  C14 UNL     1      60.198  -7.707  42.778  1.00  0.00     0.297 C 
BRANCH  13  15
HETATM   15  C2  UNL     1      61.330  -8.681  44.554  1.00  0.00     0.268 C 
HETATM   16  C1  UNL     1      62.485  -7.927  45.140  1.00  0.00     0.037 C 
ENDBRANCH  13  15
ENDBRANCH   1   9
BRANCH   7  17
HETATM   17  C8  UNL     1      59.191  -3.897  38.779  1.00  0.00     0.143 C 
BRANCH  17  18
HETATM   18  C9  UNL     1      57.817  -3.288  38.859  1.00  0.00     0.013 A 
HETATM   19  C10 UNL     1      57.786  -1.995  39.746  1.00  0.00     0.017 A 
HETATM   20  C11 UNL     1      57.392  -2.031  38.378  1.00  0.00    -0.035 A 
HETATM   21  C12 UNL     1      56.197  -1.582  37.714  1.00  0.00     0.011 A 
HETATM   22  C13 UNL     1      57.630  -1.226  37.246  1.00  0.00     0.011 A 
ENDBRANCH  17  18
ENDBRANCH   7  17
TORSDOF 4
ENDMDL
