MODEL 1
REMARK VINA RESULT: -6.295379861      0.000      0.000
REMARK  5 active torsions:
REMARK  status: ('A' for Active; 'I' for Inactive)
REMARK    1  A    between atoms: C7_8  and  C8_9 
REMARK    2  A    between atoms: C8_9  and  C9_10 
REMARK    3  A    between atoms: C9_10  and  C10_11 
REMARK    4  A    between atoms: C10_11  and  N1_12 
REMARK    5  A    between atoms: N1_12  and  C11_14 
ROOT
HETATM    1  C1  UNL     1      59.379  -8.605  40.812  1.00  0.00     0.078 C 
HETATM    2  C2  UNL     1      58.259  -7.561  40.898  1.00  0.00     0.158 C 
HETATM    3  C3  UNL     1      56.975  -8.331  40.592  1.00  0.00     0.078 C 
HETATM    4  O1  UNL     1      58.151  -7.069  42.170  1.00  0.00    -0.348 OA
HETATM    5  C4  UNL     1      58.641  -5.767  42.184  1.00  0.00     0.154 C 
HETATM    6  C5  UNL     1      57.598  -4.819  42.692  1.00  0.00     0.035 C 
HETATM    7  C6  UNL     1      57.798  -3.604  41.785  1.00  0.00     0.010 C 
HETATM    8  C7  UNL     1      57.958  -4.286  40.447  1.00  0.00     0.017 C 
HETATM    9  C12 UNL     1      58.909  -5.417  40.730  1.00  0.00     0.158 C 
HETATM   10  O2  UNL     1      58.486  -6.532  40.028  1.00  0.00    -0.348 OA
ENDROOT
BRANCH   8  11
HETATM   11  C8  UNL     1      58.385  -3.374  39.357  1.00  0.00     0.009 C 
BRANCH  11  12
HETATM   12  C9  UNL     1      57.940  -1.969  39.716  1.00  0.00     0.020 C 
BRANCH  12  13
HETATM   13  C10 UNL     1      58.828  -0.920  39.142  1.00  0.00     0.121 C 
BRANCH  13  14
HETATM   14  N1  UNL     1      59.028   0.244  39.937  1.00  0.00    -0.369 N 
ATOM     15  H1  UNL     1      58.215   0.820  40.150  1.00  0.00     0.161 HD
BRANCH  14  16
HETATM   16  C11 UNL     1      60.277   0.651  40.448  1.00  0.00     0.180 C 
HETATM   17  N2  UNL     1      60.524   1.924  41.022  1.00  0.00    -0.070 NA
HETATM   18  S1  UNL     1      61.531  -0.388  40.402  1.00  0.00    -0.044 SA
ENDBRANCH  14  16
ENDBRANCH  13  14
ENDBRANCH  12  13
ENDBRANCH  11  12
ENDBRANCH   8  11
TORSDOF 5
ENDMDL
MODEL 2
REMARK VINA RESULT: -6.288683768      1.707      2.059
REMARK  5 active torsions:
REMARK  status: ('A' for Active; 'I' for Inactive)
REMARK    1  A    between atoms: C7_8  and  C8_9 
REMARK    2  A    between atoms: C8_9  and  C9_10 
REMARK    3  A    between atoms: C9_10  and  C10_11 
REMARK    4  A    between atoms: C10_11  and  N1_12 
REMARK    5  A    between atoms: N1_12  and  C11_14 
ROOT
HETATM    1  C1  UNL     1      59.327  -8.733  40.747  1.00  0.00     0.078 C 
HETATM    2  C2  UNL     1      58.244  -7.661  40.912  1.00  0.00     0.158 C 
HETATM    3  C3  UNL     1      56.941  -8.346  40.503  1.00  0.00     0.078 C 
HETATM    4  O1  UNL     1      58.121  -7.293  42.224  1.00  0.00    -0.348 OA
HETATM    5  C4  UNL     1      58.658  -6.018  42.378  1.00  0.00     0.154 C 
HETATM    6  C5  UNL     1      57.637  -5.086  42.956  1.00  0.00     0.035 C 
HETATM    7  C6  UNL     1      57.904  -3.796  42.179  1.00  0.00     0.010 C 
HETATM    8  C7  UNL     1      58.072  -4.348  40.784  1.00  0.00     0.017 C 
HETATM    9  C12 UNL     1      58.974  -5.537  40.973  1.00  0.00     0.158 C 
HETATM   10  O2  UNL     1      58.529  -6.560  40.155  1.00  0.00    -0.348 OA
ENDROOT
BRANCH   8  11
HETATM   11  C8  UNL     1      58.560  -3.350  39.799  1.00  0.00     0.009 C 
BRANCH  11  12
HETATM   12  C9  UNL     1      58.872  -2.066  40.545  1.00  0.00     0.020 C 
BRANCH  12  13
HETATM   13  C10 UNL     1      59.265  -0.953  39.636  1.00  0.00     0.121 C 
BRANCH  13  14
HETATM   14  N1  UNL     1      58.346   0.128  39.527  1.00  0.00    -0.369 N 
ATOM     15  H1  UNL     1      58.700   1.071  39.681  1.00  0.00     0.161 HD
BRANCH  14  16
HETATM   16  C11 UNL     1      56.978  -0.020  39.222  1.00  0.00     0.180 C 
HETATM   17  N2  UNL     1      55.925   0.505  40.013  1.00  0.00    -0.070 NA
HETATM   18  S1  UNL     1      56.548  -0.829  37.875  1.00  0.00    -0.044 SA
ENDBRANCH  14  16
ENDBRANCH  13  14
ENDBRANCH  12  13
ENDBRANCH  11  12
ENDBRANCH   8  11
TORSDOF 5
ENDMDL
MODEL 3
REMARK VINA RESULT: -6.283827721      4.311      6.418
REMARK  5 active torsions:
REMARK  status: ('A' for Active; 'I' for Inactive)
REMARK    1  A    between atoms: C7_8  and  C8_9 
REMARK    2  A    between atoms: C8_9  and  C9_10 
REMARK    3  A    between atoms: C9_10  and  C10_11 
REMARK    4  A    between atoms: C10_11  and  N1_12 
REMARK    5  A    between atoms: N1_12  and  C11_14 
ROOT
HETATM    1  C1  UNL     1      58.702  -0.032  39.209  1.00  0.00     0.078 C 
HETATM    2  C2  UNL     1      57.926  -1.354  39.201  1.00  0.00     0.158 C 
HETATM    3  C3  UNL     1      56.580  -1.020  38.560  1.00  0.00     0.078 C 
HETATM    4  O1  UNL     1      58.546  -2.275  38.401  1.00  0.00    -0.348 OA
HETATM    5  C4  UNL     1      59.136  -3.241  39.212  1.00  0.00     0.154 C 
HETATM    6  C5  UNL     1      58.628  -4.605  38.857  1.00  0.00     0.035 C 
HETATM    7  C6  UNL     1      58.490  -5.264  40.230  1.00  0.00     0.010 C 
HETATM    8  C7  UNL     1      57.856  -4.137  41.010  1.00  0.00     0.017 C 
HETATM    9  C12 UNL     1      58.666  -2.930  40.622  1.00  0.00     0.158 C 
HETATM   10  O2  UNL     1      57.806  -1.857  40.466  1.00  0.00    -0.348 OA
ENDROOT
BRANCH   8  11
HETATM   11  C8  UNL     1      57.780  -4.388  42.471  1.00  0.00     0.009 C 
BRANCH  11  12
HETATM   12  C9  UNL     1      58.196  -5.826  42.724  1.00  0.00     0.020 C 
BRANCH  12  13
HETATM   13  C10 UNL     1      59.299  -5.939  43.719  1.00  0.00     0.121 C 
BRANCH  13  14
HETATM   14  N1  UNL     1      60.439  -6.689  43.316  1.00  0.00    -0.369 N 
ATOM     15  H1  UNL     1      61.354  -6.247  43.401  1.00  0.00     0.161 HD
BRANCH  14  16
HETATM   16  C11 UNL     1      60.386  -8.002  42.806  1.00  0.00     0.180 C 
HETATM   17  N2  UNL     1      60.665  -8.343  41.459  1.00  0.00    -0.070 NA
HETATM   18  S1  UNL     1      59.996  -9.226  43.806  1.00  0.00    -0.044 SA
ENDBRANCH  14  16
ENDBRANCH  13  14
ENDBRANCH  12  13
ENDBRANCH  11  12
ENDBRANCH   8  11
TORSDOF 5
ENDMDL
MODEL 4
REMARK VINA RESULT: -6.202476670      4.054      6.074
REMARK  5 active torsions:
REMARK  status: ('A' for Active; 'I' for Inactive)
REMARK    1  A    between atoms: C7_8  and  C8_9 
REMARK    2  A    between atoms: C8_9  and  C9_10 
REMARK    3  A    between atoms: C9_10  and  C10_11 
REMARK    4  A    between atoms: C10_11  and  N1_12 
REMARK    5  A    between atoms: N1_12  and  C11_14 
ROOT
HETATM    1  C1  UNL     1      59.022  -0.018  39.569  1.00  0.00     0.078 C 
HETATM    2  C2  UNL     1      58.125  -1.259  39.490  1.00  0.00     0.158 C 
HETATM    3  C3  UNL     1      56.764  -0.738  39.031  1.00  0.00     0.078 C 
HETATM    4  O1  UNL     1      58.578  -2.125  38.532  1.00  0.00    -0.348 OA
HETATM    5  C4  UNL     1      59.145  -3.228  39.165  1.00  0.00     0.154 C 
HETATM    6  C5  UNL     1      58.478  -4.491  38.712  1.00  0.00     0.035 C 
HETATM    7  C6  UNL     1      58.404  -5.298  40.009  1.00  0.00     0.010 C 
HETATM    8  C7  UNL     1      57.955  -4.225  40.971  1.00  0.00     0.017 C 
HETATM    9  C12 UNL     1      58.837  -3.052  40.642  1.00  0.00     0.158 C 
HETATM   10  O2  UNL     1      58.074  -1.900  40.696  1.00  0.00    -0.348 OA
ENDROOT
BRANCH   8  11
HETATM   11  C8  UNL     1      57.988  -4.645  42.395  1.00  0.00     0.009 C 
BRANCH  11  12
HETATM   12  C9  UNL     1      58.394  -6.107  42.446  1.00  0.00     0.020 C 
BRANCH  12  13
HETATM   13  C10 UNL     1      59.474  -6.370  43.437  1.00  0.00     0.121 C 
BRANCH  13  14
HETATM   14  N1  UNL     1      59.565  -5.461  44.528  1.00  0.00    -0.369 N 
ATOM     15  H1  UNL     1      58.882  -4.706  44.578  1.00  0.00     0.161 HD
BRANCH  14  16
HETATM   16  C11 UNL     1      60.539  -5.537  45.545  1.00  0.00     0.180 C 
HETATM   17  N2  UNL     1      61.071  -4.409  46.221  1.00  0.00    -0.070 NA
HETATM   18  S1  UNL     1      61.098  -6.996  46.002  1.00  0.00    -0.044 SA
ENDBRANCH  14  16
ENDBRANCH  13  14
ENDBRANCH  12  13
ENDBRANCH  11  12
ENDBRANCH   8  11
TORSDOF 5
ENDMDL
MODEL 5
REMARK VINA RESULT: -6.139285446      3.012      4.689
REMARK  5 active torsions:
REMARK  status: ('A' for Active; 'I' for Inactive)
REMARK    1  A    between atoms: C7_8  and  C8_9 
REMARK    2  A    between atoms: C8_9  and  C9_10 
REMARK    3  A    between atoms: C9_10  and  C10_11 
REMARK    4  A    between atoms: C10_11  and  N1_12 
REMARK    5  A    between atoms: N1_12  and  C11_14 
ROOT
HETATM    1  C1  UNL     1      58.046  -1.051  36.595  1.00  0.00     0.078 C 
HETATM    2  C2  UNL     1      57.398  -1.560  37.889  1.00  0.00     0.158 C 
HETATM    3  C3  UNL     1      55.948  -1.085  37.819  1.00  0.00     0.078 C 
HETATM    4  O1  UNL     1      57.383  -2.927  37.918  1.00  0.00    -0.348 OA
HETATM    5  C4  UNL     1      58.324  -3.361  38.847  1.00  0.00     0.154 C 
HETATM    6  C5  UNL     1      57.677  -4.227  39.884  1.00  0.00     0.035 C 
HETATM    7  C6  UNL     1      58.390  -3.785  41.163  1.00  0.00     0.010 C 
HETATM    8  C7  UNL     1      58.387  -2.287  40.973  1.00  0.00     0.017 C 
HETATM    9  C12 UNL     1      58.818  -2.104  39.543  1.00  0.00     0.158 C 
HETATM   10  O2  UNL     1      58.063  -1.087  38.985  1.00  0.00    -0.348 OA
ENDROOT
BRANCH   8  11
HETATM   11  C8  UNL     1      59.211  -1.555  41.967  1.00  0.00     0.009 C 
BRANCH  11  12
HETATM   12  C9  UNL     1      60.235  -0.727  41.213  1.00  0.00     0.020 C 
BRANCH  12  13
HETATM   13  C10 UNL     1      60.935   0.256  42.085  1.00  0.00     0.121 C 
BRANCH  13  14
HETATM   14  N1  UNL     1      60.537   1.616  41.951  1.00  0.00    -0.369 N 
ATOM     15  H1  UNL     1      59.905   1.854  41.187  1.00  0.00     0.161 HD
BRANCH  14  16
HETATM   16  C11 UNL     1      60.959   2.655  42.805  1.00  0.00     0.180 C 
HETATM   17  N2  UNL     1      60.081   3.440  43.595  1.00  0.00    -0.070 NA
HETATM   18  S1  UNL     1      62.548   2.990  42.922  1.00  0.00    -0.044 SA
ENDBRANCH  14  16
ENDBRANCH  13  14
ENDBRANCH  12  13
ENDBRANCH  11  12
ENDBRANCH   8  11
TORSDOF 5
ENDMDL
