MODEL 1
REMARK VINA RESULT: -6.316584342      0.000      0.000
REMARK  5 active torsions:
REMARK  status: ('A' for Active; 'I' for Inactive)
REMARK    1  A    between atoms: C2_2  and  N1_3 
REMARK       I    between atoms: C3_5  and  N2_6 
REMARK       I    between atoms: C3_5  and  N3_9 
REMARK    2  A    between atoms: N3_9  and  C5_11 
REMARK    3  A    between atoms: C5_11  and  C6_12 
REMARK    4  A    between atoms: C6_12  and  N4_14 
REMARK    5  A    between atoms: N4_14  and  C7_16 
ROOT
HETATM    1  C5  UNL     1      60.436   0.825  41.523  1.00  0.00     0.207 C 
ENDROOT
BRANCH   1   2
HETATM    2  N3  UNL     1      60.153   2.081  40.822  1.00  0.00    -0.220 N 
HETATM    3  C3  UNL     1      61.004   3.188  41.065  1.00  0.00     0.669 C 
HETATM    4  N1  UNL     1      62.064   3.313  40.373  1.00  0.00    -0.227 N 
HETATM    5  N2  UNL     1      60.679   4.123  42.051  1.00  0.00    -0.231 N 
ATOM      6  H1  UNL     1      62.238   2.592  39.672  1.00  0.00     0.177 HD
HETATM    7  C4  UNL     1      60.606   3.705  43.430  1.00  0.00     0.165 C 
ATOM      8  H2  UNL     1      60.493   5.094  41.798  1.00  0.00     0.177 HD
ATOM      9  H3  UNL     1      59.365   2.156  40.178  1.00  0.00     0.178 HD
BRANCH   4  10
HETATM   10  C2  UNL     1      63.037   4.351  40.470  1.00  0.00     0.133 C 
HETATM   11  C1  UNL     1      64.249   3.823  41.183  1.00  0.00     0.027 C 
ENDBRANCH   4  10
ENDBRANCH   1   2
BRANCH   1  12
HETATM   12  C6  UNL     1      60.834  -0.191  40.547  1.00  0.00     0.092 C 
HETATM   13  S1  UNL     1      62.412  -0.509  40.302  1.00  0.00    -0.064 SA
BRANCH  12  14
HETATM   14  N4  UNL     1      59.871  -0.900  39.809  1.00  0.00    -0.378 N 
ATOM     15  H4  UNL     1      60.173  -1.372  38.957  1.00  0.00     0.160 HD
BRANCH  14  16
HETATM   16  C7  UNL     1      58.472  -1.003  40.183  1.00  0.00     0.082 C 
HETATM   17  C8  UNL     1      58.065  -2.446  40.041  1.00  0.00     0.025 C 
HETATM   18  C9  UNL     1      57.879  -2.886  38.625  1.00  0.00     0.002 C 
HETATM   19  C10 UNL     1      57.152  -1.924  37.761  1.00  0.00     0.000 C 
HETATM   20  C11 UNL     1      56.554  -0.805  38.584  1.00  0.00     0.002 C 
HETATM   21  C12 UNL     1      57.707  -0.096  39.259  1.00  0.00     0.025 C 
ENDBRANCH  14  16
ENDBRANCH  12  14
ENDBRANCH   1  12
TORSDOF 5
ENDMDL
MODEL 2
REMARK VINA RESULT: -6.256440992      1.508      1.910
REMARK  5 active torsions:
REMARK  status: ('A' for Active; 'I' for Inactive)
REMARK    1  A    between atoms: C2_2  and  N1_3 
REMARK       I    between atoms: C3_5  and  N2_6 
REMARK       I    between atoms: C3_5  and  N3_9 
REMARK    2  A    between atoms: N3_9  and  C5_11 
REMARK    3  A    between atoms: C5_11  and  C6_12 
REMARK    4  A    between atoms: C6_12  and  N4_14 
REMARK    5  A    between atoms: N4_14  and  C7_16 
ROOT
HETATM    1  C5  UNL     1      60.862   1.136  40.580  1.00  0.00     0.207 C 
ENDROOT
BRANCH   1   2
HETATM    2  N3  UNL     1      60.478   2.216  41.494  1.00  0.00    -0.220 N 
HETATM    3  C3  UNL     1      61.110   3.475  41.342  1.00  0.00     0.669 C 
HETATM    4  N1  UNL     1      60.622   4.314  40.520  1.00  0.00    -0.227 N 
HETATM    5  N2  UNL     1      62.252   3.785  42.087  1.00  0.00    -0.231 N 
ATOM      6  H1  UNL     1      59.788   4.020  40.011  1.00  0.00     0.177 HD
HETATM    7  C4  UNL     1      63.453   3.009  41.899  1.00  0.00     0.165 C 
ATOM      8  H2  UNL     1      62.236   4.553  42.758  1.00  0.00     0.177 HD
ATOM      9  H3  UNL     1      59.775   2.066  42.219  1.00  0.00     0.178 HD
BRANCH   4  10
HETATM   10  C2  UNL     1      61.113   5.622  40.232  1.00  0.00     0.133 C 
HETATM   11  C1  UNL     1      60.029   6.416  39.561  1.00  0.00     0.027 C 
ENDBRANCH   4  10
ENDBRANCH   1   2
BRANCH   1  12
HETATM   12  C6  UNL     1      60.202  -0.104  40.997  1.00  0.00     0.092 C 
HETATM   13  S1  UNL     1      60.331  -0.615  42.536  1.00  0.00    -0.064 SA
BRANCH  12  14
HETATM   14  N4  UNL     1      59.457  -0.867  40.082  1.00  0.00    -0.378 N 
ATOM     15  H4  UNL     1      59.947  -1.265  39.281  1.00  0.00     0.160 HD
BRANCH  14  16
HETATM   16  C7  UNL     1      58.034  -1.123  40.205  1.00  0.00     0.082 C 
HETATM   17  C8  UNL     1      57.792  -2.558  39.814  1.00  0.00     0.025 C 
HETATM   18  C9  UNL     1      57.868  -2.807  38.343  1.00  0.00     0.002 C 
HETATM   19  C10 UNL     1      57.193  -1.789  37.501  1.00  0.00     0.000 C 
HETATM   20  C11 UNL     1      56.373  -0.843  38.349  1.00  0.00     0.002 C 
HETATM   21  C12 UNL     1      57.337  -0.154  39.290  1.00  0.00     0.025 C 
ENDBRANCH  14  16
ENDBRANCH  12  14
ENDBRANCH   1  12
TORSDOF 5
ENDMDL
MODEL 3
REMARK VINA RESULT: -6.254660907      2.598      3.104
REMARK  5 active torsions:
REMARK  status: ('A' for Active; 'I' for Inactive)
REMARK    1  A    between atoms: C2_2  and  N1_3 
REMARK       I    between atoms: C3_5  and  N2_6 
REMARK       I    between atoms: C3_5  and  N3_9 
REMARK    2  A    between atoms: N3_9  and  C5_11 
REMARK    3  A    between atoms: C5_11  and  C6_12 
REMARK    4  A    between atoms: C6_12  and  N4_14 
REMARK    5  A    between atoms: N4_14  and  C7_16 
ROOT
HETATM    1  C5  UNL     1      61.546  -0.163  40.097  1.00  0.00     0.207 C 
ENDROOT
BRANCH   1   2
HETATM    2  N3  UNL     1      61.768   1.221  39.666  1.00  0.00    -0.220 N 
HETATM    3  C3  UNL     1      62.967   1.520  38.973  1.00  0.00     0.669 C 
HETATM    4  N1  UNL     1      63.004   1.368  37.711  1.00  0.00    -0.227 N 
HETATM    5  N2  UNL     1      64.089   1.975  39.672  1.00  0.00    -0.231 N 
ATOM      6  H1  UNL     1      62.148   1.032  37.268  1.00  0.00     0.177 HD
HETATM    7  C4  UNL     1      64.711   1.117  40.651  1.00  0.00     0.165 C 
ATOM      8  H2  UNL     1      64.466   2.905  39.491  1.00  0.00     0.177 HD
ATOM      9  H3  UNL     1      61.078   1.948  39.859  1.00  0.00     0.178 HD
BRANCH   4  10
HETATM   10  C2  UNL     1      64.110   1.615  36.846  1.00  0.00     0.133 C 
HETATM   11  C1  UNL     1      63.881   0.909  35.541  1.00  0.00     0.027 C 
ENDBRANCH   4  10
ENDBRANCH   1   2
BRANCH   1  12
HETATM   12  C6  UNL     1      60.243  -0.257  40.760  1.00  0.00     0.092 C 
HETATM   13  S1  UNL     1      60.158  -0.677  42.330  1.00  0.00    -0.064 SA
BRANCH  12  14
HETATM   14  N4  UNL     1      59.056   0.008  40.057  1.00  0.00    -0.378 N 
ATOM     15  H4  UNL     1      58.989   0.889  39.547  1.00  0.00     0.160 HD
BRANCH  14  16
HETATM   16  C7  UNL     1      57.918  -0.892  40.012  1.00  0.00     0.082 C 
HETATM   17  C8  UNL     1      58.326  -2.106  39.219  1.00  0.00     0.025 C 
HETATM   18  C9  UNL     1      58.397  -1.872  37.745  1.00  0.00     0.002 C 
HETATM   19  C10 UNL     1      57.273  -1.084  37.182  1.00  0.00     0.000 C 
HETATM   20  C11 UNL     1      56.179  -0.895  38.208  1.00  0.00     0.002 C 
HETATM   21  C12 UNL     1      56.791  -0.135  39.363  1.00  0.00     0.025 C 
ENDBRANCH  14  16
ENDBRANCH  12  14
ENDBRANCH   1  12
TORSDOF 5
ENDMDL
MODEL 4
REMARK VINA RESULT: -6.244034149      1.690      6.892
REMARK  5 active torsions:
REMARK  status: ('A' for Active; 'I' for Inactive)
REMARK    1  A    between atoms: C2_2  and  N1_3 
REMARK       I    between atoms: C3_5  and  N2_6 
REMARK       I    between atoms: C3_5  and  N3_9 
REMARK    2  A    between atoms: N3_9  and  C5_11 
REMARK    3  A    between atoms: C5_11  and  C6_12 
REMARK    4  A    between atoms: C6_12  and  N4_14 
REMARK    5  A    between atoms: N4_14  and  C7_16 
ROOT
HETATM    1  C5  UNL     1      59.561  -0.013  39.673  1.00  0.00     0.207 C 
ENDROOT
BRANCH   1   2
HETATM    2  N3  UNL     1      58.264  -0.523  40.127  1.00  0.00    -0.220 N 
HETATM    3  C3  UNL     1      57.804  -1.751  39.589  1.00  0.00     0.669 C 
HETATM    4  N1  UNL     1      58.162  -2.839  40.143  1.00  0.00    -0.227 N 
HETATM    5  N2  UNL     1      56.972  -1.761  38.466  1.00  0.00    -0.231 N 
ATOM      6  H1  UNL     1      58.771  -2.755  40.958  1.00  0.00     0.177 HD
HETATM    7  C4  UNL     1      57.463  -1.242  37.213  1.00  0.00     0.165 C 
ATOM      8  H2  UNL     1      56.024  -2.131  38.532  1.00  0.00     0.177 HD
ATOM      9  H3  UNL     1      57.707  -0.009  40.810  1.00  0.00     0.178 HD
BRANCH   4  10
HETATM   10  C2  UNL     1      57.805  -4.162  39.750  1.00  0.00     0.133 C 
HETATM   11  C1  UNL     1      58.913  -4.743  38.918  1.00  0.00     0.027 C 
ENDBRANCH   4  10
ENDBRANCH   1   2
BRANCH   1  12
HETATM   12  C6  UNL     1      60.241   0.639  40.795  1.00  0.00     0.092 C 
HETATM   13  S1  UNL     1      60.781  -0.252  42.045  1.00  0.00    -0.064 SA
BRANCH  12  14
HETATM   14  N4  UNL     1      60.432   2.031  40.812  1.00  0.00    -0.378 N 
ATOM     15  H4  UNL     1      59.823   2.605  40.229  1.00  0.00     0.160 HD
BRANCH  14  16
HETATM   16  C7  UNL     1      61.443   2.703  41.607  1.00  0.00     0.082 C 
HETATM   17  C8  UNL     1      60.908   4.063  41.973  1.00  0.00     0.025 C 
HETATM   18  C9  UNL     1      60.921   5.043  40.845  1.00  0.00     0.002 C 
HETATM   19  C10 UNL     1      62.157   5.038  40.025  1.00  0.00     0.000 C 
HETATM   20  C11 UNL     1      63.230   4.191  40.672  1.00  0.00     0.002 C 
HETATM   21  C12 UNL     1      62.682   2.784  40.757  1.00  0.00     0.025 C 
ENDBRANCH  14  16
ENDBRANCH  12  14
ENDBRANCH   1  12
TORSDOF 5
ENDMDL
MODEL 5
REMARK VINA RESULT: -6.145118216      1.763      2.566
REMARK  5 active torsions:
REMARK  status: ('A' for Active; 'I' for Inactive)
REMARK    1  A    between atoms: C2_2  and  N1_3 
REMARK       I    between atoms: C3_5  and  N2_6 
REMARK       I    between atoms: C3_5  and  N3_9 
REMARK    2  A    between atoms: N3_9  and  C5_11 
REMARK    3  A    between atoms: C5_11  and  C6_12 
REMARK    4  A    between atoms: C6_12  and  N4_14 
REMARK    5  A    between atoms: N4_14  and  C7_16 
ROOT
HETATM    1  C5  UNL     1      61.281   0.428  39.629  1.00  0.00     0.207 C 
ENDROOT
BRANCH   1   2
HETATM    2  N3  UNL     1      62.258   1.111  40.483  1.00  0.00    -0.220 N 
HETATM    3  C3  UNL     1      62.663   2.419  40.118  1.00  0.00     0.669 C 
HETATM    4  N1  UNL     1      61.973   3.411  40.515  1.00  0.00    -0.227 N 
HETATM    5  N2  UNL     1      63.804   2.610  39.333  1.00  0.00    -0.231 N 
ATOM      6  H1  UNL     1      61.153   3.196  41.083  1.00  0.00     0.177 HD
HETATM    7  C4  UNL     1      63.840   2.080  37.992  1.00  0.00     0.165 C 
ATOM      8  H2  UNL     1      64.606   3.119  39.706  1.00  0.00     0.177 HD
ATOM      9  H3  UNL     1      62.636   0.658  41.315  1.00  0.00     0.178 HD
BRANCH   4  10
HETATM   10  C2  UNL     1      62.220   4.791  40.252  1.00  0.00     0.133 C 
HETATM   11  C1  UNL     1      60.916   5.535  40.268  1.00  0.00     0.027 C 
ENDBRANCH   4  10
ENDBRANCH   1   2
BRANCH   1  12
HETATM   12  C6  UNL     1      60.107   0.075  40.431  1.00  0.00     0.092 C 
HETATM   13  S1  UNL     1      60.297  -0.511  41.937  1.00  0.00    -0.064 SA
BRANCH  12  14
HETATM   14  N4  UNL     1      58.808   0.233  39.917  1.00  0.00    -0.378 N 
ATOM     15  H4  UNL     1      58.532   1.159  39.590  1.00  0.00     0.160 HD
BRANCH  14  16
HETATM   16  C7  UNL     1      57.835  -0.839  39.821  1.00  0.00     0.082 C 
HETATM   17  C8  UNL     1      58.380  -1.870  38.868  1.00  0.00     0.025 C 
HETATM   18  C9  UNL     1      58.307  -1.465  37.431  1.00  0.00     0.002 C 
HETATM   19  C10 UNL     1      57.031  -0.826  37.026  1.00  0.00     0.000 C 
HETATM   20  C11 UNL     1      55.996  -0.943  38.122  1.00  0.00     0.002 C 
HETATM   21  C12 UNL     1      56.555  -0.222  39.328  1.00  0.00     0.025 C 
ENDBRANCH  14  16
ENDBRANCH  12  14
ENDBRANCH   1  12
TORSDOF 5
ENDMDL
