MODEL 1
REMARK VINA RESULT: -5.587459534      0.000      0.000
REMARK  3 active torsions:
REMARK  status: ('A' for Active; 'I' for Inactive)
REMARK    1  A    between atoms: O1_2  and  C2_3 
REMARK    2  A    between atoms: C2_3  and  C3_5 
REMARK    3  A    between atoms: C7_9  and  C9_11 
ROOT
HETATM    1  C3  UNL     1      11.867   7.021  22.942  1.00  0.00     0.111 C 
HETATM    2  C4  UNL     1      12.903   8.127  23.190  1.00  0.00     0.049 C 
HETATM    3  C5  UNL     1      12.145   6.460  21.573  1.00  0.00     0.041 C 
HETATM    4  C6  UNL     1      13.185   5.385  21.662  1.00  0.00     0.015 C 
HETATM    5  C7  UNL     1      12.681   4.250  22.524  1.00  0.00    -0.016 C 
HETATM    6  C8  UNL     1      11.855   3.282  21.683  1.00  0.00     0.018 C 
HETATM    7  C10 UNL     1      11.810   4.712  23.650  1.00  0.00     0.125 C 
HETATM    8  N1  UNL     1      11.974   6.089  23.998  1.00  0.00    -0.404 N 
ATOM      9  H1  UNL     1      12.157   6.382  24.957  1.00  0.00     0.154 HD
ENDROOT
BRANCH   1  10
HETATM   10  C2  UNL     1      10.550   7.707  22.880  1.00  0.00     0.286 C 
HETATM   11  O2  UNL     1       9.754   7.609  23.847  1.00  0.00    -0.262 OA
BRANCH  10  12
HETATM   12  O1  UNL     1      10.145   8.462  21.793  1.00  0.00    -0.325 OA
HETATM   13  C1  UNL     1       9.122   9.419  21.915  1.00  0.00     0.213 C 
ENDBRANCH  10  12
ENDBRANCH   1  10
BRANCH   5  14
HETATM   14  C9  UNL     1      13.892   3.475  23.004  1.00  0.00     0.125 C 
HETATM   15 CL1  UNL     1      15.191   4.651  23.308  1.00  0.00    -0.130 Cl
ENDBRANCH   5  14
TORSDOF 3
ENDMDL
MODEL 2
REMARK VINA RESULT: -5.539242313      3.130      4.823
REMARK  3 active torsions:
REMARK  status: ('A' for Active; 'I' for Inactive)
REMARK    1  A    between atoms: O1_2  and  C2_3 
REMARK    2  A    between atoms: C2_3  and  C3_5 
REMARK    3  A    between atoms: C7_9  and  C9_11 
ROOT
HETATM    1  C3  UNL     1      13.177   4.254  22.355  1.00  0.00     0.111 C 
HETATM    2  C4  UNL     1      14.297   3.702  23.249  1.00  0.00     0.049 C 
HETATM    3  C5  UNL     1      12.000   4.535  23.251  1.00  0.00     0.041 C 
HETATM    4  C6  UNL     1      12.124   5.906  23.842  1.00  0.00     0.015 C 
HETATM    5  C7  UNL     1      12.117   6.946  22.745  1.00  0.00    -0.016 C 
HETATM    6  C8  UNL     1      10.681   7.310  22.380  1.00  0.00     0.018 C 
HETATM    7  C10 UNL     1      12.787   6.477  21.491  1.00  0.00     0.125 C 
HETATM    8  N1  UNL     1      13.688   5.383  21.675  1.00  0.00    -0.404 N 
ATOM      9  H1  UNL     1      14.649   5.415  21.334  1.00  0.00     0.154 HD
ENDROOT
BRANCH   1  10
HETATM   10  C2  UNL     1      12.791   3.138  21.454  1.00  0.00     0.286 C 
HETATM   11  O2  UNL     1      12.758   1.964  21.899  1.00  0.00    -0.262 OA
BRANCH  10  12
HETATM   12  O1  UNL     1      12.457   3.325  20.123  1.00  0.00    -0.325 OA
HETATM   13  C1  UNL     1      12.741   2.342  19.159  1.00  0.00     0.213 C 
ENDBRANCH  10  12
ENDBRANCH   1  10
BRANCH   5  14
HETATM   14  C9  UNL     1      12.749   8.203  23.307  1.00  0.00     0.125 C 
HETATM   15 CL1  UNL     1      11.482   9.450  23.377  1.00  0.00    -0.130 Cl
ENDBRANCH   5  14
TORSDOF 3
ENDMDL
MODEL 3
REMARK VINA RESULT: -5.536623739      0.678      1.167
REMARK  3 active torsions:
REMARK  status: ('A' for Active; 'I' for Inactive)
REMARK    1  A    between atoms: O1_2  and  C2_3 
REMARK    2  A    between atoms: C2_3  and  C3_5 
REMARK    3  A    between atoms: C7_9  and  C9_11 
ROOT
HETATM    1  C3  UNL     1      11.883   6.984  22.977  1.00  0.00     0.111 C 
HETATM    2  C4  UNL     1      12.920   8.098  23.182  1.00  0.00     0.049 C 
HETATM    3  C5  UNL     1      12.112   6.421  21.600  1.00  0.00     0.041 C 
HETATM    4  C6  UNL     1      13.161   5.353  21.651  1.00  0.00     0.015 C 
HETATM    5  C7  UNL     1      12.699   4.217  22.535  1.00  0.00    -0.016 C 
HETATM    6  C8  UNL     1      11.847   3.242  21.729  1.00  0.00     0.018 C 
HETATM    7  C10 UNL     1      11.869   4.677  23.692  1.00  0.00     0.125 C 
HETATM    8  N1  UNL     1      12.037   6.056  24.031  1.00  0.00    -0.404 N 
ATOM      9  H1  UNL     1      12.255   6.353  24.981  1.00  0.00     0.154 HD
ENDROOT
BRANCH   1  10
HETATM   10  C2  UNL     1      10.560   7.661  22.964  1.00  0.00     0.286 C 
HETATM   11  O2  UNL     1      10.281   8.460  22.036  1.00  0.00    -0.262 OA
BRANCH  10  12
HETATM   12  O1  UNL     1       9.599   7.454  23.939  1.00  0.00    -0.325 OA
HETATM   13  C1  UNL     1       9.141   8.512  24.743  1.00  0.00     0.213 C 
ENDBRANCH  10  12
ENDBRANCH   1  10
BRANCH   5  14
HETATM   14  C9  UNL     1      13.932   3.451  22.970  1.00  0.00     0.125 C 
HETATM   15 CL1  UNL     1      15.226   4.640  23.251  1.00  0.00    -0.130 Cl
ENDBRANCH   5  14
TORSDOF 3
ENDMDL
MODEL 4
REMARK VINA RESULT: -5.327030768      3.106      4.828
REMARK  3 active torsions:
REMARK  status: ('A' for Active; 'I' for Inactive)
REMARK    1  A    between atoms: O1_2  and  C2_3 
REMARK    2  A    between atoms: C2_3  and  C3_5 
REMARK    3  A    between atoms: C7_9  and  C9_11 
ROOT
HETATM    1  C3  UNL     1      12.631   4.572  22.271  1.00  0.00     0.111 C 
HETATM    2  C4  UNL     1      11.788   3.581  21.456  1.00  0.00     0.049 C 
HETATM    3  C5  UNL     1      12.802   5.803  21.421  1.00  0.00     0.041 C 
HETATM    4  C6  UNL     1      11.637   6.725  21.614  1.00  0.00     0.015 C 
HETATM    5  C7  UNL     1      11.568   7.175  23.056  1.00  0.00    -0.016 C 
HETATM    6  C8  UNL     1      12.471   8.387  23.268  1.00  0.00     0.018 C 
HETATM    7  C10 UNL     1      12.011   6.120  24.020  1.00  0.00     0.125 C 
HETATM    8  N1  UNL     1      11.970   4.788  23.501  1.00  0.00    -0.404 N 
ATOM      9  H1  UNL     1      11.489   4.035  23.992  1.00  0.00     0.154 HD
ENDROOT
BRANCH   1  10
HETATM   10  C2  UNL     1      13.970   3.944  22.414  1.00  0.00     0.286 C 
HETATM   11  O2  UNL     1      14.055   2.719  22.675  1.00  0.00    -0.262 OA
BRANCH  10  12
HETATM   12  O1  UNL     1      15.152   4.650  22.272  1.00  0.00    -0.325 OA
HETATM   13  C1  UNL     1      15.873   5.092  23.395  1.00  0.00     0.213 C 
ENDBRANCH  10  12
ENDBRANCH   1  10
BRANCH   5  14
HETATM   14  C9  UNL     1      10.151   7.645  23.316  1.00  0.00     0.125 C 
HETATM   15 CL1  UNL     1       9.611   6.892  24.834  1.00  0.00    -0.130 Cl
ENDBRANCH   5  14
TORSDOF 3
ENDMDL
MODEL 5
REMARK VINA RESULT: -5.242021198      5.910      7.839
REMARK  3 active torsions:
REMARK  status: ('A' for Active; 'I' for Inactive)
REMARK    1  A    between atoms: O1_2  and  C2_3 
REMARK    2  A    between atoms: C2_3  and  C3_5 
REMARK    3  A    between atoms: C7_9  and  C9_11 
ROOT
HETATM    1  C3  UNL     1       8.251   6.234  27.345  1.00  0.00     0.111 C 
HETATM    2  C4  UNL     1       9.181   5.657  26.268  1.00  0.00     0.049 C 
HETATM    3  C5  UNL     1       8.899   7.495  27.853  1.00  0.00     0.041 C 
HETATM    4  C6  UNL     1       8.514   8.653  26.984  1.00  0.00     0.015 C 
HETATM    5  C7  UNL     1       7.018   8.861  27.031  1.00  0.00    -0.016 C 
HETATM    6  C8  UNL     1       6.649   9.729  28.231  1.00  0.00     0.018 C 
HETATM    7  C10 UNL     1       6.254   7.581  27.161  1.00  0.00     0.125 C 
HETATM    8  N1  UNL     1       6.978   6.416  26.760  1.00  0.00    -0.404 N 
ATOM      9  H1  UNL     1       6.596   5.751  26.087  1.00  0.00     0.154 HD
ENDROOT
BRANCH   1  10
HETATM   10  C2  UNL     1       8.263   5.251  28.459  1.00  0.00     0.286 C 
HETATM   11  O2  UNL     1       7.313   4.438  28.579  1.00  0.00    -0.262 OA
BRANCH  10  12
HETATM   12  O1  UNL     1       9.284   5.181  29.391  1.00  0.00    -0.325 OA
HETATM   13  C1  UNL     1       9.988   3.983  29.608  1.00  0.00     0.213 C 
ENDBRANCH  10  12
ENDBRANCH   1  10
BRANCH   5  14
HETATM   14  C9  UNL     1       6.630   9.649  25.796  1.00  0.00     0.125 C 
HETATM   15 CL1  UNL     1       7.521   8.955  24.421  1.00  0.00    -0.130 Cl
ENDBRANCH   5  14
TORSDOF 3
ENDMDL
