MODEL 1
REMARK VINA RESULT: -7.470545143      0.000      0.000
REMARK  2 active torsions:
REMARK  status: ('A' for Active; 'I' for Inactive)
REMARK    1  A    between atoms: O1_2  and  C2_3 
REMARK    2  A    between atoms: C2_3  and  C3_5 
ROOT
HETATM    1  C3  UNL     1      11.900   4.869  24.048  1.00  0.00     0.053 C 
HETATM    2  C4  UNL     1      11.559   3.683  23.225  1.00  0.00     0.022 C 
HETATM    3  C5  UNL     1      11.861   3.753  21.789  1.00  0.00     0.026 C 
HETATM    4  C6  UNL     1      13.089   4.500  21.399  1.00  0.00     0.080 C 
HETATM    5  C7  UNL     1      12.701   5.965  21.153  1.00  0.00     0.029 C 
HETATM    6  C8  UNL     1      12.647   6.697  22.474  1.00  0.00    -0.007 C 
HETATM    7  C9  UNL     1      14.032   6.651  23.066  1.00  0.00     0.071 C 
HETATM    8  C10 UNL     1      14.304   5.171  23.374  1.00  0.00     0.173 C 
HETATM    9  F1  UNL     1      15.585   5.105  23.882  1.00  0.00    -0.220 F 
HETATM   10  C11 UNL     1      13.368   4.804  24.494  1.00  0.00     0.086 C 
HETATM   11  N1  UNL     1      14.198   4.370  22.239  1.00  0.00    -0.384 N 
ATOM     12  H1  UNL     1      14.928   3.691  22.021  1.00  0.00     0.156 HD
HETATM   13  C12 UNL     1      11.581   6.182  23.379  1.00  0.00     0.025 C 
ENDROOT
BRANCH   1  14
HETATM   14  C2  UNL     1      11.113   4.802  25.307  1.00  0.00     0.267 C 
HETATM   15  O2  UNL     1      11.706   4.534  26.381  1.00  0.00    -0.264 OA
BRANCH  14  16
HETATM   16  O1  UNL     1       9.746   5.023  25.352  1.00  0.00    -0.326 OA
HETATM   17  C1  UNL     1       9.238   5.886  26.350  1.00  0.00     0.213 C 
ENDBRANCH  14  16
ENDBRANCH   1  14
TORSDOF 2
ENDMDL
MODEL 2
REMARK VINA RESULT: -7.459279059      0.608      1.022
REMARK  2 active torsions:
REMARK  status: ('A' for Active; 'I' for Inactive)
REMARK    1  A    between atoms: O1_2  and  C2_3 
REMARK    2  A    between atoms: C2_3  and  C3_5 
ROOT
HETATM    1  C3  UNL     1      11.893   4.853  24.055  1.00  0.00     0.053 C 
HETATM    2  C4  UNL     1      11.565   3.669  23.223  1.00  0.00     0.022 C 
HETATM    3  C5  UNL     1      11.862   3.754  21.788  1.00  0.00     0.026 C 
HETATM    4  C6  UNL     1      13.081   4.519  21.401  1.00  0.00     0.080 C 
HETATM    5  C7  UNL     1      12.676   5.981  21.167  1.00  0.00     0.029 C 
HETATM    6  C8  UNL     1      12.616   6.701  22.494  1.00  0.00    -0.007 C 
HETATM    7  C9  UNL     1      14.002   6.667  23.084  1.00  0.00     0.071 C 
HETATM    8  C10 UNL     1      14.292   5.188  23.379  1.00  0.00     0.173 C 
HETATM    9  F1  UNL     1      15.575   5.132  23.885  1.00  0.00    -0.220 F 
HETATM   10  C11 UNL     1      13.362   4.801  24.497  1.00  0.00     0.086 C 
HETATM   11  N1  UNL     1      14.193   4.395  22.238  1.00  0.00    -0.384 N 
ATOM     12  H1  UNL     1      14.930   3.726  22.014  1.00  0.00     0.156 HD
HETATM   13  C12 UNL     1      11.558   6.167  23.397  1.00  0.00     0.025 C 
ENDROOT
BRANCH   1  14
HETATM   14  C2  UNL     1      11.109   4.766  25.315  1.00  0.00     0.267 C 
HETATM   15  O2  UNL     1       9.866   4.938  25.270  1.00  0.00    -0.264 OA
BRANCH  14  16
HETATM   16  O1  UNL     1      11.688   4.502  26.545  1.00  0.00    -0.326 OA
HETATM   17  C1  UNL     1      10.852   4.454  27.685  1.00  0.00     0.213 C 
ENDBRANCH  14  16
ENDBRANCH   1  14
TORSDOF 2
ENDMDL
MODEL 3
REMARK VINA RESULT: -7.315106318      2.226      3.502
REMARK  2 active torsions:
REMARK  status: ('A' for Active; 'I' for Inactive)
REMARK    1  A    between atoms: O1_2  and  C2_3 
REMARK    2  A    between atoms: C2_3  and  C3_5 
ROOT
HETATM    1  C3  UNL     1      12.308   6.422  22.734  1.00  0.00     0.053 C 
HETATM    2  C4  UNL     1      13.650   7.051  22.809  1.00  0.00     0.022 C 
HETATM    3  C5  UNL     1      14.750   6.227  23.326  1.00  0.00     0.026 C 
HETATM    4  C6  UNL     1      14.715   4.776  22.988  1.00  0.00     0.080 C 
HETATM    5  C7  UNL     1      13.951   4.042  24.099  1.00  0.00     0.029 C 
HETATM    6  C8  UNL     1      12.466   4.161  23.847  1.00  0.00    -0.007 C 
HETATM    7  C9  UNL     1      12.181   3.485  22.531  1.00  0.00     0.071 C 
HETATM    8  C10 UNL     1      12.895   4.331  21.466  1.00  0.00     0.173 C 
HETATM    9  F1  UNL     1      12.677   3.705  20.256  1.00  0.00    -0.220 F 
HETATM   10  C11 UNL     1      12.158   5.643  21.420  1.00  0.00     0.086 C 
HETATM   11  N1  UNL     1      14.262   4.439  21.709  1.00  0.00    -0.384 N 
ATOM     12  H1  UNL     1      14.931   4.272  20.957  1.00  0.00     0.156 HD
HETATM   13  C12 UNL     1      11.974   5.565  23.928  1.00  0.00     0.025 C 
ENDROOT
BRANCH   1  14
HETATM   14  C2  UNL     1      11.292   7.504  22.658  1.00  0.00     0.267 C 
HETATM   15  O2  UNL     1      10.853   7.847  21.532  1.00  0.00    -0.264 OA
BRANCH  14  16
HETATM   16  O1  UNL     1      10.803   8.157  23.777  1.00  0.00    -0.326 OA
HETATM   17  C1  UNL     1       9.408   8.374  23.872  1.00  0.00     0.213 C 
ENDBRANCH  14  16
ENDBRANCH   1  14
TORSDOF 2
ENDMDL
MODEL 4
REMARK VINA RESULT: -7.271697842      1.616      2.675
REMARK  2 active torsions:
REMARK  status: ('A' for Active; 'I' for Inactive)
REMARK    1  A    between atoms: O1_2  and  C2_3 
REMARK    2  A    between atoms: C2_3  and  C3_5 
ROOT
HETATM    1  C3  UNL     1      11.683   5.109  24.243  1.00  0.00     0.053 C 
HETATM    2  C4  UNL     1      11.483   6.484  23.721  1.00  0.00     0.022 C 
HETATM    3  C5  UNL     1      12.572   7.066  22.927  1.00  0.00     0.026 C 
HETATM    4  C6  UNL     1      13.339   6.131  22.056  1.00  0.00     0.080 C 
HETATM    5  C7  UNL     1      14.527   5.589  22.863  1.00  0.00     0.029 C 
HETATM    6  C8  UNL     1      14.062   4.440  23.727  1.00  0.00    -0.007 C 
HETATM    7  C9  UNL     1      13.566   3.358  22.803  1.00  0.00     0.071 C 
HETATM    8  C10 UNL     1      12.325   3.941  22.110  1.00  0.00     0.173 C 
HETATM    9  F1  UNL     1      11.878   2.977  21.230  1.00  0.00    -0.220 F 
HETATM   10  C11 UNL     1      11.278   4.074  23.184  1.00  0.00     0.086 C 
HETATM   11  N1  UNL     1      12.610   5.120  21.424  1.00  0.00    -0.384 N 
ATOM     12  H1  UNL     1      12.289   5.244  20.464  1.00  0.00     0.156 HD
HETATM   13  C12 UNL     1      13.074   4.856  24.763  1.00  0.00     0.025 C 
ENDROOT
BRANCH   1  14
HETATM   14  C2  UNL     1      10.735   4.898  25.368  1.00  0.00     0.267 C 
HETATM   15  O2  UNL     1       9.530   5.213  25.215  1.00  0.00    -0.264 OA
BRANCH  14  16
HETATM   16  O1  UNL     1      11.122   4.365  26.587  1.00  0.00    -0.326 OA
HETATM   17  C1  UNL     1      10.714   5.026  27.769  1.00  0.00     0.213 C 
ENDBRANCH  14  16
ENDBRANCH   1  14
TORSDOF 2
ENDMDL
MODEL 5
REMARK VINA RESULT: -7.248290818      2.556      4.021
REMARK  2 active torsions:
REMARK  status: ('A' for Active; 'I' for Inactive)
REMARK    1  A    between atoms: O1_2  and  C2_3 
REMARK    2  A    between atoms: C2_3  and  C3_5 
ROOT
HETATM    1  C3  UNL     1      12.830   4.243  21.849  1.00  0.00     0.053 C 
HETATM    2  C4  UNL     1      12.525   5.415  20.992  1.00  0.00     0.022 C 
HETATM    3  C5  UNL     1      12.005   6.616  21.659  1.00  0.00     0.026 C 
HETATM    4  C6  UNL     1      12.536   6.910  23.020  1.00  0.00     0.080 C 
HETATM    5  C7  UNL     1      11.625   6.226  24.049  1.00  0.00     0.029 C 
HETATM    6  C8  UNL     1      12.021   4.774  24.181  1.00  0.00    -0.007 C 
HETATM    7  C9  UNL     1      13.439   4.743  24.689  1.00  0.00     0.071 C 
HETATM    8  C10 UNL     1      14.296   5.350  23.567  1.00  0.00     0.173 C 
HETATM    9  F1  UNL     1      15.595   5.365  24.030  1.00  0.00    -0.220 F 
HETATM   10  C11 UNL     1      14.245   4.364  22.431  1.00  0.00     0.086 C 
HETATM   11  N1  UNL     1      13.890   6.642  23.237  1.00  0.00    -0.384 N 
ATOM     12  H1  UNL     1      14.580   7.389  23.155  1.00  0.00     0.156 HD
HETATM   13  C12 UNL     1      11.806   3.998  22.927  1.00  0.00     0.025 C 
ENDROOT
BRANCH   1  14
HETATM   14  C2  UNL     1      12.872   3.035  20.984  1.00  0.00     0.267 C 
HETATM   15  O2  UNL     1      12.748   1.904  21.514  1.00  0.00    -0.264 OA
BRANCH  14  16
HETATM   16  O1  UNL     1      13.042   3.099  19.611  1.00  0.00    -0.326 OA
HETATM   17  C1  UNL     1      12.570   2.022  18.824  1.00  0.00     0.213 C 
ENDBRANCH  14  16
ENDBRANCH   1  14
TORSDOF 2
ENDMDL
