MODEL 1
REMARK VINA RESULT: -5.944758122      0.000      0.000
REMARK  2 active torsions:
REMARK  status: ('A' for Active; 'I' for Inactive)
REMARK    1  A    between atoms: C2_2  and  C4_5 
REMARK    2  A    between atoms: C5_12  and  N4_13 
ROOT
HETATM    1  C4  UNL     1      13.719   6.245  22.935  1.00  0.00     0.095 A 
HETATM    2  N1  UNL     1      14.771   6.933  23.473  1.00  0.00    -0.285 N 
ATOM      3  H1  UNL     1      14.717   7.881  23.845  1.00  0.00     0.188 HD
HETATM    4  N2  UNL     1      15.868   6.197  23.444  1.00  0.00    -0.241 N 
ATOM      5  H2  UNL     1      16.792   6.466  23.781  1.00  0.00     0.208 HD
HETATM    6  N3  UNL     1      15.534   5.049  22.896  1.00  0.00    -0.269 N 
ATOM      7  H3  UNL     1      16.178   4.273  22.740  1.00  0.00     0.190 HD
HETATM    8  C5  UNL     1      14.206   5.037  22.564  1.00  0.00     0.145 A 
ENDROOT
BRANCH   8   9
HETATM    9  N4  UNL     1      13.548   3.965  21.957  1.00  0.00    -0.364 N 
HETATM   10  C6  UNL     1      13.224   3.778  20.574  1.00  0.00     0.124 C 
HETATM   11  C7  UNL     1      11.835   3.128  20.628  1.00  0.00     0.021 C 
HETATM   12  C8  UNL     1      11.760   2.457  21.984  1.00  0.00     0.021 C 
HETATM   13  C9  UNL     1      13.056   2.799  22.658  1.00  0.00     0.124 C 
ENDBRANCH   8   9
BRANCH   1  14
HETATM   14  C2  UNL     1      12.373   6.807  22.842  1.00  0.00     0.077 C 
HETATM   15  C1  UNL     1      12.362   8.284  23.286  1.00  0.00     0.039 C 
HETATM   16  C3  UNL     1      11.422   6.142  23.847  1.00  0.00     0.039 C 
HETATM   17 CL1  UNL     1      11.688   6.706  21.222  1.00  0.00    -0.113 Cl
ENDBRANCH   1  14
TORSDOF 2
ENDMDL
MODEL 2
REMARK VINA RESULT: -5.732255598      2.405      4.212
REMARK  2 active torsions:
REMARK  status: ('A' for Active; 'I' for Inactive)
REMARK    1  A    between atoms: C2_2  and  C4_5 
REMARK    2  A    between atoms: C5_12  and  N4_13 
ROOT
HETATM    1  C4  UNL     1      12.596   5.453  22.544  1.00  0.00     0.095 A 
HETATM    2  N1  UNL     1      13.240   6.429  21.834  1.00  0.00    -0.285 N 
ATOM      3  H1  UNL     1      13.826   6.261  21.016  1.00  0.00     0.188 HD
HETATM    4  N2  UNL     1      12.997   7.617  22.356  1.00  0.00    -0.241 N 
ATOM      5  H2  UNL     1      13.351   8.514  22.024  1.00  0.00     0.208 HD
HETATM    6  N3  UNL     1      12.207   7.418  23.390  1.00  0.00    -0.269 N 
ATOM      7  H3  UNL     1      11.847   8.156  23.995  1.00  0.00     0.190 HD
HETATM    8  C5  UNL     1      11.933   6.084  23.542  1.00  0.00     0.145 A 
ENDROOT
BRANCH   8   9
HETATM    9  N4  UNL     1      11.132   5.548  24.551  1.00  0.00    -0.364 N 
HETATM   10  C6  UNL     1       9.747   5.791  24.822  1.00  0.00     0.124 C 
HETATM   11  C7  UNL     1       9.691   5.817  26.355  1.00  0.00     0.021 C 
HETATM   12  C8  UNL     1      10.882   5.000  26.811  1.00  0.00     0.021 C 
HETATM   13  C9  UNL     1      11.588   4.604  25.548  1.00  0.00     0.124 C 
ENDBRANCH   8   9
BRANCH   1  14
HETATM   14  C2  UNL     1      12.675   4.037  22.190  1.00  0.00     0.077 C 
HETATM   15  C1  UNL     1      13.854   3.355  22.915  1.00  0.00     0.039 C 
HETATM   16  C3  UNL     1      13.032   3.852  20.709  1.00  0.00     0.039 C 
HETATM   17 CL1  UNL     1      11.202   3.145  22.561  1.00  0.00    -0.113 Cl
ENDBRANCH   1  14
TORSDOF 2
ENDMDL
MODEL 3
REMARK VINA RESULT: -5.674744818      2.226      3.240
REMARK  2 active torsions:
REMARK  status: ('A' for Active; 'I' for Inactive)
REMARK    1  A    between atoms: C2_2  and  C4_5 
REMARK    2  A    between atoms: C5_12  and  N4_13 
ROOT
HETATM    1  C4  UNL     1      11.615   6.351  23.780  1.00  0.00     0.095 A 
HETATM    2  N1  UNL     1      11.033   7.587  23.721  1.00  0.00    -0.285 N 
ATOM      3  H1  UNL     1      10.174   7.848  24.206  1.00  0.00     0.188 HD
HETATM    4  N2  UNL     1      11.738   8.394  22.950  1.00  0.00    -0.241 N 
ATOM      5  H2  UNL     1      11.530   9.369  22.734  1.00  0.00     0.208 HD
HETATM    6  N3  UNL     1      12.763   7.693  22.514  1.00  0.00    -0.269 N 
ATOM      7  H3  UNL     1      13.488   8.053  21.893  1.00  0.00     0.190 HD
HETATM    8  C5  UNL     1      12.724   6.416  23.007  1.00  0.00     0.145 A 
ENDROOT
BRANCH   8   9
HETATM    9  N4  UNL     1      13.666   5.425  22.722  1.00  0.00    -0.364 N 
HETATM   10  C6  UNL     1      13.568   4.333  21.801  1.00  0.00     0.124 C 
HETATM   11  C7  UNL     1      14.262   3.187  22.547  1.00  0.00     0.021 C 
HETATM   12  C8  UNL     1      15.207   3.859  23.522  1.00  0.00     0.021 C 
HETATM   13  C9  UNL     1      14.970   5.329  23.340  1.00  0.00     0.124 C 
ENDBRANCH   8   9
BRANCH   1  14
HETATM   14  C2  UNL     1      11.059   5.253  24.569  1.00  0.00     0.077 C 
HETATM   15  C1  UNL     1       9.758   5.688  25.277  1.00  0.00     0.039 C 
HETATM   16  C3  UNL     1      11.979   4.888  25.742  1.00  0.00     0.039 C 
HETATM   17 CL1  UNL     1      10.719   3.813  23.613  1.00  0.00    -0.113 Cl
ENDBRANCH   1  14
TORSDOF 2
ENDMDL
MODEL 4
REMARK VINA RESULT: -5.633682176      1.907      4.052
REMARK  2 active torsions:
REMARK  status: ('A' for Active; 'I' for Inactive)
REMARK    1  A    between atoms: C2_2  and  C4_5 
REMARK    2  A    between atoms: C5_12  and  N4_13 
ROOT
HETATM    1  C4  UNL     1      13.229   5.301  22.797  1.00  0.00     0.095 A 
HETATM    2  N1  UNL     1      14.591   5.356  22.909  1.00  0.00    -0.285 N 
ATOM      3  H1  UNL     1      15.218   4.565  22.765  1.00  0.00     0.188 HD
HETATM    4  N2  UNL     1      14.980   6.577  23.229  1.00  0.00    -0.241 N 
ATOM      5  H2  UNL     1      15.938   6.894  23.374  1.00  0.00     0.208 HD
HETATM    6  N3  UNL     1      13.888   7.305  23.324  1.00  0.00    -0.269 N 
ATOM      7  H3  UNL     1      13.872   8.297  23.560  1.00  0.00     0.190 HD
HETATM    8  C5  UNL     1      12.776   6.549  23.063  1.00  0.00     0.145 A 
ENDROOT
BRANCH   8   9
HETATM    9  N4  UNL     1      11.465   7.028  23.092  1.00  0.00    -0.364 N 
HETATM   10  C6  UNL     1      10.768   7.796  22.105  1.00  0.00     0.124 C 
HETATM   11  C7  UNL     1       9.942   8.777  22.946  1.00  0.00     0.021 C 
HETATM   12  C8  UNL     1       9.766   8.100  24.290  1.00  0.00     0.021 C 
HETATM   13  C9  UNL     1      10.537   6.818  24.182  1.00  0.00     0.124 C 
ENDBRANCH   8   9
BRANCH   1  14
HETATM   14  C2  UNL     1      12.515   4.076  22.442  1.00  0.00     0.077 C 
HETATM   15  C1  UNL     1      13.472   2.866  22.429  1.00  0.00     0.039 C 
HETATM   16  C3  UNL     1      12.009   4.126  20.993  1.00  0.00     0.039 C 
HETATM   17 CL1  UNL     1      11.174   3.715  23.526  1.00  0.00    -0.113 Cl
ENDBRANCH   1  14
TORSDOF 2
ENDMDL
MODEL 5
REMARK VINA RESULT: -5.627955925      2.724      3.532
REMARK  2 active torsions:
REMARK  status: ('A' for Active; 'I' for Inactive)
REMARK    1  A    between atoms: C2_2  and  C4_5 
REMARK    2  A    between atoms: C5_12  and  N4_13 
ROOT
HETATM    1  C4  UNL     1      10.777   6.599  23.928  1.00  0.00     0.095 A 
HETATM    2  N1  UNL     1       9.724   6.972  24.718  1.00  0.00    -0.285 N 
ATOM      3  H1  UNL     1       9.238   7.866  24.655  1.00  0.00     0.188 HD
HETATM    4  N2  UNL     1       9.426   6.010  25.574  1.00  0.00    -0.241 N 
ATOM      5  H2  UNL     1       8.686   6.026  26.275  1.00  0.00     0.208 HD
HETATM    6  N3  UNL     1      10.271   5.029  25.344  1.00  0.00    -0.269 N 
ATOM      7  H3  UNL     1      10.285   4.145  25.853  1.00  0.00     0.190 HD
HETATM    8  C5  UNL     1      11.129   5.354  24.327  1.00  0.00     0.145 A 
ENDROOT
BRANCH   8   9
HETATM    9  N4  UNL     1      12.149   4.527  23.852  1.00  0.00    -0.364 N 
HETATM   10  C6  UNL     1      13.556   4.599  24.109  1.00  0.00     0.124 C 
HETATM   11  C7  UNL     1      14.176   4.234  22.754  1.00  0.00     0.021 C 
HETATM   12  C8  UNL     1      13.122   3.412  22.041  1.00  0.00     0.021 C 
HETATM   13  C9  UNL     1      11.946   3.396  22.973  1.00  0.00     0.124 C 
ENDBRANCH   8   9
BRANCH   1  14
HETATM   14  C2  UNL     1      11.321   7.461  22.881  1.00  0.00     0.077 C 
HETATM   15  C1  UNL     1      12.632   8.130  23.345  1.00  0.00     0.039 C 
HETATM   16  C3  UNL     1      10.402   8.662  22.614  1.00  0.00     0.039 C 
HETATM   17 CL1  UNL     1      11.635   6.608  21.372  1.00  0.00    -0.113 Cl
ENDBRANCH   1  14
TORSDOF 2
ENDMDL
