MODEL 1
REMARK VINA RESULT: -4.169743208      0.000      0.000
REMARK  4 active torsions:
REMARK  status: ('A' for Active; 'I' for Inactive)
REMARK    1  A    between atoms: N1_2  and  C2_5 
REMARK    2  A    between atoms: C2_5  and  C3_6 
REMARK    3  A    between atoms: C5_12  and  N4_13 
REMARK    4  A    between atoms: N4_13  and  N5_14 
ROOT
HETATM    1  C3  UNL     1     117.020  35.274  30.062  1.00  0.00     0.090 C 
HETATM    2  N2  UNL     1     116.682  36.058  31.108  1.00  0.00    -0.327 N 
HETATM    3  C4  UNL     1     115.514  36.653  31.516  1.00  0.00     0.363 C 
HETATM    4  N3  UNL     1     116.298  37.257  32.643  1.00  0.00    -0.022 N 
ATOM      5  H31 UNL     1     115.918  37.297  33.589  1.00  0.00     0.283 HD
ATOM      6  H32 UNL     1     116.462  38.262  32.692  1.00  0.00     0.283 HD
HETATM    7  C5  UNL     1     117.400  36.311  32.291  1.00  0.00     0.403 C 
ENDROOT
BRANCH   1   8
HETATM    8  C2  UNL     1     117.053  35.847  28.667  1.00  0.00     0.276 C 
BRANCH   8   9
HETATM    9  N1  UNL     1     117.295  34.861  27.643  1.00  0.00    -0.075 N 
HETATM   10  C1  UNL     1     116.077  34.080  27.354  1.00  0.00     0.267 C 
ATOM     11  H12 UNL     1     118.080  34.256  27.882  1.00  0.00     0.277 HD
ATOM     12  H11 UNL     1     117.676  35.286  26.797  1.00  0.00     0.277 HD
ENDBRANCH   8   9
ENDBRANCH   1   8
BRANCH   7  13
HETATM   13  N4  UNL     1     117.366  35.154  33.195  1.00  0.00    -0.093 NA
BRANCH  13  14
HETATM   14  N5  UNL     1     118.653  34.722  33.539  1.00  0.00    -0.345 N 
ATOM     15  H52 UNL     1     119.503  35.193  33.227  1.00  0.00     0.172 HD
ATOM     16  H51 UNL     1     118.631  33.892  34.132  1.00  0.00     0.172 HD
ENDBRANCH  13  14
ENDBRANCH   7  13
TORSDOF 4
ENDMDL
MODEL 2
REMARK VINA RESULT: -3.963995222      4.443      5.654
REMARK  4 active torsions:
REMARK  status: ('A' for Active; 'I' for Inactive)
REMARK    1  A    between atoms: N1_2  and  C2_5 
REMARK    2  A    between atoms: C2_5  and  C3_6 
REMARK    3  A    between atoms: C5_12  and  N4_13 
REMARK    4  A    between atoms: N4_13  and  N5_14 
ROOT
HETATM    1  C3  UNL     1     112.933  36.147  26.324  1.00  0.00     0.090 C 
HETATM    2  N2  UNL     1     113.348  36.618  27.520  1.00  0.00    -0.327 N 
HETATM    3  C4  UNL     1     113.052  36.303  28.823  1.00  0.00     0.363 C 
HETATM    4  N3  UNL     1     113.970  37.419  29.226  1.00  0.00    -0.022 N 
ATOM      5  H31 UNL     1     114.622  37.312  30.003  1.00  0.00     0.283 HD
ATOM      6  H32 UNL     1     113.611  38.261  29.675  1.00  0.00     0.283 HD
HETATM    7  C5  UNL     1     114.450  37.442  27.811  1.00  0.00     0.403 C 
ENDROOT
BRANCH   1   8
HETATM    8  C2  UNL     1     111.521  36.401  25.861  1.00  0.00     0.276 C 
BRANCH   8   9
HETATM    9  N1  UNL     1     111.441  37.045  24.573  1.00  0.00    -0.075 N 
HETATM   10  C1  UNL     1     111.837  36.126  23.489  1.00  0.00     0.267 C 
ATOM     11  H12 UNL     1     111.986  37.907  24.550  1.00  0.00     0.277 HD
ATOM     12  H11 UNL     1     110.515  37.440  24.409  1.00  0.00     0.277 HD
ENDBRANCH   8   9
ENDBRANCH   1   8
BRANCH   7  13
HETATM   13  N4  UNL     1     115.714  36.704  27.704  1.00  0.00    -0.093 NA
BRANCH  13  14
HETATM   14  N5  UNL     1     116.825  37.545  27.848  1.00  0.00    -0.345 N 
ATOM     15  H52 UNL     1     116.750  38.559  27.938  1.00  0.00     0.172 HD
ATOM     16  H51 UNL     1     117.701  37.023  27.850  1.00  0.00     0.172 HD
ENDBRANCH  13  14
ENDBRANCH   7  13
TORSDOF 4
ENDMDL
MODEL 3
REMARK VINA RESULT: -3.933047469      3.878      6.054
REMARK  4 active torsions:
REMARK  status: ('A' for Active; 'I' for Inactive)
REMARK    1  A    between atoms: N1_2  and  C2_5 
REMARK    2  A    between atoms: C2_5  and  C3_6 
REMARK    3  A    between atoms: C5_12  and  N4_13 
REMARK    4  A    between atoms: N4_13  and  N5_14 
ROOT
HETATM    1  C3  UNL     1     115.438  32.887  28.095  1.00  0.00     0.090 C 
HETATM    2  N2  UNL     1     115.662  31.662  28.617  1.00  0.00    -0.327 N 
HETATM    3  C4  UNL     1     115.360  31.068  29.817  1.00  0.00     0.363 C 
HETATM    4  N3  UNL     1     116.095  29.858  29.322  1.00  0.00    -0.022 N 
ATOM      5  H31 UNL     1     115.730  28.918  29.475  1.00  0.00     0.283 HD
ATOM      6  H32 UNL     1     116.972  29.561  29.750  1.00  0.00     0.283 HD
HETATM    7  C5  UNL     1     116.072  30.485  27.966  1.00  0.00     0.403 C 
ENDROOT
BRANCH   1   8
HETATM    8  C2  UNL     1     116.158  34.090  28.651  1.00  0.00     0.276 C 
BRANCH   8   9
HETATM    9  N1  UNL     1     117.136  34.646  27.749  1.00  0.00    -0.075 N 
HETATM   10  C1  UNL     1     117.401  36.064  28.056  1.00  0.00     0.267 C 
ATOM     11  H12 UNL     1     116.863  34.519  26.774  1.00  0.00     0.277 HD
ATOM     12  H11 UNL     1     117.996  34.098  27.744  1.00  0.00     0.277 HD
ENDBRANCH   8   9
ENDBRANCH   1   8
BRANCH   7  13
HETATM   13  N4  UNL     1     114.983  29.906  27.170  1.00  0.00    -0.093 NA
BRANCH  13  14
HETATM   14  N5  UNL     1     115.221  30.023  25.794  1.00  0.00    -0.345 N 
ATOM     15  H52 UNL     1     115.913  29.461  25.297  1.00  0.00     0.172 HD
ATOM     16  H51 UNL     1     114.624  30.729  25.363  1.00  0.00     0.172 HD
ENDBRANCH  13  14
ENDBRANCH   7  13
TORSDOF 4
ENDMDL
MODEL 4
REMARK VINA RESULT: -3.915395777      4.443      6.052
REMARK  4 active torsions:
REMARK  status: ('A' for Active; 'I' for Inactive)
REMARK    1  A    between atoms: N1_2  and  C2_5 
REMARK    2  A    between atoms: C2_5  and  C3_6 
REMARK    3  A    between atoms: C5_12  and  N4_13 
REMARK    4  A    between atoms: N4_13  and  N5_14 
ROOT
HETATM    1  C3  UNL     1     112.949  35.589  25.841  1.00  0.00     0.090 C 
HETATM    2  N2  UNL     1     113.299  34.912  26.955  1.00  0.00    -0.327 N 
HETATM    3  C4  UNL     1     112.759  33.847  27.634  1.00  0.00     0.363 C 
HETATM    4  N3  UNL     1     113.860  34.019  28.637  1.00  0.00    -0.022 N 
ATOM      5  H31 UNL     1     114.353  33.214  29.024  1.00  0.00     0.283 HD
ATOM      6  H32 UNL     1     113.662  34.325  29.590  1.00  0.00     0.283 HD
HETATM    7  C5  UNL     1     114.520  34.930  27.654  1.00  0.00     0.403 C 
ENDROOT
BRANCH   1   8
HETATM    8  C2  UNL     1     111.720  36.464  25.843  1.00  0.00     0.276 C 
BRANCH   8   9
HETATM    9  N1  UNL     1     111.406  37.023  24.551  1.00  0.00    -0.075 N 
HETATM   10  C1  UNL     1     111.827  36.122  23.462  1.00  0.00     0.267 C 
ATOM     11  H12 UNL     1     111.803  37.956  24.440  1.00  0.00     0.277 HD
ATOM     12  H11 UNL     1     110.418  37.263  24.478  1.00  0.00     0.277 HD
ENDBRANCH   8   9
ENDBRANCH   1   8
BRANCH   7  13
HETATM   13  N4  UNL     1     115.565  34.201  26.926  1.00  0.00    -0.093 NA
BRANCH  13  14
HETATM   14  N5  UNL     1     116.840  34.454  27.447  1.00  0.00    -0.345 N 
ATOM     15  H52 UNL     1     117.528  33.720  27.622  1.00  0.00     0.172 HD
ATOM     16  H51 UNL     1     116.989  35.447  27.625  1.00  0.00     0.172 HD
ENDBRANCH  13  14
ENDBRANCH   7  13
TORSDOF 4
ENDMDL
MODEL 5
REMARK VINA RESULT: -3.832792258      3.847      6.546
REMARK  4 active torsions:
REMARK  status: ('A' for Active; 'I' for Inactive)
REMARK    1  A    between atoms: N1_2  and  C2_5 
REMARK    2  A    between atoms: C2_5  and  C3_6 
REMARK    3  A    between atoms: C5_12  and  N4_13 
REMARK    4  A    between atoms: N4_13  and  N5_14 
ROOT
HETATM    1  C3  UNL     1     115.899  32.650  27.804  1.00  0.00     0.090 C 
HETATM    2  N2  UNL     1     115.472  31.819  26.829  1.00  0.00    -0.327 N 
HETATM    3  C4  UNL     1     115.991  31.418  25.623  1.00  0.00     0.363 C 
HETATM    4  N3  UNL     1     114.730  30.631  25.423  1.00  0.00    -0.022 N 
ATOM      5  H31 UNL     1     114.753  29.685  25.039  1.00  0.00     0.283 HD
ATOM      6  H32 UNL     1     114.060  30.883  24.696  1.00  0.00     0.283 HD
HETATM    7  C5  UNL     1     114.432  30.872  26.867  1.00  0.00     0.403 C 
ENDROOT
BRANCH   1   8
HETATM    8  C2  UNL     1     115.961  34.136  27.558  1.00  0.00     0.276 C 
BRANCH   8   9
HETATM    9  N1  UNL     1     117.283  34.692  27.707  1.00  0.00    -0.075 N 
HETATM   10  C1  UNL     1     117.226  36.089  28.177  1.00  0.00     0.267 C 
ATOM     11  H12 UNL     1     117.825  34.609  26.847  1.00  0.00     0.277 HD
ATOM     12  H11 UNL     1     117.865  34.116  28.316  1.00  0.00     0.277 HD
ENDBRANCH   8   9
ENDBRANCH   1   8
BRANCH   7  13
HETATM   13  N4  UNL     1     114.811  29.693  27.655  1.00  0.00    -0.093 NA
BRANCH  13  14
HETATM   14  N5  UNL     1     114.028  29.561  28.809  1.00  0.00    -0.345 N 
ATOM     15  H52 UNL     1     114.066  30.219  29.588  1.00  0.00     0.172 HD
ATOM     16  H51 UNL     1     113.426  28.739  28.769  1.00  0.00     0.172 HD
ENDBRANCH  13  14
ENDBRANCH   7  13
TORSDOF 4
ENDMDL
