MODEL 1
REMARK VINA RESULT: -3.810467746      0.000      0.000
REMARK  5 active torsions:
REMARK  status: ('A' for Active; 'I' for Inactive)
REMARK    1  A    between atoms: N1_1  and  C1_5 
REMARK    2  A    between atoms: C1_5  and  C2_6 
REMARK    3  A    between atoms: C2_6  and  N2_7 
REMARK    4  A    between atoms: N2_7  and  C3_9 
REMARK    5  A    between atoms: C6_15  and  N4_16 
ROOT
HETATM    1  C3  UNL     1     116.057  36.174  30.484  1.00  0.00     0.310 C 
HETATM    2  N3  UNL     1     114.644  36.443  30.366  1.00  0.00    -0.052 N 
ATOM      3  H31 UNL     1     114.034  35.642  30.527  1.00  0.00     0.279 HD
ATOM      4  H32 UNL     1     114.313  36.623  29.419  1.00  0.00     0.279 HD
HETATM    5  C4  UNL     1     114.482  37.544  31.299  1.00  0.00     0.237 C 
HETATM    6  C5  UNL     1     115.101  36.945  32.549  1.00  0.00     0.064 C 
HETATM    7  C6  UNL     1     116.350  36.263  31.942  1.00  0.00     0.234 C 
ENDROOT
BRANCH   1   8
HETATM    8  N2  UNL     1     116.806  36.997  29.619  1.00  0.00    -0.392 N 
ATOM      9  H2  UNL     1     117.089  37.933  29.908  1.00  0.00     0.155 HD
BRANCH   8  10
HETATM   10  C2  UNL     1     117.160  36.493  28.334  1.00  0.00     0.143 C 
BRANCH  10  11
HETATM   11  C1  UNL     1     117.244  34.970  28.465  1.00  0.00     0.248 C 
BRANCH  11  12
HETATM   12  N1  UNL     1     116.758  34.282  27.309  1.00  0.00    -0.078 N 
ATOM     13  H13 UNL     1     116.009  33.636  27.558  1.00  0.00     0.274 HD
ATOM     14  H12 UNL     1     116.237  34.914  26.701  1.00  0.00     0.274 HD
ATOM     15  H11 UNL     1     117.493  33.803  26.791  1.00  0.00     0.274 HD
ENDBRANCH  11  12
ENDBRANCH  10  11
ENDBRANCH   8  10
ENDBRANCH   1   8
BRANCH   7  16
HETATM   16  N4  UNL     1     117.480  37.041  32.322  1.00  0.00    -0.071 N 
ATOM     17  H43 UNL     1     117.747  37.653  31.552  1.00  0.00     0.274 HD
ATOM     18  H42 UNL     1     117.202  37.729  33.022  1.00  0.00     0.274 HD
ATOM     19  H41 UNL     1     118.299  36.529  32.652  1.00  0.00     0.274 HD
ENDBRANCH   7  16
TORSDOF 5
ENDMDL
MODEL 2
REMARK VINA RESULT: -3.797759269      2.845      5.220
REMARK  5 active torsions:
REMARK  status: ('A' for Active; 'I' for Inactive)
REMARK    1  A    between atoms: N1_1  and  C1_5 
REMARK    2  A    between atoms: C1_5  and  C2_6 
REMARK    3  A    between atoms: C2_6  and  N2_7 
REMARK    4  A    between atoms: N2_7  and  C3_9 
REMARK    5  A    between atoms: C6_15  and  N4_16 
ROOT
HETATM    1  C3  UNL     1     115.632  33.695  27.512  1.00  0.00     0.310 C 
HETATM    2  N3  UNL     1     115.229  33.105  28.766  1.00  0.00    -0.052 N 
ATOM      3  H31 UNL     1     114.230  33.155  28.969  1.00  0.00     0.279 HD
ATOM      4  H32 UNL     1     115.518  33.616  29.600  1.00  0.00     0.279 HD
HETATM    5  C4  UNL     1     115.770  31.764  28.640  1.00  0.00     0.237 C 
HETATM    6  C5  UNL     1     115.175  31.345  27.309  1.00  0.00     0.064 C 
HETATM    7  C6  UNL     1     115.387  32.639  26.489  1.00  0.00     0.234 C 
ENDROOT
BRANCH   1   8
HETATM    8  N2  UNL     1     116.933  34.229  27.596  1.00  0.00    -0.392 N 
ATOM      9  H2  UNL     1     117.642  33.983  26.905  1.00  0.00     0.155 HD
BRANCH   8  10
HETATM   10  C2  UNL     1     117.238  35.120  28.665  1.00  0.00     0.143 C 
BRANCH  10  11
HETATM   11  C1  UNL     1     117.222  36.535  28.079  1.00  0.00     0.248 C 
BRANCH  11  12
HETATM   12  N1  UNL     1     116.982  37.544  29.063  1.00  0.00    -0.078 N 
ATOM     13  H13 UNL     1     116.078  37.991  28.913  1.00  0.00     0.274 HD
ATOM     14  H12 UNL     1     116.813  37.128  29.978  1.00  0.00     0.274 HD
ATOM     15  H11 UNL     1     117.727  38.239  29.112  1.00  0.00     0.274 HD
ENDBRANCH  11  12
ENDBRANCH  10  11
ENDBRANCH   8  10
ENDBRANCH   1   8
BRANCH   7  16
HETATM   16  N4  UNL     1     116.440  32.385  25.566  1.00  0.00    -0.071 N 
ATOM     17  H43 UNL     1     116.055  31.986  24.710  1.00  0.00     0.274 HD
ATOM     18  H42 UNL     1     116.806  33.270  25.212  1.00  0.00     0.274 HD
ATOM     19  H41 UNL     1     117.211  31.805  25.897  1.00  0.00     0.274 HD
ENDBRANCH   7  16
TORSDOF 5
ENDMDL
MODEL 3
REMARK VINA RESULT: -3.762981363      2.848      5.266
REMARK  5 active torsions:
REMARK  status: ('A' for Active; 'I' for Inactive)
REMARK    1  A    between atoms: N1_1  and  C1_5 
REMARK    2  A    between atoms: C1_5  and  C2_6 
REMARK    3  A    between atoms: C2_6  and  N2_7 
REMARK    4  A    between atoms: N2_7  and  C3_9 
REMARK    5  A    between atoms: C6_15  and  N4_16 
ROOT
HETATM    1  C3  UNL     1     115.736  33.342  27.918  1.00  0.00     0.310 C 
HETATM    2  N3  UNL     1     116.136  31.988  27.618  1.00  0.00    -0.052 N 
ATOM      3  H31 UNL     1     115.803  31.281  28.273  1.00  0.00     0.279 HD
ATOM      4  H32 UNL     1     117.125  31.786  27.757  1.00  0.00     0.279 HD
HETATM    5  C4  UNL     1     115.659  31.843  26.254  1.00  0.00     0.237 C 
HETATM    6  C5  UNL     1     114.206  32.250  26.420  1.00  0.00     0.064 C 
HETATM    7  C6  UNL     1     114.365  33.478  27.347  1.00  0.00     0.234 C 
ENDROOT
BRANCH   1   8
HETATM    8  N2  UNL     1     116.711  34.267  27.494  1.00  0.00    -0.392 N 
ATOM      9  H2  UNL     1     116.954  34.352  26.507  1.00  0.00     0.155 HD
BRANCH   8  10
HETATM   10  C2  UNL     1     117.349  35.082  28.473  1.00  0.00     0.143 C 
BRANCH  10  11
HETATM   11  C1  UNL     1     117.059  36.537  28.095  1.00  0.00     0.248 C 
BRANCH  11  12
HETATM   12  N1  UNL     1     116.972  37.403  29.229  1.00  0.00    -0.078 N 
ATOM     13  H13 UNL     1     116.010  37.702  29.386  1.00  0.00     0.274 HD
ATOM     14  H12 UNL     1     117.129  36.886  30.095  1.00  0.00     0.274 HD
ATOM     15  H11 UNL     1     117.597  38.206  29.167  1.00  0.00     0.274 HD
ENDBRANCH  11  12
ENDBRANCH  10  11
ENDBRANCH   8  10
ENDBRANCH   1   8
BRANCH   7  16
HETATM   16  N4  UNL     1     114.112  34.636  26.559  1.00  0.00    -0.071 N 
ATOM     17  H43 UNL     1     114.985  35.140  26.402  1.00  0.00     0.274 HD
ATOM     18  H42 UNL     1     113.882  34.357  25.605  1.00  0.00     0.274 HD
ATOM     19  H41 UNL     1     113.403  35.282  26.906  1.00  0.00     0.274 HD
ENDBRANCH   7  16
TORSDOF 5
ENDMDL
MODEL 4
REMARK VINA RESULT: -3.745103453      3.336      5.986
REMARK  5 active torsions:
REMARK  status: ('A' for Active; 'I' for Inactive)
REMARK    1  A    between atoms: N1_1  and  C1_5 
REMARK    2  A    between atoms: C1_5  and  C2_6 
REMARK    3  A    between atoms: C2_6  and  N2_7 
REMARK    4  A    between atoms: N2_7  and  C3_9 
REMARK    5  A    between atoms: C6_15  and  N4_16 
ROOT
HETATM    1  C3  UNL     1     115.325  32.748  26.751  1.00  0.00     0.310 C 
HETATM    2  N3  UNL     1     114.899  32.087  27.961  1.00  0.00    -0.052 N 
ATOM      3  H31 UNL     1     113.910  31.842  27.998  1.00  0.00     0.279 HD
ATOM      4  H32 UNL     1     114.880  32.675  28.794  1.00  0.00     0.279 HD
HETATM    5  C4  UNL     1     115.818  30.964  28.014  1.00  0.00     0.237 C 
HETATM    6  C5  UNL     1     115.608  30.365  26.636  1.00  0.00     0.064 C 
HETATM    7  C6  UNL     1     115.576  31.649  25.775  1.00  0.00     0.234 C 
ENDROOT
BRANCH   1   8
HETATM    8  N2  UNL     1     116.382  33.644  27.005  1.00  0.00    -0.392 N 
ATOM      9  H2  UNL     1     117.288  33.521  26.554  1.00  0.00     0.155 HD
BRANCH   8  10
HETATM   10  C2  UNL     1     116.158  34.726  27.905  1.00  0.00     0.143 C 
BRANCH  10  11
HETATM   11  C1  UNL     1     117.453  35.541  27.946  1.00  0.00     0.248 C 
BRANCH  11  12
HETATM   12  N1  UNL     1     117.226  36.945  28.094  1.00  0.00    -0.078 N 
ATOM     13  H13 UNL     1     117.514  37.451  27.257  1.00  0.00     0.274 HD
ATOM     14  H12 UNL     1     116.228  37.156  28.081  1.00  0.00     0.274 HD
ATOM     15  H11 UNL     1     117.668  37.336  28.925  1.00  0.00     0.274 HD
ENDBRANCH  11  12
ENDBRANCH  10  11
ENDBRANCH   8  10
ENDBRANCH   1   8
BRANCH   7  16
HETATM   16  N4  UNL     1     116.800  31.702  25.052  1.00  0.00    -0.071 N 
ATOM     17  H43 UNL     1     116.836  30.932  24.384  1.00  0.00     0.274 HD
ATOM     18  H42 UNL     1     116.788  32.501  24.417  1.00  0.00     0.274 HD
ATOM     19  H41 UNL     1     117.658  31.716  25.603  1.00  0.00     0.274 HD
ENDBRANCH   7  16
TORSDOF 5
ENDMDL
MODEL 5
REMARK VINA RESULT: -3.673945693      1.845      2.576
REMARK  5 active torsions:
REMARK  status: ('A' for Active; 'I' for Inactive)
REMARK    1  A    between atoms: N1_1  and  C1_5 
REMARK    2  A    between atoms: C1_5  and  C2_6 
REMARK    3  A    between atoms: C2_6  and  N2_7 
REMARK    4  A    between atoms: N2_7  and  C3_9 
REMARK    5  A    between atoms: C6_15  and  N4_16 
ROOT
HETATM    1  C3  UNL     1     116.868  36.340  30.259  1.00  0.00     0.310 C 
HETATM    2  N3  UNL     1     116.478  35.034  29.788  1.00  0.00    -0.052 N 
ATOM      3  H31 UNL     1     117.244  34.376  29.643  1.00  0.00     0.279 HD
ATOM      4  H32 UNL     1     116.144  35.000  28.825  1.00  0.00     0.279 HD
HETATM    5  C4  UNL     1     115.508  34.643  30.795  1.00  0.00     0.237 C 
HETATM    6  C5  UNL     1     116.320  34.849  32.061  1.00  0.00     0.064 C 
HETATM    7  C6  UNL     1     117.005  36.198  31.736  1.00  0.00     0.234 C 
ENDROOT
BRANCH   1   8
HETATM    8  N2  UNL     1     115.994  37.337  29.780  1.00  0.00    -0.392 N 
ATOM      9  H2  UNL     1     115.443  37.900  30.428  1.00  0.00     0.155 HD
BRANCH   8  10
HETATM   10  C2  UNL     1     115.895  37.540  28.374  1.00  0.00     0.143 C 
BRANCH  10  11
HETATM   11  C1  UNL     1     114.405  37.501  28.025  1.00  0.00     0.248 C 
BRANCH  11  12
HETATM   12  N1  UNL     1     113.560  37.512  29.179  1.00  0.00    -0.078 N 
ATOM     13  H13 UNL     1     113.056  38.395  29.253  1.00  0.00     0.274 HD
ATOM     14  H12 UNL     1     112.771  36.878  29.059  1.00  0.00     0.274 HD
ATOM     15  H11 UNL     1     114.062  37.307  30.043  1.00  0.00     0.274 HD
ENDBRANCH  11  12
ENDBRANCH  10  11
ENDBRANCH   8  10
ENDBRANCH   1   8
BRANCH   7  16
HETATM   16  N4  UNL     1     116.376  37.193  32.536  1.00  0.00    -0.071 N 
ATOM     17  H43 UNL     1     116.760  38.109  32.306  1.00  0.00     0.274 HD
ATOM     18  H42 UNL     1     115.409  37.313  32.235  1.00  0.00     0.274 HD
ATOM     19  H41 UNL     1     116.405  37.054  33.546  1.00  0.00     0.274 HD
ENDBRANCH   7  16
TORSDOF 5
ENDMDL
