MODEL 1
REMARK VINA RESULT: -4.596786232      0.000      0.000
REMARK  4 active torsions:
REMARK  status: ('A' for Active; 'I' for Inactive)
REMARK    1  A    between atoms: N1_3  and  C3_5 
REMARK    2  A    between atoms: C3_5  and  C4_6 
REMARK    3  A    between atoms: C4_6  and  N2_7 
REMARK    4  A    between atoms: C6_13  and  N5_14 
ROOT
HETATM    1  C1  UNL     1     117.134  37.491  28.115  1.00  0.00     0.036 C 
HETATM    2  C2  UNL     1     117.275  36.287  28.036  1.00  0.00    -0.006 C 
HETATM    3  N1  UNL     1     117.450  34.902  27.974  1.00  0.00    -0.349 N 
ATOM      4  H1  UNL     1     118.357  34.536  27.686  1.00  0.00     0.169 HD
ENDROOT
BRANCH   3   5
HETATM    5  C3  UNL     1     116.392  33.966  28.301  1.00  0.00     0.152 C 
BRANCH   5   6
HETATM    6  C4  UNL     1     115.361  34.014  27.179  1.00  0.00     0.188 C 
BRANCH   6   7
HETATM    7  N2  UNL     1     115.428  32.721  26.488  1.00  0.00    -0.122 N 
HETATM    8  N3  UNL     1     116.405  32.311  25.682  1.00  0.00    -0.279 N 
HETATM    9  C5  UNL     1     116.115  31.080  25.237  1.00  0.00     0.215 A 
ATOM     10  H3  UNL     1     117.239  32.847  25.441  1.00  0.00     0.188 HD
HETATM   11  N4  UNL     1     114.937  30.693  25.764  1.00  0.00    -0.185 N 
HETATM   12  C6  UNL     1     114.543  31.718  26.524  1.00  0.00     0.693 A 
ATOM     13  H4  UNL     1     114.451  29.809  25.614  1.00  0.00     0.185 HD
BRANCH  12  14
HETATM   14  N5  UNL     1     113.446  31.753  27.217  1.00  0.00    -0.233 N 
ATOM     15  H52 UNL     1     112.722  32.467  27.133  1.00  0.00     0.174 HD
ATOM     16  H51 UNL     1     113.201  31.056  27.921  1.00  0.00     0.174 HD
ENDBRANCH  12  14
ENDBRANCH   6   7
ENDBRANCH   5   6
ENDBRANCH   3   5
TORSDOF 4
ENDMDL
MODEL 2
REMARK VINA RESULT: -4.414147086      3.029      4.845
REMARK  4 active torsions:
REMARK  status: ('A' for Active; 'I' for Inactive)
REMARK    1  A    between atoms: N1_3  and  C3_5 
REMARK    2  A    between atoms: C3_5  and  C4_6 
REMARK    3  A    between atoms: C4_6  and  N2_7 
REMARK    4  A    between atoms: C6_13  and  N5_14 
ROOT
HETATM    1  C1  UNL     1     111.171  36.413  24.705  1.00  0.00     0.036 C 
HETATM    2  C2  UNL     1     111.497  36.399  25.876  1.00  0.00    -0.006 C 
HETATM    3  N1  UNL     1     111.871  36.353  27.220  1.00  0.00    -0.349 N 
ATOM      4  H1  UNL     1     111.146  36.226  27.926  1.00  0.00     0.169 HD
ENDROOT
BRANCH   3   5
HETATM    5  C3  UNL     1     113.249  36.480  27.652  1.00  0.00     0.152 C 
BRANCH   5   6
HETATM    6  C4  UNL     1     113.887  35.097  27.591  1.00  0.00     0.188 C 
BRANCH   6   7
HETATM    7  N2  UNL     1     115.330  35.288  27.778  1.00  0.00    -0.122 N 
HETATM    8  N3  UNL     1     115.925  36.396  28.218  1.00  0.00    -0.279 N 
HETATM    9  C5  UNL     1     117.250  36.194  28.252  1.00  0.00     0.215 A 
ATOM     10  H3  UNL     1     115.450  37.258  28.485  1.00  0.00     0.188 HD
HETATM   11  N4  UNL     1     117.511  34.942  27.829  1.00  0.00    -0.185 N 
HETATM   12  C6  UNL     1     116.317  34.414  27.547  1.00  0.00     0.693 A 
ATOM     13  H4  UNL     1     118.424  34.494  27.743  1.00  0.00     0.185 HD
BRANCH  12  14
HETATM   14  N5  UNL     1     116.120  33.209  27.107  1.00  0.00    -0.233 N 
ATOM     15  H52 UNL     1     115.312  32.629  27.331  1.00  0.00     0.174 HD
ATOM     16  H51 UNL     1     116.766  32.724  26.484  1.00  0.00     0.174 HD
ENDBRANCH  12  14
ENDBRANCH   6   7
ENDBRANCH   5   6
ENDBRANCH   3   5
TORSDOF 4
ENDMDL
MODEL 3
REMARK VINA RESULT: -4.372735815      0.759      1.736
REMARK  4 active torsions:
REMARK  status: ('A' for Active; 'I' for Inactive)
REMARK    1  A    between atoms: N1_3  and  C3_5 
REMARK    2  A    between atoms: C3_5  and  C4_6 
REMARK    3  A    between atoms: C4_6  and  N2_7 
REMARK    4  A    between atoms: C6_13  and  N5_14 
ROOT
HETATM    1  C1  UNL     1     117.113  37.491  28.136  1.00  0.00     0.036 C 
HETATM    2  C2  UNL     1     117.283  36.290  28.066  1.00  0.00    -0.006 C 
HETATM    3  N1  UNL     1     117.488  34.910  28.014  1.00  0.00    -0.349 N 
ATOM      4  H1  UNL     1     118.423  34.561  27.800  1.00  0.00     0.169 HD
ENDROOT
BRANCH   3   5
HETATM    5  C3  UNL     1     116.426  33.952  28.252  1.00  0.00     0.152 C 
BRANCH   5   6
HETATM    6  C4  UNL     1     115.665  33.764  26.945  1.00  0.00     0.188 C 
BRANCH   6   7
HETATM    7  N2  UNL     1     115.393  32.327  26.817  1.00  0.00    -0.122 N 
HETATM    8  N3  UNL     1     114.582  31.610  27.591  1.00  0.00    -0.279 N 
HETATM    9  C5  UNL     1     114.594  30.336  27.171  1.00  0.00     0.215 A 
ATOM     10  H3  UNL     1     114.039  31.970  28.376  1.00  0.00     0.188 HD
HETATM   11  N4  UNL     1     115.423  30.234  26.115  1.00  0.00    -0.185 N 
HETATM   12  C6  UNL     1     115.896  31.468  25.923  1.00  0.00     0.693 A 
ATOM     13  H4  UNL     1     115.642  29.395  25.578  1.00  0.00     0.185 HD
BRANCH  12  14
HETATM   14  N5  UNL     1     116.734  31.808  24.992  1.00  0.00    -0.233 N 
ATOM     15  H52 UNL     1     117.711  32.057  25.146  1.00  0.00     0.174 HD
ATOM     16  H51 UNL     1     116.490  31.856  24.003  1.00  0.00     0.174 HD
ENDBRANCH  12  14
ENDBRANCH   6   7
ENDBRANCH   5   6
ENDBRANCH   3   5
TORSDOF 4
ENDMDL
MODEL 4
REMARK VINA RESULT: -4.267334604      2.888      3.853
REMARK  4 active torsions:
REMARK  status: ('A' for Active; 'I' for Inactive)
REMARK    1  A    between atoms: N1_3  and  C3_5 
REMARK    2  A    between atoms: C3_5  and  C4_6 
REMARK    3  A    between atoms: C4_6  and  N2_7 
REMARK    4  A    between atoms: C6_13  and  N5_14 
ROOT
HETATM    1  C1  UNL     1     117.193  37.380  28.412  1.00  0.00     0.036 C 
HETATM    2  C2  UNL     1     117.205  36.209  28.089  1.00  0.00    -0.006 C 
HETATM    3  N1  UNL     1     117.218  34.855  27.747  1.00  0.00    -0.349 N 
ATOM      4  H1  UNL     1     118.109  34.359  27.747  1.00  0.00     0.169 HD
ENDROOT
BRANCH   3   5
HETATM    5  C3  UNL     1     116.015  34.127  27.393  1.00  0.00     0.152 C 
BRANCH   5   6
HETATM    6  C4  UNL     1     114.903  34.576  28.334  1.00  0.00     0.188 C 
BRANCH   6   7
HETATM    7  N2  UNL     1     113.907  35.272  27.510  1.00  0.00    -0.122 N 
HETATM    8  N3  UNL     1     113.508  34.914  26.291  1.00  0.00    -0.279 N 
HETATM    9  C5  UNL     1     112.594  35.794  25.857  1.00  0.00     0.215 A 
ATOM     10  H3  UNL     1     113.843  34.103  25.772  1.00  0.00     0.188 HD
HETATM   11  N4  UNL     1     112.403  36.728  26.808  1.00  0.00    -0.185 N 
HETATM   12  C6  UNL     1     113.220  36.382  27.806  1.00  0.00     0.693 A 
ATOM     13  H4  UNL     1     111.770  37.529  26.774  1.00  0.00     0.185 HD
BRANCH  12  14
HETATM   14  N5  UNL     1     113.343  37.026  28.926  1.00  0.00    -0.233 N 
ATOM     15  H52 UNL     1     114.069  36.856  29.622  1.00  0.00     0.174 HD
ATOM     16  H51 UNL     1     112.715  37.774  29.218  1.00  0.00     0.174 HD
ENDBRANCH  12  14
ENDBRANCH   6   7
ENDBRANCH   5   6
ENDBRANCH   3   5
TORSDOF 4
ENDMDL
MODEL 5
REMARK VINA RESULT: -4.256381615      2.963      4.145
REMARK  4 active torsions:
REMARK  status: ('A' for Active; 'I' for Inactive)
REMARK    1  A    between atoms: N1_3  and  C3_5 
REMARK    2  A    between atoms: C3_5  and  C4_6 
REMARK    3  A    between atoms: C4_6  and  N2_7 
REMARK    4  A    between atoms: C6_13  and  N5_14 
ROOT
HETATM    1  C1  UNL     1     111.072  36.442  25.103  1.00  0.00     0.036 C 
HETATM    2  C2  UNL     1     111.698  36.463  26.144  1.00  0.00    -0.006 C 
HETATM    3  N1  UNL     1     112.418  36.457  27.340  1.00  0.00    -0.349 N 
ATOM      4  H1  UNL     1     111.913  36.317  28.216  1.00  0.00     0.169 HD
ENDROOT
BRANCH   3   5
HETATM    5  C3  UNL     1     113.856  36.642  27.388  1.00  0.00     0.152 C 
BRANCH   5   6
HETATM    6  C4  UNL     1     114.421  35.648  28.397  1.00  0.00     0.188 C 
BRANCH   6   7
HETATM    7  N2  UNL     1     114.902  34.493  27.628  1.00  0.00    -0.122 N 
HETATM    8  N3  UNL     1     114.145  33.547  27.077  1.00  0.00    -0.279 N 
HETATM    9  C5  UNL     1     114.938  32.658  26.462  1.00  0.00     0.215 A 
ATOM     10  H3  UNL     1     113.126  33.504  27.117  1.00  0.00     0.188 HD
HETATM   11  N4  UNL     1     116.221  33.038  26.620  1.00  0.00    -0.185 N 
HETATM   12  C6  UNL     1     116.165  34.163  27.337  1.00  0.00     0.693 A 
ATOM     13  H4  UNL     1     117.055  32.567  26.267  1.00  0.00     0.185 HD
BRANCH  12  14
HETATM   14  N5  UNL     1     117.195  34.860  27.710  1.00  0.00    -0.233 N 
ATOM     15  H52 UNL     1     118.147  34.503  27.784  1.00  0.00     0.174 HD
ATOM     16  H51 UNL     1     117.146  35.847  27.965  1.00  0.00     0.174 HD
ENDBRANCH  12  14
ENDBRANCH   6   7
ENDBRANCH   5   6
ENDBRANCH   3   5
TORSDOF 4
ENDMDL
