MODEL 1
REMARK VINA RESULT: -4.941339992      0.000      0.000
REMARK  3 active torsions:
REMARK  status: ('A' for Active; 'I' for Inactive)
REMARK    1  A    between atoms: N2_4  and  O1_6 
REMARK    2  A    between atoms: O1_6  and  C1_7 
REMARK    3  A    between atoms: C1_7  and  C2_8 
ROOT
HETATM    1  C2  UNL     1     115.675  37.255  28.352  1.00  0.00     0.154 A 
HETATM    2  N3  UNL     1     115.156  37.543  29.560  1.00  0.00    -0.334 N 
ATOM      3  H3  UNL     1     115.789  37.822  30.309  1.00  0.00     0.168 HD
HETATM    4  C3  UNL     1     113.837  37.477  29.822  1.00  0.00     0.185 A 
HETATM    5  N4  UNL     1     113.004  37.115  28.852  1.00  0.00    -0.318 N 
ATOM      6  H4  UNL     1     111.999  37.056  29.021  1.00  0.00     0.170 HD
HETATM    7  C4  UNL     1     113.519  36.827  27.641  1.00  0.00     0.224 A 
HETATM    8  N5  UNL     1     112.689  36.477  26.716  1.00  0.00    -0.365 N 
ATOM      9  H51 UNL     1     113.079  36.259  25.800  1.00  0.00     0.159 HD
ATOM     10  H52 UNL     1     111.686  36.421  26.891  1.00  0.00     0.159 HD
HETATM   11  O2  UNL     1     114.827  36.901  27.414  1.00  0.00    -0.264 OA
ENDROOT
BRANCH   1  12
HETATM   12  C1  UNL     1     117.102  37.320  28.048  1.00  0.00     0.287 C 
BRANCH  12  13
HETATM   13  O1  UNL     1     117.632  36.186  27.438  1.00  0.00    -0.257 OA
BRANCH  13  14
HETATM   14  N2  UNL     1     117.419  34.900  27.796  1.00  0.00    -0.214 N 
HETATM   15  N1  UNL     1     116.579  34.188  27.159  1.00  0.00    -0.326 N 
ATOM     16  H12 UNL     1     116.073  34.603  26.378  1.00  0.00     0.178 HD
ATOM     17  H11 UNL     1     116.419  33.218  27.429  1.00  0.00     0.178 HD
ATOM     18  H2  UNL     1     117.934  34.499  28.580  1.00  0.00     0.215 HD
ENDBRANCH  13  14
ENDBRANCH  12  13
ENDBRANCH   1  12
TORSDOF 3
ENDMDL
MODEL 2
REMARK VINA RESULT: -4.754802136      3.118      4.074
REMARK  3 active torsions:
REMARK  status: ('A' for Active; 'I' for Inactive)
REMARK    1  A    between atoms: N2_4  and  O1_6 
REMARK    2  A    between atoms: O1_6  and  C1_7 
REMARK    3  A    between atoms: C1_7  and  C2_8 
ROOT
HETATM    1  C2  UNL     1     112.807  35.548  25.899  1.00  0.00     0.154 A 
HETATM    2  N3  UNL     1     111.667  35.978  26.471  1.00  0.00    -0.334 N 
ATOM      3  H3  UNL     1     111.582  35.932  27.486  1.00  0.00     0.168 HD
HETATM    4  C3  UNL     1     110.634  36.467  25.760  1.00  0.00     0.185 A 
HETATM    5  N4  UNL     1     110.734  36.531  24.436  1.00  0.00    -0.318 N 
ATOM      6  H4  UNL     1     109.967  36.897  23.871  1.00  0.00     0.170 HD
HETATM    7  C4  UNL     1     111.873  36.102  23.860  1.00  0.00     0.224 A 
HETATM    8  N5  UNL     1     111.947  36.175  22.574  1.00  0.00    -0.365 N 
ATOM      9  H51 UNL     1     112.809  35.850  22.138  1.00  0.00     0.159 HD
ATOM     10  H52 UNL     1     111.177  36.541  22.014  1.00  0.00     0.159 HD
HETATM   11  O2  UNL     1     112.877  35.624  24.590  1.00  0.00    -0.264 OA
ENDROOT
BRANCH   1  12
HETATM   12  C1  UNL     1     113.939  35.015  26.653  1.00  0.00     0.287 C 
BRANCH  12  13
HETATM   13  O1  UNL     1     114.679  34.034  25.998  1.00  0.00    -0.257 OA
BRANCH  13  14
HETATM   14  N2  UNL     1     115.734  33.350  26.494  1.00  0.00    -0.214 N 
HETATM   15  N1  UNL     1     116.576  33.929  27.252  1.00  0.00    -0.326 N 
ATOM     16  H12 UNL     1     116.441  34.915  27.477  1.00  0.00     0.178 HD
ATOM     17  H11 UNL     1     117.372  33.413  27.626  1.00  0.00     0.178 HD
ATOM     18  H2  UNL     1     115.856  32.364  26.260  1.00  0.00     0.215 HD
ENDBRANCH  13  14
ENDBRANCH  12  13
ENDBRANCH   1  12
TORSDOF 3
ENDMDL
MODEL 3
REMARK VINA RESULT: -4.689662264      2.771      4.893
REMARK  3 active torsions:
REMARK  status: ('A' for Active; 'I' for Inactive)
REMARK    1  A    between atoms: N2_4  and  O1_6 
REMARK    2  A    between atoms: O1_6  and  C1_7 
REMARK    3  A    between atoms: C1_7  and  C2_8 
ROOT
HETATM    1  C2  UNL     1     114.095  34.943  26.690  1.00  0.00     0.154 A 
HETATM    2  N3  UNL     1     114.670  35.328  27.844  1.00  0.00    -0.334 N 
ATOM      3  H3  UNL     1     114.248  36.095  28.368  1.00  0.00     0.168 HD
HETATM    4  C3  UNL     1     115.778  34.744  28.336  1.00  0.00     0.185 A 
HETATM    5  N4  UNL     1     116.335  33.744  27.662  1.00  0.00    -0.318 N 
ATOM      6  H4  UNL     1     117.175  33.282  28.010  1.00  0.00     0.170 HD
HETATM    7  C4  UNL     1     115.762  33.355  26.507  1.00  0.00     0.224 A 
HETATM    8  N5  UNL     1     116.321  32.382  25.869  1.00  0.00    -0.365 N 
ATOM      9  H51 UNL     1     115.888  32.087  24.995  1.00  0.00     0.159 HD
ATOM     10  H52 UNL     1     117.161  31.924  26.223  1.00  0.00     0.159 HD
HETATM   11  O2  UNL     1     114.667  33.952  26.045  1.00  0.00    -0.264 OA
ENDROOT
BRANCH   1  12
HETATM   12  C1  UNL     1     112.892  35.563  26.139  1.00  0.00     0.287 C 
BRANCH  12  13
HETATM   13  O1  UNL     1     112.800  35.550  24.749  1.00  0.00    -0.257 OA
BRANCH  13  14
HETATM   14  N2  UNL     1     111.828  36.111  23.997  1.00  0.00    -0.214 N 
HETATM   15  N1  UNL     1     111.195  37.130  24.422  1.00  0.00    -0.326 N 
ATOM     16  H12 UNL     1     111.434  37.512  25.336  1.00  0.00     0.178 HD
ATOM     17  H11 UNL     1     110.461  37.553  23.854  1.00  0.00     0.178 HD
ATOM     18  H2  UNL     1     111.601  35.717  23.084  1.00  0.00     0.215 HD
ENDBRANCH  13  14
ENDBRANCH  12  13
ENDBRANCH   1  12
TORSDOF 3
ENDMDL
MODEL 4
REMARK VINA RESULT: -4.647964597      8.162      8.894
REMARK  3 active torsions:
REMARK  status: ('A' for Active; 'I' for Inactive)
REMARK    1  A    between atoms: N2_4  and  O1_6 
REMARK    2  A    between atoms: O1_6  and  C1_7 
REMARK    3  A    between atoms: C1_7  and  C2_8 
ROOT
HETATM    1  C2  UNL     1     115.551  28.136  30.741  1.00  0.00     0.154 A 
HETATM    2  N3  UNL     1     114.321  27.972  30.221  1.00  0.00    -0.334 N 
ATOM      3  H3  UNL     1     113.715  27.253  30.618  1.00  0.00     0.168 HD
HETATM    4  C3  UNL     1     113.855  28.716  29.201  1.00  0.00     0.185 A 
HETATM    5  N4  UNL     1     114.636  29.656  28.678  1.00  0.00    -0.318 N 
ATOM      6  H4  UNL     1     114.310  30.235  27.904  1.00  0.00     0.170 HD
HETATM    7  C4  UNL     1     115.868  29.824  29.196  1.00  0.00     0.224 A 
HETATM    8  N5  UNL     1     116.607  30.742  28.671  1.00  0.00    -0.365 N 
ATOM      9  H51 UNL     1     117.540  30.870  29.063  1.00  0.00     0.159 HD
ATOM     10  H52 UNL     1     116.275  31.318  27.897  1.00  0.00     0.159 HD
HETATM   11  O2  UNL     1     116.300  29.072  30.205  1.00  0.00    -0.264 OA
ENDROOT
BRANCH   1  12
HETATM   12  C1  UNL     1     116.075  27.340  31.848  1.00  0.00     0.287 C 
BRANCH  12  13
HETATM   13  O1  UNL     1     117.334  27.716  32.307  1.00  0.00    -0.257 OA
BRANCH  13  14
HETATM   14  N2  UNL     1     118.528  27.277  31.850  1.00  0.00    -0.214 N 
HETATM   15  N1  UNL     1     119.546  27.272  32.614  1.00  0.00    -0.326 N 
ATOM     16  H12 UNL     1     119.443  27.604  33.572  1.00  0.00     0.178 HD
ATOM     17  H11 UNL     1     120.446  26.941  32.268  1.00  0.00     0.178 HD
ATOM     18  H2  UNL     1     118.614  26.948  30.888  1.00  0.00     0.215 HD
ENDBRANCH  13  14
ENDBRANCH  12  13
ENDBRANCH   1  12
TORSDOF 3
ENDMDL
MODEL 5
REMARK VINA RESULT: -4.621268001      2.856      3.614
REMARK  3 active torsions:
REMARK  status: ('A' for Active; 'I' for Inactive)
REMARK    1  A    between atoms: N2_4  and  O1_6 
REMARK    2  A    between atoms: O1_6  and  C1_7 
REMARK    3  A    between atoms: C1_7  and  C2_8 
ROOT
HETATM    1  C2  UNL     1     115.872  34.225  27.274  1.00  0.00     0.154 A 
HETATM    2  N3  UNL     1     117.097  34.570  27.713  1.00  0.00    -0.334 N 
ATOM      3  H3  UNL     1     117.840  33.872  27.684  1.00  0.00     0.168 HD
HETATM    4  C3  UNL     1     117.383  35.796  28.188  1.00  0.00     0.185 A 
HETATM    5  N4  UNL     1     116.421  36.713  28.229  1.00  0.00    -0.318 N 
ATOM      6  H4  UNL     1     116.608  37.651  28.584  1.00  0.00     0.170 HD
HETATM    7  C4  UNL     1     115.194  36.372  27.790  1.00  0.00     0.224 A 
HETATM    8  N5  UNL     1     114.277  37.279  27.840  1.00  0.00    -0.365 N 
ATOM      9  H51 UNL     1     113.349  37.021  27.508  1.00  0.00     0.159 HD
ATOM     10  H52 UNL     1     114.471  38.215  28.195  1.00  0.00     0.159 HD
HETATM   11  O2  UNL     1     114.943  35.151  27.326  1.00  0.00    -0.264 OA
ENDROOT
BRANCH   1  12
HETATM   12  C1  UNL     1     115.543  32.900  26.755  1.00  0.00     0.287 C 
BRANCH  12  13
HETATM   13  O1  UNL     1     116.014  32.629  25.473  1.00  0.00    -0.257 OA
BRANCH  13  14
HETATM   14  N2  UNL     1     116.801  31.595  25.101  1.00  0.00    -0.214 N 
HETATM   15  N1  UNL     1     116.875  30.552  25.826  1.00  0.00    -0.326 N 
ATOM     16  H12 UNL     1     116.333  30.512  26.688  1.00  0.00     0.178 HD
ATOM     17  H11 UNL     1     117.469  29.772  25.544  1.00  0.00     0.178 HD
ATOM     18  H2  UNL     1     117.337  31.651  24.235  1.00  0.00     0.215 HD
ENDBRANCH  13  14
ENDBRANCH  12  13
ENDBRANCH   1  12
TORSDOF 3
ENDMDL
