MODEL 1
REMARK VINA RESULT: -8.149203667      0.000      0.000
REMARK  3 active torsions:
REMARK  status: ('A' for Active; 'I' for Inactive)
REMARK    1  A    between atoms: C4_8  and  C5_9 
REMARK    2  A    between atoms: C5_9  and  C6_10 
REMARK    3  A    between atoms: C6_10  and  C7_11 
ROOT
HETATM    1  C1  UNL     1       7.549  -2.884  36.448  1.00  0.00     0.098 C 
HETATM    2  C2  UNL     1       8.263  -2.103  35.372  1.00  0.00     0.123 A 
HETATM    3  N1  UNL     1       9.314  -2.510  34.642  1.00  0.00    -0.323 N 
ATOM      4  H1  UNL     1       9.780  -3.415  34.716  1.00  0.00     0.169 HD
HETATM    5  C3  UNL     1       9.647  -1.519  33.797  1.00  0.00     0.161 A 
HETATM    6  N2  UNL     1      10.493  -1.116  32.810  1.00  0.00    -0.328 N 
ATOM      7  H2  UNL     1      11.255  -1.677  32.428  1.00  0.00     0.169 HD
HETATM    8  C4  UNL     1      10.179   0.125  32.413  1.00  0.00     0.084 A 
HETATM    9  N4  UNL     1       9.127   0.499  33.160  1.00  0.00    -0.323 N 
ATOM     10  H4  UNL     1       8.657   1.402  33.090  1.00  0.00     0.169 HD
HETATM   11  C12 UNL     1       8.778  -0.483  34.016  1.00  0.00     0.195 A 
HETATM   12  O1  UNL     1       7.979  -0.898  34.968  1.00  0.00    -0.277 OA
ENDROOT
BRANCH   8  13
HETATM   13  C5  UNL     1      10.874   0.911  31.351  1.00  0.00     0.077 C 
BRANCH  13  14
HETATM   14  C6  UNL     1      10.125   0.844  30.041  1.00  0.00     0.012 C 
BRANCH  14  15
HETATM   15  C7  UNL     1      10.911   1.685  29.047  1.00  0.00    -0.011 C 
HETATM   16  C8  UNL     1      10.116   1.944  27.791  1.00  0.00     0.032 C 
HETATM   17  C9  UNL     1      10.681   3.131  27.046  1.00  0.00     0.232 C 
HETATM   18  N3  UNL     1      12.090   3.314  27.284  1.00  0.00    -0.075 N 
HETATM   19  C10 UNL     1      12.413   3.560  28.663  1.00  0.00     0.232 C 
ATOM     20  H32 UNL     1      12.622   2.521  26.924  1.00  0.00     0.277 HD
ATOM     21  H31 UNL     1      12.464   4.053  26.689  1.00  0.00     0.277 HD
HETATM   22  C11 UNL     1      11.359   2.991  29.612  1.00  0.00     0.032 C 
ENDBRANCH  14  15
ENDBRANCH  13  14
ENDBRANCH   8  13
TORSDOF 3
ENDMDL
MODEL 2
REMARK VINA RESULT: -8.148987960      0.731      1.138
REMARK  3 active torsions:
REMARK  status: ('A' for Active; 'I' for Inactive)
REMARK    1  A    between atoms: C4_8  and  C5_9 
REMARK    2  A    between atoms: C5_9  and  C6_10 
REMARK    3  A    between atoms: C6_10  and  C7_11 
ROOT
HETATM    1  C1  UNL     1       7.567  -2.967  36.436  1.00  0.00     0.098 C 
HETATM    2  C2  UNL     1       8.261  -2.154  35.371  1.00  0.00     0.123 A 
HETATM    3  N1  UNL     1       7.989  -0.887  35.016  1.00  0.00    -0.323 N 
ATOM      4  H1  UNL     1       7.265  -0.294  35.424  1.00  0.00     0.169 HD
HETATM    5  C3  UNL     1       8.833  -0.537  34.030  1.00  0.00     0.161 A 
HETATM    6  N2  UNL     1       9.220   0.448  33.176  1.00  0.00    -0.328 N 
ATOM      7  H2  UNL     1       8.801   1.377  33.126  1.00  0.00     0.169 HD
HETATM    8  C4  UNL     1      10.232   0.021  32.409  1.00  0.00     0.084 A 
HETATM    9  N4  UNL     1      10.478  -1.245  32.789  1.00  0.00    -0.323 N 
ATOM     10  H4  UNL     1      11.200  -1.842  32.385  1.00  0.00     0.169 HD
HETATM   11  C12 UNL     1       9.640  -1.615  33.778  1.00  0.00     0.195 A 
HETATM   12  O1  UNL     1       9.244  -2.545  34.612  1.00  0.00    -0.277 OA
ENDROOT
BRANCH   8  13
HETATM   13  C5  UNL     1      10.930   0.811  31.351  1.00  0.00     0.077 C 
BRANCH  13  14
HETATM   14  C6  UNL     1      10.155   0.793  30.053  1.00  0.00     0.012 C 
BRANCH  14  15
HETATM   15  C7  UNL     1      10.926   1.666  29.075  1.00  0.00    -0.011 C 
HETATM   16  C8  UNL     1      10.139   1.907  27.811  1.00  0.00     0.032 C 
HETATM   17  C9  UNL     1      10.674   3.118  27.082  1.00  0.00     0.232 C 
HETATM   18  N3  UNL     1      12.073   3.344  27.338  1.00  0.00    -0.075 N 
HETATM   19  C10 UNL     1      12.371   3.591  28.722  1.00  0.00     0.232 C 
ATOM     20  H32 UNL     1      12.635   2.572  26.980  1.00  0.00     0.277 HD
ATOM     21  H31 UNL     1      12.429   4.099  26.752  1.00  0.00     0.277 HD
HETATM   22  C11 UNL     1      11.324   2.982  29.654  1.00  0.00     0.032 C 
ENDBRANCH  14  15
ENDBRANCH  13  14
ENDBRANCH   8  13
TORSDOF 3
ENDMDL
MODEL 3
REMARK VINA RESULT: -8.061560676      2.506      2.944
REMARK  3 active torsions:
REMARK  status: ('A' for Active; 'I' for Inactive)
REMARK    1  A    between atoms: C4_8  and  C5_9 
REMARK    2  A    between atoms: C5_9  and  C6_10 
REMARK    3  A    between atoms: C6_10  and  C7_11 
ROOT
HETATM    1  C1  UNL     1      14.203  -1.778  36.069  1.00  0.00     0.098 C 
HETATM    2  C2  UNL     1      13.319  -1.197  34.993  1.00  0.00     0.123 A 
HETATM    3  N1  UNL     1      12.102  -1.632  34.626  1.00  0.00    -0.323 N 
ATOM      4  H1  UNL     1      11.603  -2.425  35.030  1.00  0.00     0.169 HD
HETATM    5  C3  UNL     1      11.656  -0.842  33.634  1.00  0.00     0.161 A 
HETATM    6  N2  UNL     1      10.638  -0.587  32.768  1.00  0.00    -0.328 N 
ATOM      7  H2  UNL     1       9.772  -1.123  32.710  1.00  0.00     0.169 HD
HETATM    8  C4  UNL     1      10.939   0.471  32.002  1.00  0.00     0.084 A 
HETATM    9  N4  UNL     1      12.158   0.879  32.395  1.00  0.00    -0.323 N 
ATOM     10  H4  UNL     1      12.661   1.672  31.995  1.00  0.00     0.169 HD
HETATM   11  C12 UNL     1      12.623   0.098  33.391  1.00  0.00     0.195 A 
HETATM   12  O1  UNL     1      13.587  -0.172  34.236  1.00  0.00    -0.277 OA
ENDROOT
BRANCH   8  13
HETATM   13  C5  UNL     1      10.077   1.058  30.934  1.00  0.00     0.077 C 
BRANCH  13  14
HETATM   14  C6  UNL     1      10.452   0.523  29.571  1.00  0.00     0.012 C 
BRANCH  14  15
HETATM   15  C7  UNL     1      10.940   1.712  28.757  1.00  0.00    -0.011 C 
HETATM   16  C8  UNL     1       9.851   2.255  27.864  1.00  0.00     0.032 C 
HETATM   17  C9  UNL     1      10.174   3.669  27.442  1.00  0.00     0.232 C 
HETATM   18  N3  UNL     1      11.591   3.926  27.406  1.00  0.00    -0.075 N 
HETATM   19  C10 UNL     1      12.236   3.769  28.681  1.00  0.00     0.232 C 
ATOM     20  H32 UNL     1      12.044   3.348  26.699  1.00  0.00     0.277 HD
ATOM     21  H31 UNL     1      11.780   4.849  27.017  1.00  0.00     0.277 HD
HETATM   22  C11 UNL     1      11.468   2.822  29.602  1.00  0.00     0.032 C 
ENDBRANCH  14  15
ENDBRANCH  13  14
ENDBRANCH   8  13
TORSDOF 3
ENDMDL
MODEL 4
REMARK VINA RESULT: -7.964120431      2.601      3.134
REMARK  3 active torsions:
REMARK  status: ('A' for Active; 'I' for Inactive)
REMARK    1  A    between atoms: C4_8  and  C5_9 
REMARK    2  A    between atoms: C5_9  and  C6_10 
REMARK    3  A    between atoms: C6_10  and  C7_11 
ROOT
HETATM    1  C1  UNL     1      13.548  -2.120  37.269  1.00  0.00     0.098 C 
HETATM    2  C2  UNL     1      12.988  -1.504  36.011  1.00  0.00     0.123 A 
HETATM    3  N1  UNL     1      11.784  -1.741  35.463  1.00  0.00    -0.323 N 
ATOM      4  H1  UNL     1      11.075  -2.378  35.828  1.00  0.00     0.169 HD
HETATM    5  C3  UNL     1      11.676  -0.994  34.350  1.00  0.00     0.161 A 
HETATM    6  N2  UNL     1      10.886  -0.649  33.298  1.00  0.00    -0.328 N 
ATOM      7  H2  UNL     1       9.950  -1.016  33.124  1.00  0.00     0.169 HD
HETATM    8  C4  UNL     1      11.516   0.244  32.522  1.00  0.00     0.084 A 
HETATM    9  N4  UNL     1      12.712   0.458  33.098  1.00  0.00    -0.323 N 
ATOM     10  H4  UNL     1      13.424   1.093  32.738  1.00  0.00     0.169 HD
HETATM   11  C12 UNL     1      12.840  -0.285  34.217  1.00  0.00     0.195 A 
HETATM   12  O1  UNL     1      13.579  -0.637  35.240  1.00  0.00    -0.277 OA
ENDROOT
BRANCH   8  13
HETATM   13  C5  UNL     1      10.977   0.863  31.275  1.00  0.00     0.077 C 
BRANCH  13  14
HETATM   14  C6  UNL     1      11.769   2.089  30.885  1.00  0.00     0.012 C 
BRANCH  14  15
HETATM   15  C7  UNL     1      11.227   2.548  29.540  1.00  0.00    -0.011 C 
HETATM   16  C8  UNL     1      12.284   3.257  28.730  1.00  0.00     0.032 C 
HETATM   17  C9  UNL     1      11.901   3.277  27.269  1.00  0.00     0.232 C 
HETATM   18  N3  UNL     1      10.474   3.243  27.070  1.00  0.00    -0.075 N 
HETATM   19  C10 UNL     1       9.849   2.060  27.596  1.00  0.00     0.232 C 
ATOM     20  H32 UNL     1      10.037   4.082  27.451  1.00  0.00     0.277 HD
ATOM     21  H31 UNL     1      10.244   3.364  26.084  1.00  0.00     0.277 HD
HETATM   22  C11 UNL     1      10.663   1.432  28.726  1.00  0.00     0.032 C 
ENDBRANCH  14  15
ENDBRANCH  13  14
ENDBRANCH   8  13
TORSDOF 3
ENDMDL
MODEL 5
REMARK VINA RESULT: -7.869835517      2.589      2.982
REMARK  3 active torsions:
REMARK  status: ('A' for Active; 'I' for Inactive)
REMARK    1  A    between atoms: C4_8  and  C5_9 
REMARK    2  A    between atoms: C5_9  and  C6_10 
REMARK    3  A    between atoms: C6_10  and  C7_11 
ROOT
HETATM    1  C1  UNL     1      13.557  -1.947  37.611  1.00  0.00     0.098 C 
HETATM    2  C2  UNL     1      13.006  -1.402  36.317  1.00  0.00     0.123 A 
HETATM    3  N1  UNL     1      13.690  -0.760  35.355  1.00  0.00    -0.323 N 
ATOM      4  H1  UNL     1      14.689  -0.552  35.369  1.00  0.00     0.169 HD
HETATM    5  C3  UNL     1      12.831  -0.440  34.371  1.00  0.00     0.161 A 
HETATM    6  N2  UNL     1      12.680   0.152  33.156  1.00  0.00    -0.328 N 
ATOM      7  H2  UNL     1      13.431   0.589  32.622  1.00  0.00     0.169 HD
HETATM    8  C4  UNL     1      11.401   0.077  32.764  1.00  0.00     0.084 A 
HETATM    9  N4  UNL     1      10.748  -0.569  33.745  1.00  0.00    -0.323 N 
ATOM     10  H4  UNL     1       9.750  -0.781  33.736  1.00  0.00     0.169 HD
HETATM   11  C12 UNL     1      11.594  -0.898  34.742  1.00  0.00     0.195 A 
HETATM   12  O1  UNL     1      11.770  -1.461  35.912  1.00  0.00    -0.277 OA
ENDROOT
BRANCH   8  13
HETATM   13  C5  UNL     1      10.839   0.611  31.487  1.00  0.00     0.077 C 
BRANCH  13  14
HETATM   14  C6  UNL     1      11.628   1.804  30.999  1.00  0.00     0.012 C 
BRANCH  14  15
HETATM   15  C7  UNL     1      11.284   1.979  29.527  1.00  0.00    -0.011 C 
HETATM   16  C8  UNL     1      10.039   1.212  29.155  1.00  0.00     0.032 C 
HETATM   17  C9  UNL     1       9.450   1.755  27.875  1.00  0.00     0.232 C 
HETATM   18  N3  UNL     1      10.444   2.346  27.015  1.00  0.00    -0.075 N 
HETATM   19  C10 UNL     1      11.123   3.465  27.608  1.00  0.00     0.232 C 
ATOM     20  H32 UNL     1      11.113   1.643  26.701  1.00  0.00     0.277 HD
ATOM     21  H31 UNL     1      10.036   2.606  26.118  1.00  0.00     0.277 HD
HETATM   22  C11 UNL     1      11.105   3.407  29.136  1.00  0.00     0.032 C 
ENDBRANCH  14  15
ENDBRANCH  13  14
ENDBRANCH   8  13
TORSDOF 3
ENDMDL
