MODEL 1
REMARK VINA RESULT: -8.519580259      0.000      0.000
REMARK  5 active torsions:
REMARK  status: ('A' for Active; 'I' for Inactive)
REMARK    1  A    between atoms: C2_2  and  C3_3 
REMARK    2  A    between atoms: C3_3  and  C5_5 
REMARK    3  A    between atoms: C5_5  and  C6_6 
REMARK    4  A    between atoms: C8_8  and  O1_9 
REMARK    5  A    between atoms: C11_13  and  O2_14 
ROOT
HETATM    1  C6  UNL     1      10.289   1.365  30.939  1.00  0.00     0.134 C 
HETATM    2  C7  UNL     1       9.309   0.965  29.895  1.00  0.00     0.064 C 
HETATM    3  C8  UNL     1       9.866   0.984  28.485  1.00  0.00     0.120 C 
HETATM    4  C9  UNL     1       9.623   2.314  27.809  1.00  0.00     0.034 C 
HETATM    5  C10 UNL     1      10.766   2.838  27.028  1.00  0.00     0.034 C 
HETATM    6  C11 UNL     1      12.000   3.204  27.757  1.00  0.00     0.127 C 
HETATM    7  C12 UNL     1      11.803   3.713  29.163  1.00  0.00     0.142 C 
HETATM    8  C13 UNL     1      12.284   2.739  30.176  1.00  0.00     0.261 C 
HETATM    9  O3  UNL     1      13.379   3.007  30.734  1.00  0.00    -0.265 OA
HETATM   10  O4  UNL     1      11.563   1.660  30.441  1.00  0.00    -0.316 OA
ENDROOT
BRANCH   1  11
HETATM   11  C5  UNL     1      10.305   0.567  32.186  1.00  0.00     0.037 C 
BRANCH  11  12
HETATM   12  C3  UNL     1      11.517  -0.196  32.579  1.00  0.00    -0.017 C 
HETATM   13  C4  UNL     1      11.100  -1.360  33.511  1.00  0.00     0.010 C 
BRANCH  12  14
HETATM   14  C2  UNL     1      12.649   0.544  33.204  1.00  0.00    -0.000 C 
HETATM   15  C1  UNL     1      13.253  -0.349  34.331  1.00  0.00     0.005 C 
ENDBRANCH  12  14
ENDBRANCH  11  12
ENDBRANCH   1  11
BRANCH   3  16
HETATM   16  O1  UNL     1      11.145   0.511  28.391  1.00  0.00    -0.395 OA
ATOM     17  H1  UNL     1      11.808   1.192  28.408  1.00  0.00     0.210 HD
ENDBRANCH   3  16
BRANCH   6  18
HETATM   18  O2  UNL     1      12.683   4.150  26.954  1.00  0.00    -0.395 OA
ATOM     19  H2  UNL     1      12.958   4.852  27.533  1.00  0.00     0.210 HD
ENDBRANCH   6  18
TORSDOF 5
ENDMDL
MODEL 2
REMARK VINA RESULT: -8.424799636      0.665      1.288
REMARK  5 active torsions:
REMARK  status: ('A' for Active; 'I' for Inactive)
REMARK    1  A    between atoms: C2_2  and  C3_3 
REMARK    2  A    between atoms: C3_3  and  C5_5 
REMARK    3  A    between atoms: C5_5  and  C6_6 
REMARK    4  A    between atoms: C8_8  and  O1_9 
REMARK    5  A    between atoms: C11_13  and  O2_14 
ROOT
HETATM    1  C6  UNL     1      10.354   1.004  30.634  1.00  0.00     0.134 C 
HETATM    2  C7  UNL     1       9.337   0.812  29.566  1.00  0.00     0.064 C 
HETATM    3  C8  UNL     1       9.827   1.165  28.176  1.00  0.00     0.120 C 
HETATM    4  C9  UNL     1       9.516   2.603  27.826  1.00  0.00     0.034 C 
HETATM    5  C10 UNL     1      10.607   3.329  27.137  1.00  0.00     0.034 C 
HETATM    6  C11 UNL     1      11.864   3.568  27.880  1.00  0.00     0.127 C 
HETATM    7  C12 UNL     1      11.720   3.744  29.371  1.00  0.00     0.142 C 
HETATM    8  C13 UNL     1      12.274   2.586  30.120  1.00  0.00     0.261 C 
HETATM    9  O3  UNL     1      13.386   2.763  30.679  1.00  0.00    -0.265 OA
HETATM   10  O4  UNL     1      11.595   1.450  30.164  1.00  0.00    -0.316 OA
ENDROOT
BRANCH   1  11
HETATM   11  C5  UNL     1      10.450  -0.050  31.669  1.00  0.00     0.037 C 
BRANCH  11  12
HETATM   12  C3  UNL     1      10.861   0.289  33.055  1.00  0.00    -0.017 C 
HETATM   13  C4  UNL     1      12.407   0.255  33.145  1.00  0.00     0.010 C 
BRANCH  12  14
HETATM   14  C2  UNL     1      10.294  -0.508  34.178  1.00  0.00    -0.000 C 
HETATM   15  C1  UNL     1      10.175  -1.992  33.713  1.00  0.00     0.005 C 
ENDBRANCH  12  14
ENDBRANCH  11  12
ENDBRANCH   1  11
BRANCH   3  16
HETATM   16  O1  UNL     1      11.112   0.772  27.927  1.00  0.00    -0.395 OA
ATOM     17  H1  UNL     1      11.228   0.353  27.082  1.00  0.00     0.210 HD
ENDBRANCH   3  16
BRANCH   6  18
HETATM   18  O2  UNL     1      12.482   4.694  27.283  1.00  0.00    -0.395 OA
ATOM     19  H2  UNL     1      13.086   4.360  26.630  1.00  0.00     0.210 HD
ENDBRANCH   6  18
TORSDOF 5
ENDMDL
MODEL 3
REMARK VINA RESULT: -7.874547284      1.033      1.263
REMARK  5 active torsions:
REMARK  status: ('A' for Active; 'I' for Inactive)
REMARK    1  A    between atoms: C2_2  and  C3_3 
REMARK    2  A    between atoms: C3_3  and  C5_5 
REMARK    3  A    between atoms: C5_5  and  C6_6 
REMARK    4  A    between atoms: C8_8  and  O1_9 
REMARK    5  A    between atoms: C11_13  and  O2_14 
ROOT
HETATM    1  C6  UNL     1      11.278   1.172  31.455  1.00  0.00     0.134 C 
HETATM    2  C7  UNL     1      10.164   0.410  30.831  1.00  0.00     0.064 C 
HETATM    3  C8  UNL     1      10.102   0.529  29.321  1.00  0.00     0.120 C 
HETATM    4  C9  UNL     1       9.199   1.662  28.890  1.00  0.00     0.034 C 
HETATM    5  C10 UNL     1       9.718   2.488  27.777  1.00  0.00     0.034 C 
HETATM    6  C11 UNL     1      10.942   3.284  28.011  1.00  0.00     0.127 C 
HETATM    7  C12 UNL     1      11.140   3.781  29.421  1.00  0.00     0.142 C 
HETATM    8  C13 UNL     1      12.261   3.082  30.101  1.00  0.00     0.261 C 
HETATM    9  O3  UNL     1      13.333   3.730  30.222  1.00  0.00    -0.265 OA
HETATM   10  O4  UNL     1      12.093   1.844  30.536  1.00  0.00    -0.316 OA
ENDROOT
BRANCH   1  11
HETATM   11  C5  UNL     1      12.028   0.499  32.540  1.00  0.00     0.037 C 
BRANCH  11  12
HETATM   12  C3  UNL     1      11.348  -0.468  33.439  1.00  0.00    -0.017 C 
HETATM   13  C4  UNL     1      10.339   0.296  34.331  1.00  0.00     0.010 C 
BRANCH  12  14
HETATM   14  C2  UNL     1      12.188  -1.345  34.301  1.00  0.00    -0.000 C 
HETATM   15  C1  UNL     1      13.522  -0.598  34.607  1.00  0.00     0.005 C 
ENDBRANCH  12  14
ENDBRANCH  11  12
ENDBRANCH   1  11
BRANCH   3  16
HETATM   16  O1  UNL     1      11.327   0.502  28.716  1.00  0.00    -0.395 OA
ATOM     17  H1  UNL     1      11.545   1.304  28.255  1.00  0.00     0.210 HD
ENDBRANCH   3  16
BRANCH   6  18
HETATM   18  O2  UNL     1      10.916   4.355  27.083  1.00  0.00    -0.395 OA
ATOM     19  H2  UNL     1      10.440   4.045  26.322  1.00  0.00     0.210 HD
ENDBRANCH   6  18
TORSDOF 5
ENDMDL
MODEL 4
REMARK VINA RESULT: -7.803259104      1.300      2.645
REMARK  5 active torsions:
REMARK  status: ('A' for Active; 'I' for Inactive)
REMARK    1  A    between atoms: C2_2  and  C3_3 
REMARK    2  A    between atoms: C3_3  and  C5_5 
REMARK    3  A    between atoms: C5_5  and  C6_6 
REMARK    4  A    between atoms: C8_8  and  O1_9 
REMARK    5  A    between atoms: C11_13  and  O2_14 
ROOT
HETATM    1  C6  UNL     1      11.082   0.936  31.036  1.00  0.00     0.134 C 
HETATM    2  C7  UNL     1      12.292   1.784  31.211  1.00  0.00     0.064 C 
HETATM    3  C8  UNL     1      12.303   3.031  30.349  1.00  0.00     0.120 C 
HETATM    4  C9  UNL     1      13.003   2.789  29.031  1.00  0.00     0.034 C 
HETATM    5  C10 UNL     1      12.336   3.379  27.850  1.00  0.00     0.034 C 
HETATM    6  C11 UNL     1      11.004   2.860  27.468  1.00  0.00     0.127 C 
HETATM    7  C12 UNL     1      10.757   1.404  27.774  1.00  0.00     0.142 C 
HETATM    8  C13 UNL     1       9.777   1.230  28.877  1.00  0.00     0.261 C 
HETATM    9  O3  UNL     1       8.618   0.872  28.544  1.00  0.00    -0.265 OA
HETATM   10  O4  UNL     1      10.152   1.454  30.127  1.00  0.00    -0.316 OA
ENDROOT
BRANCH   1  11
HETATM   11  C5  UNL     1      10.473   0.375  32.263  1.00  0.00     0.037 C 
BRANCH  11  12
HETATM   12  C3  UNL     1      11.210  -0.619  33.085  1.00  0.00    -0.017 C 
HETATM   13  C4  UNL     1      10.290  -1.837  33.346  1.00  0.00     0.010 C 
BRANCH  12  14
HETATM   14  C2  UNL     1      11.800  -0.172  34.377  1.00  0.00    -0.000 C 
HETATM   15  C1  UNL     1      13.354  -0.208  34.243  1.00  0.00     0.005 C 
ENDBRANCH  12  14
ENDBRANCH  11  12
ENDBRANCH   1  11
BRANCH   3  16
HETATM   16  O1  UNL     1      11.086   3.646  30.254  1.00  0.00    -0.395 OA
ATOM     17  H1  UNL     1      10.832   4.116  31.040  1.00  0.00     0.210 HD
ENDBRANCH   3  16
BRANCH   6  18
HETATM   18  O2  UNL     1      10.839   3.135  26.088  1.00  0.00    -0.395 OA
ATOM     19  H2  UNL     1      11.215   3.994  25.934  1.00  0.00     0.210 HD
ENDBRANCH   6  18
TORSDOF 5
ENDMDL
MODEL 5
REMARK VINA RESULT: -7.140925990      3.085      6.572
REMARK  5 active torsions:
REMARK  status: ('A' for Active; 'I' for Inactive)
REMARK    1  A    between atoms: C2_2  and  C3_3 
REMARK    2  A    between atoms: C3_3  and  C5_5 
REMARK    3  A    between atoms: C5_5  and  C6_6 
REMARK    4  A    between atoms: C8_8  and  O1_9 
REMARK    5  A    between atoms: C11_13  and  O2_14 
ROOT
HETATM    1  C6  UNL     1      10.470   0.791  32.162  1.00  0.00     0.134 C 
HETATM    2  C7  UNL     1      11.799   0.216  32.500  1.00  0.00     0.064 C 
HETATM    3  C8  UNL     1      11.770  -0.770  33.651  1.00  0.00     0.120 C 
HETATM    4  C9  UNL     1      12.039  -0.089  34.974  1.00  0.00     0.034 C 
HETATM    5  C10 UNL     1      11.176  -0.530  36.092  1.00  0.00     0.034 C 
HETATM    6  C11 UNL     1       9.726  -0.247  36.010  1.00  0.00     0.127 C 
HETATM    7  C12 UNL     1       9.347   1.011  35.269  1.00  0.00     0.142 C 
HETATM    8  C13 UNL     1       8.689   0.710  33.971  1.00  0.00     0.261 C 
HETATM    9  O3  UNL     1       7.442   0.868  33.926  1.00  0.00    -0.265 OA
HETATM   10  O4  UNL     1       9.420   0.300  32.947  1.00  0.00    -0.316 OA
ENDROOT
BRANCH   1  11
HETATM   11  C5  UNL     1      10.137   0.913  30.725  1.00  0.00     0.037 C 
BRANCH  11  12
HETATM   12  C3  UNL     1      11.113   1.499  29.771  1.00  0.00    -0.017 C 
HETATM   13  C4  UNL     1      11.421   2.956  30.197  1.00  0.00     0.010 C 
BRANCH  12  14
HETATM   14  C2  UNL     1      10.784   1.480  28.318  1.00  0.00    -0.000 C 
HETATM   15  C1  UNL     1       9.249   1.250  28.167  1.00  0.00     0.005 C 
ENDBRANCH  12  14
ENDBRANCH  11  12
ENDBRANCH   1  11
BRANCH   3  16
HETATM   16  O1  UNL     1      10.686  -1.602  33.638  1.00  0.00    -0.395 OA
ATOM     17  H1  UNL     1      10.362  -1.824  34.503  1.00  0.00     0.210 HD
ENDBRANCH   3  16
BRANCH   6  18
HETATM   18  O2  UNL     1       9.237  -0.233  37.339  1.00  0.00    -0.395 OA
ATOM     19  H2  UNL     1       8.467  -0.790  37.353  1.00  0.00     0.210 HD
ENDBRANCH   6  18
TORSDOF 5
ENDMDL
