MODEL 1
REMARK VINA RESULT: -7.941871202      0.000      0.000
REMARK  4 active torsions:
REMARK  status: ('A' for Active; 'I' for Inactive)
REMARK    1  A    between atoms: O1_2  and  C2_3 
REMARK    2  A    between atoms: C7_10  and  C8_11 
REMARK    3  A    between atoms: C11_14  and  C12_15 
REMARK    4  A    between atoms: C12_15  and  N2_16 
ROOT
HETATM    1  C2  UNL     1      11.895   2.198  30.594  1.00  0.00     0.105 A 
HETATM    2  C3  UNL     1      11.741   1.360  31.681  1.00  0.00     0.085 A 
HETATM    3  C4  UNL     1      10.694   0.470  31.683  1.00  0.00     0.044 A 
HETATM    4  N1  UNL     1       9.852   0.405  30.668  1.00  0.00    -0.360 N 
ATOM      5  H1  UNL     1       9.094  -0.276  30.717  1.00  0.00     0.165 HD
HETATM    6  C5  UNL     1       9.935   1.202  29.545  1.00  0.00     0.015 A 
HETATM    7  C6  UNL     1       9.000   0.939  28.428  1.00  0.00     0.069 C 
HETATM    8  C7  UNL     1      10.984   2.114  29.530  1.00  0.00     0.004 A 
HETATM    9  C11 UNL     1      10.554  -0.388  32.886  1.00  0.00     0.065 C 
HETATM   10  C13 UNL     1      11.959  -0.864  33.217  1.00  0.00     0.032 C 
HETATM   11  C14 UNL     1      12.778   0.282  33.713  1.00  0.00     0.121 C 
HETATM   12  N3  UNL     1      12.647   1.402  32.815  1.00  0.00    -0.386 N 
ATOM     13  H3  UNL     1      13.203   2.241  32.980  1.00  0.00     0.159 HD
ENDROOT
BRANCH   9  14
HETATM   14  C12 UNL     1       9.925   0.350  34.034  1.00  0.00     0.240 C 
BRANCH  14  15
HETATM   15  N2  UNL     1       8.476   0.138  34.009  1.00  0.00    -0.079 N 
ATOM     16  H23 UNL     1       8.190  -0.650  34.589  1.00  0.00     0.274 HD
ATOM     17  H22 UNL     1       7.968   0.873  34.502  1.00  0.00     0.274 HD
ATOM     18  H21 UNL     1       8.168   0.038  33.041  1.00  0.00     0.274 HD
ENDBRANCH  14  15
ENDBRANCH   9  14
BRANCH   1  19
HETATM   19  O1  UNL     1      12.957   3.088  30.588  1.00  0.00    -0.353 OA
HETATM   20  C1  UNL     1      13.747   3.384  29.467  1.00  0.00     0.210 C 
ENDBRANCH   1  19
BRANCH   8  21
HETATM   21  C8  UNL     1      11.191   2.954  28.362  1.00  0.00     0.023 A 
HETATM   22  C9  UNL     1      10.647   2.426  27.052  1.00  0.00     0.010 A 
HETATM   23  C10 UNL     1      10.309   3.819  27.623  1.00  0.00     0.010 A 
ENDBRANCH   8  21
TORSDOF 4
ENDMDL
MODEL 2
REMARK VINA RESULT: -7.437262587      3.839      6.275
REMARK  4 active torsions:
REMARK  status: ('A' for Active; 'I' for Inactive)
REMARK    1  A    between atoms: O1_2  and  C2_3 
REMARK    2  A    between atoms: C7_10  and  C8_11 
REMARK    3  A    between atoms: C11_14  and  C12_15 
REMARK    4  A    between atoms: C12_15  and  N2_16 
ROOT
HETATM    1  C2  UNL     1      11.645  -1.281  35.251  1.00  0.00     0.105 A 
HETATM    2  C3  UNL     1      12.949  -1.366  35.699  1.00  0.00     0.085 A 
HETATM    3  C4  UNL     1      13.933  -0.731  34.981  1.00  0.00     0.044 A 
HETATM    4  N1  UNL     1      13.648  -0.046  33.888  1.00  0.00    -0.360 N 
ATOM      5  H1  UNL     1      14.415   0.410  33.394  1.00  0.00     0.165 HD
HETATM    6  C5  UNL     1      12.375   0.091  33.375  1.00  0.00     0.015 A 
HETATM    7  C6  UNL     1      12.180   0.989  32.215  1.00  0.00     0.069 C 
HETATM    8  C7  UNL     1      11.367  -0.552  34.085  1.00  0.00     0.004 A 
HETATM    9  C11 UNL     1      15.322  -0.877  35.486  1.00  0.00     0.065 C 
HETATM   10  C13 UNL     1      15.233  -0.685  36.991  1.00  0.00     0.032 C 
HETATM   11  C14 UNL     1      14.527  -1.848  37.607  1.00  0.00     0.121 C 
HETATM   12  N3  UNL     1      13.301  -2.109  36.895  1.00  0.00    -0.386 N 
ATOM     13  H3  UNL     1      12.668  -2.832  37.239  1.00  0.00     0.159 HD
ENDROOT
BRANCH   9  14
HETATM   14  C12 UNL     1      15.917  -2.207  35.121  1.00  0.00     0.240 C 
BRANCH  14  15
HETATM   15  N2  UNL     1      17.357  -2.182  35.391  1.00  0.00    -0.079 N 
ATOM     16  H23 UNL     1      17.808  -3.069  35.167  1.00  0.00     0.274 HD
ATOM     17  H22 UNL     1      17.864  -1.591  34.731  1.00  0.00     0.274 HD
ATOM     18  H21 UNL     1      17.513  -1.902  36.359  1.00  0.00     0.274 HD
ENDBRANCH  14  15
ENDBRANCH   9  14
BRANCH   1  19
HETATM   19  O1  UNL     1      10.651  -1.912  35.981  1.00  0.00    -0.353 OA
HETATM   20  C1  UNL     1      10.053  -1.390  37.137  1.00  0.00     0.210 C 
ENDBRANCH   1  19
BRANCH   8  21
HETATM   21  C8  UNL     1       9.985  -0.414  33.657  1.00  0.00     0.023 A 
HETATM   22  C9  UNL     1       9.198   0.715  34.287  1.00  0.00     0.010 A 
HETATM   23  C10 UNL     1       9.335   0.509  32.764  1.00  0.00     0.010 A 
ENDBRANCH   8  21
TORSDOF 4
ENDMDL
MODEL 3
REMARK VINA RESULT: -7.319672611      3.899      6.567
REMARK  4 active torsions:
REMARK  status: ('A' for Active; 'I' for Inactive)
REMARK    1  A    between atoms: O1_2  and  C2_3 
REMARK    2  A    between atoms: C7_10  and  C8_11 
REMARK    3  A    between atoms: C11_14  and  C12_15 
REMARK    4  A    between atoms: C12_15  and  N2_16 
ROOT
HETATM    1  C2  UNL     1      10.309  -1.612  34.064  1.00  0.00     0.105 A 
HETATM    2  C3  UNL     1       9.064  -1.813  34.626  1.00  0.00     0.085 A 
HETATM    3  C4  UNL     1       8.957  -1.838  35.996  1.00  0.00     0.044 A 
HETATM    4  N1  UNL     1      10.016  -1.668  36.766  1.00  0.00    -0.360 N 
ATOM      5  H1  UNL     1       9.881  -1.691  37.777  1.00  0.00     0.165 HD
HETATM    6  C5  UNL     1      11.292  -1.459  36.287  1.00  0.00     0.015 A 
HETATM    7  C6  UNL     1      12.366  -1.159  37.260  1.00  0.00     0.069 C 
HETATM    8  C7  UNL     1      11.420  -1.439  34.903  1.00  0.00     0.004 A 
HETATM    9  C11 UNL     1       7.603  -2.087  36.551  1.00  0.00     0.065 C 
HETATM   10  C13 UNL     1       6.657  -1.227  35.729  1.00  0.00     0.032 C 
HETATM   11  C14 UNL     1       6.557  -1.770  34.342  1.00  0.00     0.121 C 
HETATM   12  N3  UNL     1       7.877  -2.004  33.812  1.00  0.00    -0.386 N 
ATOM     13  H3  UNL     1       7.979  -2.311  32.844  1.00  0.00     0.159 HD
ENDROOT
BRANCH   9  14
HETATM   14  C12 UNL     1       7.231  -3.542  36.498  1.00  0.00     0.240 C 
BRANCH  14  15
HETATM   15  N2  UNL     1       7.901  -4.252  37.591  1.00  0.00    -0.079 N 
ATOM     16  H23 UNL     1       7.683  -5.248  37.596  1.00  0.00     0.274 HD
ATOM     17  H22 UNL     1       8.908  -4.324  37.446  1.00  0.00     0.274 HD
ATOM     18  H21 UNL     1       7.668  -3.802  38.477  1.00  0.00     0.274 HD
ENDBRANCH  14  15
ENDBRANCH   9  14
BRANCH   1  19
HETATM   19  O1  UNL     1      10.415  -1.576  32.683  1.00  0.00    -0.353 OA
HETATM   20  C1  UNL     1      10.282  -0.420  31.900  1.00  0.00     0.210 C 
ENDBRANCH   1  19
BRANCH   8  21
HETATM   21  C8  UNL     1      12.715  -1.164  34.303  1.00  0.00     0.023 A 
HETATM   22  C9  UNL     1      13.031   0.291  34.029  1.00  0.00     0.010 A 
HETATM   23  C10 UNL     1      13.943  -0.646  34.847  1.00  0.00     0.010 A 
ENDBRANCH   8  21
TORSDOF 4
ENDMDL
MODEL 4
REMARK VINA RESULT: -7.115156005      4.086      7.513
REMARK  4 active torsions:
REMARK  status: ('A' for Active; 'I' for Inactive)
REMARK    1  A    between atoms: O1_2  and  C2_3 
REMARK    2  A    between atoms: C7_10  and  C8_11 
REMARK    3  A    between atoms: C11_14  and  C12_15 
REMARK    4  A    between atoms: C12_15  and  N2_16 
ROOT
HETATM    1  C2  UNL     1      11.540  -1.508  36.633  1.00  0.00     0.105 A 
HETATM    2  C3  UNL     1      10.885  -1.314  35.432  1.00  0.00     0.085 A 
HETATM    3  C4  UNL     1      11.635  -1.144  34.294  1.00  0.00     0.044 A 
HETATM    4  N1  UNL     1      12.955  -1.170  34.336  1.00  0.00    -0.360 N 
ATOM      5  H1  UNL     1      13.465  -1.042  33.462  1.00  0.00     0.165 HD
HETATM    6  C5  UNL     1      13.686  -1.360  35.491  1.00  0.00     0.015 A 
HETATM    7  C6  UNL     1      15.156  -1.491  35.376  1.00  0.00     0.069 C 
HETATM    8  C7  UNL     1      12.942  -1.526  36.653  1.00  0.00     0.004 A 
HETATM    9  C11 UNL     1      10.886  -0.910  33.034  1.00  0.00     0.065 C 
HETATM   10  C13 UNL     1       9.739  -1.906  33.047  1.00  0.00     0.032 C 
HETATM   11  C14 UNL     1       8.752  -1.526  34.101  1.00  0.00     0.121 C 
HETATM   12  N3  UNL     1       9.436  -1.280  35.346  1.00  0.00    -0.386 N 
ATOM     13  H3  UNL     1       8.891  -1.077  36.184  1.00  0.00     0.159 HD
ENDROOT
BRANCH   9  14
HETATM   14  C12 UNL     1      10.400   0.508  32.922  1.00  0.00     0.240 C 
BRANCH  14  15
HETATM   15  N2  UNL     1      10.298   0.873  31.507  1.00  0.00    -0.079 N 
ATOM     16  H23 UNL     1      11.176   0.734  31.008  1.00  0.00     0.274 HD
ATOM     17  H22 UNL     1       9.724   0.215  30.978  1.00  0.00     0.274 HD
ATOM     18  H21 UNL     1       9.957   1.832  31.432  1.00  0.00     0.274 HD
ENDBRANCH  14  15
ENDBRANCH   9  14
BRANCH   1  19
HETATM   19  O1  UNL     1      10.782  -1.691  37.779  1.00  0.00    -0.353 OA
HETATM   20  C1  UNL     1      10.223  -0.655  38.542  1.00  0.00     0.210 C 
ENDBRANCH   1  19
BRANCH   8  21
HETATM   21  C8  UNL     1      13.621  -1.794  37.910  1.00  0.00     0.023 A 
HETATM   22  C9  UNL     1      14.987  -1.164  38.082  1.00  0.00     0.010 A 
HETATM   23  C10 UNL     1      13.830  -0.994  39.088  1.00  0.00     0.010 A 
ENDBRANCH   8  21
TORSDOF 4
ENDMDL
MODEL 5
REMARK VINA RESULT: -7.111518842      3.566      5.938
REMARK  4 active torsions:
REMARK  status: ('A' for Active; 'I' for Inactive)
REMARK    1  A    between atoms: O1_2  and  C2_3 
REMARK    2  A    between atoms: C7_10  and  C8_11 
REMARK    3  A    between atoms: C11_14  and  C12_15 
REMARK    4  A    between atoms: C12_15  and  N2_16 
ROOT
HETATM    1  C2  UNL     1      10.456  -1.428  35.121  1.00  0.00     0.105 A 
HETATM    2  C3  UNL     1       9.092  -1.555  35.299  1.00  0.00     0.085 A 
HETATM    3  C4  UNL     1       8.254  -1.098  34.311  1.00  0.00     0.044 A 
HETATM    4  N1  UNL     1       8.733  -0.553  33.207  1.00  0.00    -0.360 N 
ATOM      5  H1  UNL     1       8.068  -0.233  32.503  1.00  0.00     0.165 HD
HETATM    6  C5  UNL     1      10.079  -0.391  32.949  1.00  0.00     0.015 A 
HETATM    7  C6  UNL     1      10.480   0.120  31.620  1.00  0.00     0.069 C 
HETATM    8  C7  UNL     1      10.941  -0.841  33.942  1.00  0.00     0.004 A 
HETATM    9  C11 UNL     1       6.797  -1.229  34.563  1.00  0.00     0.065 C 
HETATM   10  C13 UNL     1       6.605  -2.622  35.141  1.00  0.00     0.032 C 
HETATM   11  C14 UNL     1       7.191  -2.685  36.513  1.00  0.00     0.121 C 
HETATM   12  N3  UNL     1       8.528  -2.148  36.498  1.00  0.00    -0.386 N 
ATOM     13  H3  UNL     1       9.090  -2.185  37.349  1.00  0.00     0.159 HD
ENDROOT
BRANCH   9  14
HETATM   14  C12 UNL     1       6.286  -0.160  35.488  1.00  0.00     0.240 C 
BRANCH  14  15
HETATM   15  N2  UNL     1       5.886   1.008  34.700  1.00  0.00    -0.079 N 
ATOM     16  H23 UNL     1       5.352   0.751  33.870  1.00  0.00     0.274 HD
ATOM     17  H22 UNL     1       5.168   1.563  35.168  1.00  0.00     0.274 HD
ATOM     18  H21 UNL     1       6.713   1.559  34.472  1.00  0.00     0.274 HD
ENDBRANCH  14  15
ENDBRANCH   9  14
BRANCH   1  19
HETATM   19  O1  UNL     1      11.301  -1.899  36.113  1.00  0.00    -0.353 OA
HETATM   20  C1  UNL     1      11.509  -1.274  37.351  1.00  0.00     0.210 C 
ENDBRANCH   1  19
BRANCH   8  21
HETATM   21  C8  UNL     1      12.378  -0.770  33.735  1.00  0.00     0.023 A 
HETATM   22  C9  UNL     1      12.992   0.613  33.766  1.00  0.00     0.010 A 
HETATM   23  C10 UNL     1      13.477  -0.562  34.640  1.00  0.00     0.010 A 
ENDBRANCH   8  21
TORSDOF 4
ENDMDL
