MODEL 1
REMARK VINA RESULT: -6.730068617      0.000      0.000
REMARK  4 active torsions:
REMARK  status: ('A' for Active; 'I' for Inactive)
REMARK    1  A    between atoms: C2_2  and  C3_3 
REMARK    2  A    between atoms: C3_3  and  C4_4 
REMARK    3  A    between atoms: C5_7  and  N2_8 
REMARK    4  A    between atoms: N2_8  and  C6_10 
ROOT
HETATM    1  C4  UNL     1      10.095  -0.933  33.030  1.00  0.00     0.101 A 
HETATM    2  N1  UNL     1       9.925  -0.120  31.967  1.00  0.00    -0.180 N 
ATOM      3  H1  UNL     1       9.043  -0.173  31.457  1.00  0.00     0.185 HD
HETATM    4  C5  UNL     1      10.853   0.759  31.539  1.00  0.00     0.682 A 
HETATM    5  N3  UNL     1      12.010   0.830  32.207  1.00  0.00    -0.166 N 
ATOM      6  H3  UNL     1      12.736   1.483  31.915  1.00  0.00     0.186 HD
HETATM    7  C10 UNL     1      12.201   0.027  33.272  1.00  0.00     0.193 A 
HETATM    8  S1  UNL     1      13.630   0.154  34.051  1.00  0.00    -0.040 SA
HETATM    9  N4  UNL     1      11.261  -0.840  33.678  1.00  0.00    -0.317 N 
HETATM   10  C11 UNL     1      11.494  -1.685  34.827  1.00  0.00     0.160 C 
ENDROOT
BRANCH   4  11
HETATM   11  N2  UNL     1      10.612   1.516  30.496  1.00  0.00    -0.221 N 
ATOM     12  H2  UNL     1      10.522   2.527  30.591  1.00  0.00     0.178 HD
BRANCH  11  13
HETATM   13  C6  UNL     1      10.477   0.880  29.215  1.00  0.00     0.099 C 
HETATM   14  C7  UNL     1      11.224   1.649  28.139  1.00  0.00     0.026 C 
HETATM   15  C8  UNL     1       9.936   2.204  27.614  1.00  0.00     0.004 C 
HETATM   16  C9  UNL     1       9.190   1.209  28.480  1.00  0.00     0.026 C 
ENDBRANCH  11  13
ENDBRANCH   4  11
BRANCH   1  17
HETATM   17  C3  UNL     1       8.993  -1.875  33.424  1.00  0.00     0.077 C 
BRANCH  17  18
HETATM   18  C2  UNL     1       7.886  -1.122  34.132  1.00  0.00     0.003 C 
HETATM   19  C1  UNL     1       6.665  -2.026  34.106  1.00  0.00     0.005 C 
ENDBRANCH  17  18
ENDBRANCH   1  17
TORSDOF 4
ENDMDL
MODEL 2
REMARK VINA RESULT: -6.632585574      2.108      3.483
REMARK  4 active torsions:
REMARK  status: ('A' for Active; 'I' for Inactive)
REMARK    1  A    between atoms: C2_2  and  C3_3 
REMARK    2  A    between atoms: C3_3  and  C4_4 
REMARK    3  A    between atoms: C5_7  and  N2_8 
REMARK    4  A    between atoms: N2_8  and  C6_10 
ROOT
HETATM    1  C4  UNL     1      11.784   0.233  33.615  1.00  0.00     0.101 A 
HETATM    2  N1  UNL     1      11.641   0.214  32.274  1.00  0.00    -0.180 N 
ATOM      3  H1  UNL     1      12.481   0.112  31.703  1.00  0.00     0.185 HD
HETATM    4  C5  UNL     1      10.455   0.320  31.644  1.00  0.00     0.682 A 
HETATM    5  N3  UNL     1       9.353   0.453  32.391  1.00  0.00    -0.166 N 
ATOM      6  H3  UNL     1       8.437   0.536  31.951  1.00  0.00     0.186 HD
HETATM    7  C10 UNL     1       9.471   0.476  33.732  1.00  0.00     0.193 A 
HETATM    8  S1  UNL     1       8.096   0.640  34.597  1.00  0.00    -0.040 SA
HETATM    9  N4  UNL     1      10.665   0.368  34.336  1.00  0.00    -0.317 N 
HETATM   10  C11 UNL     1      10.758   0.391  35.778  1.00  0.00     0.160 C 
ENDROOT
BRANCH   4  11
HETATM   11  N2  UNL     1      10.400   0.292  30.333  1.00  0.00    -0.221 N 
ATOM     12  H2  UNL     1      10.629  -0.558  29.817  1.00  0.00     0.178 HD
BRANCH  11  13
HETATM   13  C6  UNL     1      10.011   1.491  29.646  1.00  0.00     0.099 C 
HETATM   14  C7  UNL     1       9.236   1.170  28.379  1.00  0.00     0.026 C 
HETATM   15  C8  UNL     1      10.435   1.491  27.542  1.00  0.00     0.004 C 
HETATM   16  C9  UNL     1      11.091   2.094  28.766  1.00  0.00     0.026 C 
ENDBRANCH  11  13
ENDBRANCH   4  11
BRANCH   1  17
HETATM   17  C3  UNL     1      13.154   0.104  34.216  1.00  0.00     0.077 C 
BRANCH  17  18
HETATM   18  C2  UNL     1      13.378  -1.308  34.716  1.00  0.00     0.003 C 
HETATM   19  C1  UNL     1      14.767  -1.335  35.328  1.00  0.00     0.005 C 
ENDBRANCH  17  18
ENDBRANCH   1  17
TORSDOF 4
ENDMDL
MODEL 3
REMARK VINA RESULT: -6.608794734      1.223      1.365
REMARK  4 active torsions:
REMARK  status: ('A' for Active; 'I' for Inactive)
REMARK    1  A    between atoms: C2_2  and  C3_3 
REMARK    2  A    between atoms: C3_3  and  C4_4 
REMARK    3  A    between atoms: C5_7  and  N2_8 
REMARK    4  A    between atoms: N2_8  and  C6_10 
ROOT
HETATM    1  C4  UNL     1       9.541   0.263  33.377  1.00  0.00     0.101 A 
HETATM    2  N1  UNL     1       9.673   0.859  32.173  1.00  0.00    -0.180 N 
ATOM      3  H1  UNL     1       8.825   1.139  31.680  1.00  0.00     0.185 HD
HETATM    4  C5  UNL     1      10.860   1.107  31.585  1.00  0.00     0.682 A 
HETATM    5  N3  UNL     1      11.973   0.741  32.230  1.00  0.00    -0.166 N 
ATOM      6  H3  UNL     1      12.890   0.912  31.818  1.00  0.00     0.186 HD
HETATM    7  C10 UNL     1      11.865   0.144  33.433  1.00  0.00     0.193 A 
HETATM    8  S1  UNL     1      13.254  -0.282  34.178  1.00  0.00    -0.040 SA
HETATM    9  N4  UNL     1      10.671  -0.091  33.998  1.00  0.00    -0.317 N 
HETATM   10  C11 UNL     1      10.589  -0.730  35.293  1.00  0.00     0.160 C 
ENDROOT
BRANCH   4  11
HETATM   11  N2  UNL     1      10.903   1.691  30.411  1.00  0.00    -0.221 N 
ATOM     12  H2  UNL     1      11.167   2.673  30.324  1.00  0.00     0.178 HD
BRANCH  11  13
HETATM   13  C6  UNL     1      10.569   0.911  29.254  1.00  0.00     0.099 C 
HETATM   14  C7  UNL     1      11.240   1.462  28.008  1.00  0.00     0.026 C 
HETATM   15  C8  UNL     1       9.946   2.060  27.552  1.00  0.00     0.004 C 
HETATM   16  C9  UNL     1       9.234   1.259  28.622  1.00  0.00     0.026 C 
ENDBRANCH  11  13
ENDBRANCH   4  11
BRANCH   1  17
HETATM   17  C3  UNL     1       8.170   0.037  33.944  1.00  0.00     0.077 C 
BRANCH  17  18
HETATM   18  C2  UNL     1       7.592   1.339  34.459  1.00  0.00     0.003 C 
HETATM   19  C1  UNL     1       6.176   1.428  33.916  1.00  0.00     0.005 C 
ENDBRANCH  17  18
ENDBRANCH   1  17
TORSDOF 4
ENDMDL
MODEL 4
REMARK VINA RESULT: -6.427940618      2.302      3.657
REMARK  4 active torsions:
REMARK  status: ('A' for Active; 'I' for Inactive)
REMARK    1  A    between atoms: C2_2  and  C3_3 
REMARK    2  A    between atoms: C3_3  and  C4_4 
REMARK    3  A    between atoms: C5_7  and  N2_8 
REMARK    4  A    between atoms: N2_8  and  C6_10 
ROOT
HETATM    1  C4  UNL     1      11.426  -0.526  33.831  1.00  0.00     0.101 A 
HETATM    2  N1  UNL     1      11.663  -0.050  32.591  1.00  0.00    -0.180 N 
ATOM      3  H1  UNL     1      12.579  -0.225  32.177  1.00  0.00     0.185 HD
HETATM    4  C5  UNL     1      10.762   0.643  31.868  1.00  0.00     0.682 A 
HETATM    5  N3  UNL     1       9.561   0.873  32.410  1.00  0.00    -0.166 N 
ATOM      6  H3  UNL     1       8.852   1.392  31.894  1.00  0.00     0.186 HD
HETATM    7  C10 UNL     1       9.301   0.407  33.647  1.00  0.00     0.193 A 
HETATM    8  S1  UNL     1       7.821   0.715  34.262  1.00  0.00    -0.040 SA
HETATM    9  N4  UNL     1      10.217  -0.281  34.347  1.00  0.00    -0.317 N 
HETATM   10  C11 UNL     1       9.906  -0.771  35.671  1.00  0.00     0.160 C 
ENDROOT
BRANCH   4  11
HETATM   11  N2  UNL     1      11.071   1.072  30.668  1.00  0.00    -0.221 N 
ATOM     12  H2  UNL     1      11.106   0.431  29.875  1.00  0.00     0.178 HD
BRANCH  11  13
HETATM   13  C6  UNL     1      11.357   2.469  30.501  1.00  0.00     0.099 C 
HETATM   14  C7  UNL     1      11.072   2.922  29.080  1.00  0.00     0.026 C 
HETATM   15  C8  UNL     1      12.536   2.938  28.770  1.00  0.00     0.004 C 
HETATM   16  C9  UNL     1      12.820   2.787  30.250  1.00  0.00     0.026 C 
ENDBRANCH  11  13
ENDBRANCH   4  11
BRANCH   1  17
HETATM   17  C3  UNL     1      12.501  -1.290  34.549  1.00  0.00     0.077 C 
BRANCH  17  18
HETATM   18  C2  UNL     1      13.790  -0.495  34.566  1.00  0.00     0.003 C 
HETATM   19  C1  UNL     1      14.824  -1.363  35.261  1.00  0.00     0.005 C 
ENDBRANCH  17  18
ENDBRANCH   1  17
TORSDOF 4
ENDMDL
MODEL 5
REMARK VINA RESULT: -6.381231438      1.470      1.760
REMARK  4 active torsions:
REMARK  status: ('A' for Active; 'I' for Inactive)
REMARK    1  A    between atoms: C2_2  and  C3_3 
REMARK    2  A    between atoms: C3_3  and  C4_4 
REMARK    3  A    between atoms: C5_7  and  N2_8 
REMARK    4  A    between atoms: N2_8  and  C6_10 
ROOT
HETATM    1  C4  UNL     1       9.379   0.167  33.722  1.00  0.00     0.101 A 
HETATM    2  N1  UNL     1       9.349   0.198  32.374  1.00  0.00    -0.180 N 
ATOM      3  H1  UNL     1       8.439   0.241  31.914  1.00  0.00     0.185 HD
HETATM    4  C5  UNL     1      10.450   0.176  31.598  1.00  0.00     0.682 A 
HETATM    5  N3  UNL     1      11.644   0.120  32.199  1.00  0.00    -0.166 N 
ATOM      6  H3  UNL     1      12.501   0.102  31.647  1.00  0.00     0.186 HD
HETATM    7  C10 UNL     1      11.698   0.087  33.545  1.00  0.00     0.193 A 
HETATM    8  S1  UNL     1      13.179   0.019  34.227  1.00  0.00    -0.040 SA
HETATM    9  N4  UNL     1      10.586   0.111  34.295  1.00  0.00    -0.317 N 
HETATM   10  C11 UNL     1      10.677   0.080  35.737  1.00  0.00     0.160 C 
ENDROOT
BRANCH   4  11
HETATM   11  N2  UNL     1      10.336   0.209  30.292  1.00  0.00    -0.221 N 
ATOM     12  H2  UNL     1      10.502  -0.626  29.730  1.00  0.00     0.178 HD
BRANCH  11  13
HETATM   13  C6  UNL     1       9.973   1.453  29.675  1.00  0.00     0.099 C 
HETATM   14  C7  UNL     1       9.251   1.223  28.358  1.00  0.00     0.026 C 
HETATM   15  C8  UNL     1      10.482   1.601  27.595  1.00  0.00     0.004 C 
HETATM   16  C9  UNL     1      11.087   2.116  28.885  1.00  0.00     0.026 C 
ENDBRANCH  11  13
ENDBRANCH   4  11
BRANCH   1  17
HETATM   17  C3  UNL     1       8.090   0.199  34.493  1.00  0.00     0.077 C 
BRANCH  17  18
HETATM   18  C2  UNL     1       7.513   1.600  34.495  1.00  0.00     0.003 C 
HETATM   19  C1  UNL     1       6.130   1.499  33.876  1.00  0.00     0.005 C 
ENDBRANCH  17  18
ENDBRANCH   1  17
TORSDOF 4
ENDMDL
