MODEL 1
REMARK VINA RESULT: -7.075737949      0.000      0.000
REMARK  3 active torsions:
REMARK  status: ('A' for Active; 'I' for Inactive)
REMARK    1  A    between atoms: O1_2  and  C2_3 
REMARK    2  A    between atoms: C2_3  and  O2_4 
REMARK    3  A    between atoms: C2_3  and  C3_6 
ROOT
HETATM    1  C3  UNL     1      10.864   0.253  32.615  1.00  0.00     0.006 C 
HETATM    2  C4  UNL     1      12.073  -0.247  32.927  1.00  0.00    -0.001 C 
HETATM    3  C5  UNL     1      12.021  -0.980  34.227  1.00  0.00     0.030 C 
HETATM    4  C6  UNL     1      13.332  -1.293  34.828  1.00  0.00     0.045 C 
HETATM    5  C7  UNL     1      12.952  -1.250  36.316  1.00  0.00     0.172 C 
HETATM    6  O3  UNL     1      11.774  -0.541  36.417  1.00  0.00    -0.360 OA
HETATM    7  C8  UNL     1      11.505   0.069  35.230  1.00  0.00     0.273 C 
HETATM    8  O4  UNL     1      10.197   0.312  34.928  1.00  0.00    -0.345 OA
HETATM    9  C9  UNL     1       9.815  -0.060  33.641  1.00  0.00     0.091 C 
HETATM   10  C10 UNL     1       8.480   0.486  33.286  1.00  0.00     0.052 C 
HETATM   11  C11 UNL     1       9.721  -1.593  33.655  1.00  0.00     0.022 C 
HETATM   12  C12 UNL     1       8.571  -1.953  34.566  1.00  0.00     0.013 C 
HETATM   13  C13 UNL     1      11.033  -2.090  34.223  1.00  0.00     0.026 C 
ENDROOT
BRANCH   1  14
HETATM   14  C2  UNL     1      10.625   1.019  31.391  1.00  0.00     0.289 C 
BRANCH  14  15
HETATM   15  O1  UNL     1      11.775   1.753  31.109  1.00  0.00    -0.362 OA
HETATM   16  C1  UNL     1      11.521   2.735  30.137  1.00  0.00     0.205 C 
ENDBRANCH  14  15
BRANCH  14  17
HETATM   17  O2  UNL     1      10.393   0.098  30.354  1.00  0.00    -0.367 OA
ATOM     18  H2  UNL     1       9.457   0.020  30.205  1.00  0.00     0.213 HD
ENDBRANCH  14  17
ENDBRANCH   1  14
TORSDOF 3
ENDMDL
MODEL 2
REMARK VINA RESULT: -6.150019481      1.530      3.402
REMARK  3 active torsions:
REMARK  status: ('A' for Active; 'I' for Inactive)
REMARK    1  A    between atoms: O1_2  and  C2_3 
REMARK    2  A    between atoms: C2_3  and  O2_4 
REMARK    3  A    between atoms: C2_3  and  C3_6 
ROOT
HETATM    1  C3  UNL     1      10.340  -0.195  32.915  1.00  0.00     0.006 C 
HETATM    2  C4  UNL     1       9.000  -0.182  33.025  1.00  0.00    -0.001 C 
HETATM    3  C5  UNL     1       8.573  -0.749  34.338  1.00  0.00     0.030 C 
HETATM    4  C6  UNL     1       7.140  -1.083  34.445  1.00  0.00     0.045 C 
HETATM    5  C7  UNL     1       7.221  -2.264  35.427  1.00  0.00     0.172 C 
HETATM    6  O3  UNL     1       8.518  -2.730  35.397  1.00  0.00    -0.360 OA
HETATM    7  C8  UNL     1       9.184  -2.163  34.354  1.00  0.00     0.273 C 
HETATM    8  O4  UNL     1      10.535  -2.020  34.473  1.00  0.00    -0.345 OA
HETATM    9  C9  UNL     1      11.024  -0.764  34.124  1.00  0.00     0.091 C 
HETATM   10  C10 UNL     1      12.504  -0.765  34.001  1.00  0.00     0.052 C 
HETATM   11  C11 UNL     1      10.637   0.175  35.275  1.00  0.00     0.022 C 
HETATM   12  C12 UNL     1      11.423  -0.270  36.486  1.00  0.00     0.013 C 
HETATM   13  C13 UNL     1       9.152  -0.019  35.497  1.00  0.00     0.026 C 
ENDROOT
BRANCH   1  14
HETATM   14  C2  UNL     1      11.034   0.304  31.727  1.00  0.00     0.289 C 
BRANCH  14  15
HETATM   15  O1  UNL     1      10.347  -0.149  30.603  1.00  0.00    -0.362 OA
HETATM   16  C1  UNL     1      10.196   0.879  29.656  1.00  0.00     0.205 C 
ENDBRANCH  14  15
BRANCH  14  17
HETATM   17  O2  UNL     1      10.988   1.709  31.768  1.00  0.00    -0.367 OA
ATOM     18  H2  UNL     1      10.985   2.050  30.881  1.00  0.00     0.213 HD
ENDBRANCH  14  17
ENDBRANCH   1  14
TORSDOF 3
ENDMDL
MODEL 3
REMARK VINA RESULT: -6.142641364      1.541      3.398
REMARK  3 active torsions:
REMARK  status: ('A' for Active; 'I' for Inactive)
REMARK    1  A    between atoms: O1_2  and  C2_3 
REMARK    2  A    between atoms: C2_3  and  O2_4 
REMARK    3  A    between atoms: C2_3  and  C3_6 
ROOT
HETATM    1  C3  UNL     1      11.176  -0.140  33.357  1.00  0.00     0.006 C 
HETATM    2  C4  UNL     1       9.852   0.089  33.290  1.00  0.00    -0.001 C 
HETATM    3  C5  UNL     1       9.141  -0.607  34.404  1.00  0.00     0.030 C 
HETATM    4  C6  UNL     1       7.675  -0.699  34.257  1.00  0.00     0.045 C 
HETATM    5  C7  UNL     1       7.423  -2.022  34.996  1.00  0.00     0.172 C 
HETATM    6  O3  UNL     1       8.624  -2.697  35.047  1.00  0.00    -0.360 OA
HETATM    7  C8  UNL     1       9.525  -2.088  34.229  1.00  0.00     0.273 C 
HETATM    8  O4  UNL     1      10.846  -2.206  34.548  1.00  0.00    -0.345 OA
HETATM    9  C9  UNL     1      11.565  -1.014  34.513  1.00  0.00     0.091 C 
HETATM   10  C10 UNL     1      13.029  -1.253  34.586  1.00  0.00     0.052 C 
HETATM   11  C11 UNL     1      11.142  -0.228  35.762  1.00  0.00     0.022 C 
HETATM   12  C12 UNL     1      11.649  -1.000  36.958  1.00  0.00     0.013 C 
HETATM   13  C13 UNL     1       9.629  -0.194  35.746  1.00  0.00     0.026 C 
ENDROOT
BRANCH   1  14
HETATM   14  C2  UNL     1      12.117   0.422  32.387  1.00  0.00     0.289 C 
BRANCH  14  15
HETATM   15  O1  UNL     1      11.385   1.106  31.420  1.00  0.00    -0.362 OA
HETATM   16  C1  UNL     1      12.129   2.169  30.881  1.00  0.00     0.205 C 
ENDBRANCH  14  15
BRANCH  14  17
HETATM   17  O2  UNL     1      12.943   1.329  33.076  1.00  0.00    -0.367 OA
ATOM     18  H2  UNL     1      12.728   2.215  32.808  1.00  0.00     0.213 HD
ENDBRANCH  14  17
ENDBRANCH   1  14
TORSDOF 3
ENDMDL
MODEL 4
REMARK VINA RESULT: -6.040728235      2.091      4.742
REMARK  3 active torsions:
REMARK  status: ('A' for Active; 'I' for Inactive)
REMARK    1  A    between atoms: O1_2  and  C2_3 
REMARK    2  A    between atoms: C2_3  and  O2_4 
REMARK    3  A    between atoms: C2_3  and  C3_6 
ROOT
HETATM    1  C3  UNL     1      13.442  -1.081  35.410  1.00  0.00     0.006 C 
HETATM    2  C4  UNL     1      13.294  -0.482  34.215  1.00  0.00    -0.001 C 
HETATM    3  C5  UNL     1      11.850  -0.237  33.924  1.00  0.00     0.030 C 
HETATM    4  C6  UNL     1      11.539   0.116  32.526  1.00  0.00     0.045 C 
HETATM    5  C7  UNL     1      10.127  -0.482  32.415  1.00  0.00     0.172 C 
HETATM    6  O3  UNL     1       9.993  -1.402  33.432  1.00  0.00    -0.360 OA
HETATM    7  C8  UNL     1      11.208  -1.634  34.001  1.00  0.00     0.273 C 
HETATM    8  O4  UNL     1      11.226  -2.018  35.310  1.00  0.00    -0.345 OA
HETATM    9  C9  UNL     1      12.138  -1.332  36.109  1.00  0.00     0.091 C 
HETATM   10  C10 UNL     1      12.310  -1.985  37.432  1.00  0.00     0.052 C 
HETATM   11  C11 UNL     1      11.536   0.062  36.334  1.00  0.00     0.022 C 
HETATM   12  C12 UNL     1      10.292  -0.127  37.169  1.00  0.00     0.013 C 
HETATM   13  C13 UNL     1      11.187   0.597  34.961  1.00  0.00     0.026 C 
ENDROOT
BRANCH   1  14
HETATM   14  C2  UNL     1      14.754  -1.440  35.949  1.00  0.00     0.289 C 
BRANCH  14  15
HETATM   15  O1  UNL     1      15.525  -1.953  34.907  1.00  0.00    -0.362 OA
HETATM   16  C1  UNL     1      16.868  -1.561  35.032  1.00  0.00     0.205 C 
ENDBRANCH  14  15
BRANCH  14  17
HETATM   17  O2  UNL     1      15.350  -0.261  36.433  1.00  0.00    -0.367 OA
ATOM     18  H2  UNL     1      15.345   0.398  35.748  1.00  0.00     0.213 HD
ENDBRANCH  14  17
ENDBRANCH   1  14
TORSDOF 3
ENDMDL
MODEL 5
REMARK VINA RESULT: -6.015404231      1.347      4.412
REMARK  3 active torsions:
REMARK  status: ('A' for Active; 'I' for Inactive)
REMARK    1  A    between atoms: O1_2  and  C2_3 
REMARK    2  A    between atoms: C2_3  and  O2_4 
REMARK    3  A    between atoms: C2_3  and  C3_6 
ROOT
HETATM    1  C3  UNL     1      11.881  -0.608  33.691  1.00  0.00     0.006 C 
HETATM    2  C4  UNL     1      12.257   0.441  32.938  1.00  0.00    -0.001 C 
HETATM    3  C5  UNL     1      11.138   0.883  32.054  1.00  0.00     0.030 C 
HETATM    4  C6  UNL     1      11.519   1.803  30.965  1.00  0.00     0.045 C 
HETATM    5  C7  UNL     1      10.475   1.403  29.910  1.00  0.00     0.172 C 
HETATM    6  O3  UNL     1      10.002   0.156  30.257  1.00  0.00    -0.360 OA
HETATM    7  C8  UNL     1      10.784  -0.374  31.237  1.00  0.00     0.273 C 
HETATM    8  O4  UNL     1      10.205  -1.265  32.092  1.00  0.00    -0.345 OA
HETATM    9  C9  UNL     1      10.464  -1.035  33.441  1.00  0.00     0.091 C 
HETATM   10  C10 UNL     1      10.052  -2.186  34.284  1.00  0.00     0.052 C 
HETATM   11  C11 UNL     1       9.610   0.179  33.834  1.00  0.00     0.022 C 
HETATM   12  C12 UNL     1       8.166  -0.252  33.742  1.00  0.00     0.013 C 
HETATM   13  C13 UNL     1       9.916   1.257  32.815  1.00  0.00     0.026 C 
ENDROOT
BRANCH   1  14
HETATM   14  C2  UNL     1      12.782  -1.247  34.651  1.00  0.00     0.289 C 
BRANCH  14  15
HETATM   15  O1  UNL     1      14.076  -0.800  34.393  1.00  0.00    -0.362 OA
HETATM   16  C1  UNL     1      14.975  -1.262  35.369  1.00  0.00     0.205 C 
ENDBRANCH  14  15
BRANCH  14  17
HETATM   17  O2  UNL     1      12.393  -0.832  35.938  1.00  0.00    -0.367 OA
ATOM     18  H2  UNL     1      11.445  -0.790  35.982  1.00  0.00     0.213 HD
ENDBRANCH  14  17
ENDBRANCH   1  14
TORSDOF 3
ENDMDL
