MODEL 1
REMARK VINA RESULT: -5.491262233      0.000      0.000
REMARK  5 active torsions:
REMARK  status: ('A' for Active; 'I' for Inactive)
REMARK    1  A    between atoms: C1_4  and  S1_6 
REMARK    2  A    between atoms: S1_6  and  C2_7 
REMARK    3  A    between atoms: C2_7  and  C3_8 
REMARK    4  A    between atoms: C3_8  and  C4_9 
REMARK    5  A    between atoms: C4_9  and  N3_11 
ROOT
HETATM    1  C3  UNL     1      10.866   1.083  30.996  1.00  0.00     0.080 C 
ENDROOT
BRANCH   1   2
HETATM    2  C2  UNL     1      11.895   2.153  30.720  1.00  0.00     0.089 C 
BRANCH   2   3
HETATM    3  S1  UNL     1      11.199   3.351  29.532  1.00  0.00    -0.097 SA
BRANCH   3   4
HETATM    4  C1  UNL     1      12.413   3.822  28.320  1.00  0.00     0.147 C 
HETATM    5  N1  UNL     1      12.274   3.505  27.084  1.00  0.00    -0.382 N 
ATOM      6  H12 UNL     1      12.970   3.776  26.389  1.00  0.00     0.157 HD
ATOM      7  H11 UNL     1      11.458   2.976  26.775  1.00  0.00     0.157 HD
HETATM    8  N2  UNL     1      13.544   4.557  28.749  1.00  0.00    -0.075 NA
ENDBRANCH   3   4
ENDBRANCH   2   3
ENDBRANCH   1   2
BRANCH   1   9
HETATM    9  C4  UNL     1      11.060   0.466  32.346  1.00  0.00     0.080 C 
HETATM   10  S2  UNL     1      12.566   0.518  33.035  1.00  0.00    -0.065 SA
BRANCH   9  11
HETATM   11  N3  UNL     1       9.996  -0.147  33.030  1.00  0.00    -0.345 N 
HETATM   12  C5  UNL     1       9.809  -1.534  33.203  1.00  0.00     0.075 C 
HETATM   13  C6  UNL     1       9.583  -1.837  34.649  1.00  0.00     0.120 C 
HETATM   14  S3  UNL     1       8.884  -0.258  35.277  1.00  0.00    -0.144 SA
HETATM   15  C7  UNL     1       8.929   0.620  33.680  1.00  0.00     0.202 C 
ENDBRANCH   9  11
ENDBRANCH   1   9
TORSDOF 5
ENDMDL
MODEL 2
REMARK VINA RESULT: -5.325998325      0.913      1.218
REMARK  5 active torsions:
REMARK  status: ('A' for Active; 'I' for Inactive)
REMARK    1  A    between atoms: C1_4  and  S1_6 
REMARK    2  A    between atoms: S1_6  and  C2_7 
REMARK    3  A    between atoms: C2_7  and  C3_8 
REMARK    4  A    between atoms: C3_8  and  C4_9 
REMARK    5  A    between atoms: C4_9  and  N3_11 
ROOT
HETATM    1  C3  UNL     1      10.585   0.563  31.342  1.00  0.00     0.080 C 
ENDROOT
BRANCH   1   2
HETATM    2  C2  UNL     1      11.627   1.642  31.169  1.00  0.00     0.089 C 
BRANCH   2   3
HETATM    3  S1  UNL     1      11.358   2.476  29.569  1.00  0.00    -0.097 SA
BRANCH   3   4
HETATM    4  C1  UNL     1      12.749   3.499  29.143  1.00  0.00     0.147 C 
HETATM    5  N1  UNL     1      13.721   3.672  29.964  1.00  0.00    -0.382 N 
ATOM      6  H12 UNL     1      14.519   4.259  29.720  1.00  0.00     0.157 HD
ATOM      7  H11 UNL     1      13.711   3.221  30.880  1.00  0.00     0.157 HD
HETATM    8  N2  UNL     1      12.763   4.125  27.874  1.00  0.00    -0.075 NA
ENDBRANCH   3   4
ENDBRANCH   2   3
ENDBRANCH   1   2
BRANCH   1   9
HETATM    9  C4  UNL     1      10.618  -0.022  32.719  1.00  0.00     0.080 C 
HETATM   10  S2  UNL     1      12.083  -0.194  33.474  1.00  0.00    -0.065 SA
BRANCH   9  11
HETATM   11  N3  UNL     1       9.441  -0.421  33.374  1.00  0.00    -0.345 N 
HETATM   12  C5  UNL     1       9.044  -1.749  33.635  1.00  0.00     0.075 C 
HETATM   13  C6  UNL     1       8.696  -1.896  35.081  1.00  0.00     0.120 C 
HETATM   14  S3  UNL     1       8.200  -0.188  35.543  1.00  0.00    -0.144 SA
HETATM   15  C7  UNL     1       8.461   0.540  33.892  1.00  0.00     0.202 C 
ENDBRANCH   9  11
ENDBRANCH   1   9
TORSDOF 5
ENDMDL
MODEL 3
REMARK VINA RESULT: -5.202014037      1.226      1.377
REMARK  5 active torsions:
REMARK  status: ('A' for Active; 'I' for Inactive)
REMARK    1  A    between atoms: C1_4  and  S1_6 
REMARK    2  A    between atoms: S1_6  and  C2_7 
REMARK    3  A    between atoms: C2_7  and  C3_8 
REMARK    4  A    between atoms: C3_8  and  C4_9 
REMARK    5  A    between atoms: C4_9  and  N3_11 
ROOT
HETATM    1  C3  UNL     1      11.011   0.605  31.768  1.00  0.00     0.080 C 
ENDROOT
BRANCH   1   2
HETATM    2  C2  UNL     1      11.920   1.715  31.297  1.00  0.00     0.089 C 
BRANCH   2   3
HETATM    3  S1  UNL     1      11.347   2.300  29.667  1.00  0.00    -0.097 SA
BRANCH   3   4
HETATM    4  C1  UNL     1      12.547   3.379  28.920  1.00  0.00     0.147 C 
HETATM    5  N1  UNL     1      12.437   3.748  27.695  1.00  0.00    -0.382 N 
ATOM      6  H12 UNL     1      13.125   4.367  27.267  1.00  0.00     0.157 HD
ATOM      7  H11 UNL     1      11.653   3.425  27.127  1.00  0.00     0.157 HD
HETATM    8  N2  UNL     1      13.634   3.827  29.709  1.00  0.00    -0.075 NA
ENDBRANCH   3   4
ENDBRANCH   2   3
ENDBRANCH   1   2
BRANCH   1   9
HETATM    9  C4  UNL     1      11.534  -0.048  33.009  1.00  0.00     0.080 C 
HETATM   10  S2  UNL     1      13.011   0.424  33.594  1.00  0.00    -0.065 SA
BRANCH   9  11
HETATM   11  N3  UNL     1      10.800  -1.041  33.679  1.00  0.00    -0.345 N 
HETATM   12  C5  UNL     1      10.937  -1.406  35.034  1.00  0.00     0.075 C 
HETATM   13  C6  UNL     1       9.599  -1.393  35.699  1.00  0.00     0.120 C 
HETATM   14  S3  UNL     1       8.458  -1.703  34.292  1.00  0.00    -0.144 SA
HETATM   15  C7  UNL     1       9.756  -1.831  33.018  1.00  0.00     0.202 C 
ENDBRANCH   9  11
ENDBRANCH   1   9
TORSDOF 5
ENDMDL
MODEL 4
REMARK VINA RESULT: -5.190341729      1.537      1.706
REMARK  5 active torsions:
REMARK  status: ('A' for Active; 'I' for Inactive)
REMARK    1  A    between atoms: C1_4  and  S1_6 
REMARK    2  A    between atoms: S1_6  and  C2_7 
REMARK    3  A    between atoms: C2_7  and  C3_8 
REMARK    4  A    between atoms: C3_8  and  C4_9 
REMARK    5  A    between atoms: C4_9  and  N3_11 
ROOT
HETATM    1  C3  UNL     1      10.382   0.305  31.439  1.00  0.00     0.080 C 
ENDROOT
BRANCH   1   2
HETATM    2  C2  UNL     1      10.994   1.425  30.633  1.00  0.00     0.089 C 
BRANCH   2   3
HETATM    3  S1  UNL     1      10.342   1.355  28.930  1.00  0.00    -0.097 SA
BRANCH   3   4
HETATM    4  C1  UNL     1      11.318   2.360  27.834  1.00  0.00     0.147 C 
HETATM    5  N1  UNL     1      10.792   2.925  26.808  1.00  0.00    -0.382 N 
ATOM      6  H12 UNL     1      11.352   3.501  26.180  1.00  0.00     0.157 HD
ATOM      7  H11 UNL     1       9.799   2.806  26.604  1.00  0.00     0.157 HD
HETATM    8  N2  UNL     1      12.695   2.525  28.117  1.00  0.00    -0.075 NA
ENDBRANCH   3   4
ENDBRANCH   2   3
ENDBRANCH   1   2
BRANCH   1   9
HETATM    9  C4  UNL     1      11.233  -0.058  32.616  1.00  0.00     0.080 C 
HETATM   10  S2  UNL     1      12.666   0.744  32.837  1.00  0.00    -0.065 SA
BRANCH   9  11
HETATM   11  N3  UNL     1      10.839  -1.054  33.525  1.00  0.00    -0.345 N 
HETATM   12  C5  UNL     1      11.521  -1.421  34.703  1.00  0.00     0.075 C 
HETATM   13  C6  UNL     1      10.573  -1.413  35.859  1.00  0.00     0.120 C 
HETATM   14  S3  UNL     1       8.956  -1.723  35.043  1.00  0.00    -0.144 SA
HETATM   15  C7  UNL     1       9.617  -1.845  33.349  1.00  0.00     0.202 C 
ENDBRANCH   9  11
ENDBRANCH   1   9
TORSDOF 5
ENDMDL
MODEL 5
REMARK VINA RESULT: -5.180285666      2.082      2.521
REMARK  5 active torsions:
REMARK  status: ('A' for Active; 'I' for Inactive)
REMARK    1  A    between atoms: C1_4  and  S1_6 
REMARK    2  A    between atoms: S1_6  and  C2_7 
REMARK    3  A    between atoms: C2_7  and  C3_8 
REMARK    4  A    between atoms: C3_8  and  C4_9 
REMARK    5  A    between atoms: C4_9  and  N3_11 
ROOT
HETATM    1  C3  UNL     1      12.170   1.212  31.887  1.00  0.00     0.080 C 
ENDROOT
BRANCH   1   2
HETATM    2  C2  UNL     1      11.252   1.472  30.718  1.00  0.00     0.089 C 
BRANCH   2   3
HETATM    3  S1  UNL     1      11.493   3.188  30.145  1.00  0.00    -0.097 SA
BRANCH   3   4
HETATM    4  C1  UNL     1      12.660   3.252  28.804  1.00  0.00     0.147 C 
HETATM    5  N1  UNL     1      12.784   2.270  27.985  1.00  0.00    -0.382 N 
ATOM      6  H12 UNL     1      13.453   2.307  27.216  1.00  0.00     0.157 HD
ATOM      7  H11 UNL     1      12.211   1.433  28.091  1.00  0.00     0.157 HD
HETATM    8  N2  UNL     1      13.455   4.413  28.656  1.00  0.00    -0.075 NA
ENDBRANCH   3   4
ENDBRANCH   2   3
ENDBRANCH   1   2
BRANCH   1   9
HETATM    9  C4  UNL     1      11.577   0.228  32.847  1.00  0.00     0.080 C 
HETATM   10  S2  UNL     1      10.240  -0.631  32.379  1.00  0.00    -0.065 SA
BRANCH   9  11
HETATM   11  N3  UNL     1      12.130   0.024  34.123  1.00  0.00    -0.345 N 
HETATM   12  C5  UNL     1      11.427   0.035  35.345  1.00  0.00     0.075 C 
HETATM   13  C6  UNL     1      11.744  -1.204  36.120  1.00  0.00     0.120 C 
HETATM   14  S3  UNL     1      13.410  -1.649  35.486  1.00  0.00    -0.144 SA
HETATM   15  C7  UNL     1      13.556  -0.247  34.331  1.00  0.00     0.202 C 
ENDBRANCH   9  11
ENDBRANCH   1   9
TORSDOF 5
ENDMDL
