MODEL 1
REMARK VINA RESULT: -7.388077357      0.000      0.000
REMARK  4 active torsions:
REMARK  status: ('A' for Active; 'I' for Inactive)
REMARK    1  A    between atoms: C2_2  and  C3_3 
REMARK    2  A    between atoms: N2_9  and  C7_10 
REMARK    3  A    between atoms: C7_10  and  C8_11 
REMARK    4  A    between atoms: C12_19  and  N5_20 
ROOT
HETATM    1  C3  UNL     1      10.963   1.785  29.991  1.00  0.00     0.053 A 
HETATM    2  N1  UNL     1      10.519   0.762  30.760  1.00  0.00    -0.352 N 
ATOM      3  H1  UNL     1       9.655   0.279  30.514  1.00  0.00     0.166 HD
HETATM    4  C4  UNL     1      11.213   0.381  31.849  1.00  0.00     0.102 A 
HETATM    5  C5  UNL     1      10.983  -0.612  32.786  1.00  0.00     0.055 A 
HETATM    6  C6  UNL     1       9.811  -1.524  32.750  1.00  0.00     0.072 C 
HETATM    7  N2  UNL     1      11.998  -0.545  33.658  1.00  0.00    -0.292 N 
HETATM    8  N3  UNL     1      12.816   0.425  33.300  1.00  0.00    -0.281 N 
ATOM      9  H3  UNL     1      13.665   0.677  33.805  1.00  0.00     0.189 HD
HETATM   10  C11 UNL     1      12.384   1.043  32.177  1.00  0.00     0.151 A 
HETATM   11  N4  UNL     1      12.849   2.055  31.440  1.00  0.00    -0.324 N 
ATOM     12  H4  UNL     1      13.713   2.535  31.691  1.00  0.00     0.169 HD
HETATM   13  C12 UNL     1      12.132   2.423  30.344  1.00  0.00     0.123 A 
ENDROOT
BRANCH   7  14
HETATM   14  C7  UNL     1      12.144  -1.415  34.804  1.00  0.00     0.153 C 
BRANCH  14  15
HETATM   15  C8  UNL     1      13.285  -1.005  35.711  1.00  0.00    -0.003 C 
HETATM   16  C9  UNL     1      14.522  -1.733  35.204  1.00  0.00     0.011 C 
HETATM   17  C10 UNL     1      13.060  -1.483  37.129  1.00  0.00     0.011 C 
ENDBRANCH  14  15
ENDBRANCH   7  14
BRANCH   1  18
HETATM   18  C2  UNL     1      10.169   2.203  28.790  1.00  0.00     0.056 C 
HETATM   19  C1  UNL     1       9.199   1.158  28.336  1.00  0.00     0.011 C 
ENDBRANCH   1  18
BRANCH  13  20
HETATM   20  N5  UNL     1      12.562   3.395  29.597  1.00  0.00    -0.384 N 
ATOM     21  H52 UNL     1      12.232   4.344  29.771  1.00  0.00     0.157 HD
ATOM     22  H51 UNL     1      13.231   3.183  28.856  1.00  0.00     0.157 HD
ENDBRANCH  13  20
TORSDOF 4
ENDMDL
MODEL 2
REMARK VINA RESULT: -7.150425532      0.742      1.086
REMARK  4 active torsions:
REMARK  status: ('A' for Active; 'I' for Inactive)
REMARK    1  A    between atoms: C2_2  and  C3_3 
REMARK    2  A    between atoms: N2_9  and  C7_10 
REMARK    3  A    between atoms: C7_10  and  C8_11 
REMARK    4  A    between atoms: C12_19  and  N5_20 
ROOT
HETATM    1  C3  UNL     1      10.973   1.776  29.987  1.00  0.00     0.053 A 
HETATM    2  N1  UNL     1      10.523   0.766  30.770  1.00  0.00    -0.352 N 
ATOM      3  H1  UNL     1       9.658   0.282  30.529  1.00  0.00     0.166 HD
HETATM    4  C4  UNL     1      11.214   0.398  31.865  1.00  0.00     0.102 A 
HETATM    5  C5  UNL     1      10.980  -0.580  32.817  1.00  0.00     0.055 A 
HETATM    6  C6  UNL     1       9.805  -1.489  32.792  1.00  0.00     0.072 C 
HETATM    7  N2  UNL     1      11.994  -0.504  33.689  1.00  0.00    -0.292 N 
HETATM    8  N3  UNL     1      12.816   0.457  33.318  1.00  0.00    -0.281 N 
ATOM      9  H3  UNL     1      13.665   0.714  33.821  1.00  0.00     0.189 HD
HETATM   10  C11 UNL     1      12.387   1.060  32.186  1.00  0.00     0.151 A 
HETATM   11  N4  UNL     1      12.857   2.060  31.435  1.00  0.00    -0.324 N 
ATOM     12  H4  UNL     1      13.722   2.541  31.681  1.00  0.00     0.169 HD
HETATM   13  C12 UNL     1      12.144   2.415  30.333  1.00  0.00     0.123 A 
ENDROOT
BRANCH   7  14
HETATM   14  C7  UNL     1      12.135  -1.358  34.848  1.00  0.00     0.153 C 
BRANCH  14  15
HETATM   15  C8  UNL     1      11.886  -0.628  36.149  1.00  0.00    -0.003 C 
HETATM   16  C9  UNL     1      12.354  -1.555  37.262  1.00  0.00     0.011 C 
HETATM   17  C10 UNL     1      10.407  -0.399  36.379  1.00  0.00     0.011 C 
ENDBRANCH  14  15
ENDBRANCH   7  14
BRANCH   1  18
HETATM   18  C2  UNL     1      10.182   2.179  28.779  1.00  0.00     0.056 C 
HETATM   19  C1  UNL     1       9.191   1.141  28.353  1.00  0.00     0.011 C 
ENDBRANCH   1  18
BRANCH  13  20
HETATM   20  N5  UNL     1      12.578   3.374  29.572  1.00  0.00    -0.384 N 
ATOM     21  H52 UNL     1      12.305   3.398  28.589  1.00  0.00     0.157 HD
ATOM     22  H51 UNL     1      13.178   4.090  29.982  1.00  0.00     0.157 HD
ENDBRANCH  13  20
TORSDOF 4
ENDMDL
MODEL 3
REMARK VINA RESULT: -7.000922258      1.312      1.705
REMARK  4 active torsions:
REMARK  status: ('A' for Active; 'I' for Inactive)
REMARK    1  A    between atoms: C2_2  and  C3_3 
REMARK    2  A    between atoms: N2_9  and  C7_10 
REMARK    3  A    between atoms: C7_10  and  C8_11 
REMARK    4  A    between atoms: C12_19  and  N5_20 
ROOT
HETATM    1  C3  UNL     1      11.175   2.616  29.007  1.00  0.00     0.053 A 
HETATM    2  N1  UNL     1      10.572   1.875  29.969  1.00  0.00    -0.352 N 
ATOM      3  H1  UNL     1       9.605   1.574  29.846  1.00  0.00     0.166 HD
HETATM    4  C4  UNL     1      11.244   1.535  31.085  1.00  0.00     0.102 A 
HETATM    5  C5  UNL     1      10.869   0.802  32.198  1.00  0.00     0.055 A 
HETATM    6  C6  UNL     1       9.523   0.198  32.372  1.00  0.00     0.072 C 
HETATM    7  N2  UNL     1      11.938   0.778  33.007  1.00  0.00    -0.292 N 
HETATM    8  N3  UNL     1      12.922   1.452  32.446  1.00  0.00    -0.281 N 
ATOM      9  H3  UNL     1      13.843   1.581  32.866  1.00  0.00     0.189 HD
HETATM   10  C11 UNL     1      12.556   1.950  31.243  1.00  0.00     0.151 A 
HETATM   11  N4  UNL     1      13.178   2.681  30.316  1.00  0.00    -0.324 N 
ATOM     12  H4  UNL     1      14.145   2.981  30.443  1.00  0.00     0.169 HD
HETATM   13  C12 UNL     1      12.481   3.012  29.195  1.00  0.00     0.123 A 
ENDROOT
BRANCH   7  14
HETATM   14  C7  UNL     1      11.972   0.110  34.288  1.00  0.00     0.153 C 
BRANCH  14  15
HETATM   15  C8  UNL     1      12.433  -1.328  34.188  1.00  0.00    -0.003 C 
HETATM   16  C9  UNL     1      11.191  -2.193  34.357  1.00  0.00     0.011 C 
HETATM   17  C10 UNL     1      13.363  -1.690  35.327  1.00  0.00     0.011 C 
ENDBRANCH  14  15
ENDBRANCH   7  14
BRANCH   1  18
HETATM   18  C2  UNL     1      10.405   2.994  27.778  1.00  0.00     0.056 C 
HETATM   19  C1  UNL     1      10.303   1.882  26.783  1.00  0.00     0.011 C 
ENDBRANCH   1  18
BRANCH  13  20
HETATM   20  N5  UNL     1      13.060   3.712  28.266  1.00  0.00    -0.384 N 
ATOM     21  H52 UNL     1      13.348   4.670  28.466  1.00  0.00     0.157 HD
ATOM     22  H51 UNL     1      13.220   3.278  27.357  1.00  0.00     0.157 HD
ENDBRANCH  13  20
TORSDOF 4
ENDMDL
MODEL 4
REMARK VINA RESULT: -7.000158371      1.665      2.852
REMARK  4 active torsions:
REMARK  status: ('A' for Active; 'I' for Inactive)
REMARK    1  A    between atoms: C2_2  and  C3_3 
REMARK    2  A    between atoms: N2_9  and  C7_10 
REMARK    3  A    between atoms: C7_10  and  C8_11 
REMARK    4  A    between atoms: C12_19  and  N5_20 
ROOT
HETATM    1  C3  UNL     1      11.447   2.219  29.812  1.00  0.00     0.053 A 
HETATM    2  N1  UNL     1      12.022   1.841  30.980  1.00  0.00    -0.352 N 
ATOM      3  H1  UNL     1      12.836   2.345  31.331  1.00  0.00     0.166 HD
HETATM    4  C4  UNL     1      11.522   0.804  31.678  1.00  0.00     0.102 A 
HETATM    5  C5  UNL     1      11.913   0.224  32.873  1.00  0.00     0.055 A 
HETATM    6  C6  UNL     1      13.070   0.696  33.678  1.00  0.00     0.072 C 
HETATM    7  N2  UNL     1      11.057  -0.781  33.099  1.00  0.00    -0.292 N 
HETATM    8  N3  UNL     1      10.184  -0.838  32.113  1.00  0.00    -0.281 N 
ATOM      9  H3  UNL     1       9.428  -1.521  32.052  1.00  0.00     0.189 HD
HETATM   10  C11 UNL     1      10.417   0.125  31.193  1.00  0.00     0.151 A 
HETATM   11  N4  UNL     1       9.828   0.471  30.045  1.00  0.00    -0.324 N 
ATOM     12  H4  UNL     1       9.014  -0.036  29.697  1.00  0.00     0.169 HD
HETATM   13  C12 UNL     1      10.348   1.523  29.357  1.00  0.00     0.123 A 
ENDROOT
BRANCH   7  14
HETATM   14  C7  UNL     1      11.111  -1.651  34.252  1.00  0.00     0.153 C 
BRANCH  14  15
HETATM   15  C8  UNL     1      10.477  -1.036  35.481  1.00  0.00    -0.003 C 
HETATM   16  C9  UNL     1      11.408  -1.342  36.647  1.00  0.00     0.011 C 
HETATM   17  C10 UNL     1       9.154  -1.695  35.808  1.00  0.00     0.011 C 
ENDBRANCH  14  15
ENDBRANCH   7  14
BRANCH   1  18
HETATM   18  C2  UNL     1      12.027   3.368  29.044  1.00  0.00     0.056 C 
HETATM   19  C1  UNL     1      13.418   3.717  29.471  1.00  0.00     0.011 C 
ENDBRANCH   1  18
BRANCH  13  20
HETATM   20  N5  UNL     1       9.792   1.896  28.244  1.00  0.00    -0.384 N 
ATOM     21  H52 UNL     1      10.160   2.708  27.747  1.00  0.00     0.157 HD
ATOM     22  H51 UNL     1       9.003   1.357  27.887  1.00  0.00     0.157 HD
ENDBRANCH  13  20
TORSDOF 4
ENDMDL
MODEL 5
REMARK VINA RESULT: -6.998144894      1.302      6.331
REMARK  4 active torsions:
REMARK  status: ('A' for Active; 'I' for Inactive)
REMARK    1  A    between atoms: C2_2  and  C3_3 
REMARK    2  A    between atoms: N2_9  and  C7_10 
REMARK    3  A    between atoms: C7_10  and  C8_11 
REMARK    4  A    between atoms: C12_19  and  N5_20 
ROOT
HETATM    1  C3  UNL     1      12.481  -0.521  34.062  1.00  0.00     0.053 A 
HETATM    2  N1  UNL     1      12.803   0.448  33.171  1.00  0.00    -0.352 N 
ATOM      3  H1  UNL     1      13.692   0.941  33.256  1.00  0.00     0.166 HD
HETATM    4  C4  UNL     1      11.955   0.762  32.174  1.00  0.00     0.102 A 
HETATM    5  C5  UNL     1      12.038   1.693  31.152  1.00  0.00     0.055 A 
HETATM    6  C6  UNL     1      13.199   2.599  30.957  1.00  0.00     0.072 C 
HETATM    7  N2  UNL     1      10.904   1.577  30.447  1.00  0.00    -0.292 N 
HETATM    8  N3  UNL     1      10.151   0.639  30.985  1.00  0.00    -0.281 N 
ATOM      9  H3  UNL     1       9.236   0.363  30.632  1.00  0.00     0.189 HD
HETATM   10  C11 UNL     1      10.749   0.088  32.067  1.00  0.00     0.151 A 
HETATM   11  N4  UNL     1      10.401  -0.871  32.928  1.00  0.00    -0.324 N 
ATOM     12  H4  UNL     1       9.511  -1.360  32.840  1.00  0.00     0.169 HD
HETATM   13  C12 UNL     1      11.274  -1.173  33.927  1.00  0.00     0.123 A 
ENDROOT
BRANCH   7  14
HETATM   14  C7  UNL     1      10.587   2.374  29.283  1.00  0.00     0.153 C 
BRANCH  14  15
HETATM   15  C8  UNL     1      10.369   1.538  28.041  1.00  0.00    -0.003 C 
HETATM   16  C9  UNL     1      10.541   2.475  26.853  1.00  0.00     0.011 C 
HETATM   17  C10 UNL     1       8.950   1.015  27.970  1.00  0.00     0.011 C 
ENDBRANCH  14  15
ENDBRANCH   7  14
BRANCH   1  18
HETATM   18  C2  UNL     1      13.434  -0.846  35.172  1.00  0.00     0.056 C 
HETATM   19  C1  UNL     1      14.803  -1.203  34.685  1.00  0.00     0.011 C 
ENDBRANCH   1  18
BRANCH  13  20
HETATM   20  N5  UNL     1      10.975  -2.109  34.776  1.00  0.00    -0.384 N 
ATOM     21  H52 UNL     1      11.057  -1.925  35.776  1.00  0.00     0.157 HD
ATOM     22  H51 UNL     1      10.653  -3.009  34.418  1.00  0.00     0.157 HD
ENDBRANCH  13  20
TORSDOF 4
ENDMDL
