MODEL 1
REMARK VINA RESULT: -5.308227338      0.000      0.000
REMARK  2 active torsions:
REMARK  status: ('A' for Active; 'I' for Inactive)
REMARK    1  A    between atoms: O1_1  and  C1_3 
REMARK    2  A    between atoms: C1_3  and  C2_4 
ROOT
HETATM    1  C2  UNL     1     -10.540 -31.283 -28.320  1.00  0.00     0.325 C 
HETATM    2  N1  UNL     1     -10.228 -30.864 -27.020  1.00  0.00    -0.306 N 
ATOM      3  H1  UNL     1     -10.779 -30.191 -26.486  1.00  0.00     0.182 HD
HETATM    4  N2  UNL     1      -9.222 -31.401 -26.608  1.00  0.00    -0.303 N 
ATOM      5  H2  UNL     1      -8.812 -31.242 -25.686  1.00  0.00     0.182 HD
HETATM    6  C3  UNL     1      -8.693 -32.281 -27.588  1.00  0.00     0.212 C 
HETATM    7  C4  UNL     1      -7.462 -31.787 -28.260  1.00  0.00     0.063 C 
HETATM    8  C5  UNL     1      -6.327 -32.705 -27.882  1.00  0.00     0.004 C 
HETATM    9  C6  UNL     1      -6.915 -33.871 -27.150  1.00  0.00     0.004 C 
HETATM   10  C7  UNL     1      -8.362 -33.588 -26.909  1.00  0.00     0.063 C 
HETATM   11  N3  UNL     1      -9.801 -32.494 -28.535  1.00  0.00    -0.023 N 
ATOM     12  H31 UNL     1      -9.532 -32.687 -29.500  1.00  0.00     0.282 HD
ATOM     13  H32 UNL     1     -10.324 -33.362 -28.423  1.00  0.00     0.282 HD
ENDROOT
BRANCH   1  14
HETATM   14  C1  UNL     1     -12.017 -31.433 -28.580  1.00  0.00     0.220 C 
BRANCH  14  15
HETATM   15  O1  UNL     1     -12.642 -32.244 -27.660  1.00  0.00    -0.397 OA
ATOM     16  H1  UNL     1     -12.355 -32.082 -26.769  1.00  0.00     0.209 HD
ENDBRANCH  14  15
ENDBRANCH   1  14
TORSDOF 2
ENDMDL
MODEL 2
REMARK VINA RESULT: -4.789411791      8.528      9.347
REMARK  2 active torsions:
REMARK  status: ('A' for Active; 'I' for Inactive)
REMARK    1  A    between atoms: O1_1  and  C1_3 
REMARK    2  A    between atoms: C1_3  and  C2_4 
ROOT
HETATM    1  C2  UNL     1      -6.689 -31.347 -17.667  1.00  0.00     0.325 C 
HETATM    2  N1  UNL     1      -5.518 -32.111 -17.567  1.00  0.00    -0.306 N 
ATOM      3  H1  UNL     1      -5.109 -32.420 -16.685  1.00  0.00     0.182 HD
HETATM    4  N2  UNL     1      -5.052 -32.358 -18.659  1.00  0.00    -0.303 N 
ATOM      5  H2  UNL     1      -4.203 -32.900 -18.821  1.00  0.00     0.182 HD
HETATM    6  C3  UNL     1      -5.855 -31.786 -19.681  1.00  0.00     0.212 C 
HETATM    7  C4  UNL     1      -5.261 -30.591 -20.336  1.00  0.00     0.063 C 
HETATM    8  C5  UNL     1      -4.975 -30.943 -21.774  1.00  0.00     0.004 C 
HETATM    9  C6  UNL     1      -5.587 -32.282 -22.039  1.00  0.00     0.004 C 
HETATM   10  C7  UNL     1      -6.076 -32.838 -20.741  1.00  0.00     0.063 C 
HETATM   11  N3  UNL     1      -7.138 -31.484 -19.023  1.00  0.00    -0.023 N 
ATOM     12  H31 UNL     1      -7.659 -30.694 -19.403  1.00  0.00     0.282 HD
ATOM     13  H32 UNL     1      -7.889 -32.156 -19.178  1.00  0.00     0.282 HD
ENDROOT
BRANCH   1  14
HETATM   14  C1  UNL     1      -7.744 -31.703 -16.652  1.00  0.00     0.220 C 
BRANCH  14  15
HETATM   15  O1  UNL     1      -8.938 -32.071 -17.228  1.00  0.00    -0.397 OA
ATOM     16  H1  UNL     1      -9.694 -31.754 -16.748  1.00  0.00     0.209 HD
ENDBRANCH  14  15
ENDBRANCH   1  14
TORSDOF 2
ENDMDL
MODEL 3
REMARK VINA RESULT: -4.496785541      2.247      4.109
REMARK  2 active torsions:
REMARK  status: ('A' for Active; 'I' for Inactive)
REMARK    1  A    between atoms: O1_1  and  C1_3 
REMARK    2  A    between atoms: C1_3  and  C2_4 
ROOT
HETATM    1  C2  UNL     1      -8.750 -33.143 -27.175  1.00  0.00     0.325 C 
HETATM    2  N1  UNL     1      -8.965 -32.234 -26.131  1.00  0.00    -0.306 N 
ATOM      3  H1  UNL     1      -8.736 -32.417 -25.154  1.00  0.00     0.182 HD
HETATM    4  N2  UNL     1      -9.458 -31.201 -26.534  1.00  0.00    -0.303 N 
ATOM      5  H2  UNL     1      -9.700 -30.403 -25.946  1.00  0.00     0.182 HD
HETATM    6  C3  UNL     1      -9.653 -31.261 -27.939  1.00  0.00     0.212 C 
HETATM    7  C4  UNL     1     -11.070 -31.426 -28.359  1.00  0.00     0.063 C 
HETATM    8  C5  UNL     1     -11.486 -30.176 -29.093  1.00  0.00     0.004 C 
HETATM    9  C6  UNL     1     -10.258 -29.344 -29.296  1.00  0.00     0.004 C 
HETATM   10  C7  UNL     1      -9.137 -29.973 -28.534  1.00  0.00     0.063 C 
HETATM   11  N3  UNL     1      -8.803 -32.377 -28.387  1.00  0.00    -0.023 N 
ATOM     12  H31 UNL     1      -9.122 -32.876 -29.217  1.00  0.00     0.282 HD
ATOM     13  H32 UNL     1      -7.903 -32.119 -28.791  1.00  0.00     0.282 HD
ENDROOT
BRANCH   1  14
HETATM   14  C1  UNL     1      -7.485 -33.951 -27.036  1.00  0.00     0.220 C 
BRANCH  14  15
HETATM   15  O1  UNL     1      -6.431 -33.213 -26.546  1.00  0.00    -0.397 OA
ATOM     16  H1  UNL     1      -5.928 -33.679 -25.888  1.00  0.00     0.209 HD
ENDBRANCH  14  15
ENDBRANCH   1  14
TORSDOF 2
ENDMDL
MODEL 4
REMARK VINA RESULT: -4.489229798      8.736      9.737
REMARK  2 active torsions:
REMARK  status: ('A' for Active; 'I' for Inactive)
REMARK    1  A    between atoms: O1_1  and  C1_3 
REMARK    2  A    between atoms: C1_3  and  C2_4 
ROOT
HETATM    1  C2  UNL     1      -5.158 -32.131 -20.415  1.00  0.00     0.325 C 
HETATM    2  N1  UNL     1      -5.646 -30.824 -20.545  1.00  0.00    -0.306 N 
ATOM      3  H1  UNL     1      -5.410 -30.198 -21.316  1.00  0.00     0.182 HD
HETATM    4  N2  UNL     1      -6.384 -30.531 -19.628  1.00  0.00    -0.303 N 
ATOM      5  H2  UNL     1      -6.850 -29.629 -19.522  1.00  0.00     0.182 HD
HETATM    6  C3  UNL     1      -6.506 -31.618 -18.724  1.00  0.00     0.212 C 
HETATM    7  C4  UNL     1      -5.781 -31.436 -17.439  1.00  0.00     0.063 C 
HETATM    8  C5  UNL     1      -6.805 -31.356 -16.335  1.00  0.00     0.004 C 
HETATM    9  C6  UNL     1      -8.136 -31.698 -16.930  1.00  0.00     0.004 C 
HETATM   10  C7  UNL     1      -7.972 -31.799 -18.412  1.00  0.00     0.063 C 
HETATM   11  N3  UNL     1      -6.024 -32.787 -19.478  1.00  0.00    -0.023 N 
ATOM     12  H31 UNL     1      -5.600 -33.532 -18.924  1.00  0.00     0.282 HD
ATOM     13  H32 UNL     1      -6.743 -33.388 -19.880  1.00  0.00     0.282 HD
ENDROOT
BRANCH   1  14
HETATM   14  C1  UNL     1      -5.025 -32.871 -21.722  1.00  0.00     0.220 C 
BRANCH  14  15
HETATM   15  O1  UNL     1      -4.215 -33.980 -21.627  1.00  0.00    -0.397 OA
ATOM     16  H1  UNL     1      -3.786 -34.054 -20.782  1.00  0.00     0.209 HD
ENDBRANCH  14  15
ENDBRANCH   1  14
TORSDOF 2
ENDMDL
MODEL 5
REMARK VINA RESULT: -4.255967722      2.457      4.266
REMARK  2 active torsions:
REMARK  status: ('A' for Active; 'I' for Inactive)
REMARK    1  A    between atoms: O1_1  and  C1_3 
REMARK    2  A    between atoms: C1_3  and  C2_4 
ROOT
HETATM    1  C2  UNL     1      -7.759 -33.213 -27.499  1.00  0.00     0.325 C 
HETATM    2  N1  UNL     1      -8.323 -32.902 -26.255  1.00  0.00    -0.306 N 
ATOM      3  H1  UNL     1      -8.033 -33.325 -25.372  1.00  0.00     0.182 HD
HETATM    4  N2  UNL     1      -9.198 -32.069 -26.357  1.00  0.00    -0.303 N 
ATOM      5  H2  UNL     1      -9.742 -31.697 -25.578  1.00  0.00     0.182 HD
HETATM    6  C3  UNL     1      -9.359 -31.684 -27.714  1.00  0.00     0.212 C 
HETATM    7  C4  UNL     1     -10.585 -32.216 -28.364  1.00  0.00     0.063 C 
HETATM    8  C5  UNL     1     -11.481 -31.047 -28.692  1.00  0.00     0.004 C 
HETATM    9  C6  UNL     1     -10.704 -29.796 -28.427  1.00  0.00     0.004 C 
HETATM   10  C7  UNL     1      -9.419 -30.176 -27.765  1.00  0.00     0.063 C 
HETATM   11  N3  UNL     1      -8.128 -32.143 -28.381  1.00  0.00    -0.023 N 
ATOM     12  H31 UNL     1      -8.220 -32.388 -29.367  1.00  0.00     0.282 HD
ATOM     13  H32 UNL     1      -7.415 -31.431 -28.542  1.00  0.00     0.282 HD
ENDROOT
BRANCH   1  14
HETATM   14  C1  UNL     1      -6.274 -33.463 -27.457  1.00  0.00     0.220 C 
BRANCH  14  15
HETATM   15  O1  UNL     1      -5.834 -34.250 -28.498  1.00  0.00    -0.397 OA
ATOM     16  H1  UNL     1      -5.516 -35.098 -28.211  1.00  0.00     0.209 HD
ENDBRANCH  14  15
ENDBRANCH   1  14
TORSDOF 2
ENDMDL
