MODEL 1
REMARK VINA RESULT: -4.179271743      0.000      0.000
REMARK  6 active torsions:
REMARK  status: ('A' for Active; 'I' for Inactive)
REMARK    1  A    between atoms: C2_2  and  O1_4 
REMARK    2  A    between atoms: O1_4  and  C4_5 
REMARK    3  A    between atoms: C4_5  and  N1_6 
REMARK    4  A    between atoms: C4_5  and  N2_9 
REMARK    5  A    between atoms: N2_9  and  N3_11 
REMARK    6  A    between atoms: N3_11  and  C5_13 
ROOT
HETATM    1  C4  UNL     1      -4.784 -33.176 -20.762  1.00  0.00     0.232 C 
ENDROOT
BRANCH   1   2
HETATM    2  O1  UNL     1      -5.973 -32.610 -21.203  1.00  0.00    -0.317 OA
BRANCH   2   3
HETATM    3  C2  UNL     1      -6.132 -31.207 -21.268  1.00  0.00     0.123 C 
HETATM    4  C1  UNL     1      -4.844 -30.513 -21.659  1.00  0.00     0.040 C 
HETATM    5  C3  UNL     1      -6.519 -30.730 -19.887  1.00  0.00     0.040 C 
ENDBRANCH   2   3
ENDBRANCH   1   2
BRANCH   1   6
HETATM    6  N1  UNL     1      -4.260 -34.086 -21.513  1.00  0.00    -0.364 N 
ATOM      7  H12 UNL     1      -4.776 -34.631 -22.204  1.00  0.00     0.159 HD
ATOM      8  H11 UNL     1      -3.261 -34.258 -21.396  1.00  0.00     0.159 HD
ENDBRANCH   1   6
BRANCH   1   9
HETATM    9  N2  UNL     1      -4.230 -32.730 -19.544  1.00  0.00    -0.265 N 
ATOM     10  H2  UNL     1      -3.621 -31.913 -19.518  1.00  0.00     0.190 HD
BRANCH   9  11
HETATM   11  N3  UNL     1      -4.537 -33.439 -18.356  1.00  0.00    -0.298 N 
ATOM     12  H3  UNL     1      -4.392 -34.444 -18.265  1.00  0.00     0.187 HD
BRANCH  11  13
HETATM   13  C5  UNL     1      -5.009 -32.723 -17.404  1.00  0.00     0.188 C 
HETATM   14  S1  UNL     1      -6.033 -31.992 -16.392  1.00  0.00    -0.073 SA
ENDBRANCH  11  13
ENDBRANCH   9  11
ENDBRANCH   1   9
TORSDOF 6
ENDMDL
MODEL 2
REMARK VINA RESULT: -4.176040420      8.514      9.504
REMARK  6 active torsions:
REMARK  status: ('A' for Active; 'I' for Inactive)
REMARK    1  A    between atoms: C2_2  and  O1_4 
REMARK    2  A    between atoms: O1_4  and  C4_5 
REMARK    3  A    between atoms: C4_5  and  N1_6 
REMARK    4  A    between atoms: C4_5  and  N2_9 
REMARK    5  A    between atoms: N2_9  and  N3_11 
REMARK    6  A    between atoms: N3_11  and  C5_13 
ROOT
HETATM    1  C4  UNL     1      -9.560 -32.445 -27.307  1.00  0.00     0.232 C 
ENDROOT
BRANCH   1   2
HETATM    2  O1  UNL     1     -10.699 -32.422 -28.101  1.00  0.00    -0.317 OA
BRANCH   2   3
HETATM    3  C2  UNL     1     -11.502 -31.262 -28.188  1.00  0.00     0.123 C 
HETATM    4  C1  UNL     1     -12.978 -31.593 -28.118  1.00  0.00     0.040 C 
HETATM    5  C3  UNL     1     -11.230 -30.623 -29.532  1.00  0.00     0.040 C 
ENDBRANCH   2   3
ENDBRANCH   1   2
BRANCH   1   6
HETATM    6  N1  UNL     1      -9.366 -31.425 -26.540  1.00  0.00    -0.364 N 
ATOM      7  H12 UNL     1      -9.132 -31.484 -25.549  1.00  0.00     0.159 HD
ATOM      8  H11 UNL     1      -9.455 -30.504 -26.970  1.00  0.00     0.159 HD
ENDBRANCH   1   6
BRANCH   1   9
HETATM    9  N2  UNL     1      -8.701 -33.561 -27.384  1.00  0.00    -0.265 N 
ATOM     10  H2  UNL     1      -8.934 -34.355 -27.979  1.00  0.00     0.190 HD
BRANCH   9  11
HETATM   11  N3  UNL     1      -7.508 -33.557 -26.620  1.00  0.00    -0.298 N 
ATOM     12  H3  UNL     1      -7.509 -33.481 -25.603  1.00  0.00     0.187 HD
BRANCH  11  13
HETATM   13  C5  UNL     1      -6.428 -33.657 -27.302  1.00  0.00     0.188 C 
HETATM   14  S1  UNL     1      -5.294 -34.200 -28.315  1.00  0.00    -0.073 SA
ENDBRANCH  11  13
ENDBRANCH   9  11
ENDBRANCH   1   9
TORSDOF 6
ENDMDL
MODEL 3
REMARK VINA RESULT: -4.074243212      8.621      9.280
REMARK  6 active torsions:
REMARK  status: ('A' for Active; 'I' for Inactive)
REMARK    1  A    between atoms: C2_2  and  O1_4 
REMARK    2  A    between atoms: O1_4  and  C4_5 
REMARK    3  A    between atoms: C4_5  and  N1_6 
REMARK    4  A    between atoms: C4_5  and  N2_9 
REMARK    5  A    between atoms: N2_9  and  N3_11 
REMARK    6  A    between atoms: N3_11  and  C5_13 
ROOT
HETATM    1  C4  UNL     1      -9.151 -32.044 -27.835  1.00  0.00     0.232 C 
ENDROOT
BRANCH   1   2
HETATM    2  O1  UNL     1      -7.839 -32.454 -28.034  1.00  0.00    -0.317 OA
BRANCH   2   3
HETATM    3  C2  UNL     1      -7.194 -33.307 -27.109  1.00  0.00     0.123 C 
HETATM    4  C1  UNL     1      -5.889 -33.844 -27.655  1.00  0.00     0.040 C 
HETATM    5  C3  UNL     1      -8.114 -34.481 -26.859  1.00  0.00     0.040 C 
ENDBRANCH   2   3
ENDBRANCH   1   2
BRANCH   1   6
HETATM    6  N1  UNL     1     -10.038 -32.527 -28.638  1.00  0.00    -0.364 N 
ATOM      7  H12 UNL     1     -10.695 -33.268 -28.394  1.00  0.00     0.159 HD
ATOM      8  H11 UNL     1     -10.073 -32.128 -29.577  1.00  0.00     0.159 HD
ENDBRANCH   1   6
BRANCH   1   9
HETATM    9  N2  UNL     1      -9.428 -31.141 -26.788  1.00  0.00    -0.265 N 
ATOM     10  H2  UNL     1      -8.834 -31.107 -25.960  1.00  0.00     0.190 HD
BRANCH   9  11
HETATM   11  N3  UNL     1     -10.549 -30.282 -26.906  1.00  0.00    -0.298 N 
ATOM     12  H3  UNL     1     -11.494 -30.579 -26.666  1.00  0.00     0.187 HD
BRANCH  11  13
HETATM   13  C5  UNL     1     -10.286 -29.105 -27.339  1.00  0.00     0.188 C 
HETATM   14  S1  UNL     1     -10.193 -27.498 -27.462  1.00  0.00    -0.073 SA
ENDBRANCH  11  13
ENDBRANCH   9  11
ENDBRANCH   1   9
TORSDOF 6
ENDMDL
MODEL 4
REMARK VINA RESULT: -4.073536695      8.764      9.833
REMARK  6 active torsions:
REMARK  status: ('A' for Active; 'I' for Inactive)
REMARK    1  A    between atoms: C2_2  and  O1_4 
REMARK    2  A    between atoms: O1_4  and  C4_5 
REMARK    3  A    between atoms: C4_5  and  N1_6 
REMARK    4  A    between atoms: C4_5  and  N2_9 
REMARK    5  A    between atoms: N2_9  and  N3_11 
REMARK    6  A    between atoms: N3_11  and  C5_13 
ROOT
HETATM    1  C4  UNL     1      -9.262 -31.999 -27.415  1.00  0.00     0.232 C 
ENDROOT
BRANCH   1   2
HETATM    2  O1  UNL     1      -8.008 -32.448 -27.807  1.00  0.00    -0.317 OA
BRANCH   2   3
HETATM    3  C2  UNL     1      -7.293 -33.385 -27.026  1.00  0.00     0.123 C 
HETATM    4  C1  UNL     1      -6.020 -33.834 -27.712  1.00  0.00     0.040 C 
HETATM    5  C3  UNL     1      -8.180 -34.597 -26.847  1.00  0.00     0.040 C 
ENDBRANCH   2   3
ENDBRANCH   1   2
BRANCH   1   6
HETATM    6  N1  UNL     1      -9.338 -31.417 -26.266  1.00  0.00    -0.364 N 
ATOM      7  H12 UNL     1      -9.048 -31.841 -25.384  1.00  0.00     0.159 HD
ATOM      8  H11 UNL     1      -9.714 -30.469 -26.255  1.00  0.00     0.159 HD
ENDBRANCH   1   6
BRANCH   1   9
HETATM    9  N2  UNL     1     -10.357 -32.203 -28.281  1.00  0.00    -0.265 N 
ATOM     10  H2  UNL     1     -10.244 -32.732 -29.145  1.00  0.00     0.190 HD
BRANCH   9  11
HETATM   11  N3  UNL     1     -11.616 -31.658 -27.928  1.00  0.00    -0.298 N 
ATOM     12  H3  UNL     1     -12.211 -32.074 -27.212  1.00  0.00     0.187 HD
BRANCH  11  13
HETATM   13  C5  UNL     1     -11.950 -30.604 -28.575  1.00  0.00     0.188 C 
HETATM   14  S1  UNL     1     -11.950 -29.108 -29.181  1.00  0.00    -0.073 SA
ENDBRANCH  11  13
ENDBRANCH   9  11
ENDBRANCH   1   9
TORSDOF 6
ENDMDL
MODEL 5
REMARK VINA RESULT: -4.036643269      8.264      8.958
REMARK  6 active torsions:
REMARK  status: ('A' for Active; 'I' for Inactive)
REMARK    1  A    between atoms: C2_2  and  O1_4 
REMARK    2  A    between atoms: O1_4  and  C4_5 
REMARK    3  A    between atoms: C4_5  and  N1_6 
REMARK    4  A    between atoms: C4_5  and  N2_9 
REMARK    5  A    between atoms: N2_9  and  N3_11 
REMARK    6  A    between atoms: N3_11  and  C5_13 
ROOT
HETATM    1  C4  UNL     1      -7.968 -33.567 -26.771  1.00  0.00     0.232 C 
ENDROOT
BRANCH   1   2
HETATM    2  O1  UNL     1      -6.628 -33.299 -27.019  1.00  0.00    -0.317 OA
BRANCH   2   3
HETATM    3  C2  UNL     1      -6.087 -33.434 -28.319  1.00  0.00     0.123 C 
HETATM    4  C1  UNL     1      -5.115 -34.591 -28.405  1.00  0.00     0.040 C 
HETATM    5  C3  UNL     1      -5.329 -32.163 -28.628  1.00  0.00     0.040 C 
ENDBRANCH   2   3
ENDBRANCH   1   2
BRANCH   1   6
HETATM    6  N1  UNL     1      -8.359 -34.785 -26.947  1.00  0.00    -0.364 N 
ATOM      7  H12 UNL     1      -7.780 -35.608 -26.778  1.00  0.00     0.159 HD
ATOM      8  H11 UNL     1      -9.315 -34.916 -27.278  1.00  0.00     0.159 HD
ENDBRANCH   1   6
BRANCH   1   9
HETATM    9  N2  UNL     1      -8.804 -32.513 -26.349  1.00  0.00    -0.265 N 
ATOM     10  H2  UNL     1      -8.685 -32.092 -25.429  1.00  0.00     0.190 HD
BRANCH   9  11
HETATM   11  N3  UNL     1      -9.814 -32.051 -27.228  1.00  0.00    -0.298 N 
ATOM     12  H3  UNL     1     -10.776 -32.388 -27.184  1.00  0.00     0.187 HD
BRANCH  11  13
HETATM   13  C5  UNL     1      -9.430 -31.176 -28.083  1.00  0.00     0.188 C 
HETATM   14  S1  UNL     1      -8.528 -30.106 -28.887  1.00  0.00    -0.073 SA
ENDBRANCH  11  13
ENDBRANCH   9  11
ENDBRANCH   1   9
TORSDOF 6
ENDMDL
