MODEL 1
REMARK VINA RESULT: -4.706088941      0.000      0.000
REMARK  1 active torsions:
REMARK  status: ('A' for Active; 'I' for Inactive)
REMARK    1  A    between atoms: S1_2  and  C2_3 
ROOT
HETATM    1  C2  UNL     1      -4.804 -31.545 -19.995  1.00  0.00     0.171 C 
HETATM    2  N1  UNL     1      -4.384 -32.900 -19.887  1.00  0.00    -0.124 NA
HETATM    3  N2  UNL     1      -4.630 -33.332 -18.588  1.00  0.00    -0.292 N 
ATOM      4  H2  UNL     1      -4.317 -34.228 -18.214  1.00  0.00     0.183 HD
HETATM    5  C3  UNL     1      -5.296 -32.468 -17.921  1.00  0.00     0.095 C 
HETATM    6  N3  UNL     1      -5.818 -32.377 -16.581  1.00  0.00    -0.379 N 
ATOM      7  H3  UNL     1      -5.437 -32.917 -15.803  1.00  0.00     0.160 HD
HETATM    8  C4  UNL     1      -6.934 -31.452 -16.427  1.00  0.00     0.121 C 
HETATM    9  C5  UNL     1      -7.806 -31.668 -17.672  1.00  0.00     0.020 C 
HETATM   10  C6  UNL     1      -7.088 -31.271 -18.944  1.00  0.00     0.016 C 
HETATM   11  C7  UNL     1      -5.583 -31.283 -18.773  1.00  0.00     0.085 C 
ENDROOT
BRANCH   1  12
HETATM   12  S1  UNL     1      -5.696 -31.186 -21.524  1.00  0.00    -0.149 SA
HETATM   13  C1  UNL     1      -5.645 -32.693 -22.536  1.00  0.00     0.091 C 
ENDBRANCH   1  12
TORSDOF 1
ENDMDL
MODEL 2
REMARK VINA RESULT: -4.584461885      1.808      3.851
REMARK  1 active torsions:
REMARK  status: ('A' for Active; 'I' for Inactive)
REMARK    1  A    between atoms: S1_2  and  C2_3 
ROOT
HETATM    1  C2  UNL     1      -6.039 -32.536 -17.998  1.00  0.00     0.171 C 
HETATM    2  N1  UNL     1      -4.658 -32.678 -17.691  1.00  0.00    -0.124 NA
HETATM    3  N2  UNL     1      -3.969 -32.927 -18.873  1.00  0.00    -0.292 N 
ATOM      4  H2  UNL     1      -2.983 -33.181 -18.918  1.00  0.00     0.183 HD
HETATM    5  C3  UNL     1      -4.726 -32.799 -19.897  1.00  0.00     0.095 C 
HETATM    6  N3  UNL     1      -4.564 -32.928 -21.322  1.00  0.00    -0.379 N 
ATOM      7  H3  UNL     1      -3.822 -33.486 -21.745  1.00  0.00     0.160 HD
HETATM    8  C4  UNL     1      -5.548 -32.196 -22.112  1.00  0.00     0.121 C 
HETATM    9  C5  UNL     1      -5.721 -30.853 -21.389  1.00  0.00     0.020 C 
HETATM   10  C6  UNL     1      -6.317 -31.025 -20.008  1.00  0.00     0.016 C 
HETATM   11  C7  UNL     1      -6.099 -32.423 -19.465  1.00  0.00     0.085 C 
ENDROOT
BRANCH   1  12
HETATM   12  S1  UNL     1      -6.837 -31.171 -17.125  1.00  0.00    -0.149 SA
HETATM   13  C1  UNL     1      -8.467 -31.765 -16.586  1.00  0.00     0.091 C 
ENDBRANCH   1  12
TORSDOF 1
ENDMDL
MODEL 3
REMARK VINA RESULT: -4.012983372      1.940      2.438
REMARK  1 active torsions:
REMARK  status: ('A' for Active; 'I' for Inactive)
REMARK    1  A    between atoms: S1_2  and  C2_3 
ROOT
HETATM    1  C2  UNL     1      -6.373 -31.618 -20.055  1.00  0.00     0.171 C 
HETATM    2  N1  UNL     1      -6.376 -30.229 -19.748  1.00  0.00    -0.124 NA
HETATM    3  N2  UNL     1      -6.456 -30.087 -18.367  1.00  0.00    -0.292 N 
ATOM      4  H2  UNL     1      -6.589 -29.195 -17.890  1.00  0.00     0.183 HD
HETATM    5  C3  UNL     1      -6.343 -31.212 -17.768  1.00  0.00     0.095 C 
HETATM    6  N3  UNL     1      -6.349 -31.657 -16.398  1.00  0.00    -0.379 N 
ATOM      7  H3  UNL     1      -6.784 -31.122 -15.646  1.00  0.00     0.160 HD
HETATM    8  C4  UNL     1      -5.681 -32.934 -16.174  1.00  0.00     0.121 C 
HETATM    9  C5  UNL     1      -4.424 -32.887 -17.053  1.00  0.00     0.020 C 
HETATM   10  C6  UNL     1      -4.764 -32.830 -18.527  1.00  0.00     0.016 C 
HETATM   11  C7  UNL     1      -6.162 -32.299 -18.767  1.00  0.00     0.085 C 
ENDROOT
BRANCH   1  12
HETATM   12  S1  UNL     1      -5.178 -32.074 -21.330  1.00  0.00    -0.149 SA
HETATM   13  C1  UNL     1      -4.355 -30.543 -21.858  1.00  0.00     0.091 C 
ENDBRANCH   1  12
TORSDOF 1
ENDMDL
MODEL 4
REMARK VINA RESULT: -3.799058994      8.743      9.706
REMARK  1 active torsions:
REMARK  status: ('A' for Active; 'I' for Inactive)
REMARK    1  A    between atoms: S1_2  and  C2_3 
ROOT
HETATM    1  C2  UNL     1      -9.341 -30.728 -28.533  1.00  0.00     0.171 C 
HETATM    2  N1  UNL     1      -9.762 -30.382 -27.220  1.00  0.00    -0.124 NA
HETATM    3  N2  UNL     1      -9.405 -31.414 -26.359  1.00  0.00    -0.292 N 
ATOM      4  H2  UNL     1      -9.692 -31.470 -25.382  1.00  0.00     0.183 HD
HETATM    5  C3  UNL     1      -8.673 -32.286 -26.944  1.00  0.00     0.095 C 
HETATM    6  N3  UNL     1      -8.032 -33.518 -26.563  1.00  0.00    -0.379 N 
ATOM      7  H3  UNL     1      -8.346 -34.083 -25.773  1.00  0.00     0.160 HD
HETATM    8  C4  UNL     1      -6.897 -33.894 -27.398  1.00  0.00     0.121 C 
HETATM    9  C5  UNL     1      -6.143 -32.583 -27.660  1.00  0.00     0.020 C 
HETATM   10  C6  UNL     1      -6.969 -31.605 -28.467  1.00  0.00     0.016 C 
HETATM   11  C7  UNL     1      -8.453 -31.891 -28.361  1.00  0.00     0.085 C 
ENDROOT
BRANCH   1  12
HETATM   12  S1  UNL     1      -8.586 -29.357 -29.435  1.00  0.00    -0.149 SA
HETATM   13  C1  UNL     1      -9.091 -27.828 -28.596  1.00  0.00     0.091 C 
ENDBRANCH   1  12
TORSDOF 1
ENDMDL
MODEL 5
REMARK VINA RESULT: -3.774263885      1.871      2.352
REMARK  1 active torsions:
REMARK  status: ('A' for Active; 'I' for Inactive)
REMARK    1  A    between atoms: S1_2  and  C2_3 
ROOT
HETATM    1  C2  UNL     1      -6.068 -31.797 -20.231  1.00  0.00     0.171 C 
HETATM    2  N1  UNL     1      -6.193 -30.395 -20.030  1.00  0.00    -0.124 NA
HETATM    3  N2  UNL     1      -6.497 -30.169 -18.691  1.00  0.00    -0.292 N 
ATOM      4  H2  UNL     1      -6.751 -29.259 -18.307  1.00  0.00     0.183 HD
HETATM    5  C3  UNL     1      -6.420 -31.244 -18.002  1.00  0.00     0.095 C 
HETATM    6  N3  UNL     1      -6.617 -31.600 -16.620  1.00  0.00    -0.379 N 
ATOM      7  H3  UNL     1      -7.193 -31.047 -15.984  1.00  0.00     0.160 HD
HETATM    8  C4  UNL     1      -5.926 -32.815 -16.203  1.00  0.00     0.121 C 
HETATM    9  C5  UNL     1      -4.551 -32.744 -16.880  1.00  0.00     0.020 C 
HETATM   10  C6  UNL     1      -4.657 -32.804 -18.388  1.00  0.00     0.016 C 
HETATM   11  C7  UNL     1      -6.027 -32.380 -18.879  1.00  0.00     0.085 C 
ENDROOT
BRANCH   1  12
HETATM   12  S1  UNL     1      -4.665 -32.256 -21.270  1.00  0.00    -0.149 SA
HETATM   13  C1  UNL     1      -4.602 -34.071 -21.306  1.00  0.00     0.091 C 
ENDBRANCH   1  12
TORSDOF 1
ENDMDL
