MODEL 1
REMARK VINA RESULT: -2.778405271      0.000      0.000
REMARK  2 active torsions:
REMARK  status: ('A' for Active; 'I' for Inactive)
REMARK    1  A    between atoms: S1_2  and  N1_3 
REMARK    2  A    between atoms: C3_8  and  N2_9 
ROOT
HETATM    1  C1  UNL     1     -12.126 -27.480 -28.502  1.00  0.00     0.090 C 
HETATM    2  S1  UNL     1     -11.623 -27.819 -26.712  1.00  0.00    -0.179 SA
HETATM    3  C2  UNL     1     -10.815 -26.237 -26.395  1.00  0.00     0.148 C 
HETATM    4  S2  UNL     1     -12.306 -25.108 -26.341  1.00  0.00    -0.126 SA
HETATM    5  C3  UNL     1     -13.064 -26.072 -24.979  1.00  0.00     0.254 C 
HETATM    6  C4  UNL     1     -12.805 -27.537 -25.325  1.00  0.00     0.117 C 
ENDROOT
BRANCH   2   7
HETATM    7  N1  UNL     1     -11.823 -29.528 -26.805  1.00  0.00    -0.390 N 
ATOM      8  H12 UNL     1     -12.404 -30.110 -27.409  1.00  0.00     0.162 HD
ATOM      9  H11 UNL     1     -11.166 -29.745 -26.056  1.00  0.00     0.162 HD
ENDBRANCH   2   7
BRANCH   5  10
HETATM   10  N2  UNL     1     -12.263 -25.730 -23.791  1.00  0.00    -0.066 N 
ATOM     11  H23 UNL     1     -11.811 -24.817 -23.844  1.00  0.00     0.275 HD
ATOM     12  H22 UNL     1     -12.818 -25.534 -22.958  1.00  0.00     0.275 HD
ATOM     13  H21 UNL     1     -11.614 -26.509 -23.685  1.00  0.00     0.275 HD
ENDBRANCH   5  10
TORSDOF 2
ENDMDL
MODEL 2
REMARK VINA RESULT: -2.603373453      2.217      2.628
REMARK  2 active torsions:
REMARK  status: ('A' for Active; 'I' for Inactive)
REMARK    1  A    between atoms: S1_2  and  N1_3 
REMARK    2  A    between atoms: C3_8  and  N2_9 
ROOT
HETATM    1  C1  UNL     1     -13.103 -28.805 -28.096  1.00  0.00     0.090 C 
HETATM    2  S1  UNL     1     -11.913 -28.476 -26.665  1.00  0.00    -0.179 SA
HETATM    3  C2  UNL     1     -10.382 -28.544 -27.617  1.00  0.00     0.148 C 
HETATM    4  S2  UNL     1     -10.524 -26.952 -28.588  1.00  0.00    -0.126 SA
HETATM    5  C3  UNL     1     -10.639 -25.954 -27.055  1.00  0.00     0.254 C 
HETATM    6  C4  UNL     1     -11.541 -26.755 -26.116  1.00  0.00     0.117 C 
ENDROOT
BRANCH   2   7
HETATM    7  N1  UNL     1     -13.046 -28.845 -25.420  1.00  0.00    -0.390 N 
ATOM      8  H12 UNL     1     -13.821 -28.310 -25.029  1.00  0.00     0.162 HD
ATOM      9  H11 UNL     1     -12.672 -29.773 -25.220  1.00  0.00     0.162 HD
ENDBRANCH   2   7
BRANCH   5  10
HETATM   10  N2  UNL     1      -9.274 -25.962 -26.502  1.00  0.00    -0.066 N 
ATOM     11  H23 UNL     1      -8.898 -25.034 -26.310  1.00  0.00     0.275 HD
ATOM     12  H22 UNL     1      -9.216 -26.309 -25.544  1.00  0.00     0.275 HD
ATOM     13  H21 UNL     1      -8.727 -26.501 -27.174  1.00  0.00     0.275 HD
ENDBRANCH   5  10
TORSDOF 2
ENDMDL
MODEL 3
REMARK VINA RESULT: -2.596185915      4.630      5.654
REMARK  2 active torsions:
REMARK  status: ('A' for Active; 'I' for Inactive)
REMARK    1  A    between atoms: S1_2  and  N1_3 
REMARK    2  A    between atoms: C3_8  and  N2_9 
ROOT
HETATM    1  C1  UNL     1      -7.829 -30.367 -28.900  1.00  0.00     0.090 C 
HETATM    2  S1  UNL     1      -8.989 -31.239 -27.688  1.00  0.00    -0.179 SA
HETATM    3  C2  UNL     1     -10.148 -29.875 -27.457  1.00  0.00     0.148 C 
HETATM    4  S2  UNL     1     -10.997 -29.875 -29.124  1.00  0.00    -0.126 SA
HETATM    5  C3  UNL     1     -11.533 -31.616 -28.921  1.00  0.00     0.254 C 
HETATM    6  C4  UNL     1     -10.342 -32.337 -28.293  1.00  0.00     0.117 C 
ENDROOT
BRANCH   2   7
HETATM    7  N1  UNL     1      -7.882 -32.491 -27.271  1.00  0.00    -0.390 N 
ATOM      8  H12 UNL     1      -6.876 -32.583 -27.416  1.00  0.00     0.162 HD
ATOM      9  H11 UNL     1      -8.578 -33.096 -26.835  1.00  0.00     0.162 HD
ENDBRANCH   2   7
BRANCH   5  10
HETATM   10  N2  UNL     1     -12.616 -31.558 -27.924  1.00  0.00    -0.066 N 
ATOM     11  H23 UNL     1     -12.807 -30.619 -27.573  1.00  0.00     0.275 HD
ATOM     12  H22 UNL     1     -13.545 -31.727 -28.309  1.00  0.00     0.275 HD
ATOM     13  H21 UNL     1     -12.337 -32.222 -27.202  1.00  0.00     0.275 HD
ENDBRANCH   5  10
TORSDOF 2
ENDMDL
MODEL 4
REMARK VINA RESULT: -2.566496766      1.981      3.879
REMARK  2 active torsions:
REMARK  status: ('A' for Active; 'I' for Inactive)
REMARK    1  A    between atoms: S1_2  and  N1_3 
REMARK    2  A    between atoms: C3_8  and  N2_9 
ROOT
HETATM    1  C1  UNL     1     -13.122 -26.339 -27.398  1.00  0.00     0.090 C 
HETATM    2  S1  UNL     1     -11.697 -27.078 -26.401  1.00  0.00    -0.179 SA
HETATM    3  C2  UNL     1     -12.488 -28.649 -25.997  1.00  0.00     0.148 C 
HETATM    4  S2  UNL     1     -12.468 -29.472 -27.677  1.00  0.00    -0.126 SA
HETATM    5  C3  UNL     1     -10.643 -29.335 -27.791  1.00  0.00     0.254 C 
HETATM    6  C4  UNL     1     -10.305 -27.950 -27.239  1.00  0.00     0.117 C 
ENDROOT
BRANCH   2   7
HETATM    7  N1  UNL     1     -10.878 -25.583 -26.149  1.00  0.00    -0.390 N 
ATOM      8  H12 UNL     1     -10.958 -24.680 -26.617  1.00  0.00     0.162 HD
ATOM      9  H11 UNL     1     -10.297 -25.918 -25.381  1.00  0.00     0.162 HD
ENDBRANCH   2   7
BRANCH   5  10
HETATM   10  N2  UNL     1     -10.134 -30.344 -26.847  1.00  0.00    -0.066 N 
ATOM     11  H23 UNL     1     -10.096 -31.289 -27.230  1.00  0.00     0.275 HD
ATOM     12  H22 UNL     1      -9.138 -30.262 -26.648  1.00  0.00     0.275 HD
ATOM     13  H21 UNL     1     -10.732 -30.253 -26.025  1.00  0.00     0.275 HD
ENDBRANCH   5  10
TORSDOF 2
ENDMDL
MODEL 5
REMARK VINA RESULT: -2.440639281      1.353      1.353
REMARK  2 active torsions:
REMARK  status: ('A' for Active; 'I' for Inactive)
REMARK    1  A    between atoms: S1_2  and  N1_3 
REMARK    2  A    between atoms: C3_8  and  N2_9 
ROOT
HETATM    1  C1  UNL     1     -10.490 -27.941 -28.789  1.00  0.00     0.090 C 
HETATM    2  S1  UNL     1     -10.899 -27.863 -26.946  1.00  0.00    -0.179 SA
HETATM    3  C2  UNL     1      -9.849 -26.454 -26.536  1.00  0.00     0.148 C 
HETATM    4  S2  UNL     1     -10.803 -25.076 -27.369  1.00  0.00    -0.126 SA
HETATM    5  C3  UNL     1     -12.311 -25.446 -26.394  1.00  0.00     0.254 C 
HETATM    6  C4  UNL     1     -12.397 -26.971 -26.344  1.00  0.00     0.117 C 
ENDROOT
BRANCH   2   7
HETATM    7  N1  UNL     1     -11.558 -29.452 -26.855  1.00  0.00    -0.390 N 
ATOM      8  H12 UNL     1     -11.165 -30.330 -26.517  1.00  0.00     0.162 HD
ATOM      9  H11 UNL     1     -12.465 -29.205 -27.251  1.00  0.00     0.162 HD
ENDBRANCH   2   7
BRANCH   5  10
HETATM   10  N2  UNL     1     -12.007 -24.957 -25.039  1.00  0.00    -0.066 N 
ATOM     11  H23 UNL     1     -11.269 -25.478 -24.565  1.00  0.00     0.275 HD
ATOM     12  H22 UNL     1     -11.537 -24.051 -25.020  1.00  0.00     0.275 HD
ATOM     13  H21 UNL     1     -12.904 -24.970 -24.552  1.00  0.00     0.275 HD
ENDBRANCH   5  10
TORSDOF 2
ENDMDL
