MODEL 1
REMARK VINA RESULT: -6.526034479      0.000      0.000
REMARK  4 active torsions:
REMARK  status: ('A' for Active; 'I' for Inactive)
REMARK    1  A    between atoms: C1_4  and  C2_5 
REMARK    2  A    between atoms: C1_4  and  N2_7 
REMARK    3  A    between atoms: N2_7  and  C3_9 
REMARK    4  A    between atoms: C4_12  and  C5_13 
ROOT
HETATM    1  C3  UNL     1     -27.453   1.340  -3.981  1.00  0.00     0.150 A 
HETATM    2  N3  UNL     1     -27.190   2.632  -4.170  1.00  0.00    -0.335 N 
ATOM      3  H3  UNL     1     -27.919   3.335  -4.052  1.00  0.00     0.168 HD
HETATM    4  C4  UNL     1     -25.986   2.978  -4.508  1.00  0.00     0.058 A 
HETATM    5  C9  UNL     1     -25.048   1.985  -4.652  1.00  0.00     0.084 A 
HETATM    6  S2  UNL     1     -25.959   0.587  -4.288  1.00  0.00    -0.063 SA
ENDROOT
BRANCH   1   7
HETATM    7  N2  UNL     1     -28.588   0.777  -3.640  1.00  0.00    -0.326 N 
ATOM      8  H2  UNL     1     -29.038   1.058  -2.769  1.00  0.00     0.169 HD
BRANCH   7   9
HETATM    9  C1  UNL     1     -29.205  -0.207  -4.443  1.00  0.00     0.090 C 
HETATM   10  N1  UNL     1     -29.890   0.033  -5.490  1.00  0.00    -0.388 N 
ATOM     11  H12 UNL     1     -30.335  -0.678  -6.070  1.00  0.00     0.157 HD
ATOM     12  H11 UNL     1     -30.017   1.000  -5.787  1.00  0.00     0.157 HD
BRANCH   9  13
HETATM   13  C2  UNL     1     -29.018  -1.628  -4.006  1.00  0.00     0.190 C 
HETATM   14 CL1  UNL     1     -30.430  -2.608  -4.397  1.00  0.00    -0.122 Cl
ENDBRANCH   9  13
ENDBRANCH   7   9
ENDBRANCH   1   7
BRANCH   4  15
HETATM   15  C5  UNL     1     -25.597   4.401  -4.742  1.00  0.00     0.032 A 
HETATM   16  C6  UNL     1     -26.310   5.537  -4.457  1.00  0.00     0.021 A 
HETATM   17  C7  UNL     1     -25.737   6.711  -4.766  1.00  0.00     0.008 A 
HETATM   18  C8  UNL     1     -24.495   6.673  -5.338  1.00  0.00     0.050 A 
HETATM   19  S1  UNL     1     -24.166   5.001  -5.426  1.00  0.00    -0.100 SA
ENDBRANCH   4  15
TORSDOF 4
ENDMDL
MODEL 2
REMARK VINA RESULT: -6.506837576      1.142      1.337
REMARK  4 active torsions:
REMARK  status: ('A' for Active; 'I' for Inactive)
REMARK    1  A    between atoms: C1_4  and  C2_5 
REMARK    2  A    between atoms: C1_4  and  N2_7 
REMARK    3  A    between atoms: N2_7  and  C3_9 
REMARK    4  A    between atoms: C4_12  and  C5_13 
ROOT
HETATM    1  C3  UNL     1     -26.553   1.272  -3.899  1.00  0.00     0.150 A 
HETATM    2  N3  UNL     1     -26.444   2.599  -3.925  1.00  0.00    -0.335 N 
ATOM      3  H3  UNL     1     -26.987   3.178  -3.283  1.00  0.00     0.168 HD
HETATM    4  C4  UNL     1     -25.635   3.140  -4.782  1.00  0.00     0.058 A 
HETATM    5  C9  UNL     1     -24.932   2.307  -5.618  1.00  0.00     0.084 A 
HETATM    6  S2  UNL     1     -25.481   0.768  -5.120  1.00  0.00    -0.063 SA
ENDROOT
BRANCH   1   7
HETATM    7  N2  UNL     1     -27.303   0.526  -3.123  1.00  0.00    -0.326 N 
ATOM      8  H2  UNL     1     -27.013   0.369  -2.157  1.00  0.00     0.169 HD
BRANCH   7   9
HETATM    9  C1  UNL     1     -28.498  -0.066  -3.584  1.00  0.00     0.090 C 
HETATM   10  N1  UNL     1     -29.602   0.549  -3.740  1.00  0.00    -0.388 N 
ATOM     11  H12 UNL     1     -30.465   0.121  -4.074  1.00  0.00     0.157 HD
ATOM     12  H11 UNL     1     -29.648   1.544  -3.521  1.00  0.00     0.157 HD
BRANCH   9  13
HETATM   13  C2  UNL     1     -28.429  -1.529  -3.906  1.00  0.00     0.190 C 
HETATM   14 CL1  UNL     1     -30.033  -2.192  -4.214  1.00  0.00    -0.122 Cl
ENDBRANCH   9  13
ENDBRANCH   7   9
ENDBRANCH   1   7
BRANCH   4  15
HETATM   15  C5  UNL     1     -25.448   4.618  -4.884  1.00  0.00     0.032 A 
HETATM   16  C6  UNL     1     -24.370   5.309  -5.375  1.00  0.00     0.021 A 
HETATM   17  C7  UNL     1     -24.444   6.649  -5.360  1.00  0.00     0.008 A 
HETATM   18  C8  UNL     1     -25.588   7.209  -4.857  1.00  0.00     0.050 A 
HETATM   19  S1  UNL     1     -26.520   5.848  -4.423  1.00  0.00    -0.100 SA
ENDBRANCH   4  15
TORSDOF 4
ENDMDL
MODEL 3
REMARK VINA RESULT: -6.205525149      1.379      1.477
REMARK  4 active torsions:
REMARK  status: ('A' for Active; 'I' for Inactive)
REMARK    1  A    between atoms: C1_4  and  C2_5 
REMARK    2  A    between atoms: C1_4  and  N2_7 
REMARK    3  A    between atoms: N2_7  and  C3_9 
REMARK    4  A    between atoms: C4_12  and  C5_13 
ROOT
HETATM    1  C3  UNL     1     -27.419   1.244  -4.070  1.00  0.00     0.150 A 
HETATM    2  N3  UNL     1     -27.193   2.544  -4.253  1.00  0.00    -0.335 N 
ATOM      3  H3  UNL     1     -27.959   3.216  -4.207  1.00  0.00     0.168 HD
HETATM    4  C4  UNL     1     -25.980   2.937  -4.493  1.00  0.00     0.058 A 
HETATM    5  C9  UNL     1     -24.993   1.983  -4.543  1.00  0.00     0.084 A 
HETATM    6  S2  UNL     1     -25.874   0.551  -4.239  1.00  0.00    -0.063 SA
ENDROOT
BRANCH   1   7
HETATM    7  N2  UNL     1     -28.554   0.636  -3.820  1.00  0.00    -0.326 N 
ATOM      8  H2  UNL     1     -29.109   0.935  -3.017  1.00  0.00     0.169 HD
BRANCH   7   9
HETATM    9  C1  UNL     1     -29.031  -0.419  -4.627  1.00  0.00     0.090 C 
HETATM   10  N1  UNL     1     -28.788  -1.653  -4.429  1.00  0.00    -0.388 N 
ATOM     11  H12 UNL     1     -29.133  -2.416  -5.012  1.00  0.00     0.157 HD
ATOM     12  H11 UNL     1     -28.207  -1.922  -3.635  1.00  0.00     0.157 HD
BRANCH   9  13
HETATM   13  C2  UNL     1     -29.884  -0.024  -5.794  1.00  0.00     0.190 C 
HETATM   14 CL1  UNL     1     -28.933   0.790  -7.035  1.00  0.00    -0.122 Cl
ENDBRANCH   9  13
ENDBRANCH   7   9
ENDBRANCH   1   7
BRANCH   4  15
HETATM   15  C5  UNL     1     -25.632   4.373  -4.711  1.00  0.00     0.032 A 
HETATM   16  C6  UNL     1     -26.378   5.485  -4.415  1.00  0.00     0.021 A 
HETATM   17  C7  UNL     1     -25.838   6.678  -4.711  1.00  0.00     0.008 A 
HETATM   18  C8  UNL     1     -24.594   6.682  -5.282  1.00  0.00     0.050 A 
HETATM   19  S1  UNL     1     -24.218   5.021  -5.387  1.00  0.00    -0.100 SA
ENDBRANCH   4  15
TORSDOF 4
ENDMDL
MODEL 4
REMARK VINA RESULT: -6.200765566      1.580      1.729
REMARK  4 active torsions:
REMARK  status: ('A' for Active; 'I' for Inactive)
REMARK    1  A    between atoms: C1_4  and  C2_5 
REMARK    2  A    between atoms: C1_4  and  N2_7 
REMARK    3  A    between atoms: N2_7  and  C3_9 
REMARK    4  A    between atoms: C4_12  and  C5_13 
ROOT
HETATM    1  C3  UNL     1     -27.427   1.262  -3.878  1.00  0.00     0.150 A 
HETATM    2  N3  UNL     1     -26.588   2.293  -3.961  1.00  0.00    -0.335 N 
ATOM      3  H3  UNL     1     -25.655   2.240  -3.552  1.00  0.00     0.168 HD
HETATM    4  C4  UNL     1     -26.982   3.367  -4.573  1.00  0.00     0.058 A 
HETATM    5  C9  UNL     1     -28.250   3.377  -5.102  1.00  0.00     0.084 A 
HETATM    6  S2  UNL     1     -28.815   1.820  -4.687  1.00  0.00    -0.063 SA
ENDROOT
BRANCH   1   7
HETATM    7  N2  UNL     1     -27.235   0.094  -3.311  1.00  0.00    -0.326 N 
ATOM      8  H2  UNL     1     -26.851   0.059  -2.366  1.00  0.00     0.169 HD
BRANCH   7   9
HETATM    9  C1  UNL     1     -27.545  -1.116  -3.970  1.00  0.00     0.090 C 
HETATM   10  N1  UNL     1     -26.856  -1.629  -4.910  1.00  0.00    -0.388 N 
ATOM     11  H12 UNL     1     -27.080  -2.503  -5.386  1.00  0.00     0.157 HD
ATOM     12  H11 UNL     1     -26.016  -1.146  -5.228  1.00  0.00     0.157 HD
BRANCH   9  13
HETATM   13  C2  UNL     1     -28.780  -1.825  -3.503  1.00  0.00     0.190 C 
HETATM   14 CL1  UNL     1     -30.082  -1.685  -4.682  1.00  0.00    -0.122 Cl
ENDBRANCH   9  13
ENDBRANCH   7   9
ENDBRANCH   1   7
BRANCH   4  15
HETATM   15  C5  UNL     1     -26.113   4.573  -4.715  1.00  0.00     0.032 A 
HETATM   16  C6  UNL     1     -26.393   5.870  -4.370  1.00  0.00     0.021 A 
HETATM   17  C7  UNL     1     -25.436   6.783  -4.599  1.00  0.00     0.008 A 
HETATM   18  C8  UNL     1     -24.266   6.342  -5.157  1.00  0.00     0.050 A 
HETATM   19  S1  UNL     1     -24.541   4.668  -5.343  1.00  0.00    -0.100 SA
ENDBRANCH   4  15
TORSDOF 4
ENDMDL
MODEL 5
REMARK VINA RESULT: -6.135171568      2.081      2.358
REMARK  4 active torsions:
REMARK  status: ('A' for Active; 'I' for Inactive)
REMARK    1  A    between atoms: C1_4  and  C2_5 
REMARK    2  A    between atoms: C1_4  and  N2_7 
REMARK    3  A    between atoms: N2_7  and  C3_9 
REMARK    4  A    between atoms: C4_12  and  C5_13 
ROOT
HETATM    1  C3  UNL     1     -28.149   0.997  -5.428  1.00  0.00     0.150 A 
HETATM    2  N3  UNL     1     -26.903   1.464  -5.477  1.00  0.00    -0.335 N 
ATOM      3  H3  UNL     1     -26.130   0.857  -5.749  1.00  0.00     0.168 HD
HETATM    4  C4  UNL     1     -26.692   2.707  -5.170  1.00  0.00     0.058 A 
HETATM    5  C9  UNL     1     -27.773   3.473  -4.810  1.00  0.00     0.084 A 
HETATM    6  S2  UNL     1     -29.055   2.351  -4.935  1.00  0.00    -0.063 SA
ENDROOT
BRANCH   1   7
HETATM    7  N2  UNL     1     -28.583  -0.212  -5.694  1.00  0.00    -0.326 N 
ATOM      8  H2  UNL     1     -28.524  -0.559  -6.652  1.00  0.00     0.169 HD
BRANCH   7   9
HETATM    9  C1  UNL     1     -29.128  -1.047  -4.695  1.00  0.00     0.090 C 
HETATM   10  N1  UNL     1     -30.333  -1.458  -4.668  1.00  0.00    -0.388 N 
ATOM     11  H12 UNL     1     -30.727  -2.061  -3.946  1.00  0.00     0.157 HD
ATOM     12  H11 UNL     1     -30.969  -1.173  -5.413  1.00  0.00     0.157 HD
BRANCH   9  13
HETATM   13  C2  UNL     1     -28.193  -1.465  -3.601  1.00  0.00     0.190 C 
HETATM   14 CL1  UNL     1     -26.616  -1.917  -4.245  1.00  0.00    -0.122 Cl
ENDBRANCH   9  13
ENDBRANCH   7   9
ENDBRANCH   1   7
BRANCH   4  15
HETATM   15  C5  UNL     1     -25.329   3.318  -5.195  1.00  0.00     0.032 A 
HETATM   16  C6  UNL     1     -24.990   4.646  -5.153  1.00  0.00     0.021 A 
HETATM   17  C7  UNL     1     -23.682   4.943  -5.189  1.00  0.00     0.008 A 
HETATM   18  C8  UNL     1     -22.801   3.898  -5.264  1.00  0.00     0.050 A 
HETATM   19  S1  UNL     1     -23.827   2.536  -5.282  1.00  0.00    -0.100 SA
ENDBRANCH   4  15
TORSDOF 4
ENDMDL
