MODEL 1
REMARK VINA RESULT: -4.516389345      0.000      0.000
REMARK  3 active torsions:
REMARK  status: ('A' for Active; 'I' for Inactive)
REMARK    1  A    between atoms: N1_1  and  C1_4 
REMARK    2  A    between atoms: C2_7  and  C3_8 
REMARK    3  A    between atoms: C7_14  and  C8_15 
ROOT
HETATM    1  C3  UNL     1     -26.637   0.518  -4.345  1.00  0.00     0.019 A 
HETATM    2  C4  UNL     1     -26.663  -0.868  -4.298  1.00  0.00     0.017 A 
HETATM    3  C5  UNL     1     -27.846  -1.472  -3.949  1.00  0.00     0.018 A 
HETATM    4  C6  UNL     1     -28.958  -0.713  -3.659  1.00  0.00     0.088 A 
HETATM    5  N3  UNL     1     -28.878   0.627  -3.720  1.00  0.00    -0.364 N 
ATOM      6  H3  UNL     1     -29.710   1.176  -3.503  1.00  0.00     0.165 HD
HETATM    7  C7  UNL     1     -27.747   1.278  -4.056  1.00  0.00     0.058 A 
ENDROOT
BRANCH   1   8
HETATM    8  C2  UNL     1     -25.386   1.191  -4.717  1.00  0.00     0.063 A 
HETATM    9  N2  UNL     1     -25.220   1.805  -5.891  1.00  0.00    -0.191 N 
HETATM   10  C1  UNL     1     -24.105   2.426  -6.269  1.00  0.00     0.676 A 
ATOM     11  H2  UNL     1     -26.003   1.796  -6.545  1.00  0.00     0.184 HD
HETATM   12  N4  UNL     1     -23.062   2.452  -5.430  1.00  0.00    -0.202 N 
HETATM   13  C15 UNL     1     -23.173   1.849  -4.231  1.00  0.00     0.108 A 
ATOM     14  H4  UNL     1     -22.196   2.922  -5.694  1.00  0.00     0.183 HD
HETATM   15  C14 UNL     1     -24.328   1.201  -3.830  1.00  0.00     0.048 A 
BRANCH  10  16
HETATM   16  N1  UNL     1     -23.980   3.009  -7.413  1.00  0.00    -0.234 N 
ATOM     17  H12 UNL     1     -23.775   2.430  -8.228  1.00  0.00     0.174 HD
ATOM     18  H11 UNL     1     -24.079   4.016  -7.535  1.00  0.00     0.174 HD
ENDBRANCH  10  16
ENDBRANCH   1   8
BRANCH   7  19
HETATM   19  C8  UNL     1     -27.731   2.736  -4.102  1.00  0.00     0.030 A 
HETATM   20  C9  UNL     1     -27.168   3.526  -3.123  1.00  0.00     0.017 A 
HETATM   21  C10 UNL     1     -27.161   4.908  -3.181  1.00  0.00     0.001 A 
HETATM   22  C11 UNL     1     -27.736   5.555  -4.251  1.00  0.00     0.003 A 
HETATM   23  C12 UNL     1     -28.308   4.788  -5.246  1.00  0.00     0.043 A 
HETATM   24  C13 UNL     1     -28.309   3.403  -5.177  1.00  0.00     0.128 A 
HETATM   25  F1  UNL     1     -28.871   2.680  -6.156  1.00  0.00    -0.205 F 
ENDBRANCH   7  19
TORSDOF 3
ENDMDL
MODEL 2
REMARK VINA RESULT: -3.807492357      2.382      5.495
REMARK  3 active torsions:
REMARK  status: ('A' for Active; 'I' for Inactive)
REMARK    1  A    between atoms: N1_1  and  C1_4 
REMARK    2  A    between atoms: C2_7  and  C3_8 
REMARK    3  A    between atoms: C7_14  and  C8_15 
ROOT
HETATM    1  C3  UNL     1     -27.419   4.286  -4.872  1.00  0.00     0.019 A 
HETATM    2  C4  UNL     1     -28.120   5.478  -4.975  1.00  0.00     0.017 A 
HETATM    3  C5  UNL     1     -27.416   6.648  -4.819  1.00  0.00     0.018 A 
HETATM    4  C6  UNL     1     -26.062   6.619  -4.571  1.00  0.00     0.088 A 
HETATM    5  N3  UNL     1     -25.431   5.436  -4.481  1.00  0.00    -0.364 N 
ATOM      6  H3  UNL     1     -24.428   5.431  -4.297  1.00  0.00     0.165 HD
HETATM    7  C7  UNL     1     -26.065   4.256  -4.625  1.00  0.00     0.058 A 
ENDROOT
BRANCH   1   8
HETATM    8  C2  UNL     1     -28.146   3.021  -5.035  1.00  0.00     0.063 A 
HETATM    9  N2  UNL     1     -28.626   2.329  -3.999  1.00  0.00    -0.191 N 
HETATM   10  C1  UNL     1     -29.290   1.179  -4.101  1.00  0.00     0.676 A 
ATOM     11  H2  UNL     1     -28.474   2.708  -3.065  1.00  0.00     0.184 HD
HETATM   12  N4  UNL     1     -29.504   0.660  -5.316  1.00  0.00    -0.202 N 
HETATM   13  C15 UNL     1     -29.042   1.316  -6.397  1.00  0.00     0.108 A 
ATOM     14  H4  UNL     1     -30.010  -0.220  -5.422  1.00  0.00     0.183 HD
HETATM   15  C14 UNL     1     -28.351   2.511  -6.302  1.00  0.00     0.048 A 
BRANCH  10  16
HETATM   16  N1  UNL     1     -29.740   0.537  -3.076  1.00  0.00    -0.234 N 
ATOM     17  H12 UNL     1     -30.444   0.991  -2.494  1.00  0.00     0.174 HD
ATOM     18  H11 UNL     1     -29.422  -0.399  -2.827  1.00  0.00     0.174 HD
ENDBRANCH  10  16
ENDBRANCH   1   8
BRANCH   7  19
HETATM   19  C8  UNL     1     -25.318   3.009  -4.514  1.00  0.00     0.030 A 
HETATM   20  C9  UNL     1     -25.443   2.133  -3.457  1.00  0.00     0.017 A 
HETATM   21  C10 UNL     1     -24.726   0.952  -3.367  1.00  0.00     0.001 A 
HETATM   22  C11 UNL     1     -23.838   0.609  -4.362  1.00  0.00     0.003 A 
HETATM   23  C12 UNL     1     -23.694   1.468  -5.432  1.00  0.00     0.043 A 
HETATM   24  C13 UNL     1     -24.417   2.648  -5.512  1.00  0.00     0.128 A 
HETATM   25  F1  UNL     1     -24.259   3.465  -6.561  1.00  0.00    -0.205 F 
ENDBRANCH   7  19
TORSDOF 3
ENDMDL
MODEL 3
REMARK VINA RESULT: -3.762919064      2.136      5.296
REMARK  3 active torsions:
REMARK  status: ('A' for Active; 'I' for Inactive)
REMARK    1  A    between atoms: N1_1  and  C1_4 
REMARK    2  A    between atoms: C2_7  and  C3_8 
REMARK    3  A    between atoms: C7_14  and  C8_15 
ROOT
HETATM    1  C3  UNL     1     -24.666   3.580  -4.953  1.00  0.00     0.019 A 
HETATM    2  C4  UNL     1     -23.694   4.547  -5.157  1.00  0.00     0.017 A 
HETATM    3  C5  UNL     1     -22.392   4.127  -5.285  1.00  0.00     0.018 A 
HETATM    4  C6  UNL     1     -22.082   2.787  -5.210  1.00  0.00     0.088 A 
HETATM    5  N3  UNL     1     -23.063   1.891  -5.011  1.00  0.00    -0.364 N 
ATOM      6  H3  UNL     1     -22.818   0.902  -4.959  1.00  0.00     0.165 HD
HETATM    7  C7  UNL     1     -24.358   2.241  -4.879  1.00  0.00     0.058 A 
ENDROOT
BRANCH   1   8
HETATM    8  C2  UNL     1     -26.066   4.001  -4.814  1.00  0.00     0.063 A 
HETATM    9  N2  UNL     1     -27.091   3.180  -5.055  1.00  0.00    -0.191 N 
HETATM   10  C1  UNL     1     -28.374   3.519  -4.942  1.00  0.00     0.676 A 
ATOM     11  H2  UNL     1     -26.877   2.227  -5.347  1.00  0.00     0.184 HD
HETATM   12  N4  UNL     1     -28.684   4.764  -4.560  1.00  0.00    -0.202 N 
HETATM   13  C15 UNL     1     -27.689   5.635  -4.303  1.00  0.00     0.108 A 
ATOM     14  H4  UNL     1     -29.659   5.050  -4.465  1.00  0.00     0.183 HD
HETATM   15  C14 UNL     1     -26.353   5.292  -4.418  1.00  0.00     0.048 A 
BRANCH  10  16
HETATM   16  N1  UNL     1     -29.340   2.698  -5.184  1.00  0.00    -0.234 N 
ATOM     17  H12 UNL     1     -29.908   2.856  -6.017  1.00  0.00     0.174 HD
ATOM     18  H11 UNL     1     -29.556   1.905  -4.582  1.00  0.00     0.174 HD
ENDBRANCH  10  16
ENDBRANCH   1   8
BRANCH   7  19
HETATM   19  C8  UNL     1     -25.372   1.215  -4.664  1.00  0.00     0.030 A 
HETATM   20  C9  UNL     1     -25.821   0.365  -5.652  1.00  0.00     0.017 A 
HETATM   21  C10 UNL     1     -26.784  -0.604  -5.432  1.00  0.00     0.001 A 
HETATM   22  C11 UNL     1     -27.340  -0.751  -4.181  1.00  0.00     0.003 A 
HETATM   23  C12 UNL     1     -26.908   0.087  -3.174  1.00  0.00     0.043 A 
HETATM   24  C13 UNL     1     -25.942   1.054  -3.405  1.00  0.00     0.128 A 
HETATM   25  F1  UNL     1     -25.539   1.856  -2.410  1.00  0.00    -0.205 F 
ENDBRANCH   7  19
TORSDOF 3
ENDMDL
MODEL 4
REMARK VINA RESULT: -3.754329670      2.336      4.314
REMARK  3 active torsions:
REMARK  status: ('A' for Active; 'I' for Inactive)
REMARK    1  A    between atoms: N1_1  and  C1_4 
REMARK    2  A    between atoms: C2_7  and  C3_8 
REMARK    3  A    between atoms: C7_14  and  C8_15 
ROOT
HETATM    1  C3  UNL     1     -27.455   0.760  -4.387  1.00  0.00     0.019 A 
HETATM    2  C4  UNL     1     -28.459  -0.117  -4.007  1.00  0.00     0.017 A 
HETATM    3  C5  UNL     1     -28.141  -1.450  -3.915  1.00  0.00     0.018 A 
HETATM    4  C6  UNL     1     -26.864  -1.883  -4.195  1.00  0.00     0.088 A 
HETATM    5  N3  UNL     1     -25.928  -0.991  -4.559  1.00  0.00    -0.364 N 
ATOM      6  H3  UNL     1     -24.986  -1.327  -4.763  1.00  0.00     0.165 HD
HETATM    7  C7  UNL     1     -26.178   0.328  -4.667  1.00  0.00     0.058 A 
ENDROOT
BRANCH   1   8
HETATM    8  C2  UNL     1     -27.766   2.191  -4.493  1.00  0.00     0.063 A 
HETATM    9  N2  UNL     1     -27.209   3.109  -3.698  1.00  0.00    -0.191 N 
HETATM   10  C1  UNL     1     -27.461   4.415  -3.759  1.00  0.00     0.676 A 
ATOM     11  H2  UNL     1     -26.543   2.787  -2.996  1.00  0.00     0.184 HD
HETATM   12  N4  UNL     1     -28.331   4.865  -4.673  1.00  0.00    -0.202 N 
HETATM   13  C15 UNL     1     -28.922   3.983  -5.501  1.00  0.00     0.108 A 
ATOM     14  H4  UNL     1     -28.542   5.860  -4.740  1.00  0.00     0.183 HD
HETATM   15  C14 UNL     1     -28.666   2.624  -5.445  1.00  0.00     0.048 A 
BRANCH  10  16
HETATM   16  N1  UNL     1     -26.904   5.273  -2.974  1.00  0.00    -0.234 N 
ATOM     17  H12 UNL     1     -26.201   5.899  -3.366  1.00  0.00     0.174 HD
ATOM     18  H11 UNL     1     -27.138   5.351  -1.984  1.00  0.00     0.174 HD
ENDBRANCH  10  16
ENDBRANCH   1   8
BRANCH   7  19
HETATM   19  C8  UNL     1     -25.113   1.241  -5.068  1.00  0.00     0.030 A 
HETATM   20  C9  UNL     1     -25.033   1.821  -6.316  1.00  0.00     0.017 A 
HETATM   21  C10 UNL     1     -24.017   2.686  -6.682  1.00  0.00     0.001 A 
HETATM   22  C11 UNL     1     -23.024   3.001  -5.782  1.00  0.00     0.003 A 
HETATM   23  C12 UNL     1     -23.080   2.434  -4.525  1.00  0.00     0.043 A 
HETATM   24  C13 UNL     1     -24.103   1.569  -4.169  1.00  0.00     0.128 A 
HETATM   25  F1  UNL     1     -24.135   1.031  -2.942  1.00  0.00    -0.205 F 
ENDBRANCH   7  19
TORSDOF 3
ENDMDL
MODEL 5
REMARK VINA RESULT: -3.558491710      1.030      1.472
REMARK  3 active torsions:
REMARK  status: ('A' for Active; 'I' for Inactive)
REMARK    1  A    between atoms: N1_1  and  C1_4 
REMARK    2  A    between atoms: C2_7  and  C3_8 
REMARK    3  A    between atoms: C7_14  and  C8_15 
ROOT
HETATM    1  C3  UNL     1     -26.583   0.454  -4.486  1.00  0.00     0.019 A 
HETATM    2  C4  UNL     1     -26.570  -0.932  -4.434  1.00  0.00     0.017 A 
HETATM    3  C5  UNL     1     -27.740  -1.569  -4.097  1.00  0.00     0.018 A 
HETATM    4  C6  UNL     1     -28.877  -0.841  -3.824  1.00  0.00     0.088 A 
HETATM    5  N3  UNL     1     -28.834   0.501  -3.889  1.00  0.00    -0.364 N 
ATOM      6  H3  UNL     1     -29.685   1.026  -3.684  1.00  0.00     0.165 HD
HETATM    7  C7  UNL     1     -27.719   1.183  -4.213  1.00  0.00     0.058 A 
ENDROOT
BRANCH   1   8
HETATM    8  C2  UNL     1     -25.347   1.161  -4.844  1.00  0.00     0.063 A 
HETATM    9  N2  UNL     1     -25.202   1.817  -5.998  1.00  0.00    -0.191 N 
HETATM   10  C1  UNL     1     -24.101   2.471  -6.362  1.00  0.00     0.676 A 
ATOM     11  H2  UNL     1     -25.990   1.817  -6.645  1.00  0.00     0.184 HD
HETATM   12  N4  UNL     1     -23.052   2.488  -5.531  1.00  0.00    -0.202 N 
HETATM   13  C15 UNL     1     -23.143   1.843  -4.353  1.00  0.00     0.108 A 
ATOM     14  H4  UNL     1     -22.197   2.981  -5.786  1.00  0.00     0.183 HD
HETATM   15  C14 UNL     1     -24.283   1.160  -3.965  1.00  0.00     0.048 A 
BRANCH  10  16
HETATM   16  N1  UNL     1     -23.996   3.094  -7.487  1.00  0.00    -0.234 N 
ATOM     17  H12 UNL     1     -23.221   2.849  -8.103  1.00  0.00     0.174 HD
ATOM     18  H11 UNL     1     -24.653   3.816  -7.783  1.00  0.00     0.174 HD
ENDBRANCH  10  16
ENDBRANCH   1   8
BRANCH   7  19
HETATM   19  C8  UNL     1     -27.744   2.640  -4.264  1.00  0.00     0.030 A 
HETATM   20  C9  UNL     1     -28.421   3.360  -5.226  1.00  0.00     0.017 A 
HETATM   21  C10 UNL     1     -28.435   4.744  -5.260  1.00  0.00     0.001 A 
HETATM   22  C11 UNL     1     -27.752   5.463  -4.306  1.00  0.00     0.003 A 
HETATM   23  C12 UNL     1     -27.066   4.767  -3.332  1.00  0.00     0.043 A 
HETATM   24  C13 UNL     1     -27.059   3.381  -3.307  1.00  0.00     0.128 A 
HETATM   25  F1  UNL     1     -26.385   2.727  -2.350  1.00  0.00    -0.205 F 
ENDBRANCH   7  19
TORSDOF 3
ENDMDL
