MODEL 1
REMARK VINA RESULT: -6.428314732      0.000      0.000
REMARK  2 active torsions:
REMARK  status: ('A' for Active; 'I' for Inactive)
REMARK    1  A    between atoms: C3_8  and  C4_9 
REMARK    2  A    between atoms: C8_14  and  C9_15 
ROOT
HETATM    1  N1  UNL     1     -28.778  -1.986  -4.638  1.00  0.00    -0.234 N 
ATOM      2  H11 UNL     1     -28.053  -2.658  -4.887  1.00  0.00     0.174 HD
ATOM      3  H12 UNL     1     -29.712  -2.369  -4.491  1.00  0.00     0.174 HD
HETATM    4  C1  UNL     1     -28.556  -0.796  -4.518  1.00  0.00     0.676 A 
HETATM    5  N2  UNL     1     -29.534   0.111  -4.182  1.00  0.00    -0.201 N 
ATOM      6  H2  UNL     1     -30.483  -0.229  -4.027  1.00  0.00     0.183 HD
HETATM    7  C2  UNL     1     -29.293   1.406  -4.051  1.00  0.00     0.122 A 
HETATM    8  C3  UNL     1     -27.994   1.891  -4.262  1.00  0.00     0.042 A 
HETATM    9  C8  UNL     1     -27.001   1.025  -4.596  1.00  0.00     0.076 A 
HETATM   10  N3  UNL     1     -27.294  -0.277  -4.716  1.00  0.00    -0.190 N 
ATOM     11  H3  UNL     1     -26.543  -0.919  -4.968  1.00  0.00     0.184 HD
ENDROOT
BRANCH   9  12
HETATM   12  C9  UNL     1     -25.654   1.520  -4.812  1.00  0.00     0.031 A 
HETATM   13  C10 UNL     1     -25.401   2.080  -6.071  1.00  0.00     0.017 A 
HETATM   14  C11 UNL     1     -24.201   2.595  -6.434  1.00  0.00     0.001 A 
HETATM   15  C12 UNL     1     -23.173   2.560  -5.504  1.00  0.00     0.003 A 
HETATM   16  C13 UNL     1     -23.412   2.006  -4.251  1.00  0.00     0.043 A 
HETATM   17  C14 UNL     1     -24.646   1.486  -3.902  1.00  0.00     0.128 A 
HETATM   18  F1  UNL     1     -24.877   0.965  -2.682  1.00  0.00    -0.205 F 
ENDBRANCH   9  12
BRANCH   8  19
HETATM   19  C4  UNL     1     -27.732   3.302  -4.117  1.00  0.00     0.088 A 
HETATM   20  C5  UNL     1     -27.192   4.050  -3.112  1.00  0.00     0.040 A 
HETATM   21  C6  UNL     1     -27.194   5.363  -3.540  1.00  0.00     0.027 A 
HETATM   22  C7  UNL     1     -27.740   5.363  -4.800  1.00  0.00     0.142 A 
HETATM   23  O1  UNL     1     -28.042   4.151  -5.107  1.00  0.00    -0.322 OA
ENDBRANCH   8  19
TORSDOF 2
ENDMDL
MODEL 2
REMARK VINA RESULT: -6.258759653      1.829      3.836
REMARK  2 active torsions:
REMARK  status: ('A' for Active; 'I' for Inactive)
REMARK    1  A    between atoms: C3_8  and  C4_9 
REMARK    2  A    between atoms: C8_14  and  C9_15 
ROOT
HETATM    1  N1  UNL     1     -30.235  -1.598  -3.983  1.00  0.00    -0.234 N 
ATOM      2  H11 UNL     1     -31.110  -1.090  -3.853  1.00  0.00     0.174 HD
ATOM      3  H12 UNL     1     -30.303  -2.615  -3.965  1.00  0.00     0.174 HD
HETATM    4  C1  UNL     1     -29.169  -1.037  -4.150  1.00  0.00     0.676 A 
HETATM    5  N2  UNL     1     -27.990  -1.722  -4.324  1.00  0.00    -0.201 N 
ATOM      6  H2  UNL     1     -28.010  -2.741  -4.313  1.00  0.00     0.183 HD
HETATM    7  C2  UNL     1     -26.829  -1.112  -4.506  1.00  0.00     0.122 A 
HETATM    8  C3  UNL     1     -26.782   0.290  -4.523  1.00  0.00     0.042 A 
HETATM    9  C8  UNL     1     -27.927   1.001  -4.354  1.00  0.00     0.076 A 
HETATM   10  N3  UNL     1     -29.078   0.339  -4.173  1.00  0.00    -0.190 N 
ATOM     11  H3  UNL     1     -29.932   0.881  -4.046  1.00  0.00     0.184 HD
ENDROOT
BRANCH   9  12
HETATM   12  C9  UNL     1     -27.886   2.452  -4.374  1.00  0.00     0.031 A 
HETATM   13  C10 UNL     1     -27.243   3.063  -3.288  1.00  0.00     0.017 A 
HETATM   14  C11 UNL     1     -27.110   4.404  -3.155  1.00  0.00     0.001 A 
HETATM   15  C12 UNL     1     -27.640   5.211  -4.151  1.00  0.00     0.003 A 
HETATM   16  C13 UNL     1     -28.281   4.616  -5.233  1.00  0.00     0.043 A 
HETATM   17  C14 UNL     1     -28.405   3.243  -5.348  1.00  0.00     0.128 A 
HETATM   18  F1  UNL     1     -29.011   2.671  -6.407  1.00  0.00    -0.205 F 
ENDBRANCH   9  12
BRANCH   8  19
HETATM   19  C4  UNL     1     -25.517   0.954  -4.723  1.00  0.00     0.088 A 
HETATM   20  C5  UNL     1     -24.400   1.081  -3.950  1.00  0.00     0.040 A 
HETATM   21  C6  UNL     1     -23.494   1.837  -4.670  1.00  0.00     0.027 A 
HETATM   22  C7  UNL     1     -24.102   2.143  -5.863  1.00  0.00     0.142 A 
HETATM   23  O1  UNL     1     -25.276   1.616  -5.864  1.00  0.00    -0.322 OA
ENDBRANCH   8  19
TORSDOF 2
ENDMDL
MODEL 3
REMARK VINA RESULT: -5.550072575      1.099      1.546
REMARK  2 active torsions:
REMARK  status: ('A' for Active; 'I' for Inactive)
REMARK    1  A    between atoms: C3_8  and  C4_9 
REMARK    2  A    between atoms: C8_14  and  C9_15 
ROOT
HETATM    1  N1  UNL     1     -28.864  -2.161  -4.386  1.00  0.00    -0.234 N 
ATOM      2  H11 UNL     1     -28.141  -2.839  -4.630  1.00  0.00     0.174 HD
ATOM      3  H12 UNL     1     -29.792  -2.543  -4.206  1.00  0.00     0.174 HD
HETATM    4  C1  UNL     1     -28.644  -0.967  -4.309  1.00  0.00     0.676 A 
HETATM    5  N2  UNL     1     -29.618  -0.054  -3.980  1.00  0.00    -0.201 N 
ATOM      6  H2  UNL     1     -30.562  -0.392  -3.794  1.00  0.00     0.183 HD
HETATM    7  C2  UNL     1     -29.381   1.246  -3.897  1.00  0.00     0.122 A 
HETATM    8  C3  UNL     1     -28.088   1.728  -4.151  1.00  0.00     0.042 A 
HETATM    9  C8  UNL     1     -27.099   0.855  -4.479  1.00  0.00     0.076 A 
HETATM   10  N3  UNL     1     -27.389  -0.451  -4.551  1.00  0.00    -0.190 N 
ATOM     11  H3  UNL     1     -26.641  -1.098  -4.799  1.00  0.00     0.184 HD
ENDROOT
BRANCH   9  12
HETATM   12  C9  UNL     1     -25.759   1.348  -4.740  1.00  0.00     0.031 A 
HETATM   13  C10 UNL     1     -24.813   1.116  -3.733  1.00  0.00     0.017 A 
HETATM   14  C11 UNL     1     -23.517   1.502  -3.818  1.00  0.00     0.001 A 
HETATM   15  C12 UNL     1     -23.113   2.164  -4.968  1.00  0.00     0.003 A 
HETATM   16  C13 UNL     1     -24.044   2.400  -5.975  1.00  0.00     0.043 A 
HETATM   17  C14 UNL     1     -25.362   1.996  -5.865  1.00  0.00     0.128 A 
HETATM   18  F1  UNL     1     -26.255   2.212  -6.850  1.00  0.00    -0.205 F 
ENDBRANCH   9  12
BRANCH   8  19
HETATM   19  C4  UNL     1     -27.829   3.144  -4.057  1.00  0.00     0.088 A 
HETATM   20  C5  UNL     1     -27.267   3.925  -3.090  1.00  0.00     0.040 A 
HETATM   21  C6  UNL     1     -27.287   5.225  -3.559  1.00  0.00     0.027 A 
HETATM   22  C7  UNL     1     -27.864   5.183  -4.803  1.00  0.00     0.142 A 
HETATM   23  O1  UNL     1     -28.169   3.960  -5.065  1.00  0.00    -0.322 OA
ENDBRANCH   8  19
TORSDOF 2
ENDMDL
MODEL 4
REMARK VINA RESULT: -5.496318189      1.065      1.185
REMARK  2 active torsions:
REMARK  status: ('A' for Active; 'I' for Inactive)
REMARK    1  A    between atoms: C3_8  and  C4_9 
REMARK    2  A    between atoms: C8_14  and  C9_15 
ROOT
HETATM    1  N1  UNL     1     -26.866  -2.139  -5.518  1.00  0.00    -0.234 N 
ATOM      2  H11 UNL     1     -25.984  -2.543  -5.834  1.00  0.00     0.174 HD
ATOM      3  H12 UNL     1     -27.654  -2.782  -5.452  1.00  0.00     0.174 HD
HETATM    4  C1  UNL     1     -26.982  -0.962  -5.231  1.00  0.00     0.676 A 
HETATM    5  N2  UNL     1     -28.170  -0.417  -4.804  1.00  0.00    -0.201 N 
ATOM      6  H2  UNL     1     -28.986  -1.024  -4.725  1.00  0.00     0.183 HD
HETATM    7  C2  UNL     1     -28.298   0.863  -4.492  1.00  0.00     0.122 A 
HETATM    8  C3  UNL     1     -27.186   1.712  -4.596  1.00  0.00     0.042 A 
HETATM    9  C8  UNL     1     -25.995   1.210  -5.014  1.00  0.00     0.076 A 
HETATM   10  N3  UNL     1     -25.916  -0.093  -5.319  1.00  0.00    -0.190 N 
ATOM     11  H3  UNL     1     -25.018  -0.460  -5.633  1.00  0.00     0.184 HD
ENDROOT
BRANCH   9  12
HETATM   12  C9  UNL     1     -24.841   2.083  -5.120  1.00  0.00     0.031 A 
HETATM   13  C10 UNL     1     -24.859   2.998  -6.181  1.00  0.00     0.017 A 
HETATM   14  C11 UNL     1     -23.866   3.889  -6.420  1.00  0.00     0.001 A 
HETATM   15  C12 UNL     1     -22.776   3.887  -5.564  1.00  0.00     0.003 A 
HETATM   16  C13 UNL     1     -22.746   2.983  -4.507  1.00  0.00     0.043 A 
HETATM   17  C14 UNL     1     -23.772   2.083  -4.283  1.00  0.00     0.128 A 
HETATM   18  F1  UNL     1     -23.746   1.220  -3.248  1.00  0.00    -0.205 F 
ENDBRANCH   9  12
BRANCH   8  19
HETATM   19  C4  UNL     1     -27.326   3.107  -4.253  1.00  0.00     0.088 A 
HETATM   20  C5  UNL     1     -27.018   3.825  -3.135  1.00  0.00     0.040 A 
HETATM   21  C6  UNL     1     -27.382   5.135  -3.383  1.00  0.00     0.027 A 
HETATM   22  C7  UNL     1     -27.902   5.161  -4.654  1.00  0.00     0.142 A 
HETATM   23  O1  UNL     1     -27.855   3.968  -5.133  1.00  0.00    -0.322 OA
ENDBRANCH   8  19
TORSDOF 2
ENDMDL
MODEL 5
REMARK VINA RESULT: -5.462241461      1.350      3.488
REMARK  2 active torsions:
REMARK  status: ('A' for Active; 'I' for Inactive)
REMARK    1  A    between atoms: C3_8  and  C4_9 
REMARK    2  A    between atoms: C8_14  and  C9_15 
ROOT
HETATM    1  N1  UNL     1     -29.908  -1.482  -4.109  1.00  0.00    -0.234 N 
ATOM      2  H11 UNL     1     -30.766  -0.994  -3.852  1.00  0.00     0.174 HD
ATOM      3  H12 UNL     1     -29.978  -2.495  -4.196  1.00  0.00     0.174 HD
HETATM    4  C1  UNL     1     -28.857  -0.901  -4.304  1.00  0.00     0.676 A 
HETATM    5  N2  UNL     1     -27.700  -1.557  -4.650  1.00  0.00    -0.201 N 
ATOM      6  H2  UNL     1     -27.724  -2.572  -4.747  1.00  0.00     0.183 HD
HETATM    7  C2  UNL     1     -26.556  -0.926  -4.862  1.00  0.00     0.122 A 
HETATM    8  C3  UNL     1     -26.504   0.470  -4.731  1.00  0.00     0.042 A 
HETATM    9  C8  UNL     1     -27.628   1.153  -4.390  1.00  0.00     0.076 A 
HETATM   10  N3  UNL     1     -28.762   0.470  -4.186  1.00  0.00    -0.190 N 
ATOM     11  H3  UNL     1     -29.600   0.992  -3.929  1.00  0.00     0.184 HD
ENDROOT
BRANCH   9  12
HETATM   12  C9  UNL     1     -27.581   2.598  -4.257  1.00  0.00     0.031 A 
HETATM   13  C10 UNL     1     -28.285   3.326  -5.226  1.00  0.00     0.017 A 
HETATM   14  C11 UNL     1     -28.351   4.679  -5.244  1.00  0.00     0.001 A 
HETATM   15  C12 UNL     1     -27.683   5.374  -4.247  1.00  0.00     0.003 A 
HETATM   16  C13 UNL     1     -26.980   4.662  -3.280  1.00  0.00     0.043 A 
HETATM   17  C14 UNL     1     -26.927   3.280  -3.282  1.00  0.00     0.128 A 
HETATM   18  F1  UNL     1     -26.259   2.594  -2.334  1.00  0.00    -0.205 F 
ENDBRANCH   9  12
BRANCH   8  19
HETATM   19  C4  UNL     1     -25.257   1.157  -4.965  1.00  0.00     0.088 A 
HETATM   20  C5  UNL     1     -24.093   1.239  -4.258  1.00  0.00     0.040 A 
HETATM   21  C6  UNL     1     -23.239   2.052  -4.979  1.00  0.00     0.027 A 
HETATM   22  C7  UNL     1     -23.924   2.436  -6.106  1.00  0.00     0.142 A 
HETATM   23  O1  UNL     1     -25.093   1.900  -6.069  1.00  0.00    -0.322 OA
ENDBRANCH   8  19
TORSDOF 2
ENDMDL
