MODEL 1
REMARK VINA RESULT: -3.101910866      0.000      0.000
REMARK  3 active torsions:
REMARK  status: ('A' for Active; 'I' for Inactive)
REMARK    1  A    between atoms: N1_1  and  C1_4 
REMARK    2  A    between atoms: C2_7  and  C3_8 
REMARK    3  A    between atoms: C8_16  and  C9_17 
ROOT
HETATM    1  C1  UNL     1     -28.101  -1.015  -4.394  1.00  0.00     0.143 A 
HETATM    2  N2  UNL     1     -28.405   0.272  -4.275  1.00  0.00    -0.335 N 
ATOM      3  H2  UNL     1     -29.356   0.557  -4.040  1.00  0.00     0.168 HD
HETATM    4  C2  UNL     1     -27.469   1.175  -4.461  1.00  0.00     0.065 A 
HETATM    5  C8  UNL     1     -26.216   0.727  -4.772  1.00  0.00     0.046 A 
HETATM    6  S1  UNL     1     -26.445  -0.990  -4.782  1.00  0.00    -0.051 SA
ENDROOT
BRANCH   4   7
HETATM    7  C3  UNL     1     -27.732   2.649  -4.349  1.00  0.00     0.033 A 
HETATM    8  C4  UNL     1     -27.234   3.329  -3.278  1.00  0.00     0.034 A 
HETATM    9  C5  UNL     1     -27.428   4.681  -3.107  1.00  0.00     0.088 A 
HETATM   10  N3  UNL     1     -28.139   5.320  -4.050  1.00  0.00    -0.372 N 
HETATM   11  C6  UNL     1     -28.652   4.704  -5.125  1.00  0.00     0.130 A 
ATOM     12  H3  UNL     1     -28.296   6.322  -3.944  1.00  0.00     0.164 HD
HETATM   13  C7  UNL     1     -28.451   3.328  -5.293  1.00  0.00     0.144 A 
HETATM   14  F1  UNL     1     -28.963   2.670  -6.382  1.00  0.00    -0.204 F 
ENDBRANCH   4   7
BRANCH   5  15
HETATM   15  C9  UNL     1     -24.959   1.460  -5.034  1.00  0.00    -0.017 A 
HETATM   16  C10 UNL     1     -24.874   2.136  -6.234  1.00  0.00     0.013 A 
HETATM   17  C11 UNL     1     -23.737   2.848  -6.528  1.00  0.00     0.001 A 
HETATM   18  C12 UNL     1     -22.656   2.920  -5.665  1.00  0.00     0.000 A 
HETATM   19  C13 UNL     1     -22.748   2.240  -4.463  1.00  0.00     0.001 A 
HETATM   20  C14 UNL     1     -23.908   1.516  -4.166  1.00  0.00     0.013 A 
ENDBRANCH   5  15
BRANCH   1  21
HETATM   21  N1  UNL     1     -28.914  -2.044  -4.240  1.00  0.00    -0.380 N 
ATOM     22  H12 UNL     1     -29.772  -2.275  -4.740  1.00  0.00     0.158 HD
ATOM     23  H11 UNL     1     -28.819  -2.809  -3.573  1.00  0.00     0.158 HD
ENDBRANCH   1  21
TORSDOF 3
ENDMDL
MODEL 2
REMARK VINA RESULT: -2.746518964      0.103      1.087
REMARK  3 active torsions:
REMARK  status: ('A' for Active; 'I' for Inactive)
REMARK    1  A    between atoms: N1_1  and  C1_4 
REMARK    2  A    between atoms: C2_7  and  C3_8 
REMARK    3  A    between atoms: C8_16  and  C9_17 
ROOT
HETATM    1  C1  UNL     1     -28.040  -1.012  -4.431  1.00  0.00     0.143 A 
HETATM    2  N2  UNL     1     -28.354   0.270  -4.278  1.00  0.00    -0.335 N 
ATOM      3  H2  UNL     1     -29.296   0.539  -3.997  1.00  0.00     0.168 HD
HETATM    4  C2  UNL     1     -27.438   1.187  -4.493  1.00  0.00     0.065 A 
HETATM    5  C8  UNL     1     -26.195   0.760  -4.867  1.00  0.00     0.046 A 
HETATM    6  S1  UNL     1     -26.404  -0.959  -4.893  1.00  0.00    -0.051 SA
ENDROOT
BRANCH   4   7
HETATM    7  C3  UNL     1     -27.713   2.655  -4.347  1.00  0.00     0.033 A 
HETATM    8  C4  UNL     1     -27.211   3.317  -3.266  1.00  0.00     0.034 A 
HETATM    9  C5  UNL     1     -27.416   4.663  -3.064  1.00  0.00     0.088 A 
HETATM   10  N3  UNL     1     -28.142   5.316  -3.986  1.00  0.00    -0.372 N 
HETATM   11  C6  UNL     1     -28.660   4.718  -5.069  1.00  0.00     0.130 A 
ATOM     12  H3  UNL     1     -28.307   6.314  -3.857  1.00  0.00     0.164 HD
HETATM   13  C7  UNL     1     -28.449   3.348  -5.269  1.00  0.00     0.144 A 
HETATM   14  F1  UNL     1     -28.965   2.709  -6.367  1.00  0.00    -0.204 F 
ENDBRANCH   4   7
BRANCH   5  15
HETATM   15  C9  UNL     1     -24.961   1.512  -5.175  1.00  0.00    -0.017 A 
HETATM   16  C10 UNL     1     -23.996   1.553  -4.189  1.00  0.00     0.013 A 
HETATM   17  C11 UNL     1     -22.821   2.224  -4.423  1.00  0.00     0.001 A 
HETATM   18  C12 UNL     1     -22.554   2.871  -5.618  1.00  0.00     0.000 A 
HETATM   19  C13 UNL     1     -23.525   2.827  -6.603  1.00  0.00     0.001 A 
HETATM   20  C14 UNL     1     -24.722   2.142  -6.362  1.00  0.00     0.013 A 
ENDBRANCH   5  15
BRANCH   1  21
HETATM   21  N1  UNL     1     -28.833  -2.053  -4.257  1.00  0.00    -0.380 N 
ATOM     22  H12 UNL     1     -29.142  -2.497  -3.392  1.00  0.00     0.158 HD
ATOM     23  H11 UNL     1     -29.288  -2.608  -4.980  1.00  0.00     0.158 HD
ENDBRANCH   1  21
TORSDOF 3
ENDMDL
MODEL 3
REMARK VINA RESULT: -2.662574293      3.043      5.671
REMARK  3 active torsions:
REMARK  status: ('A' for Active; 'I' for Inactive)
REMARK    1  A    between atoms: N1_1  and  C1_4 
REMARK    2  A    between atoms: C2_7  and  C3_8 
REMARK    3  A    between atoms: C8_16  and  C9_17 
ROOT
HETATM    1  C1  UNL     1     -26.320   6.452  -4.690  1.00  0.00     0.143 A 
HETATM    2  N2  UNL     1     -25.463   5.439  -4.620  1.00  0.00    -0.335 N 
ATOM      3  H2  UNL     1     -24.465   5.617  -4.511  1.00  0.00     0.168 HD
HETATM    4  C2  UNL     1     -25.914   4.207  -4.692  1.00  0.00     0.065 A 
HETATM    5  C8  UNL     1     -27.262   4.039  -4.837  1.00  0.00     0.046 A 
HETATM    6  S1  UNL     1     -27.825   5.677  -4.863  1.00  0.00    -0.051 SA
ENDROOT
BRANCH   4   7
HETATM    7  C3  UNL     1     -25.012   3.010  -4.625  1.00  0.00     0.033 A 
HETATM    8  C4  UNL     1     -25.199   2.095  -3.632  1.00  0.00     0.034 A 
HETATM    9  C5  UNL     1     -24.417   0.970  -3.507  1.00  0.00     0.088 A 
HETATM   10  N3  UNL     1     -23.442   0.800  -4.415  1.00  0.00    -0.372 N 
HETATM   11  C6  UNL     1     -23.211   1.665  -5.413  1.00  0.00     0.130 A 
ATOM     12  H3  UNL     1     -22.849  -0.026  -4.342  1.00  0.00     0.164 HD
HETATM   13  C7  UNL     1     -24.010   2.808  -5.535  1.00  0.00     0.144 A 
HETATM   14  F1  UNL     1     -23.799   3.711  -6.546  1.00  0.00    -0.204 F 
ENDBRANCH   4   7
BRANCH   5  15
HETATM   15  C9  UNL     1     -28.082   2.813  -4.942  1.00  0.00    -0.017 A 
HETATM   16  C10 UNL     1     -28.361   2.361  -6.215  1.00  0.00     0.013 A 
HETATM   17  C11 UNL     1     -29.106   1.218  -6.377  1.00  0.00     0.001 A 
HETATM   18  C12 UNL     1     -29.598   0.489  -5.307  1.00  0.00     0.000 A 
HETATM   19  C13 UNL     1     -29.315   0.948  -4.032  1.00  0.00     0.001 A 
HETATM   20  C14 UNL     1     -28.555   2.112  -3.871  1.00  0.00     0.013 A 
ENDBRANCH   5  15
BRANCH   1  21
HETATM   21  N1  UNL     1     -26.038   7.740  -4.634  1.00  0.00    -0.380 N 
ATOM     22  H12 UNL     1     -25.751   8.376  -5.377  1.00  0.00     0.158 HD
ATOM     23  H11 UNL     1     -26.061   8.340  -3.810  1.00  0.00     0.158 HD
ENDBRANCH   1  21
TORSDOF 3
ENDMDL
MODEL 4
REMARK VINA RESULT: -2.484760103      3.056      5.770
REMARK  3 active torsions:
REMARK  status: ('A' for Active; 'I' for Inactive)
REMARK    1  A    between atoms: N1_1  and  C1_4 
REMARK    2  A    between atoms: C2_7  and  C3_8 
REMARK    3  A    between atoms: C8_16  and  C9_17 
ROOT
HETATM    1  C1  UNL     1     -26.318   6.462  -4.668  1.00  0.00     0.143 A 
HETATM    2  N2  UNL     1     -25.461   5.451  -4.585  1.00  0.00    -0.335 N 
ATOM      3  H2  UNL     1     -24.467   5.629  -4.436  1.00  0.00     0.168 HD
HETATM    4  C2  UNL     1     -25.904   4.219  -4.695  1.00  0.00     0.065 A 
HETATM    5  C8  UNL     1     -27.245   4.049  -4.893  1.00  0.00     0.046 A 
HETATM    6  S1  UNL     1     -27.812   5.685  -4.911  1.00  0.00    -0.051 SA
ENDROOT
BRANCH   4   7
HETATM    7  C3  UNL     1     -25.000   3.024  -4.616  1.00  0.00     0.033 A 
HETATM    8  C4  UNL     1     -25.218   2.093  -3.644  1.00  0.00     0.034 A 
HETATM    9  C5  UNL     1     -24.437   0.968  -3.510  1.00  0.00     0.088 A 
HETATM   10  N3  UNL     1     -23.431   0.815  -4.386  1.00  0.00    -0.372 N 
HETATM   11  C6  UNL     1     -23.169   1.697  -5.363  1.00  0.00     0.130 A 
ATOM     12  H3  UNL     1     -22.838  -0.010  -4.306  1.00  0.00     0.164 HD
HETATM   13  C7  UNL     1     -23.968   2.839  -5.494  1.00  0.00     0.144 A 
HETATM   14  F1  UNL     1     -23.725   3.758  -6.483  1.00  0.00    -0.204 F 
ENDBRANCH   4   7
BRANCH   5  15
HETATM   15  C9  UNL     1     -28.056   2.823  -5.050  1.00  0.00    -0.017 A 
HETATM   16  C10 UNL     1     -28.487   2.210  -3.891  1.00  0.00     0.013 A 
HETATM   17  C11 UNL     1     -29.258   1.076  -3.974  1.00  0.00     0.001 A 
HETATM   18  C12 UNL     1     -29.627   0.511  -5.183  1.00  0.00     0.000 A 
HETATM   19  C13 UNL     1     -29.193   1.130  -6.342  1.00  0.00     0.001 A 
HETATM   20  C14 UNL     1     -28.409   2.285  -6.254  1.00  0.00     0.013 A 
ENDBRANCH   5  15
BRANCH   1  21
HETATM   21  N1  UNL     1     -26.043   7.750  -4.579  1.00  0.00    -0.380 N 
ATOM     22  H12 UNL     1     -25.704   8.394  -5.293  1.00  0.00     0.158 HD
ATOM     23  H11 UNL     1     -26.127   8.341  -3.753  1.00  0.00     0.158 HD
ENDBRANCH   1  21
TORSDOF 3
ENDMDL
MODEL 5
REMARK VINA RESULT: -2.359473325      3.049      5.720
REMARK  3 active torsions:
REMARK  status: ('A' for Active; 'I' for Inactive)
REMARK    1  A    between atoms: N1_1  and  C1_4 
REMARK    2  A    between atoms: C2_7  and  C3_8 
REMARK    3  A    between atoms: C8_16  and  C9_17 
ROOT
HETATM    1  C1  UNL     1     -26.367   6.484  -4.643  1.00  0.00     0.143 A 
HETATM    2  N2  UNL     1     -25.492   5.485  -4.675  1.00  0.00    -0.335 N 
ATOM      3  H2  UNL     1     -24.492   5.675  -4.615  1.00  0.00     0.168 HD
HETATM    4  C2  UNL     1     -25.927   4.250  -4.784  1.00  0.00     0.065 A 
HETATM    5  C8  UNL     1     -27.279   4.064  -4.859  1.00  0.00     0.046 A 
HETATM    6  S1  UNL     1     -27.867   5.691  -4.769  1.00  0.00    -0.051 SA
ENDROOT
BRANCH   4   7
HETATM    7  C3  UNL     1     -25.005   3.068  -4.831  1.00  0.00     0.033 A 
HETATM    8  C4  UNL     1     -24.167   2.924  -5.896  1.00  0.00     0.034 A 
HETATM    9  C5  UNL     1     -23.289   1.870  -6.008  1.00  0.00     0.088 A 
HETATM   10  N3  UNL     1     -23.286   0.969  -5.013  1.00  0.00    -0.372 N 
HETATM   11  C6  UNL     1     -24.087   1.058  -3.940  1.00  0.00     0.130 A 
ATOM     12  H3  UNL     1     -22.644   0.179  -5.075  1.00  0.00     0.164 HD
HETATM   13  C7  UNL     1     -24.977   2.133  -3.832  1.00  0.00     0.144 A 
HETATM   14  F1  UNL     1     -25.808   2.252  -2.747  1.00  0.00    -0.204 F 
ENDBRANCH   4   7
BRANCH   5  15
HETATM   15  C9  UNL     1     -28.085   2.831  -4.979  1.00  0.00    -0.017 A 
HETATM   16  C10 UNL     1     -28.307   2.356  -6.255  1.00  0.00     0.013 A 
HETATM   17  C11 UNL     1     -29.036   1.205  -6.430  1.00  0.00     0.001 A 
HETATM   18  C12 UNL     1     -29.567   0.489  -5.370  1.00  0.00     0.000 A 
HETATM   19  C13 UNL     1     -29.340   0.969  -4.092  1.00  0.00     0.001 A 
HETATM   20  C14 UNL     1     -28.597   2.142  -3.917  1.00  0.00     0.013 A 
ENDBRANCH   5  15
BRANCH   1  21
HETATM   21  N1  UNL     1     -26.103   7.773  -4.538  1.00  0.00    -0.380 N 
ATOM     22  H12 UNL     1     -25.296   8.239  -4.125  1.00  0.00     0.158 HD
ATOM     23  H11 UNL     1     -26.679   8.548  -4.864  1.00  0.00     0.158 HD
ENDBRANCH   1  21
TORSDOF 3
ENDMDL
