MODEL 1
REMARK VINA RESULT: -7.272546574      0.000      0.000
REMARK  6 active torsions:
REMARK  status: ('A' for Active; 'I' for Inactive)
REMARK    1  A    between atoms: C2_2  and  C3_3 
REMARK    2  A    between atoms: C3_3  and  N1_6 
REMARK    3  A    between atoms: N1_6  and  C6_8 
REMARK    4  A    between atoms: C9_13  and  C10_14 
REMARK    5  A    between atoms: C10_14  and  N3_15 
REMARK    6  A    between atoms: N3_15  and  N4_17 
REMARK       I    between atoms: N4_17  and  C11_19 
REMARK       I    between atoms: C11_19  and  N5_21 
ROOT
HETATM    1  C6  UNL     1      71.143  37.163  -2.120  1.00  0.00     0.681 A 
HETATM    2  N2  UNL     1      72.264  37.007  -1.403  1.00  0.00    -0.194 N 
ATOM      3  H2  UNL     1      73.075  37.623  -1.447  1.00  0.00     0.184 HD
HETATM    4  C7  UNL     1      72.164  35.915  -0.614  1.00  0.00     0.051 A 
HETATM    5  C8  UNL     1      73.190  35.392   0.336  1.00  0.00     0.071 C 
HETATM    6  C9  UNL     1      70.921  35.362  -0.848  1.00  0.00     0.090 A 
HETATM    7  N6  UNL     1      70.334  36.150  -1.769  1.00  0.00    -0.184 N 
HETATM    8  C18 UNL     1      69.010  35.906  -2.285  1.00  0.00     0.175 C 
ENDROOT
BRANCH   6   9
HETATM    9  C10 UNL     1      70.385  34.166  -0.210  1.00  0.00     0.139 C 
BRANCH   9  10
HETATM   10  N3  UNL     1      69.751  34.187   0.906  1.00  0.00    -0.306 N 
ATOM     11  H3  UNL     1      69.572  33.306   1.388  1.00  0.00     0.186 HD
BRANCH  10  12
HETATM   12  N4  UNL     1      69.302  35.360   1.475  1.00  0.00    -0.252 N 
HETATM   13  C11 UNL     1      67.929  35.708   1.557  1.00  0.00     0.337 C 
HETATM   14  O1  UNL     1      67.066  34.905   1.087  1.00  0.00    -0.245 OA
HETATM   15  N5  UNL     1      67.461  36.905   2.138  1.00  0.00    -0.333 N 
HETATM   16  C12 UNL     1      66.022  37.116   2.150  1.00  0.00     0.127 C 
HETATM   17  C17 UNL     1      68.447  37.823   2.672  1.00  0.00     0.127 C 
HETATM   18  C13 UNL     1      65.416  36.639   3.455  1.00  0.00     0.020 C 
HETATM   19  C14 UNL     1      66.491  36.270   4.458  1.00  0.00     0.002 C 
HETATM   20  C15 UNL     1      67.383  37.413   4.821  1.00  0.00     0.002 C 
HETATM   21  C16 UNL     1      68.722  37.367   4.099  1.00  0.00     0.020 C 
ATOM     22  H4  UNL     1      69.990  36.009   1.857  1.00  0.00     0.191 HD
ENDBRANCH  10  12
ENDBRANCH   9  10
ENDBRANCH   6   9
BRANCH   1  23
HETATM   23  N1  UNL     1      70.825  38.057  -2.980  1.00  0.00    -0.217 N 
ATOM     24  H1  UNL     1      70.249  38.825  -2.635  1.00  0.00     0.178 HD
BRANCH  23  25
HETATM   25  C3  UNL     1      71.177  38.111  -4.353  1.00  0.00     0.039 C 
HETATM   26  C4  UNL     1      70.006  38.755  -5.093  1.00  0.00     0.038 C 
HETATM   27  C5  UNL     1      71.482  36.804  -4.997  1.00  0.00     0.038 C 
BRANCH  25  28
HETATM   28  C2  UNL     1      72.409  39.020  -4.464  1.00  0.00     0.026 C 
HETATM   29  C1  UNL     1      72.170  40.170  -5.386  1.00  0.00     0.007 C 
ENDBRANCH  25  28
ENDBRANCH  23  25
ENDBRANCH   1  23
TORSDOF 6
ENDMDL
MODEL 2
REMARK VINA RESULT: -7.122217530      2.381      7.566
REMARK  6 active torsions:
REMARK  status: ('A' for Active; 'I' for Inactive)
REMARK    1  A    between atoms: C2_2  and  C3_3 
REMARK    2  A    between atoms: C3_3  and  N1_6 
REMARK    3  A    between atoms: N1_6  and  C6_8 
REMARK    4  A    between atoms: C9_13  and  C10_14 
REMARK    5  A    between atoms: C10_14  and  N3_15 
REMARK    6  A    between atoms: N3_15  and  N4_17 
REMARK       I    between atoms: N4_17  and  C11_19 
REMARK       I    between atoms: C11_19  and  N5_21 
ROOT
HETATM    1  C6  UNL     1      68.010  36.712   1.911  1.00  0.00     0.681 A 
HETATM    2  N2  UNL     1      67.899  36.005   0.778  1.00  0.00    -0.194 N 
ATOM      3  H2  UNL     1      67.078  35.997   0.174  1.00  0.00     0.184 HD
HETATM    4  C7  UNL     1      69.033  35.305   0.554  1.00  0.00     0.051 A 
HETATM    5  C8  UNL     1      69.318  34.396  -0.596  1.00  0.00     0.071 C 
HETATM    6  C9  UNL     1      69.894  35.588   1.595  1.00  0.00     0.090 A 
HETATM    7  N6  UNL     1      69.234  36.446   2.397  1.00  0.00    -0.184 N 
HETATM    8  C18 UNL     1      69.800  36.985   3.608  1.00  0.00     0.175 C 
ENDROOT
BRANCH   6   9
HETATM    9  C10 UNL     1      71.238  35.050   1.762  1.00  0.00     0.139 C 
BRANCH   9  10
HETATM   10  N3  UNL     1      72.289  35.626   1.302  1.00  0.00    -0.306 N 
ATOM     11  H3  UNL     1      73.076  35.789   1.930  1.00  0.00     0.186 HD
BRANCH  10  12
HETATM   12  N4  UNL     1      72.391  36.032  -0.012  1.00  0.00    -0.252 N 
HETATM   13  C11 UNL     1      73.065  35.279  -1.008  1.00  0.00     0.337 C 
HETATM   14  O1  UNL     1      73.601  34.176  -0.681  1.00  0.00    -0.245 OA
HETATM   15  N5  UNL     1      73.174  35.687  -2.354  1.00  0.00    -0.333 N 
HETATM   16  C12 UNL     1      73.893  34.802  -3.256  1.00  0.00     0.127 C 
HETATM   17  C17 UNL     1      72.564  36.948  -2.725  1.00  0.00     0.127 C 
HETATM   18  C13 UNL     1      72.939  33.863  -3.968  1.00  0.00     0.020 C 
HETATM   19  C14 UNL     1      71.495  34.240  -3.702  1.00  0.00     0.002 C 
HETATM   20  C15 UNL     1      71.142  35.612  -4.178  1.00  0.00     0.002 C 
HETATM   21  C16 UNL     1      71.109  36.636  -3.051  1.00  0.00     0.020 C 
ATOM     22  H4  UNL     1      71.960  36.917  -0.282  1.00  0.00     0.191 HD
ENDBRANCH  10  12
ENDBRANCH   9  10
ENDBRANCH   6   9
BRANCH   1  23
HETATM   23  N1  UNL     1      67.177  37.498   2.484  1.00  0.00    -0.217 N 
ATOM     24  H1  UNL     1      67.364  38.496   2.386  1.00  0.00     0.178 HD
BRANCH  23  25
HETATM   25  C3  UNL     1      66.026  37.152   3.237  1.00  0.00     0.039 C 
HETATM   26  C4  UNL     1      64.941  36.746   2.242  1.00  0.00     0.038 C 
HETATM   27  C5  UNL     1      65.481  38.220   4.120  1.00  0.00     0.038 C 
BRANCH  25  28
HETATM   28  C2  UNL     1      66.404  35.939   4.099  1.00  0.00     0.026 C 
HETATM   29  C1  UNL     1      66.717  36.332   5.505  1.00  0.00     0.007 C 
ENDBRANCH  25  28
ENDBRANCH  23  25
ENDBRANCH   1  23
TORSDOF 6
ENDMDL
MODEL 3
REMARK VINA RESULT: -7.109740929      2.819      6.842
REMARK  6 active torsions:
REMARK  status: ('A' for Active; 'I' for Inactive)
REMARK    1  A    between atoms: C2_2  and  C3_3 
REMARK    2  A    between atoms: C3_3  and  N1_6 
REMARK    3  A    between atoms: N1_6  and  C6_8 
REMARK    4  A    between atoms: C9_13  and  C10_14 
REMARK    5  A    between atoms: C10_14  and  N3_15 
REMARK    6  A    between atoms: N3_15  and  N4_17 
REMARK       I    between atoms: N4_17  and  C11_19 
REMARK       I    between atoms: C11_19  and  N5_21 
ROOT
HETATM    1  C6  UNL     1      69.400  36.018   1.218  1.00  0.00     0.681 A 
HETATM    2  N2  UNL     1      68.600  36.332   2.246  1.00  0.00    -0.194 N 
ATOM      3  H2  UNL     1      68.921  36.561   3.187  1.00  0.00     0.184 HD
HETATM    4  C7  UNL     1      67.307  36.303   1.855  1.00  0.00     0.051 A 
HETATM    5  C8  UNL     1      66.106  36.591   2.694  1.00  0.00     0.071 C 
HETATM    6  C9  UNL     1      67.297  35.955   0.520  1.00  0.00     0.090 A 
HETATM    7  N6  UNL     1      68.588  35.790   0.172  1.00  0.00    -0.184 N 
HETATM    8  C18 UNL     1      69.004  35.419  -1.157  1.00  0.00     0.175 C 
ENDROOT
BRANCH   6   9
HETATM    9  C10 UNL     1      66.112  35.803  -0.314  1.00  0.00     0.139 C 
BRANCH   9  10
HETATM   10  N3  UNL     1      65.608  36.762  -1.003  1.00  0.00    -0.306 N 
ATOM     11  H3  UNL     1      64.635  37.025  -0.843  1.00  0.00     0.186 HD
BRANCH  10  12
HETATM   12  N4  UNL     1      66.336  37.450  -1.951  1.00  0.00    -0.252 N 
HETATM   13  C11 UNL     1      66.573  36.953  -3.258  1.00  0.00     0.337 C 
HETATM   14  O1  UNL     1      66.094  35.822  -3.579  1.00  0.00    -0.245 OA
HETATM   15  N5  UNL     1      67.317  37.649  -4.235  1.00  0.00    -0.333 N 
HETATM   16  C12 UNL     1      67.469  37.008  -5.531  1.00  0.00     0.127 C 
HETATM   17  C17 UNL     1      67.867  38.938  -3.866  1.00  0.00     0.127 C 
HETATM   18  C13 UNL     1      66.397  37.478  -6.495  1.00  0.00     0.020 C 
HETATM   19  C14 UNL     1      65.599  38.628  -5.912  1.00  0.00     0.002 C 
HETATM   20  C15 UNL     1      66.427  39.834  -5.610  1.00  0.00     0.002 C 
HETATM   21  C16 UNL     1      66.769  39.959  -4.132  1.00  0.00     0.020 C 
ATOM     22  H4  UNL     1      66.723  38.360  -1.700  1.00  0.00     0.191 HD
ENDBRANCH  10  12
ENDBRANCH   9  10
ENDBRANCH   6   9
BRANCH   1  23
HETATM   23  N1  UNL     1      70.676  35.929   1.156  1.00  0.00    -0.217 N 
ATOM     24  H1  UNL     1      71.171  36.777   0.882  1.00  0.00     0.178 HD
BRANCH  23  25
HETATM   25  C3  UNL     1      71.485  34.795   1.423  1.00  0.00     0.039 C 
HETATM   26  C4  UNL     1      72.638  34.819   0.421  1.00  0.00     0.038 C 
HETATM   27  C5  UNL     1      70.805  33.474   1.329  1.00  0.00     0.038 C 
BRANCH  25  28
HETATM   28  C2  UNL     1      72.043  34.968   2.842  1.00  0.00     0.026 C 
HETATM   29  C1  UNL     1      73.534  34.879   2.869  1.00  0.00     0.007 C 
ENDBRANCH  25  28
ENDBRANCH  23  25
ENDBRANCH   1  23
TORSDOF 6
ENDMDL
MODEL 4
REMARK VINA RESULT: -7.032544153      1.696      2.152
REMARK  6 active torsions:
REMARK  status: ('A' for Active; 'I' for Inactive)
REMARK    1  A    between atoms: C2_2  and  C3_3 
REMARK    2  A    between atoms: C3_3  and  N1_6 
REMARK    3  A    between atoms: N1_6  and  C6_8 
REMARK    4  A    between atoms: C9_13  and  C10_14 
REMARK    5  A    between atoms: C10_14  and  N3_15 
REMARK    6  A    between atoms: N3_15  and  N4_17 
REMARK       I    between atoms: N4_17  and  C11_19 
REMARK       I    between atoms: C11_19  and  N5_21 
ROOT
HETATM    1  C6  UNL     1      72.953  34.877  -1.718  1.00  0.00     0.681 A 
HETATM    2  N2  UNL     1      73.667  35.211  -0.635  1.00  0.00    -0.194 N 
ATOM      3  H2  UNL     1      74.569  35.687  -0.654  1.00  0.00     0.184 HD
HETATM    4  C7  UNL     1      73.018  34.827   0.487  1.00  0.00     0.051 A 
HETATM    5  C8  UNL     1      73.471  35.011   1.898  1.00  0.00     0.071 C 
HETATM    6  C9  UNL     1      71.843  34.225   0.086  1.00  0.00     0.090 A 
HETATM    7  N6  UNL     1      71.843  34.276  -1.260  1.00  0.00    -0.184 N 
HETATM    8  C18 UNL     1      70.773  33.745  -2.067  1.00  0.00     0.175 C 
ENDROOT
BRANCH   6   9
HETATM    9  C10 UNL     1      70.830  33.658   0.967  1.00  0.00     0.139 C 
BRANCH   9  10
HETATM   10  N3  UNL     1      69.606  34.043   0.972  1.00  0.00    -0.306 N 
ATOM     11  H3  UNL     1      68.896  33.435   0.563  1.00  0.00     0.186 HD
BRANCH  10  12
HETATM   12  N4  UNL     1      69.216  35.251   1.512  1.00  0.00    -0.252 N 
HETATM   13  C11 UNL     1      67.858  35.635   1.656  1.00  0.00     0.337 C 
HETATM   14  O1  UNL     1      66.952  34.833   1.274  1.00  0.00    -0.245 OA
HETATM   15  N5  UNL     1      67.451  36.869   2.207  1.00  0.00    -0.333 N 
HETATM   16  C12 UNL     1      66.020  37.114   2.291  1.00  0.00     0.127 C 
HETATM   17  C17 UNL     1      68.487  37.786   2.639  1.00  0.00     0.127 C 
HETATM   18  C13 UNL     1      65.482  36.712   3.650  1.00  0.00     0.020 C 
HETATM   19  C14 UNL     1      66.606  36.363   4.606  1.00  0.00     0.002 C 
HETATM   20  C15 UNL     1      67.542  37.499   4.863  1.00  0.00     0.002 C 
HETATM   21  C16 UNL     1      68.835  37.388   4.067  1.00  0.00     0.020 C 
ATOM     22  H4  UNL     1      69.940  35.900   1.822  1.00  0.00     0.191 HD
ENDBRANCH  10  12
ENDBRANCH   9  10
ENDBRANCH   6   9
BRANCH   1  23
HETATM   23  N1  UNL     1      73.200  35.055  -2.962  1.00  0.00    -0.217 N 
ATOM     24  H1  UNL     1      73.596  34.256  -3.458  1.00  0.00     0.178 HD
BRANCH  23  25
HETATM   25  C3  UNL     1      72.990  36.225  -3.735  1.00  0.00     0.039 C 
HETATM   26  C4  UNL     1      74.329  36.591  -4.372  1.00  0.00     0.038 C 
HETATM   27  C5  UNL     1      72.480  37.411  -2.993  1.00  0.00     0.038 C 
BRANCH  25  28
HETATM   28  C2  UNL     1      71.987  35.859  -4.838  1.00  0.00     0.026 C 
HETATM   29  C1  UNL     1      70.717  36.635  -4.714  1.00  0.00     0.007 C 
ENDBRANCH  25  28
ENDBRANCH  23  25
ENDBRANCH   1  23
TORSDOF 6
ENDMDL
MODEL 5
REMARK VINA RESULT: -6.912608840      2.579      6.229
REMARK  6 active torsions:
REMARK  status: ('A' for Active; 'I' for Inactive)
REMARK    1  A    between atoms: C2_2  and  C3_3 
REMARK    2  A    between atoms: C3_3  and  N1_6 
REMARK    3  A    between atoms: N1_6  and  C6_8 
REMARK    4  A    between atoms: C9_13  and  C10_14 
REMARK    5  A    between atoms: C10_14  and  N3_15 
REMARK    6  A    between atoms: N3_15  and  N4_17 
REMARK       I    between atoms: N4_17  and  C11_19 
REMARK       I    between atoms: C11_19  and  N5_21 
ROOT
HETATM    1  C6  UNL     1      67.742  35.790   0.491  1.00  0.00     0.681 A 
HETATM    2  N2  UNL     1      67.760  36.572   1.579  1.00  0.00    -0.194 N 
ATOM      3  H2  UNL     1      66.992  37.169   1.882  1.00  0.00     0.184 HD
HETATM    4  C7  UNL     1      68.946  36.453   2.216  1.00  0.00     0.051 A 
HETATM    5  C8  UNL     1      69.372  37.152   3.465  1.00  0.00     0.071 C 
HETATM    6  C9  UNL     1      69.704  35.555   1.493  1.00  0.00     0.090 A 
HETATM    7  N6  UNL     1      68.935  35.177   0.453  1.00  0.00    -0.184 N 
HETATM    8  C18 UNL     1      69.372  34.234  -0.547  1.00  0.00     0.175 C 
ENDROOT
BRANCH   6   9
HETATM    9  C10 UNL     1      71.058  35.125   1.816  1.00  0.00     0.139 C 
BRANCH   9  10
HETATM   10  N3  UNL     1      72.109  35.707   1.364  1.00  0.00    -0.306 N 
ATOM     11  H3  UNL     1      72.879  35.902   2.004  1.00  0.00     0.186 HD
BRANCH  10  12
HETATM   12  N4  UNL     1      72.233  36.078   0.041  1.00  0.00    -0.252 N 
HETATM   13  C11 UNL     1      72.947  35.312  -0.916  1.00  0.00     0.337 C 
HETATM   14  O1  UNL     1      73.500  34.232  -0.546  1.00  0.00    -0.245 OA
HETATM   15  N5  UNL     1      73.079  35.684  -2.271  1.00  0.00    -0.333 N 
HETATM   16  C12 UNL     1      73.839  34.791  -3.130  1.00  0.00     0.127 C 
HETATM   17  C17 UNL     1      72.451  36.921  -2.692  1.00  0.00     0.127 C 
HETATM   18  C13 UNL     1      72.923  33.811  -3.836  1.00  0.00     0.020 C 
HETATM   19  C14 UNL     1      71.465  34.162  -3.615  1.00  0.00     0.002 C 
HETATM   20  C15 UNL     1      71.093  35.512  -4.138  1.00  0.00     0.002 C 
HETATM   21  C16 UNL     1      71.012  36.566  -3.043  1.00  0.00     0.020 C 
ATOM     22  H4  UNL     1      71.790  36.945  -0.264  1.00  0.00     0.191 HD
ENDBRANCH  10  12
ENDBRANCH   9  10
ENDBRANCH   6   9
BRANCH   1  23
HETATM   23  N1  UNL     1      66.823  35.606  -0.383  1.00  0.00    -0.217 N 
ATOM     24  H1  UNL     1      66.184  34.832  -0.205  1.00  0.00     0.178 HD
BRANCH  23  25
HETATM   25  C3  UNL     1      66.586  36.348  -1.569  1.00  0.00     0.039 C 
HETATM   26  C4  UNL     1      65.192  36.959  -1.448  1.00  0.00     0.038 C 
HETATM   27  C5  UNL     1      66.656  35.578  -2.842  1.00  0.00     0.038 C 
BRANCH  25  28
HETATM   28  C2  UNL     1      67.631  37.472  -1.610  1.00  0.00     0.026 C 
HETATM   29  C1  UNL     1      67.642  38.173  -2.928  1.00  0.00     0.007 C 
ENDBRANCH  25  28
ENDBRANCH  23  25
ENDBRANCH   1  23
TORSDOF 6
ENDMDL
