MODEL 1
REMARK VINA RESULT: -8.188915716      0.000      0.000
REMARK  6 active torsions:
REMARK  status: ('A' for Active; 'I' for Inactive)
REMARK    1  A    between atoms: C3_3  and  C4_4 
REMARK    2  A    between atoms: C4_4  and  O1_5 
REMARK    3  A    between atoms: C8_11  and  C9_12 
REMARK    4  A    between atoms: C9_12  and  C10_13 
REMARK    5  A    between atoms: C10_13  and  O3_14 
REMARK    6  A    between atoms: N1_18  and  C12_19 
ROOT
HETATM    1  C10 UNL     1      69.866  34.779  -0.519  1.00  0.00     0.145 C 
HETATM    2  C11 UNL     1      71.245  34.301  -0.705  1.00  0.00     0.255 C 
HETATM    3  O4  UNL     1      71.891  33.608   0.108  1.00  0.00    -0.270 OA
HETATM    4  N1  UNL     1      71.683  34.776  -1.964  1.00  0.00    -0.344 N 
HETATM    5  C18 UNL     1      70.587  35.427  -2.654  1.00  0.00     0.134 C 
HETATM    6  C19 UNL     1      69.572  35.780  -1.564  1.00  0.00     0.044 C 
HETATM    7  C20 UNL     1      69.680  37.207  -1.201  1.00  0.00     0.015 C 
ENDROOT
BRANCH   1   8
HETATM    8  C9  UNL     1      69.721  35.246   0.910  1.00  0.00     0.085 C 
BRANCH   8   9
HETATM    9  C8  UNL     1      68.436  36.027   1.104  1.00  0.00     0.154 C 
HETATM   10  C2  UNL     1      68.447  36.546   2.529  1.00  0.00    -0.051 C 
HETATM   11  C1  UNL     1      69.728  36.794   3.192  1.00  0.00     0.046 C 
HETATM   12  C3  UNL     1      67.313  36.748   3.135  1.00  0.00    -0.050 C 
HETATM   13  C5  UNL     1      66.044  36.493   2.385  1.00  0.00     0.068 C 
HETATM   14  C6  UNL     1      66.175  35.539   1.256  1.00  0.00     0.122 C 
HETATM   15  C7  UNL     1      65.504  36.112  -0.004  1.00  0.00     0.040 C 
HETATM   16  O2  UNL     1      67.427  35.079   1.007  1.00  0.00    -0.376 OA
BRANCH  12  17
HETATM   17  C4  UNL     1      67.210  37.232   4.516  1.00  0.00     0.198 C 
BRANCH  17  18
HETATM   18  O1  UNL     1      67.123  36.056   5.313  1.00  0.00    -0.397 OA
ATOM     19  H1  UNL     1      66.241  35.732   5.175  1.00  0.00     0.209 HD
ENDBRANCH  17  18
ENDBRANCH  12  17
ENDBRANCH   8   9
ENDBRANCH   1   8
BRANCH   1  20
HETATM   20  O3  UNL     1      69.034  33.643  -0.640  1.00  0.00    -0.380 OA
ATOM     21  H3  UNL     1      68.376  33.872  -1.285  1.00  0.00     0.211 HD
ENDBRANCH   1  20
BRANCH   4  22
HETATM   22  C12 UNL     1      73.032  34.621  -2.463  1.00  0.00     0.087 C 
HETATM   23  C13 UNL     1      73.644  35.964  -2.826  1.00  0.00     0.025 C 
HETATM   24  C14 UNL     1      73.747  36.090  -4.330  1.00  0.00     0.002 C 
HETATM   25  C15 UNL     1      74.772  35.081  -4.803  1.00  0.00     0.000 C 
HETATM   26  C16 UNL     1      74.346  33.711  -4.378  1.00  0.00     0.002 C 
HETATM   27  C17 UNL     1      72.987  33.709  -3.695  1.00  0.00     0.025 C 
ENDBRANCH   4  22
TORSDOF 6
ENDMDL
MODEL 2
REMARK VINA RESULT: -8.102698547      2.117      7.714
REMARK  6 active torsions:
REMARK  status: ('A' for Active; 'I' for Inactive)
REMARK    1  A    between atoms: C3_3  and  C4_4 
REMARK    2  A    between atoms: C4_4  and  O1_5 
REMARK    3  A    between atoms: C8_11  and  C9_12 
REMARK    4  A    between atoms: C9_12  and  C10_13 
REMARK    5  A    between atoms: C10_13  and  O3_14 
REMARK    6  A    between atoms: N1_18  and  C12_19 
ROOT
HETATM    1  C10 UNL     1      69.881  34.581  -0.742  1.00  0.00     0.145 C 
HETATM    2  C11 UNL     1      68.728  35.489  -0.631  1.00  0.00     0.255 C 
HETATM    3  O4  UNL     1      68.072  35.951  -1.587  1.00  0.00    -0.270 OA
HETATM    4  N1  UNL     1      68.519  35.728   0.748  1.00  0.00    -0.344 N 
HETATM    5  C18 UNL     1      69.410  34.898   1.533  1.00  0.00     0.134 C 
HETATM    6  C19 UNL     1      70.536  34.492   0.578  1.00  0.00     0.044 C 
HETATM    7  C20 UNL     1      71.734  35.324   0.811  1.00  0.00     0.015 C 
ENDROOT
BRANCH   1   8
HETATM    8  C9  UNL     1      70.746  35.061  -1.884  1.00  0.00     0.085 C 
BRANCH   8   9
HETATM    9  C8  UNL     1      71.517  33.913  -2.507  1.00  0.00     0.154 C 
HETATM   10  C2  UNL     1      72.848  34.474  -2.967  1.00  0.00    -0.051 C 
HETATM   11  C1  UNL     1      73.415  35.634  -2.276  1.00  0.00     0.046 C 
HETATM   12  C3  UNL     1      73.452  33.919  -3.978  1.00  0.00    -0.050 C 
HETATM   13  C5  UNL     1      72.821  32.723  -4.619  1.00  0.00     0.068 C 
HETATM   14  C6  UNL     1      71.355  32.618  -4.423  1.00  0.00     0.122 C 
HETATM   15  C7  UNL     1      70.979  31.195  -3.975  1.00  0.00     0.040 C 
HETATM   16  O2  UNL     1      70.789  33.569  -3.637  1.00  0.00    -0.376 OA
BRANCH  12  17
HETATM   17  C4  UNL     1      74.732  34.392  -4.513  1.00  0.00     0.198 C 
BRANCH  17  18
HETATM   18  O1  UNL     1      75.724  33.702  -3.761  1.00  0.00    -0.397 OA
ATOM     19  H1  UNL     1      75.417  32.804  -3.716  1.00  0.00     0.209 HD
ENDBRANCH  17  18
ENDBRANCH  12  17
ENDBRANCH   8   9
ENDBRANCH   1   8
BRANCH   1  20
HETATM   20  O3  UNL     1      69.363  33.331  -1.149  1.00  0.00    -0.380 OA
ATOM     21  H3  UNL     1      70.112  32.820  -1.430  1.00  0.00     0.211 HD
ENDBRANCH   1  20
BRANCH   4  22
HETATM   22  C12 UNL     1      67.550  36.669   1.268  1.00  0.00     0.087 C 
HETATM   23  C13 UNL     1      68.178  37.591   2.300  1.00  0.00     0.025 C 
HETATM   24  C14 UNL     1      67.673  37.234   3.680  1.00  0.00     0.002 C 
HETATM   25  C15 UNL     1      66.200  37.576   3.732  1.00  0.00     0.000 C 
HETATM   26  C16 UNL     1      65.483  36.823   2.655  1.00  0.00     0.002 C 
HETATM   27  C17 UNL     1      66.399  35.874   1.898  1.00  0.00     0.025 C 
ENDBRANCH   4  22
TORSDOF 6
ENDMDL
MODEL 3
REMARK VINA RESULT: -8.094246746      2.542      7.749
REMARK  6 active torsions:
REMARK  status: ('A' for Active; 'I' for Inactive)
REMARK    1  A    between atoms: C3_3  and  C4_4 
REMARK    2  A    between atoms: C4_4  and  O1_5 
REMARK    3  A    between atoms: C8_11  and  C9_12 
REMARK    4  A    between atoms: C9_12  and  C10_13 
REMARK    5  A    between atoms: C10_13  and  O3_14 
REMARK    6  A    between atoms: N1_18  and  C12_19 
ROOT
HETATM    1  C10 UNL     1      70.312  35.642  -0.697  1.00  0.00     0.145 C 
HETATM    2  C11 UNL     1      69.363  36.699  -0.317  1.00  0.00     0.255 C 
HETATM    3  O4  UNL     1      69.218  37.792  -0.904  1.00  0.00    -0.270 OA
HETATM    4  N1  UNL     1      68.663  36.239   0.823  1.00  0.00    -0.344 N 
HETATM    5  C18 UNL     1      69.032  34.867   1.108  1.00  0.00     0.134 C 
HETATM    6  C19 UNL     1      70.368  34.648   0.394  1.00  0.00     0.044 C 
HETATM    7  C20 UNL     1      71.488  34.741   1.353  1.00  0.00     0.015 C 
ENDROOT
BRANCH   1   8
HETATM    8  C9  UNL     1      71.621  36.299  -1.068  1.00  0.00     0.085 C 
BRANCH   8   9
HETATM    9  C8  UNL     1      71.731  36.495  -2.568  1.00  0.00     0.154 C 
HETATM   10  C2  UNL     1      73.060  35.902  -2.994  1.00  0.00    -0.051 C 
HETATM   11  C1  UNL     1      73.642  34.810  -2.211  1.00  0.00     0.046 C 
HETATM   12  C3  UNL     1      73.660  36.387  -4.042  1.00  0.00    -0.050 C 
HETATM   13  C5  UNL     1      72.992  37.488  -4.804  1.00  0.00     0.068 C 
HETATM   14  C6  UNL     1      72.017  38.281  -4.017  1.00  0.00     0.122 C 
HETATM   15  C7  UNL     1      70.704  38.440  -4.802  1.00  0.00     0.040 C 
HETATM   16  O2  UNL     1      71.806  37.869  -2.741  1.00  0.00    -0.376 OA
BRANCH  12  17
HETATM   17  C4  UNL     1      74.954  35.899  -4.530  1.00  0.00     0.198 C 
BRANCH  17  18
HETATM   18  O1  UNL     1      75.686  37.071  -4.868  1.00  0.00    -0.397 OA
ATOM     19  H1  UNL     1      76.573  36.898  -4.578  1.00  0.00     0.209 HD
ENDBRANCH  17  18
ENDBRANCH  12  17
ENDBRANCH   8   9
ENDBRANCH   1   8
BRANCH   1  20
HETATM   20  O3  UNL     1      69.815  35.073  -1.891  1.00  0.00    -0.380 OA
ATOM     21  H3  UNL     1      69.656  35.802  -2.479  1.00  0.00     0.211 HD
ENDBRANCH   1  20
BRANCH   4  22
HETATM   22  C12 UNL     1      67.723  37.043   1.575  1.00  0.00     0.087 C 
HETATM   23  C13 UNL     1      68.425  37.843   2.659  1.00  0.00     0.025 C 
HETATM   24  C14 UNL     1      68.093  37.267   4.017  1.00  0.00     0.002 C 
HETATM   25  C15 UNL     1      66.622  37.517   4.273  1.00  0.00     0.000 C 
HETATM   26  C16 UNL     1      65.819  36.886   3.178  1.00  0.00     0.002 C 
HETATM   27  C17 UNL     1      66.681  36.106   2.198  1.00  0.00     0.025 C 
ENDBRANCH   4  22
TORSDOF 6
ENDMDL
MODEL 4
REMARK VINA RESULT: -8.067535818      3.807      5.110
REMARK  6 active torsions:
REMARK  status: ('A' for Active; 'I' for Inactive)
REMARK    1  A    between atoms: C3_3  and  C4_4 
REMARK    2  A    between atoms: C4_4  and  O1_5 
REMARK    3  A    between atoms: C8_11  and  C9_12 
REMARK    4  A    between atoms: C9_12  and  C10_13 
REMARK    5  A    between atoms: C10_13  and  O3_14 
REMARK    6  A    between atoms: N1_18  and  C12_19 
ROOT
HETATM    1  C10 UNL     1      67.224  36.595  -1.250  1.00  0.00     0.145 C 
HETATM    2  C11 UNL     1      67.958  37.614  -2.016  1.00  0.00     0.255 C 
HETATM    3  O4  UNL     1      68.856  38.356  -1.565  1.00  0.00    -0.270 OA
HETATM    4  N1  UNL     1      67.451  37.587  -3.337  1.00  0.00    -0.344 N 
HETATM    5  C18 UNL     1      66.514  36.491  -3.482  1.00  0.00     0.134 C 
HETATM    6  C19 UNL     1      66.076  36.138  -2.058  1.00  0.00     0.044 C 
HETATM    7  C20 UNL     1      64.751  36.722  -1.765  1.00  0.00     0.015 C 
ENDROOT
BRANCH   1   8
HETATM    8  C9  UNL     1      66.896  37.174   0.106  1.00  0.00     0.085 C 
BRANCH   8   9
HETATM    9  C8  UNL     1      67.666  36.466   1.205  1.00  0.00     0.154 C 
HETATM   10  C2  UNL     1      66.910  36.707   2.498  1.00  0.00    -0.051 C 
HETATM   11  C1  UNL     1      65.465  36.935   2.451  1.00  0.00     0.046 C 
HETATM   12  C3  UNL     1      67.568  36.717   3.620  1.00  0.00    -0.050 C 
HETATM   13  C5  UNL     1      69.041  36.454   3.590  1.00  0.00     0.068 C 
HETATM   14  C6  UNL     1      69.694  36.748   2.291  1.00  0.00     0.122 C 
HETATM   15  C7  UNL     1      70.597  35.575   1.872  1.00  0.00     0.040 C 
HETATM   16  O2  UNL     1      68.873  37.146   1.287  1.00  0.00    -0.376 OA
BRANCH  12  17
HETATM   17  C4  UNL     1      66.939  36.956   4.923  1.00  0.00     0.198 C 
BRANCH  17  18
HETATM   18  O1  UNL     1      68.002  37.368   5.775  1.00  0.00    -0.397 OA
ATOM     19  H1  UNL     1      67.577  37.803   6.505  1.00  0.00     0.209 HD
ENDBRANCH  17  18
ENDBRANCH  12  17
ENDBRANCH   8   9
ENDBRANCH   1   8
BRANCH   1  20
HETATM   20  O3  UNL     1      68.140  35.545  -1.010  1.00  0.00    -0.380 OA
ATOM     21  H3  UNL     1      67.711  34.753  -1.312  1.00  0.00     0.211 HD
ENDBRANCH   1  20
BRANCH   4  22
HETATM   22  C12 UNL     1      67.831  38.526  -4.369  1.00  0.00     0.087 C 
HETATM   23  C13 UNL     1      66.973  39.780  -4.317  1.00  0.00     0.025 C 
HETATM   24  C14 UNL     1      66.022  39.798  -5.493  1.00  0.00     0.002 C 
HETATM   25  C15 UNL     1      66.850  39.974  -6.748  1.00  0.00     0.000 C 
HETATM   26  C16 UNL     1      67.843  38.858  -6.841  1.00  0.00     0.002 C 
HETATM   27  C17 UNL     1      67.677  37.834  -5.729  1.00  0.00     0.025 C 
ENDBRANCH   4  22
TORSDOF 6
ENDMDL
MODEL 5
REMARK VINA RESULT: -8.040729447      4.022      5.643
REMARK  6 active torsions:
REMARK  status: ('A' for Active; 'I' for Inactive)
REMARK    1  A    between atoms: C3_3  and  C4_4 
REMARK    2  A    between atoms: C4_4  and  O1_5 
REMARK    3  A    between atoms: C8_11  and  C9_12 
REMARK    4  A    between atoms: C9_12  and  C10_13 
REMARK    5  A    between atoms: C10_13  and  O3_14 
REMARK    6  A    between atoms: N1_18  and  C12_19 
ROOT
HETATM    1  C10 UNL     1      67.794  36.633  -2.356  1.00  0.00     0.145 C 
HETATM    2  C11 UNL     1      68.289  37.463  -3.466  1.00  0.00     0.255 C 
HETATM    3  O4  UNL     1      69.414  38.001  -3.527  1.00  0.00    -0.270 OA
HETATM    4  N1  UNL     1      67.254  37.529  -4.429  1.00  0.00    -0.344 N 
HETATM    5  C18 UNL     1      66.163  36.658  -4.040  1.00  0.00     0.134 C 
HETATM    6  C19 UNL     1      66.344  36.423  -2.539  1.00  0.00     0.044 C 
HETATM    7  C20 UNL     1      65.421  37.280  -1.767  1.00  0.00     0.015 C 
ENDROOT
BRANCH   1   8
HETATM    8  C9  UNL     1      68.215  37.285  -1.061  1.00  0.00     0.085 C 
BRANCH   8   9
HETATM    9  C8  UNL     1      68.799  36.267  -0.099  1.00  0.00     0.154 C 
HETATM   10  C2  UNL     1      68.454  36.735   1.301  1.00  0.00    -0.051 C 
HETATM   11  C1  UNL     1      67.253  37.544   1.511  1.00  0.00     0.046 C 
HETATM   12  C3  UNL     1      69.242  36.414   2.286  1.00  0.00    -0.050 C 
HETATM   13  C5  UNL     1      70.440  35.565   1.997  1.00  0.00     0.068 C 
HETATM   14  C6  UNL     1      70.916  35.626   0.594  1.00  0.00     0.122 C 
HETATM   15  C7  UNL     1      71.158  34.207   0.052  1.00  0.00     0.040 C 
HETATM   16  O2  UNL     1      70.174  36.380  -0.256  1.00  0.00    -0.376 OA
BRANCH  12  17
HETATM   17  C4  UNL     1      69.011  36.827   3.674  1.00  0.00     0.198 C 
BRANCH  17  18
HETATM   18  O1  UNL     1      70.226  36.534   4.353  1.00  0.00    -0.397 OA
ATOM     19  H1  UNL     1      70.055  36.743   5.263  1.00  0.00     0.209 HD
ENDBRANCH  17  18
ENDBRANCH  12  17
ENDBRANCH   8   9
ENDBRANCH   1   8
BRANCH   1  20
HETATM   20  O3  UNL     1      68.507  35.415  -2.425  1.00  0.00    -0.380 OA
ATOM     21  H3  UNL     1      67.858  34.729  -2.324  1.00  0.00     0.211 HD
ENDBRANCH   1  20
BRANCH   4  22
HETATM   22  C12 UNL     1      67.305  38.353  -5.617  1.00  0.00     0.087 C 
HETATM   23  C13 UNL     1      66.892  39.784  -5.313  1.00  0.00     0.025 C 
HETATM   24  C14 UNL     1      65.531  40.062  -5.911  1.00  0.00     0.002 C 
HETATM   25  C15 UNL     1      65.679  40.036  -7.418  1.00  0.00     0.000 C 
HETATM   26  C16 UNL     1      66.219  38.704  -7.835  1.00  0.00     0.002 C 
HETATM   27  C17 UNL     1      66.368  37.742  -6.666  1.00  0.00     0.025 C 
ENDBRANCH   4  22
TORSDOF 6
ENDMDL
