MODEL 1
REMARK VINA RESULT: -7.866025294      0.000      0.000
REMARK  6 active torsions:
REMARK  status: ('A' for Active; 'I' for Inactive)
REMARK    1  A    between atoms: C2_2  and  N1_3 
REMARK    2  A    between atoms: C9_13  and  C10_14 
REMARK    3  A    between atoms: C10_14  and  O1_15 
REMARK    4  A    between atoms: O1_15  and  C11_16 
REMARK    5  A    between atoms: C11_16  and  N3_18 
REMARK       I    between atoms: N3_18  and  C12_20 
REMARK    6  A    between atoms: C12_20  and  C13_22 
ROOT
HETATM    1  C10 UNL     1      69.414  35.672  -1.917  1.00  0.00     0.184 C 
ENDROOT
BRANCH   1   2
HETATM    2  C9  UNL     1      69.878  34.447  -1.160  1.00  0.00     0.041 C 
HETATM    3  C5  UNL     1      69.949  34.845   0.305  1.00  0.00     0.196 C 
HETATM    4  C4  UNL     1      70.497  33.716   1.165  1.00  0.00     0.064 C 
HETATM    5  N2  UNL     1      70.848  35.949   0.422  1.00  0.00    -0.039 N 
HETATM    6  C3  UNL     1      71.670  34.244   1.964  1.00  0.00     0.277 C 
HETATM    7  N1  UNL     1      72.701  34.674   1.035  1.00  0.00     0.119 N 
HETATM    8  C6  UNL     1      72.185  35.619   0.059  1.00  0.00     0.420 C 
HETATM    9  C7  UNL     1      72.332  35.020  -1.298  1.00  0.00     0.066 C 
HETATM   10  C8  UNL     1      71.243  34.083  -1.694  1.00  0.00     0.012 C 
ATOM     11  H22 UNL     1      70.512  36.750  -0.112  1.00  0.00     0.280 HD
ATOM     12  H21 UNL     1      70.813  36.348   1.360  1.00  0.00     0.280 HD
BRANCH   7  13
HETATM   13  C2  UNL     1      73.836  35.234   1.740  1.00  0.00     0.270 C 
HETATM   14  C1  UNL     1      73.771  34.843   3.183  1.00  0.00     0.037 C 
ENDBRANCH   7  13
ENDBRANCH   1   2
BRANCH   1  15
HETATM   15  O1  UNL     1      68.005  35.603  -2.002  1.00  0.00    -0.326 OA
BRANCH  15  16
HETATM   16  C11 UNL     1      67.238  36.629  -1.481  1.00  0.00     0.216 C 
HETATM   17  S1  UNL     1      66.761  37.780  -2.528  1.00  0.00    -0.033 SA
BRANCH  16  18
HETATM   18  N3  UNL     1      66.913  36.630  -0.112  1.00  0.00    -0.298 N 
HETATM   19  C12 UNL     1      67.666  37.416   0.788  1.00  0.00     0.228 C 
HETATM   20  O2  UNL     1      68.614  38.106   0.369  1.00  0.00    -0.273 OA
ATOM     21  H3  UNL     1      66.137  36.064   0.230  1.00  0.00     0.171 HD
BRANCH  19  22
HETATM   22  C13 UNL     1      67.337  37.422   2.210  1.00  0.00     0.078 C 
HETATM   23  C14 UNL     1      66.107  36.584   2.525  1.00  0.00     0.014 C 
HETATM   24  C15 UNL     1      65.706  36.837   3.938  1.00  0.00     0.001 C 
HETATM   25  C16 UNL     1      66.824  36.607   4.921  1.00  0.00     0.000 C 
HETATM   26  C17 UNL     1      68.111  37.268   4.511  1.00  0.00     0.001 C 
HETATM   27  C18 UNL     1      68.450  36.883   3.082  1.00  0.00     0.014 C 
ENDBRANCH  19  22
ENDBRANCH  16  18
ENDBRANCH  15  16
ENDBRANCH   1  15
TORSDOF 6
ENDMDL
MODEL 2
REMARK VINA RESULT: -7.814324345      0.904      1.387
REMARK  6 active torsions:
REMARK  status: ('A' for Active; 'I' for Inactive)
REMARK    1  A    between atoms: C2_2  and  N1_3 
REMARK    2  A    between atoms: C9_13  and  C10_14 
REMARK    3  A    between atoms: C10_14  and  O1_15 
REMARK    4  A    between atoms: O1_15  and  C11_16 
REMARK    5  A    between atoms: C11_16  and  N3_18 
REMARK       I    between atoms: N3_18  and  C12_20 
REMARK    6  A    between atoms: C12_20  and  C13_22 
ROOT
HETATM    1  C10 UNL     1      69.303  35.739  -1.911  1.00  0.00     0.184 C 
ENDROOT
BRANCH   1   2
HETATM    2  C9  UNL     1      69.746  34.509  -1.149  1.00  0.00     0.041 C 
HETATM    3  C5  UNL     1      69.868  34.924   0.307  1.00  0.00     0.196 C 
HETATM    4  C4  UNL     1      70.401  33.789   1.170  1.00  0.00     0.064 C 
HETATM    5  N2  UNL     1      70.806  35.999   0.386  1.00  0.00    -0.039 N 
HETATM    6  C3  UNL     1      71.611  34.289   1.930  1.00  0.00     0.277 C 
HETATM    7  N1  UNL     1      72.631  34.671   0.970  1.00  0.00     0.119 N 
HETATM    8  C6  UNL     1      72.122  35.620  -0.006  1.00  0.00     0.420 C 
HETATM    9  C7  UNL     1      72.213  34.998  -1.357  1.00  0.00     0.066 C 
HETATM   10  C8  UNL     1      71.084  34.093  -1.713  1.00  0.00     0.012 C 
ATOM     11  H22 UNL     1      70.483  36.803  -0.151  1.00  0.00     0.280 HD
ATOM     12  H21 UNL     1      70.809  36.412   1.319  1.00  0.00     0.280 HD
BRANCH   7  13
HETATM   13  C2  UNL     1      73.802  35.203   1.638  1.00  0.00     0.270 C 
HETATM   14  C1  UNL     1      73.766  34.826   3.086  1.00  0.00     0.037 C 
ENDBRANCH   7  13
ENDBRANCH   1   2
BRANCH   1  15
HETATM   15  O1  UNL     1      67.896  35.679  -2.021  1.00  0.00    -0.326 OA
BRANCH  15  16
HETATM   16  C11 UNL     1      67.119  36.612  -1.358  1.00  0.00     0.216 C 
HETATM   17  S1  UNL     1      65.963  37.346  -2.237  1.00  0.00    -0.033 SA
BRANCH  16  18
HETATM   18  N3  UNL     1      67.355  36.874   0.003  1.00  0.00    -0.298 N 
HETATM   19  C12 UNL     1      66.796  36.031   0.989  1.00  0.00     0.228 C 
HETATM   20  O2  UNL     1      66.096  35.059   0.651  1.00  0.00    -0.273 OA
ATOM     21  H3  UNL     1      67.929  37.671   0.278  1.00  0.00     0.171 HD
BRANCH  19  22
HETATM   22  C13 UNL     1      67.035  36.296   2.403  1.00  0.00     0.078 C 
HETATM   23  C14 UNL     1      68.097  37.364   2.623  1.00  0.00     0.014 C 
HETATM   24  C15 UNL     1      68.446  37.399   4.072  1.00  0.00     0.001 C 
HETATM   25  C16 UNL     1      67.248  37.589   4.965  1.00  0.00     0.000 C 
HETATM   26  C17 UNL     1      66.108  36.670   4.622  1.00  0.00     0.001 C 
HETATM   27  C18 UNL     1      65.800  36.771   3.138  1.00  0.00     0.014 C 
ENDBRANCH  19  22
ENDBRANCH  16  18
ENDBRANCH  15  16
ENDBRANCH   1  15
TORSDOF 6
ENDMDL
MODEL 3
REMARK VINA RESULT: -7.299992587      2.436      4.947
REMARK  6 active torsions:
REMARK  status: ('A' for Active; 'I' for Inactive)
REMARK    1  A    between atoms: C2_2  and  N1_3 
REMARK    2  A    between atoms: C9_13  and  C10_14 
REMARK    3  A    between atoms: C10_14  and  O1_15 
REMARK    4  A    between atoms: O1_15  and  C11_16 
REMARK    5  A    between atoms: C11_16  and  N3_18 
REMARK       I    between atoms: N3_18  and  C12_20 
REMARK    6  A    between atoms: C12_20  and  C13_22 
ROOT
HETATM    1  C10 UNL     1      70.999  35.556  -1.618  1.00  0.00     0.184 C 
ENDROOT
BRANCH   1   2
HETATM    2  C9  UNL     1      70.518  36.473  -2.722  1.00  0.00     0.041 C 
HETATM    3  C5  UNL     1      69.483  37.394  -2.098  1.00  0.00     0.196 C 
HETATM    4  C4  UNL     1      68.850  38.309  -3.136  1.00  0.00     0.064 C 
HETATM    5  N2  UNL     1      68.441  36.585  -1.550  1.00  0.00    -0.039 N 
HETATM    6  C3  UNL     1      67.346  38.156  -3.062  1.00  0.00     0.277 C 
HETATM    7  N1  UNL     1      67.009  36.780  -3.379  1.00  0.00     0.119 N 
HETATM    8  C6  UNL     1      67.734  35.842  -2.538  1.00  0.00     0.420 C 
HETATM    9  C7  UNL     1      68.593  34.995  -3.412  1.00  0.00     0.066 C 
HETATM   10  C8  UNL     1      69.901  35.601  -3.790  1.00  0.00     0.012 C 
ATOM     11  H22 UNL     1      68.803  35.969  -0.822  1.00  0.00     0.280 HD
ATOM     12  H21 UNL     1      67.800  37.147  -0.989  1.00  0.00     0.280 HD
BRANCH   7  13
HETATM   13  C2  UNL     1      65.580  36.557  -3.280  1.00  0.00     0.270 C 
HETATM   14  C1  UNL     1      65.132  36.806  -1.874  1.00  0.00     0.037 C 
ENDBRANCH   7  13
ENDBRANCH   1   2
BRANCH   1  15
HETATM   15  O1  UNL     1      71.156  36.346  -0.456  1.00  0.00    -0.326 OA
BRANCH  15  16
HETATM   16  C11 UNL     1      71.082  35.750   0.789  1.00  0.00     0.216 C 
HETATM   17  S1  UNL     1      72.115  34.524   1.067  1.00  0.00    -0.033 SA
BRANCH  16  18
HETATM   18  N3  UNL     1      70.149  36.218   1.732  1.00  0.00    -0.298 N 
HETATM   19  C12 UNL     1      68.832  35.707   1.730  1.00  0.00     0.228 C 
HETATM   20  O2  UNL     1      68.501  34.844   0.896  1.00  0.00    -0.273 OA
ATOM     21  H3  UNL     1      70.422  36.925   2.414  1.00  0.00     0.171 HD
BRANCH  19  22
HETATM   22  C13 UNL     1      67.857  36.188   2.703  1.00  0.00     0.078 C 
HETATM   23  C14 UNL     1      68.401  37.322   3.560  1.00  0.00     0.014 C 
HETATM   24  C15 UNL     1      67.441  37.585   4.669  1.00  0.00     0.001 C 
HETATM   25  C16 UNL     1      66.038  37.851   4.188  1.00  0.00     0.000 C 
HETATM   26  C17 UNL     1      65.562  36.843   3.180  1.00  0.00     0.001 C 
HETATM   27  C18 UNL     1      66.587  36.710   2.067  1.00  0.00     0.014 C 
ENDBRANCH  19  22
ENDBRANCH  16  18
ENDBRANCH  15  16
ENDBRANCH   1  15
TORSDOF 6
ENDMDL
MODEL 4
REMARK VINA RESULT: -7.218419600      2.141      4.462
REMARK  6 active torsions:
REMARK  status: ('A' for Active; 'I' for Inactive)
REMARK    1  A    between atoms: C2_2  and  N1_3 
REMARK    2  A    between atoms: C9_13  and  C10_14 
REMARK    3  A    between atoms: C10_14  and  O1_15 
REMARK    4  A    between atoms: O1_15  and  C11_16 
REMARK    5  A    between atoms: C11_16  and  N3_18 
REMARK       I    between atoms: N3_18  and  C12_20 
REMARK    6  A    between atoms: C12_20  and  C13_22 
ROOT
HETATM    1  C10 UNL     1      70.481  35.950   2.317  1.00  0.00     0.184 C 
ENDROOT
BRANCH   1   2
HETATM    2  C9  UNL     1      71.264  34.795   1.729  1.00  0.00     0.041 C 
HETATM    3  C5  UNL     1      72.456  35.404   1.010  1.00  0.00     0.196 C 
HETATM    4  C4  UNL     1      73.277  34.344   0.292  1.00  0.00     0.064 C 
HETATM    5  N2  UNL     1      71.964  36.309   0.021  1.00  0.00    -0.039 N 
HETATM    6  C3  UNL     1      73.423  34.748  -1.160  1.00  0.00     0.277 C 
HETATM    7  N1  UNL     1      72.100  34.804  -1.755  1.00  0.00     0.119 N 
HETATM    8  C6  UNL     1      71.205  35.662  -0.996  1.00  0.00     0.420 C 
HETATM    9  C7  UNL     1      70.072  34.833  -0.495  1.00  0.00     0.066 C 
HETATM   10  C8  UNL     1      70.348  34.082   0.762  1.00  0.00     0.012 C 
ATOM     11  H22 UNL     1      71.429  37.063   0.450  1.00  0.00     0.280 HD
ATOM     12  H21 UNL     1      72.725  36.854  -0.384  1.00  0.00     0.280 HD
BRANCH   7  13
HETATM   13  C2  UNL     1      72.168  35.232  -3.138  1.00  0.00     0.270 C 
HETATM   14  C1  UNL     1      73.403  36.052  -3.346  1.00  0.00     0.037 C 
ENDBRANCH   7  13
ENDBRANCH   1   2
BRANCH   1  15
HETATM   15  O1  UNL     1      69.156  35.499   2.513  1.00  0.00    -0.326 OA
BRANCH  15  16
HETATM   16  C11 UNL     1      68.111  36.402   2.439  1.00  0.00     0.216 C 
HETATM   17  S1  UNL     1      67.885  37.357   3.737  1.00  0.00    -0.033 SA
BRANCH  16  18
HETATM   18  N3  UNL     1      67.315  36.453   1.280  1.00  0.00    -0.298 N 
HETATM   19  C12 UNL     1      67.660  37.331   0.228  1.00  0.00     0.228 C 
HETATM   20  O2  UNL     1      68.667  38.056   0.329  1.00  0.00    -0.273 OA
ATOM     21  H3  UNL     1      66.491  35.858   1.199  1.00  0.00     0.171 HD
BRANCH  19  22
HETATM   22  C13 UNL     1      66.841  37.391  -0.977  1.00  0.00     0.078 C 
HETATM   23  C14 UNL     1      67.658  37.195  -2.246  1.00  0.00     0.014 C 
HETATM   24  C15 UNL     1      66.796  37.507  -3.421  1.00  0.00     0.001 C 
HETATM   25  C16 UNL     1      65.511  36.720  -3.439  1.00  0.00     0.000 C 
HETATM   26  C17 UNL     1      64.793  36.739  -2.118  1.00  0.00     0.001 C 
HETATM   27  C18 UNL     1      65.751  36.341  -1.010  1.00  0.00     0.014 C 
ENDBRANCH  19  22
ENDBRANCH  16  18
ENDBRANCH  15  16
ENDBRANCH   1  15
TORSDOF 6
ENDMDL
MODEL 5
REMARK VINA RESULT: -7.188858168      1.956      5.511
REMARK  6 active torsions:
REMARK  status: ('A' for Active; 'I' for Inactive)
REMARK    1  A    between atoms: C2_2  and  N1_3 
REMARK    2  A    between atoms: C9_13  and  C10_14 
REMARK    3  A    between atoms: C10_14  and  O1_15 
REMARK    4  A    between atoms: O1_15  and  C11_16 
REMARK    5  A    between atoms: C11_16  and  N3_18 
REMARK       I    between atoms: N3_18  and  C12_20 
REMARK    6  A    between atoms: C12_20  and  C13_22 
ROOT
HETATM    1  C10 UNL     1      67.209  35.142  -1.503  1.00  0.00     0.184 C 
ENDROOT
BRANCH   1   2
HETATM    2  C9  UNL     1      67.204  36.535  -0.911  1.00  0.00     0.041 C 
HETATM    3  C5  UNL     1      68.147  36.502   0.279  1.00  0.00     0.196 C 
HETATM    4  C4  UNL     1      68.158  37.829   1.022  1.00  0.00     0.064 C 
HETATM    5  N2  UNL     1      67.679  35.505   1.189  1.00  0.00    -0.039 N 
HETATM    6  C3  UNL     1      67.856  37.568   2.483  1.00  0.00     0.277 C 
HETATM    7  N1  UNL     1      66.530  36.983   2.579  1.00  0.00     0.119 N 
HETATM    8  C6  UNL     1      66.399  35.807   1.735  1.00  0.00     0.420 C 
HETATM    9  C7  UNL     1      65.338  36.072   0.723  1.00  0.00     0.066 C 
HETATM   10  C8  UNL     1      65.787  36.830  -0.478  1.00  0.00     0.012 C 
ATOM     11  H22 UNL     1      67.681  34.584   0.753  1.00  0.00     0.280 HD
ATOM     12  H21 UNL     1      68.361  35.339   1.930  1.00  0.00     0.280 HD
BRANCH   7  13
HETATM   13  C2  UNL     1      66.200  36.665   3.955  1.00  0.00     0.270 C 
HETATM   14  C1  UNL     1      67.329  37.077   4.847  1.00  0.00     0.037 C 
ENDBRANCH   7  13
ENDBRANCH   1   2
BRANCH   1  15
HETATM   15  O1  UNL     1      68.328  35.057  -2.362  1.00  0.00    -0.326 OA
BRANCH  15  16
HETATM   16  C11 UNL     1      69.201  33.991  -2.242  1.00  0.00     0.216 C 
HETATM   17  S1  UNL     1      69.275  32.970  -3.508  1.00  0.00    -0.033 SA
BRANCH  16  18
HETATM   18  N3  UNL     1      69.963  33.843  -1.069  1.00  0.00    -0.298 N 
HETATM   19  C12 UNL     1      71.082  34.676  -0.848  1.00  0.00     0.228 C 
HETATM   20  O2  UNL     1      71.390  35.539  -1.691  1.00  0.00    -0.273 OA
ATOM     21  H3  UNL     1      69.708  33.136  -0.381  1.00  0.00     0.171 HD
BRANCH  19  22
HETATM   22  C13 UNL     1      71.878  34.529   0.366  1.00  0.00     0.078 C 
HETATM   23  C14 UNL     1      73.201  35.278   0.287  1.00  0.00     0.014 C 
HETATM   24  C15 UNL     1      74.043  34.882   1.451  1.00  0.00     0.001 C 
HETATM   25  C16 UNL     1      73.351  35.077   2.776  1.00  0.00     0.000 C 
HETATM   26  C17 UNL     1      71.956  34.516   2.797  1.00  0.00     0.001 C 
HETATM   27  C18 UNL     1      71.176  35.040   1.605  1.00  0.00     0.014 C 
ENDBRANCH  19  22
ENDBRANCH  16  18
ENDBRANCH  15  16
ENDBRANCH   1  15
TORSDOF 6
ENDMDL
