MODEL 1
REMARK VINA RESULT: -6.105810012      0.000      0.000
REMARK  13 active torsions:
REMARK  status: ('A' for Active; 'I' for Inactive)
REMARK    1  A    between atoms: N1_1  and  C1_4 
REMARK    2  A    between atoms: C2_7  and  N3_8 
REMARK    3  A    between atoms: C3_14  and  N6_15 
REMARK    4  A    between atoms: N6_15  and  C4_17 
REMARK    5  A    between atoms: C4_17  and  C5_18 
REMARK    6  A    between atoms: C5_18  and  O1_19 
REMARK    7  A    between atoms: O1_19  and  N7_20 
REMARK    8  A    between atoms: C6_23  and  C7_24 
REMARK    9  A    between atoms: C7_24  and  C8_25 
REMARK   10  A    between atoms: C8_25  and  N8_26 
REMARK   11  A    between atoms: N8_26  and  C9_28 
REMARK   12  A    between atoms: C9_28  and  C10_29 
REMARK   13  A    between atoms: C10_29  and  O2_30 
ROOT
HETATM    1  C1  UNL     1      44.115-407.757  15.868  1.00  0.00     0.692 A 
HETATM    2  N2  UNL     1      42.831-407.901  15.445  1.00  0.00    -0.021 N 
ATOM      3  H2  UNL     1      42.481-408.807  15.131  1.00  0.00     0.203 HD
HETATM    4  C2  UNL     1      42.032-406.815  15.452  1.00  0.00     0.713 A 
HETATM    5  N4  UNL     1      42.499-405.626  15.866  1.00  0.00    -0.067 N 
HETATM    6  N5  UNL     1      41.922-404.435  15.951  1.00  0.00    -0.262 N 
ATOM      7  H5  UNL     1      40.954-404.236  15.699  1.00  0.00     0.190 HD
HETATM    8  C3  UNL     1      42.801-403.524  16.419  1.00  0.00     0.127 A 
HETATM    9  C6  UNL     1      43.982-404.168  16.635  1.00  0.00     0.035 A 
HETATM   10  C11 UNL     1      43.778-405.499  16.280  1.00  0.00     0.171 A 
HETATM   11  N9  UNL     1      44.598-406.576  16.284  1.00  0.00    -0.173 N 
ATOM     12  H9  UNL     1      45.566-406.491  16.596  1.00  0.00     0.186 HD
ENDROOT
BRANCH   8  13
HETATM   13  N6  UNL     1      42.548-402.146  16.682  1.00  0.00    -0.373 N 
ATOM     14  H6  UNL     1      42.369-401.833  17.636  1.00  0.00     0.161 HD
BRANCH  13  15
HETATM   15  C4  UNL     1      42.544-401.194  15.596  1.00  0.00     0.150 C 
BRANCH  15  16
HETATM   16  C5  UNL     1      41.735-399.993  16.059  1.00  0.00     0.220 C 
BRANCH  16  17
HETATM   17  O1  UNL     1      42.610-398.954  16.294  1.00  0.00    -0.286 OA
BRANCH  17  18
HETATM   18  N7  UNL     1      43.666-399.044  15.447  1.00  0.00    -0.311 N 
ATOM     19  H72 UNL     1      43.648-399.538  14.554  1.00  0.00     0.184 HD
ATOM     20  H71 UNL     1      44.466-398.548  15.840  1.00  0.00     0.184 HD
ENDBRANCH  17  18
ENDBRANCH  16  17
ENDBRANCH  15  16
ENDBRANCH  13  15
ENDBRANCH   8  13
BRANCH   9  21
HETATM   21  C7  UNL     1      45.294-403.657  17.071  1.00  0.00     0.065 C 
BRANCH  21  22
HETATM   22  C8  UNL     1      45.938-402.848  15.929  1.00  0.00     0.118 C 
BRANCH  22  23
HETATM   23  N8  UNL     1      46.084-401.528  16.407  1.00  0.00    -0.419 N 
ATOM     24  H8  UNL     1      46.113-400.733  15.769  1.00  0.00     0.153 HD
BRANCH  23  25
HETATM   25  C9  UNL     1      46.189-401.348  17.815  1.00  0.00     0.139 C 
BRANCH  25  26
HETATM   26  C10 UNL     1      45.424-400.103  18.264  1.00  0.00     0.183 C 
BRANCH  26  27
HETATM   27  O2  UNL     1      44.107-400.440  18.526  1.00  0.00    -0.399 OA
ATOM     28  H2  UNL     1      43.646-399.680  18.860  1.00  0.00     0.209 HD
ENDBRANCH  26  27
ENDBRANCH  25  26
ENDBRANCH  23  25
ENDBRANCH  22  23
ENDBRANCH  21  22
ENDBRANCH   9  21
BRANCH   4  29
HETATM   29  N3  UNL     1      40.805-406.980  15.035  1.00  0.00    -0.232 N 
ATOM     30  H32 UNL     1      40.088-407.425  15.607  1.00  0.00     0.174 HD
ATOM     31  H31 UNL     1      40.584-406.637  14.100  1.00  0.00     0.174 HD
ENDBRANCH   4  29
BRANCH   1  32
HETATM   32  N1  UNL     1      44.921-408.758  15.879  1.00  0.00    -0.234 N 
ATOM     33  H12 UNL     1      44.602-409.610  16.340  1.00  0.00     0.174 HD
ATOM     34  H11 UNL     1      45.842-408.692  15.445  1.00  0.00     0.174 HD
ENDBRANCH   1  32
TORSDOF 13
ENDMDL
MODEL 2
REMARK VINA RESULT: -5.865990815      1.265      1.352
REMARK  13 active torsions:
REMARK  status: ('A' for Active; 'I' for Inactive)
REMARK    1  A    between atoms: N1_1  and  C1_4 
REMARK    2  A    between atoms: C2_7  and  N3_8 
REMARK    3  A    between atoms: C3_14  and  N6_15 
REMARK    4  A    between atoms: N6_15  and  C4_17 
REMARK    5  A    between atoms: C4_17  and  C5_18 
REMARK    6  A    between atoms: C5_18  and  O1_19 
REMARK    7  A    between atoms: O1_19  and  N7_20 
REMARK    8  A    between atoms: C6_23  and  C7_24 
REMARK    9  A    between atoms: C7_24  and  C8_25 
REMARK   10  A    between atoms: C8_25  and  N8_26 
REMARK   11  A    between atoms: N8_26  and  C9_28 
REMARK   12  A    between atoms: C9_28  and  C10_29 
REMARK   13  A    between atoms: C10_29  and  O2_30 
ROOT
HETATM    1  C1  UNL     1      44.160-407.878  16.223  1.00  0.00     0.692 A 
HETATM    2  N2  UNL     1      42.867-407.873  15.802  1.00  0.00    -0.021 N 
ATOM      3  H2  UNL     1      42.356-408.746  15.670  1.00  0.00     0.203 HD
HETATM    4  C2  UNL     1      42.278-406.683  15.565  1.00  0.00     0.713 A 
HETATM    5  N4  UNL     1      42.957-405.537  15.742  1.00  0.00    -0.067 N 
HETATM    6  N5  UNL     1      42.607-404.271  15.567  1.00  0.00    -0.262 N 
ATOM      7  H5  UNL     1      41.689-403.957  15.253  1.00  0.00     0.190 HD
HETATM    8  C3  UNL     1      43.641-403.456  15.865  1.00  0.00     0.127 A 
HETATM    9  C6  UNL     1      44.688-404.243  16.239  1.00  0.00     0.035 A 
HETATM   10  C11 UNL     1      44.242-405.560  16.158  1.00  0.00     0.171 A 
HETATM   11  N9  UNL     1      44.853-406.742  16.403  1.00  0.00    -0.173 N 
ATOM     12  H9  UNL     1      45.823-406.771  16.718  1.00  0.00     0.186 HD
ENDROOT
BRANCH   8  13
HETATM   13  N6  UNL     1      43.644-402.031  15.834  1.00  0.00    -0.373 N 
ATOM     14  H6  UNL     1      44.379-401.533  15.333  1.00  0.00     0.161 HD
BRANCH  13  15
HETATM   15  C4  UNL     1      42.605-401.292  16.515  1.00  0.00     0.150 C 
BRANCH  15  16
HETATM   16  C5  UNL     1      42.503-399.937  15.835  1.00  0.00     0.220 C 
BRANCH  16  17
HETATM   17  O1  UNL     1      43.535-399.149  16.298  1.00  0.00    -0.286 OA
BRANCH  17  18
HETATM   18  N7  UNL     1      44.123-398.506  15.257  1.00  0.00    -0.311 N 
ATOM     19  H72 UNL     1      43.777-398.528  14.298  1.00  0.00     0.184 HD
ATOM     20  H71 UNL     1      44.950-398.007  15.584  1.00  0.00     0.184 HD
ENDBRANCH  17  18
ENDBRANCH  16  17
ENDBRANCH  15  16
ENDBRANCH  13  15
ENDBRANCH   8  13
BRANCH   9  21
HETATM   21  C7  UNL     1      46.074-403.898  16.599  1.00  0.00     0.065 C 
BRANCH  21  22
HETATM   22  C8  UNL     1      46.928-403.794  15.321  1.00  0.00     0.118 C 
BRANCH  22  23
HETATM   23  N8  UNL     1      47.109-402.417  15.071  1.00  0.00    -0.419 N 
ATOM     24  H8  UNL     1      46.565-401.931  14.358  1.00  0.00     0.153 HD
BRANCH  23  25
HETATM   25  C9  UNL     1      48.079-401.730  15.854  1.00  0.00     0.139 C 
BRANCH  25  26
HETATM   26  C10 UNL     1      47.519-400.408  16.379  1.00  0.00     0.183 C 
BRANCH  26  27
HETATM   27  O2  UNL     1      46.138-400.418  16.275  1.00  0.00    -0.399 OA
ATOM     28  H2  UNL     1      45.756-400.232  17.125  1.00  0.00     0.209 HD
ENDBRANCH  26  27
ENDBRANCH  25  26
ENDBRANCH  23  25
ENDBRANCH  22  23
ENDBRANCH  21  22
ENDBRANCH   9  21
BRANCH   4  29
HETATM   29  N3  UNL     1      41.038-406.707  15.157  1.00  0.00    -0.232 N 
ATOM     30  H32 UNL     1      40.276-406.296  15.695  1.00  0.00     0.174 HD
ATOM     31  H31 UNL     1      40.855-407.158  14.260  1.00  0.00     0.174 HD
ENDBRANCH   4  29
BRANCH   1  32
HETATM   32  N1  UNL     1      44.771-408.983  16.459  1.00  0.00    -0.234 N 
ATOM     33  H12 UNL     1      44.224-409.742  16.866  1.00  0.00     0.174 HD
ATOM     34  H11 UNL     1      45.765-409.087  16.250  1.00  0.00     0.174 HD
ENDBRANCH   1  32
TORSDOF 13
ENDMDL
MODEL 3
REMARK VINA RESULT: -5.744002982      1.812      2.229
REMARK  13 active torsions:
REMARK  status: ('A' for Active; 'I' for Inactive)
REMARK    1  A    between atoms: N1_1  and  C1_4 
REMARK    2  A    between atoms: C2_7  and  N3_8 
REMARK    3  A    between atoms: C3_14  and  N6_15 
REMARK    4  A    between atoms: N6_15  and  C4_17 
REMARK    5  A    between atoms: C4_17  and  C5_18 
REMARK    6  A    between atoms: C5_18  and  O1_19 
REMARK    7  A    between atoms: O1_19  and  N7_20 
REMARK    8  A    between atoms: C6_23  and  C7_24 
REMARK    9  A    between atoms: C7_24  and  C8_25 
REMARK   10  A    between atoms: C8_25  and  N8_26 
REMARK   11  A    between atoms: N8_26  and  C9_28 
REMARK   12  A    between atoms: C9_28  and  C10_29 
REMARK   13  A    between atoms: C10_29  and  O2_30 
ROOT
HETATM    1  C1  UNL     1      44.243-407.661  15.881  1.00  0.00     0.692 A 
HETATM    2  N2  UNL     1      42.953-407.874  15.506  1.00  0.00    -0.021 N 
ATOM      3  H2  UNL     1      42.639-408.799  15.212  1.00  0.00     0.203 HD
HETATM    4  C2  UNL     1      42.100-406.830  15.534  1.00  0.00     0.713 A 
HETATM    5  N4  UNL     1      42.521-405.614  15.923  1.00  0.00    -0.067 N 
HETATM    6  N5  UNL     1      41.888-404.454  16.022  1.00  0.00    -0.262 N 
ATOM      7  H5  UNL     1      40.903-404.306  15.804  1.00  0.00     0.190 HD
HETATM    8  C3  UNL     1      42.736-403.496  16.451  1.00  0.00     0.127 A 
HETATM    9  C6  UNL     1      43.955-404.076  16.627  1.00  0.00     0.035 A 
HETATM   10  C11 UNL     1      43.806-405.420  16.290  1.00  0.00     0.171 A 
HETATM   11  N9  UNL     1      44.680-406.453  16.270  1.00  0.00    -0.173 N 
ATOM     12  H9  UNL     1      45.652-406.317  16.547  1.00  0.00     0.186 HD
ENDROOT
BRANCH   8  13
HETATM   13  N6  UNL     1      42.422-402.130  16.714  1.00  0.00    -0.373 N 
ATOM     14  H6  UNL     1      42.047-401.858  17.622  1.00  0.00     0.161 HD
BRANCH  13  15
HETATM   15  C4  UNL     1      42.636-401.131  15.691  1.00  0.00     0.150 C 
BRANCH  15  16
HETATM   16  C5  UNL     1      41.787-399.926  16.061  1.00  0.00     0.220 C 
BRANCH  16  17
HETATM   17  O1  UNL     1      42.624-398.840  16.197  1.00  0.00    -0.286 OA
BRANCH  17  18
HETATM   18  N7  UNL     1      43.695-398.982  15.375  1.00  0.00    -0.311 N 
ATOM     19  H72 UNL     1      44.054-399.878  15.047  1.00  0.00     0.184 HD
ATOM     20  H71 UNL     1      44.074-398.063  15.142  1.00  0.00     0.184 HD
ENDBRANCH  17  18
ENDBRANCH  16  17
ENDBRANCH  15  16
ENDBRANCH  13  15
ENDBRANCH   8  13
BRANCH   9  21
HETATM   21  C7  UNL     1      45.254-403.497  17.012  1.00  0.00     0.065 C 
BRANCH  21  22
HETATM   22  C8  UNL     1      46.097-403.237  15.748  1.00  0.00     0.118 C 
BRANCH  22  23
HETATM   23  N8  UNL     1      47.438-403.505  16.100  1.00  0.00    -0.419 N 
ATOM     24  H8  UNL     1      48.033-402.784  16.508  1.00  0.00     0.153 HD
BRANCH  23  25
HETATM   25  C9  UNL     1      47.927-404.820  15.864  1.00  0.00     0.139 C 
BRANCH  25  26
HETATM   26  C10 UNL     1      48.379-405.476  17.169  1.00  0.00     0.183 C 
BRANCH  26  27
HETATM   27  O2  UNL     1      47.356-406.266  17.666  1.00  0.00    -0.399 OA
ATOM     28  H2  UNL     1      46.982-405.851  18.435  1.00  0.00     0.209 HD
ENDBRANCH  26  27
ENDBRANCH  25  26
ENDBRANCH  23  25
ENDBRANCH  22  23
ENDBRANCH  21  22
ENDBRANCH   9  21
BRANCH   4  29
HETATM   29  N3  UNL     1      40.869-407.060  15.164  1.00  0.00    -0.232 N 
ATOM     30  H32 UNL     1      40.080-406.976  15.804  1.00  0.00     0.174 HD
ATOM     31  H31 UNL     1      40.722-407.329  14.191  1.00  0.00     0.174 HD
ENDBRANCH   4  29
BRANCH   1  32
HETATM   32  N1  UNL     1      45.099-408.620  15.868  1.00  0.00    -0.234 N 
ATOM     33  H12 UNL     1      44.769-409.544  16.148  1.00  0.00     0.174 HD
ATOM     34  H11 UNL     1      46.067-408.453  15.593  1.00  0.00     0.174 HD
ENDBRANCH   1  32
TORSDOF 13
ENDMDL
MODEL 4
REMARK VINA RESULT: -5.646084074      2.155      2.683
REMARK  13 active torsions:
REMARK  status: ('A' for Active; 'I' for Inactive)
REMARK    1  A    between atoms: N1_1  and  C1_4 
REMARK    2  A    between atoms: C2_7  and  N3_8 
REMARK    3  A    between atoms: C3_14  and  N6_15 
REMARK    4  A    between atoms: N6_15  and  C4_17 
REMARK    5  A    between atoms: C4_17  and  C5_18 
REMARK    6  A    between atoms: C5_18  and  O1_19 
REMARK    7  A    between atoms: O1_19  and  N7_20 
REMARK    8  A    between atoms: C6_23  and  C7_24 
REMARK    9  A    between atoms: C7_24  and  C8_25 
REMARK   10  A    between atoms: C8_25  and  N8_26 
REMARK   11  A    between atoms: N8_26  and  C9_28 
REMARK   12  A    between atoms: C9_28  and  C10_29 
REMARK   13  A    between atoms: C10_29  and  O2_30 
ROOT
HETATM    1  C1  UNL     1      44.263-407.560  16.327  1.00  0.00     0.692 A 
HETATM    2  N2  UNL     1      42.996-407.709  15.857  1.00  0.00    -0.021 N 
ATOM      3  H2  UNL     1      42.579-408.635  15.759  1.00  0.00     0.203 HD
HETATM    4  C2  UNL     1      42.305-406.600  15.523  1.00  0.00     0.713 A 
HETATM    5  N4  UNL     1      42.860-405.384  15.654  1.00  0.00    -0.067 N 
HETATM    6  N5  UNL     1      42.396-404.171  15.387  1.00  0.00    -0.262 N 
ATOM      7  H5  UNL     1      41.467-403.970  15.018  1.00  0.00     0.190 HD
HETATM    8  C3  UNL     1      43.331-403.241  15.674  1.00  0.00     0.127 A 
HETATM    9  C6  UNL     1      44.432-403.896  16.138  1.00  0.00     0.035 A 
HETATM   10  C11 UNL     1      44.121-405.254  16.121  1.00  0.00     0.171 A 
HETATM   11  N9  UNL     1      44.833-406.352  16.463  1.00  0.00    -0.173 N 
ATOM     12  H9  UNL     1      45.785-406.265  16.818  1.00  0.00     0.186 HD
ENDROOT
BRANCH   8  13
HETATM   13  N6  UNL     1      43.197-401.826  15.555  1.00  0.00    -0.373 N 
ATOM     14  H6  UNL     1      43.236-401.385  14.636  1.00  0.00     0.161 HD
BRANCH  13  15
HETATM   15  C4  UNL     1      43.006-401.018  16.737  1.00  0.00     0.150 C 
BRANCH  15  16
HETATM   16  C5  UNL     1      44.175-400.049  16.807  1.00  0.00     0.220 C 
BRANCH  16  17
HETATM   17  O1  UNL     1      44.489-399.856  18.136  1.00  0.00    -0.286 OA
BRANCH  17  18
HETATM   18  N7  UNL     1      44.469-401.046  18.788  1.00  0.00    -0.311 N 
ATOM     19  H72 UNL     1      45.090-401.827  18.580  1.00  0.00     0.184 HD
ATOM     20  H71 UNL     1      43.745-401.031  19.507  1.00  0.00     0.184 HD
ENDBRANCH  17  18
ENDBRANCH  16  17
ENDBRANCH  15  16
ENDBRANCH  13  15
ENDBRANCH   8  13
BRANCH   9  21
HETATM   21  C7  UNL     1      45.761-403.393  16.530  1.00  0.00     0.065 C 
BRANCH  21  22
HETATM   22  C8  UNL     1      46.702-403.419  15.310  1.00  0.00     0.118 C 
BRANCH  22  23
HETATM   23  N8  UNL     1      47.972-403.803  15.793  1.00  0.00    -0.419 N 
ATOM     24  H8  UNL     1      48.658-403.108  16.089  1.00  0.00     0.153 HD
BRANCH  23  25
HETATM   25  C9  UNL     1      48.258-405.195  15.852  1.00  0.00     0.139 C 
BRANCH  25  26
HETATM   26  C10 UNL     1      48.456-405.650  17.298  1.00  0.00     0.183 C 
BRANCH  26  27
HETATM   27  O2  UNL     1      47.340-406.353  17.718  1.00  0.00    -0.399 OA
ATOM     28  H2  UNL     1      46.634-406.228  17.095  1.00  0.00     0.209 HD
ENDBRANCH  26  27
ENDBRANCH  25  26
ENDBRANCH  23  25
ENDBRANCH  22  23
ENDBRANCH  21  22
ENDBRANCH   9  21
BRANCH   4  29
HETATM   29  N3  UNL     1      41.093-406.772  15.068  1.00  0.00    -0.232 N 
ATOM     30  H32 UNL     1      40.902-407.015  14.096  1.00  0.00     0.174 HD
ATOM     31  H31 UNL     1      40.329-406.656  15.733  1.00  0.00     0.174 HD
ENDBRANCH   4  29
BRANCH   1  32
HETATM   32  N1  UNL     1      44.968-408.583  16.656  1.00  0.00    -0.234 N 
ATOM     33  H12 UNL     1      44.538-409.502  16.544  1.00  0.00     0.174 HD
ATOM     34  H11 UNL     1      45.915-408.471  17.018  1.00  0.00     0.174 HD
ENDBRANCH   1  32
TORSDOF 13
ENDMDL
MODEL 5
REMARK VINA RESULT: -5.632831504      3.116      6.983
REMARK  13 active torsions:
REMARK  status: ('A' for Active; 'I' for Inactive)
REMARK    1  A    between atoms: N1_1  and  C1_4 
REMARK    2  A    between atoms: C2_7  and  N3_8 
REMARK    3  A    between atoms: C3_14  and  N6_15 
REMARK    4  A    between atoms: N6_15  and  C4_17 
REMARK    5  A    between atoms: C4_17  and  C5_18 
REMARK    6  A    between atoms: C5_18  and  O1_19 
REMARK    7  A    between atoms: O1_19  and  N7_20 
REMARK    8  A    between atoms: C6_23  and  C7_24 
REMARK    9  A    between atoms: C7_24  and  C8_25 
REMARK   10  A    between atoms: C8_25  and  N8_26 
REMARK   11  A    between atoms: N8_26  and  C9_28 
REMARK   12  A    between atoms: C9_28  and  C10_29 
REMARK   13  A    between atoms: C10_29  and  O2_30 
ROOT
HETATM    1  C1  UNL     1      42.801-400.681  16.403  1.00  0.00     0.692 A 
HETATM    2  N2  UNL     1      43.949-400.254  16.995  1.00  0.00    -0.021 N 
ATOM      3  H2  UNL     1      44.053-399.285  17.297  1.00  0.00     0.203 HD
HETATM    4  C2  UNL     1      44.945-401.145  17.172  1.00  0.00     0.713 A 
HETATM    5  N4  UNL     1      44.801-402.420  16.771  1.00  0.00    -0.067 N 
HETATM    6  N5  UNL     1      45.624-403.457  16.824  1.00  0.00    -0.262 N 
ATOM      7  H5  UNL     1      46.565-403.436  17.217  1.00  0.00     0.190 HD
HETATM    8  C3  UNL     1      45.038-404.545  16.282  1.00  0.00     0.127 A 
HETATM    9  C6  UNL     1      43.794-404.176  15.867  1.00  0.00     0.035 A 
HETATM   10  C11 UNL     1      43.655-402.827  16.183  1.00  0.00     0.171 A 
HETATM   11  N9  UNL     1      42.641-401.950  15.996  1.00  0.00    -0.173 N 
ATOM     12  H9  UNL     1      41.771-402.248  15.554  1.00  0.00     0.186 HD
ENDROOT
BRANCH   8  13
HETATM   13  N6  UNL     1      45.589-405.857  16.186  1.00  0.00    -0.373 N 
ATOM     14  H6  UNL     1      46.426-406.019  15.627  1.00  0.00     0.161 HD
BRANCH  13  15
HETATM   15  C4  UNL     1      44.959-406.956  16.880  1.00  0.00     0.150 C 
BRANCH  15  16
HETATM   16  C5  UNL     1      44.859-408.108  15.893  1.00  0.00     0.220 C 
BRANCH  16  17
HETATM   17  O1  UNL     1      43.523-408.390  15.701  1.00  0.00    -0.286 OA
BRANCH  17  18
HETATM   18  N7  UNL     1      42.961-408.763  16.878  1.00  0.00    -0.311 N 
ATOM     19  H72 UNL     1      43.180-409.627  17.373  1.00  0.00     0.184 HD
ATOM     20  H71 UNL     1      42.295-408.052  17.182  1.00  0.00     0.184 HD
ENDBRANCH  17  18
ENDBRANCH  16  17
ENDBRANCH  15  16
ENDBRANCH  13  15
ENDBRANCH   8  13
BRANCH   9  21
HETATM   21  C7  UNL     1      42.752-404.932  15.149  1.00  0.00     0.065 C 
BRANCH  21  22
HETATM   22  C8  UNL     1      41.642-405.344  16.136  1.00  0.00     0.118 C 
BRANCH  22  23
HETATM   23  N8  UNL     1      40.929-406.395  15.519  1.00  0.00    -0.419 N 
ATOM     24  H8  UNL     1      40.325-407.014  16.060  1.00  0.00     0.153 HD
BRANCH  23  25
HETATM   25  C9  UNL     1      41.084-406.557  14.115  1.00  0.00     0.139 C 
BRANCH  25  26
HETATM   26  C10 UNL     1      40.749-407.987  13.691  1.00  0.00     0.183 C 
BRANCH  26  27
HETATM   27  O2  UNL     1      40.716-408.804  14.808  1.00  0.00    -0.399 OA
ATOM     28  H2  UNL     1      41.579-408.834  15.204  1.00  0.00     0.209 HD
ENDBRANCH  26  27
ENDBRANCH  25  26
ENDBRANCH  23  25
ENDBRANCH  22  23
ENDBRANCH  21  22
ENDBRANCH   9  21
BRANCH   4  29
HETATM   29  N3  UNL     1      46.038-400.708  17.737  1.00  0.00    -0.232 N 
ATOM     30  H32 UNL     1      46.177-400.725  18.747  1.00  0.00     0.174 HD
ATOM     31  H31 UNL     1      46.764-400.344  17.120  1.00  0.00     0.174 HD
ENDBRANCH   4  29
BRANCH   1  32
HETATM   32  N1  UNL     1      41.822-399.873  16.206  1.00  0.00    -0.234 N 
ATOM     33  H12 UNL     1      41.614-399.201  16.946  1.00  0.00     0.174 HD
ATOM     34  H11 UNL     1      41.277-399.911  15.345  1.00  0.00     0.174 HD
ENDBRANCH   1  32
TORSDOF 13
ENDMDL
