MODEL 1
REMARK VINA RESULT: -6.242926496      0.000      0.000
REMARK  12 active torsions:
REMARK  status: ('A' for Active; 'I' for Inactive)
REMARK    1  A    between atoms: N1_1  and  C1_4 
REMARK    2  A    between atoms: C3_9  and  C4_10 
REMARK    3  A    between atoms: C4_10  and  C5_11 
REMARK    4  A    between atoms: C5_11  and  N4_12 
REMARK    5  A    between atoms: N4_12  and  C6_15 
REMARK    6  A    between atoms: C6_15  and  N5_16 
REMARK    7  A    between atoms: N6_20  and  C7_21 
REMARK    8  A    between atoms: C7_21  and  O1_22 
REMARK    9  A    between atoms: O1_22  and  C8_23 
REMARK   10  A    between atoms: C9_27  and  N8_28 
REMARK   11  A    between atoms: C10_32  and  C11_33 
REMARK   12  A    between atoms: C11_33  and  O2_34 
ROOT
HETATM    1  C1  UNL     1      43.128-401.757  16.933  1.00  0.00     0.681 A 
HETATM    2  N2  UNL     1      44.056-401.271  17.783  1.00  0.00    -0.177 N 
ATOM      3  H2  UNL     1      43.949-400.450  18.379  1.00  0.00     0.185 HD
HETATM    4  C2  UNL     1      45.167-402.069  17.708  1.00  0.00     0.155 A 
HETATM    5  N3  UNL     1      46.333-401.867  18.474  1.00  0.00    -0.080 NA
HETATM    6  C3  UNL     1      44.901-403.056  16.791  1.00  0.00     0.074 A 
HETATM    7  N6  UNL     1      43.634-402.844  16.324  1.00  0.00    -0.162 N 
ENDROOT
BRANCH   7   8
HETATM    8  C7  UNL     1      43.007-403.692  15.339  1.00  0.00     0.322 C 
BRANCH   8   9
HETATM    9  O1  UNL     1      41.940-404.410  15.872  1.00  0.00    -0.318 OA
BRANCH   9  10
HETATM   10  C8  UNL     1      42.326-405.662  16.306  1.00  0.00     0.473 C 
HETATM   11  N7  UNL     1      41.204-406.558  16.206  1.00  0.00     0.007 N 
HETATM   12  C9  UNL     1      41.607-407.680  15.389  1.00  0.00     0.416 C 
ATOM     13  H72 UNL     1      40.840-406.841  17.116  1.00  0.00     0.285 HD
ATOM     14  H71 UNL     1      40.360-406.100  15.861  1.00  0.00     0.285 HD
HETATM   15  C10 UNL     1      43.119-407.554  15.428  1.00  0.00     0.208 C 
HETATM   16  O3  UNL     1      43.385-406.202  15.586  1.00  0.00    -0.327 OA
BRANCH  12  17
HETATM   17  N8  UNL     1      41.213-407.534  14.001  1.00  0.00    -0.047 N 
ATOM     18  H83 UNL     1      40.655-408.330  13.694  1.00  0.00     0.276 HD
ATOM     19  H82 UNL     1      40.518-406.794  13.894  1.00  0.00     0.276 HD
ATOM     20  H81 UNL     1      42.007-407.382  13.379  1.00  0.00     0.276 HD
ENDBRANCH  12  17
BRANCH  15  21
HETATM   21  C11 UNL     1      43.615-408.391  16.563  1.00  0.00     0.200 C 
BRANCH  21  22
HETATM   22  O2  UNL     1      42.583-409.130  17.108  1.00  0.00    -0.398 OA
ATOM     23  H2  UNL     1      42.621-410.029  16.805  1.00  0.00     0.209 HD
ENDBRANCH  21  22
ENDBRANCH  15  21
ENDBRANCH   9  10
ENDBRANCH   8   9
ENDBRANCH   7   8
BRANCH   1  24
HETATM   24  N1  UNL     1      41.937-401.263  16.728  1.00  0.00    -0.234 N 
ATOM     25  H12 UNL     1      41.118-401.800  16.440  1.00  0.00     0.174 HD
ATOM     26  H11 UNL     1      41.666-400.286  16.828  1.00  0.00     0.174 HD
ENDBRANCH   1  24
BRANCH   6  27
HETATM   27  C4  UNL     1      45.794-404.135  16.360  1.00  0.00     0.089 C 
BRANCH  27  28
HETATM   28  C5  UNL     1      47.129-403.728  15.856  1.00  0.00     0.240 C 
BRANCH  28  29
HETATM   29  N4  UNL     1      47.144-402.753  14.801  1.00  0.00    -0.051 N 
ATOM     30  H42 UNL     1      47.247-403.158  13.870  1.00  0.00     0.279 HD
ATOM     31  H41 UNL     1      46.241-402.309  14.639  1.00  0.00     0.279 HD
BRANCH  29  32
HETATM   32  C6  UNL     1      48.217-401.805  15.159  1.00  0.00     0.460 C 
BRANCH  32  33
HETATM   33  N5  UNL     1      47.565-400.610  15.641  1.00  0.00    -0.056 N 
ATOM     34  H53 UNL     1      46.548-400.658  15.593  1.00  0.00     0.276 HD
ATOM     35  H52 UNL     1      47.638-400.489  16.652  1.00  0.00     0.276 HD
ATOM     36  H51 UNL     1      47.958-399.831  15.113  1.00  0.00     0.276 HD
ENDBRANCH  32  33
ENDBRANCH  29  32
ENDBRANCH  28  29
ENDBRANCH  27  28
ENDBRANCH   6  27
TORSDOF 12
ENDMDL
MODEL 2
REMARK VINA RESULT: -6.215804197      2.690      6.905
REMARK  12 active torsions:
REMARK  status: ('A' for Active; 'I' for Inactive)
REMARK    1  A    between atoms: N1_1  and  C1_4 
REMARK    2  A    between atoms: C3_9  and  C4_10 
REMARK    3  A    between atoms: C4_10  and  C5_11 
REMARK    4  A    between atoms: C5_11  and  N4_12 
REMARK    5  A    between atoms: N4_12  and  C6_15 
REMARK    6  A    between atoms: C6_15  and  N5_16 
REMARK    7  A    between atoms: N6_20  and  C7_21 
REMARK    8  A    between atoms: C7_21  and  O1_22 
REMARK    9  A    between atoms: O1_22  and  C8_23 
REMARK   10  A    between atoms: C9_27  and  N8_28 
REMARK   11  A    between atoms: C10_32  and  C11_33 
REMARK   12  A    between atoms: C11_33  and  O2_34 
ROOT
HETATM    1  C1  UNL     1      45.389-406.790  16.635  1.00  0.00     0.681 A 
HETATM    2  N2  UNL     1      44.888-408.031  16.808  1.00  0.00    -0.177 N 
ATOM      3  H2  UNL     1      45.431-408.874  16.998  1.00  0.00     0.185 HD
HETATM    4  C2  UNL     1      43.525-407.964  16.685  1.00  0.00     0.155 A 
HETATM    5  N3  UNL     1      42.668-409.075  16.823  1.00  0.00    -0.080 NA
HETATM    6  C3  UNL     1      43.200-406.654  16.432  1.00  0.00     0.074 A 
HETATM    7  N6  UNL     1      44.369-405.945  16.405  1.00  0.00    -0.162 N 
ENDROOT
BRANCH   7   8
HETATM    8  C7  UNL     1      44.420-404.524  16.164  1.00  0.00     0.322 C 
BRANCH   8   9
HETATM    9  O1  UNL     1      44.977-403.832  17.238  1.00  0.00    -0.318 OA
BRANCH   9  10
HETATM   10  C8  UNL     1      45.168-402.496  16.947  1.00  0.00     0.473 C 
HETATM   11  N7  UNL     1      44.190-402.086  15.973  1.00  0.00     0.007 N 
HETATM   12  C9  UNL     1      43.469-400.959  16.522  1.00  0.00     0.416 C 
ATOM     13  H72 UNL     1      44.598-401.888  15.060  1.00  0.00     0.285 HD
ATOM     14  H71 UNL     1      43.575-402.847  15.684  1.00  0.00     0.285 HD
HETATM   15  C10 UNL     1      44.401-400.518  17.636  1.00  0.00     0.208 C 
HETATM   16  O3  UNL     1      45.065-401.662  18.053  1.00  0.00    -0.327 OA
BRANCH  12  17
HETATM   17  N8  UNL     1      42.221-401.345  17.152  1.00  0.00    -0.047 N 
ATOM     18  H83 UNL     1      41.423-401.080  16.574  1.00  0.00     0.276 HD
ATOM     19  H82 UNL     1      42.103-402.359  17.141  1.00  0.00     0.276 HD
ATOM     20  H81 UNL     1      42.126-400.977  18.098  1.00  0.00     0.276 HD
ENDBRANCH  12  17
BRANCH  15  21
HETATM   21  C11 UNL     1      45.313-399.474  17.078  1.00  0.00     0.200 C 
BRANCH  21  22
HETATM   22  O2  UNL     1      44.739-398.867  15.978  1.00  0.00    -0.398 OA
ATOM     23  H2  UNL     1      45.118-398.008  15.836  1.00  0.00     0.209 HD
ENDBRANCH  21  22
ENDBRANCH  15  21
ENDBRANCH   9  10
ENDBRANCH   8   9
ENDBRANCH   7   8
BRANCH   1  24
HETATM   24  N1  UNL     1      46.650-406.455  16.682  1.00  0.00    -0.234 N 
ATOM     25  H12 UNL     1      47.427-407.103  16.816  1.00  0.00     0.174 HD
ATOM     26  H11 UNL     1      47.026-405.512  16.592  1.00  0.00     0.174 HD
ENDBRANCH   1  24
BRANCH   6  27
HETATM   27  C4  UNL     1      41.864-406.095  16.208  1.00  0.00     0.089 C 
BRANCH  27  28
HETATM   28  C5  UNL     1      41.399-406.036  14.800  1.00  0.00     0.240 C 
BRANCH  28  29
HETATM   29  N4  UNL     1      40.220-406.793  14.483  1.00  0.00    -0.051 N 
ATOM     30  H42 UNL     1      39.569-406.884  15.263  1.00  0.00     0.279 HD
ATOM     31  H41 UNL     1      39.581-406.314  13.849  1.00  0.00     0.279 HD
BRANCH  29  32
HETATM   32  C6  UNL     1      40.712-408.085  13.967  1.00  0.00     0.460 C 
BRANCH  32  33
HETATM   33  N5  UNL     1      40.137-409.110  14.808  1.00  0.00    -0.056 N 
ATOM     34  H53 UNL     1      39.657-408.737  15.627  1.00  0.00     0.276 HD
ATOM     35  H52 UNL     1      39.330-409.571  14.387  1.00  0.00     0.276 HD
ATOM     36  H51 UNL     1      40.893-409.753  15.040  1.00  0.00     0.276 HD
ENDBRANCH  32  33
ENDBRANCH  29  32
ENDBRANCH  28  29
ENDBRANCH  27  28
ENDBRANCH   6  27
TORSDOF 12
ENDMDL
MODEL 3
REMARK VINA RESULT: -6.067600145      3.451      6.631
REMARK  12 active torsions:
REMARK  status: ('A' for Active; 'I' for Inactive)
REMARK    1  A    between atoms: N1_1  and  C1_4 
REMARK    2  A    between atoms: C3_9  and  C4_10 
REMARK    3  A    between atoms: C4_10  and  C5_11 
REMARK    4  A    between atoms: C5_11  and  N4_12 
REMARK    5  A    between atoms: N4_12  and  C6_15 
REMARK    6  A    between atoms: C6_15  and  N5_16 
REMARK    7  A    between atoms: N6_20  and  C7_21 
REMARK    8  A    between atoms: C7_21  and  O1_22 
REMARK    9  A    between atoms: O1_22  and  C8_23 
REMARK   10  A    between atoms: C9_27  and  N8_28 
REMARK   11  A    between atoms: C10_32  and  C11_33 
REMARK   12  A    between atoms: C11_33  and  O2_34 
ROOT
HETATM    1  C1  UNL     1      44.961-403.556  15.949  1.00  0.00     0.681 A 
HETATM    2  N2  UNL     1      43.643-403.326  15.776  1.00  0.00    -0.177 N 
ATOM      3  H2  UNL     1      43.217-402.426  15.552  1.00  0.00     0.185 HD
HETATM    4  C2  UNL     1      42.974-404.509  15.954  1.00  0.00     0.155 A 
HETATM    5  N3  UNL     1      41.577-404.647  15.832  1.00  0.00    -0.080 NA
HETATM    6  C3  UNL     1      43.912-405.470  16.241  1.00  0.00     0.074 A 
HETATM    7  N6  UNL     1      45.135-404.859  16.233  1.00  0.00    -0.162 N 
ENDROOT
BRANCH   7   8
HETATM    8  C7  UNL     1      46.367-405.562  16.494  1.00  0.00     0.322 C 
BRANCH   8   9
HETATM    9  O1  UNL     1      47.264-404.789  17.226  1.00  0.00    -0.318 OA
BRANCH   9  10
HETATM   10  C8  UNL     1      48.468-405.439  17.417  1.00  0.00     0.473 C 
HETATM   11  N7  UNL     1      49.507-404.456  17.586  1.00  0.00     0.007 N 
HETATM   12  C9  UNL     1      50.165-404.725  18.844  1.00  0.00     0.416 C 
ATOM     13  H72 UNL     1      50.154-404.424  16.798  1.00  0.00     0.285 HD
ATOM     14  H71 UNL     1      49.162-403.499  17.515  1.00  0.00     0.285 HD
HETATM   15  C10 UNL     1      49.721-406.150  19.120  1.00  0.00     0.208 C 
HETATM   16  O3  UNL     1      48.478-406.285  18.519  1.00  0.00    -0.327 OA
BRANCH  12  17
HETATM   17  N8  UNL     1      49.652-403.911  19.931  1.00  0.00    -0.047 N 
ATOM     18  H83 UNL     1      48.633-403.873  19.909  1.00  0.00     0.276 HD
ATOM     19  H82 UNL     1      49.781-404.378  20.829  1.00  0.00     0.276 HD
ATOM     20  H81 UNL     1      50.054-402.974  19.945  1.00  0.00     0.276 HD
ENDBRANCH  12  17
BRANCH  15  21
HETATM   21  C11 UNL     1      50.757-407.065  18.551  1.00  0.00     0.200 C 
BRANCH  21  22
HETATM   22  O2  UNL     1      50.492-408.374  18.900  1.00  0.00    -0.398 OA
ATOM     23  H2  UNL     1      50.277-408.888  18.131  1.00  0.00     0.209 HD
ENDBRANCH  21  22
ENDBRANCH  15  21
ENDBRANCH   9  10
ENDBRANCH   8   9
ENDBRANCH   7   8
BRANCH   1  24
HETATM   24  N1  UNL     1      45.916-402.670  15.859  1.00  0.00    -0.234 N 
ATOM     25  H12 UNL     1      45.783-401.659  15.853  1.00  0.00     0.174 HD
ATOM     26  H11 UNL     1      46.913-402.866  15.782  1.00  0.00     0.174 HD
ENDBRANCH   1  24
BRANCH   6  27
HETATM   27  C4  UNL     1      43.675-406.888  16.526  1.00  0.00     0.089 C 
BRANCH  27  28
HETATM   28  C5  UNL     1      42.957-407.662  15.481  1.00  0.00     0.240 C 
BRANCH  28  29
HETATM   29  N4  UNL     1      41.545-407.840  15.675  1.00  0.00    -0.051 N 
ATOM     30  H42 UNL     1      41.311-408.611  16.301  1.00  0.00     0.279 HD
ATOM     31  H41 UNL     1      41.109-407.102  16.227  1.00  0.00     0.279 HD
BRANCH  29  32
HETATM   32  C6  UNL     1      40.979-407.982  14.319  1.00  0.00     0.460 C 
BRANCH  32  33
HETATM   33  N5  UNL     1      41.051-406.676  13.706  1.00  0.00    -0.056 N 
ATOM     34  H53 UNL     1      41.489-405.974  14.301  1.00  0.00     0.276 HD
ATOM     35  H52 UNL     1      41.720-406.626  12.937  1.00  0.00     0.276 HD
ATOM     36  H51 UNL     1      40.099-406.433  13.429  1.00  0.00     0.276 HD
ENDBRANCH  32  33
ENDBRANCH  29  32
ENDBRANCH  28  29
ENDBRANCH  27  28
ENDBRANCH   6  27
TORSDOF 12
ENDMDL
MODEL 4
REMARK VINA RESULT: -6.052006874      1.657      2.885
REMARK  12 active torsions:
REMARK  status: ('A' for Active; 'I' for Inactive)
REMARK    1  A    between atoms: N1_1  and  C1_4 
REMARK    2  A    between atoms: C3_9  and  C4_10 
REMARK    3  A    between atoms: C4_10  and  C5_11 
REMARK    4  A    between atoms: C5_11  and  N4_12 
REMARK    5  A    between atoms: N4_12  and  C6_15 
REMARK    6  A    between atoms: C6_15  and  N5_16 
REMARK    7  A    between atoms: N6_20  and  C7_21 
REMARK    8  A    between atoms: C7_21  and  O1_22 
REMARK    9  A    between atoms: O1_22  and  C8_23 
REMARK   10  A    between atoms: C9_27  and  N8_28 
REMARK   11  A    between atoms: C10_32  and  C11_33 
REMARK   12  A    between atoms: C11_33  and  O2_34 
ROOT
HETATM    1  C1  UNL     1      45.087-403.383  16.698  1.00  0.00     0.681 A 
HETATM    2  N2  UNL     1      45.535-402.397  17.503  1.00  0.00    -0.177 N 
ATOM      3  H2  UNL     1      46.462-402.346  17.927  1.00  0.00     0.185 HD
HETATM    4  C2  UNL     1      44.531-401.476  17.653  1.00  0.00     0.155 A 
HETATM    5  N3  UNL     1      44.654-400.299  18.418  1.00  0.00    -0.080 NA
HETATM    6  C3  UNL     1      43.457-401.919  16.923  1.00  0.00     0.074 A 
HETATM    7  N6  UNL     1      43.821-403.101  16.340  1.00  0.00    -0.162 N 
ENDROOT
BRANCH   7   8
HETATM    8  C7  UNL     1      42.940-403.864  15.491  1.00  0.00     0.322 C 
BRANCH   8   9
HETATM    9  O1  UNL     1      42.094-404.691  16.225  1.00  0.00    -0.318 OA
BRANCH   9  10
HETATM   10  C8  UNL     1      42.689-405.898  16.529  1.00  0.00     0.473 C 
HETATM   11  N7  UNL     1      41.662-406.873  16.789  1.00  0.00     0.007 N 
HETATM   12  C9  UNL     1      41.879-407.990  15.898  1.00  0.00     0.416 C 
ATOM     13  H72 UNL     1      41.618-407.151  17.770  1.00  0.00     0.285 HD
ATOM     14  H71 UNL     1      40.721-406.485  16.717  1.00  0.00     0.285 HD
HETATM   15  C10 UNL     1      43.316-407.757  15.467  1.00  0.00     0.208 C 
HETATM   16  O3  UNL     1      43.513-406.385  15.522  1.00  0.00    -0.327 OA
BRANCH  12  17
HETATM   17  N8  UNL     1      41.067-407.916  14.698  1.00  0.00    -0.047 N 
ATOM     18  H83 UNL     1      41.368-407.147  14.100  1.00  0.00     0.276 HD
ATOM     19  H82 UNL     1      41.265-408.698  14.073  1.00  0.00     0.276 HD
ATOM     20  H81 UNL     1      40.069-407.854  14.900  1.00  0.00     0.276 HD
ENDBRANCH  12  17
BRANCH  15  21
HETATM   21  C11 UNL     1      44.198-408.521  16.400  1.00  0.00     0.200 C 
BRANCH  21  22
HETATM   22  O2  UNL     1      45.232-409.121  15.709  1.00  0.00    -0.398 OA
ATOM     23  H2  UNL     1      45.205-410.064  15.820  1.00  0.00     0.209 HD
ENDBRANCH  21  22
ENDBRANCH  15  21
ENDBRANCH   9  10
ENDBRANCH   8   9
ENDBRANCH   7   8
BRANCH   1  24
HETATM   24  N1  UNL     1      45.759-404.437  16.324  1.00  0.00    -0.234 N 
ATOM     25  H12 UNL     1      45.923-405.266  16.897  1.00  0.00     0.174 HD
ATOM     26  H11 UNL     1      46.208-404.575  15.419  1.00  0.00     0.174 HD
ENDBRANCH   1  24
BRANCH   6  27
HETATM   27  C4  UNL     1      42.146-401.278  16.789  1.00  0.00     0.089 C 
BRANCH  27  28
HETATM   28  C5  UNL     1      42.111-399.989  16.053  1.00  0.00     0.240 C 
BRANCH  28  29
HETATM   29  N4  UNL     1      43.154-399.775  15.089  1.00  0.00    -0.051 N 
ATOM     30  H42 UNL     1      43.844-400.526  15.057  1.00  0.00     0.279 HD
ATOM     31  H41 UNL     1      42.843-399.858  14.122  1.00  0.00     0.279 HD
BRANCH  29  32
HETATM   32  C6  UNL     1      43.727-398.455  15.418  1.00  0.00     0.460 C 
BRANCH  32  33
HETATM   33  N5  UNL     1      45.133-398.669  15.672  1.00  0.00    -0.056 N 
ATOM     34  H53 UNL     1      45.319-399.104  16.575  1.00  0.00     0.276 HD
ATOM     35  H52 UNL     1      45.541-399.402  15.091  1.00  0.00     0.276 HD
ATOM     36  H51 UNL     1      45.589-397.764  15.558  1.00  0.00     0.276 HD
ENDBRANCH  32  33
ENDBRANCH  29  32
ENDBRANCH  28  29
ENDBRANCH  27  28
ENDBRANCH   6  27
TORSDOF 12
ENDMDL
MODEL 5
REMARK VINA RESULT: -6.006517388      2.319      5.419
REMARK  12 active torsions:
REMARK  status: ('A' for Active; 'I' for Inactive)
REMARK    1  A    between atoms: N1_1  and  C1_4 
REMARK    2  A    between atoms: C3_9  and  C4_10 
REMARK    3  A    between atoms: C4_10  and  C5_11 
REMARK    4  A    between atoms: C5_11  and  N4_12 
REMARK    5  A    between atoms: N4_12  and  C6_15 
REMARK    6  A    between atoms: C6_15  and  N5_16 
REMARK    7  A    between atoms: N6_20  and  C7_21 
REMARK    8  A    between atoms: C7_21  and  O1_22 
REMARK    9  A    between atoms: O1_22  and  C8_23 
REMARK   10  A    between atoms: C9_27  and  N8_28 
REMARK   11  A    between atoms: C10_32  and  C11_33 
REMARK   12  A    between atoms: C11_33  and  O2_34 
ROOT
HETATM    1  C1  UNL     1      42.570-406.794  15.754  1.00  0.00     0.681 A 
HETATM    2  N2  UNL     1      43.105-408.000  15.471  1.00  0.00    -0.177 N 
ATOM      3  H2  UNL     1      42.609-408.795  15.068  1.00  0.00     0.185 HD
HETATM    4  C2  UNL     1      44.431-407.973  15.818  1.00  0.00     0.155 A 
HETATM    5  N3  UNL     1      45.309-409.061  15.646  1.00  0.00    -0.080 NA
HETATM    6  C3  UNL     1      44.697-406.724  16.322  1.00  0.00     0.074 A 
HETATM    7  N6  UNL     1      43.532-406.010  16.273  1.00  0.00    -0.162 N 
ENDROOT
BRANCH   7   8
HETATM    8  C7  UNL     1      43.427-404.643  16.721  1.00  0.00     0.322 C 
BRANCH   8   9
HETATM    9  O1  UNL     1      43.206-403.763  15.665  1.00  0.00    -0.318 OA
BRANCH   9  10
HETATM   10  C8  UNL     1      43.827-402.547  15.868  1.00  0.00     0.473 C 
HETATM   11  N7  UNL     1      42.957-401.496  15.412  1.00  0.00     0.007 N 
HETATM   12  C9  UNL     1      42.753-400.583  16.514  1.00  0.00     0.416 C 
ATOM     13  H72 UNL     1      43.302-401.031  14.571  1.00  0.00     0.285 HD
ATOM     14  H71 UNL     1      42.082-401.847  15.022  1.00  0.00     0.285 HD
HETATM   15  C10 UNL     1      43.901-400.959  17.433  1.00  0.00     0.208 C 
HETATM   16  O3  UNL     1      44.156-402.302  17.196  1.00  0.00    -0.327 OA
BRANCH  12  17
HETATM   17  N8  UNL     1      41.530-400.851  17.246  1.00  0.00    -0.047 N 
ATOM     18  H83 UNL     1      41.639-401.661  17.856  1.00  0.00     0.276 HD
ATOM     19  H82 UNL     1      41.361-400.134  17.951  1.00  0.00     0.276 HD
ATOM     20  H81 UNL     1      40.720-400.960  16.634  1.00  0.00     0.276 HD
ENDBRANCH  12  17
BRANCH  15  21
HETATM   21  C11 UNL     1      45.056-400.070  17.103  1.00  0.00     0.200 C 
BRANCH  21  22
HETATM   22  O2  UNL     1      44.664-399.066  16.239  1.00  0.00    -0.398 OA
ATOM     23  H2  UNL     1      45.414-398.554  15.960  1.00  0.00     0.209 HD
ENDBRANCH  21  22
ENDBRANCH  15  21
ENDBRANCH   9  10
ENDBRANCH   8   9
ENDBRANCH   7   8
BRANCH   1  24
HETATM   24  N1  UNL     1      41.329-406.438  15.560  1.00  0.00    -0.234 N 
ATOM     25  H12 UNL     1      40.597-407.037  15.178  1.00  0.00     0.174 HD
ATOM     26  H11 UNL     1      40.927-405.523  15.763  1.00  0.00     0.174 HD
ENDBRANCH   1  24
BRANCH   6  27
HETATM   27  C4  UNL     1      45.974-406.226  16.839  1.00  0.00     0.089 C 
BRANCH  27  28
HETATM   28  C5  UNL     1      46.788-405.402  15.911  1.00  0.00     0.240 C 
BRANCH  28  29
HETATM   29  N4  UNL     1      46.920-404.010  16.241  1.00  0.00    -0.051 N 
ATOM     30  H42 UNL     1      46.053-403.581  16.564  1.00  0.00     0.279 HD
ATOM     31  H41 UNL     1      47.461-403.837  17.087  1.00  0.00     0.279 HD
BRANCH  29  32
HETATM   32  C6  UNL     1      47.484-403.374  15.034  1.00  0.00     0.460 C 
BRANCH  32  33
HETATM   33  N5  UNL     1      47.441-401.948  15.264  1.00  0.00    -0.056 N 
ATOM     34  H53 UNL     1      46.798-401.458  14.642  1.00  0.00     0.276 HD
ATOM     35  H52 UNL     1      46.988-401.693  16.141  1.00  0.00     0.276 HD
ATOM     36  H51 UNL     1      48.403-401.614  15.195  1.00  0.00     0.276 HD
ENDBRANCH  32  33
ENDBRANCH  29  32
ENDBRANCH  28  29
ENDBRANCH  27  28
ENDBRANCH   6  27
TORSDOF 12
ENDMDL
