MODEL 1
REMARK VINA RESULT: -5.881358255      0.000      0.000
REMARK  11 active torsions:
REMARK  status: ('A' for Active; 'I' for Inactive)
REMARK    1  A    between atoms: C2_2  and  N1_3 
REMARK    2  A    between atoms: C2_2  and  C3_7 
REMARK    3  A    between atoms: C3_7  and  C4_8 
REMARK    4  A    between atoms: C4_8  and  O1_9 
REMARK    5  A    between atoms: O1_9  and  C5_10 
REMARK    6  A    between atoms: C5_10  and  C6_11 
REMARK    7  A    between atoms: C6_11  and  N2_12 
REMARK    8  A    between atoms: N2_12  and  C7_15 
REMARK    9  A    between atoms: C7_15  and  C8_16 
REMARK   10  A    between atoms: C11_22  and  N6_23 
REMARK   11  A    between atoms: C11_22  and  O2_27 
ROOT
HETATM    1  N2  UNL     1      44.364-403.808  15.639  1.00  0.00    -0.073 N 
ATOM      2  H21 UNL     1      43.828-403.015  15.288  1.00  0.00     0.277 HD
ATOM      3  H22 UNL     1      44.791-404.116  14.766  1.00  0.00     0.277 HD
ENDROOT
BRANCH   1   4
HETATM    4  C6  UNL     1      43.505-404.811  16.171  1.00  0.00     0.258 C 
BRANCH   4   5
HETATM    5  C5  UNL     1      42.048-404.499  16.143  1.00  0.00     0.195 C 
BRANCH   5   6
HETATM    6  O1  UNL     1      41.317-405.557  15.653  1.00  0.00    -0.389 OA
BRANCH   6   7
HETATM    7  C4  UNL     1      42.004-406.472  14.902  1.00  0.00     0.169 C 
BRANCH   7   8
HETATM    8  C3  UNL     1      41.432-407.855  15.178  1.00  0.00     0.058 C 
BRANCH   8   9
HETATM    9  C2  UNL     1      42.054-408.511  16.383  1.00  0.00     0.181 C 
HETATM   10  C1  UNL     1      43.546-408.448  16.415  1.00  0.00     0.039 C 
BRANCH   9  11
HETATM   11  N1  UNL     1      41.535-407.834  17.553  1.00  0.00    -0.075 N 
ATOM     12  H13 UNL     1      41.955-406.915  17.691  1.00  0.00     0.274 HD
ATOM     13  H12 UNL     1      40.568-407.531  17.431  1.00  0.00     0.274 HD
ATOM     14  H11 UNL     1      41.654-408.442  18.364  1.00  0.00     0.274 HD
ENDBRANCH   9  11
ENDBRANCH   8   9
ENDBRANCH   7   8
ENDBRANCH   6   7
ENDBRANCH   5   6
ENDBRANCH   4   5
ENDBRANCH   1   4
BRANCH   1  15
HETATM   15  C7  UNL     1      45.348-403.388  16.567  1.00  0.00     0.243 C 
BRANCH  15  16
HETATM   16  C8  UNL     1      45.656-401.927  16.616  1.00  0.00     0.100 C 
HETATM   17  C9  UNL     1      46.265-401.658  18.028  1.00  0.00     0.132 C 
HETATM   18  N3  UNL     1      47.030-400.463  18.120  1.00  0.00    -0.123 NA
HETATM   19  C10 UNL     1      44.869-401.249  18.463  1.00  0.00     0.182 C 
HETATM   20  N4  UNL     1      46.377-399.577  18.938  1.00  0.00    -0.039 NA
HETATM   21  N5  UNL     1      45.144-400.110  19.285  1.00  0.00    -0.118 NA
HETATM   22  C11 UNL     1      44.594-400.962  17.008  1.00  0.00     0.264 C 
BRANCH  22  23
HETATM   23  N6  UNL     1      44.891-399.570  16.638  1.00  0.00    -0.043 N 
ATOM     24  H63 UNL     1      45.175-399.510  15.660  1.00  0.00     0.278 HD
ATOM     25  H62 UNL     1      44.035-399.017  16.603  1.00  0.00     0.278 HD
ATOM     26  H61 UNL     1      45.583-399.123  17.240  1.00  0.00     0.278 HD
ENDBRANCH  22  23
BRANCH  22  27
HETATM   27  O2  UNL     1      43.338-401.263  16.624  1.00  0.00    -0.265 OA
HETATM   28  S1  UNL     1      42.414-400.041  15.915  1.00  0.00     0.095 SA
ENDBRANCH  22  27
ENDBRANCH  15  16
ENDBRANCH   1  15
TORSDOF 11
ENDMDL
MODEL 2
REMARK VINA RESULT: -5.664762641      1.795      2.137
REMARK  11 active torsions:
REMARK  status: ('A' for Active; 'I' for Inactive)
REMARK    1  A    between atoms: C2_2  and  N1_3 
REMARK    2  A    between atoms: C2_2  and  C3_7 
REMARK    3  A    between atoms: C3_7  and  C4_8 
REMARK    4  A    between atoms: C4_8  and  O1_9 
REMARK    5  A    between atoms: O1_9  and  C5_10 
REMARK    6  A    between atoms: C5_10  and  C6_11 
REMARK    7  A    between atoms: C6_11  and  N2_12 
REMARK    8  A    between atoms: N2_12  and  C7_15 
REMARK    9  A    between atoms: C7_15  and  C8_16 
REMARK   10  A    between atoms: C11_22  and  N6_23 
REMARK   11  A    between atoms: C11_22  and  O2_27 
ROOT
HETATM    1  N2  UNL     1      44.423-403.475  15.687  1.00  0.00    -0.073 N 
ATOM      2  H21 UNL     1      44.484-403.227  14.699  1.00  0.00     0.277 HD
ATOM      3  H22 UNL     1      45.409-403.660  15.870  1.00  0.00     0.277 HD
ENDROOT
BRANCH   1   4
HETATM    4  C6  UNL     1      43.639-404.649  15.872  1.00  0.00     0.258 C 
BRANCH   4   5
HETATM    5  C5  UNL     1      42.210-404.424  16.229  1.00  0.00     0.195 C 
BRANCH   5   6
HETATM    6  O1  UNL     1      41.395-405.377  15.663  1.00  0.00    -0.389 OA
BRANCH   6   7
HETATM    7  C4  UNL     1      42.001-406.271  14.821  1.00  0.00     0.169 C 
BRANCH   7   8
HETATM    8  C3  UNL     1      41.388-407.645  15.049  1.00  0.00     0.058 C 
BRANCH   8   9
HETATM    9  C2  UNL     1      42.026-408.382  16.197  1.00  0.00     0.181 C 
HETATM   10  C1  UNL     1      43.516-408.283  16.238  1.00  0.00     0.039 C 
BRANCH   9  11
HETATM   11  N1  UNL     1      41.488-407.819  17.418  1.00  0.00    -0.075 N 
ATOM     12  H13 UNL     1      41.355-408.522  18.145  1.00  0.00     0.274 HD
ATOM     13  H12 UNL     1      42.164-407.234  17.908  1.00  0.00     0.274 HD
ATOM     14  H11 UNL     1      40.626-407.320  17.197  1.00  0.00     0.274 HD
ENDBRANCH   9  11
ENDBRANCH   8   9
ENDBRANCH   7   8
ENDBRANCH   6   7
ENDBRANCH   5   6
ENDBRANCH   4   5
ENDBRANCH   1   4
BRANCH   1  15
HETATM   15  C7  UNL     1      43.957-402.383  16.459  1.00  0.00     0.243 C 
BRANCH  15  16
HETATM   16  C8  UNL     1      44.855-401.888  17.547  1.00  0.00     0.100 C 
HETATM   17  C9  UNL     1      44.326-400.472  17.935  1.00  0.00     0.132 C 
HETATM   18  N3  UNL     1      44.734-400.024  19.221  1.00  0.00    -0.123 NA
HETATM   19  C10 UNL     1      45.373-399.911  16.988  1.00  0.00     0.182 C 
HETATM   20  N4  UNL     1      45.590-398.963  19.074  1.00  0.00    -0.039 NA
HETATM   21  N5  UNL     1      45.852-398.780  17.724  1.00  0.00    -0.118 NA
HETATM   22  C11 UNL     1      46.127-401.201  17.197  1.00  0.00     0.264 C 
BRANCH  22  23
HETATM   23  N6  UNL     1      47.086-401.125  18.309  1.00  0.00    -0.043 N 
ATOM     24  H63 UNL     1      46.625-401.329  19.196  1.00  0.00     0.278 HD
ATOM     25  H62 UNL     1      47.741-401.905  18.273  1.00  0.00     0.278 HD
ATOM     26  H61 UNL     1      47.585-400.237  18.361  1.00  0.00     0.278 HD
ENDBRANCH  22  23
BRANCH  22  27
HETATM   27  O2  UNL     1      46.763-401.641  16.093  1.00  0.00    -0.265 OA
HETATM   28  S1  UNL     1      48.282-402.351  16.288  1.00  0.00     0.095 SA
ENDBRANCH  22  27
ENDBRANCH  15  16
ENDBRANCH   1  15
TORSDOF 11
ENDMDL
MODEL 3
REMARK VINA RESULT: -5.620534444      1.047      1.606
REMARK  11 active torsions:
REMARK  status: ('A' for Active; 'I' for Inactive)
REMARK    1  A    between atoms: C2_2  and  N1_3 
REMARK    2  A    between atoms: C2_2  and  C3_7 
REMARK    3  A    between atoms: C3_7  and  C4_8 
REMARK    4  A    between atoms: C4_8  and  O1_9 
REMARK    5  A    between atoms: O1_9  and  C5_10 
REMARK    6  A    between atoms: C5_10  and  C6_11 
REMARK    7  A    between atoms: C6_11  and  N2_12 
REMARK    8  A    between atoms: N2_12  and  C7_15 
REMARK    9  A    between atoms: C7_15  and  C8_16 
REMARK   10  A    between atoms: C11_22  and  N6_23 
REMARK   11  A    between atoms: C11_22  and  O2_27 
ROOT
HETATM    1  N2  UNL     1      44.865-403.708  15.506  1.00  0.00    -0.073 N 
ATOM      2  H21 UNL     1      44.373-402.925  15.075  1.00  0.00     0.277 HD
ATOM      3  H22 UNL     1      45.391-404.035  14.696  1.00  0.00     0.277 HD
ENDROOT
BRANCH   1   4
HETATM    4  C6  UNL     1      43.950-404.700  15.958  1.00  0.00     0.258 C 
BRANCH   4   5
HETATM    5  C5  UNL     1      44.556-405.989  16.396  1.00  0.00     0.195 C 
BRANCH   5   6
HETATM    6  O1  UNL     1      43.614-406.822  16.956  1.00  0.00    -0.389 OA
BRANCH   6   7
HETATM    7  C4  UNL     1      43.490-408.063  16.393  1.00  0.00     0.169 C 
BRANCH   7   8
HETATM    8  C3  UNL     1      42.030-408.288  16.028  1.00  0.00     0.058 C 
BRANCH   8   9
HETATM    9  C2  UNL     1      41.554-407.359  14.942  1.00  0.00     0.181 C 
HETATM   10  C1  UNL     1      40.710-408.016  13.899  1.00  0.00     0.039 C 
BRANCH   9  11
HETATM   11  N1  UNL     1      40.778-406.316  15.580  1.00  0.00    -0.075 N 
ATOM     12  H13 UNL     1      40.482-405.594  14.924  1.00  0.00     0.274 HD
ATOM     13  H12 UNL     1      39.852-406.637  15.864  1.00  0.00     0.274 HD
ATOM     14  H11 UNL     1      41.316-405.938  16.360  1.00  0.00     0.274 HD
ENDBRANCH   9  11
ENDBRANCH   8   9
ENDBRANCH   7   8
ENDBRANCH   6   7
ENDBRANCH   5   6
ENDBRANCH   4   5
ENDBRANCH   1   4
BRANCH   1  15
HETATM   15  C7  UNL     1      45.733-403.262  16.532  1.00  0.00     0.243 C 
BRANCH  15  16
HETATM   16  C8  UNL     1      45.956-401.788  16.642  1.00  0.00     0.100 C 
HETATM   17  C9  UNL     1      46.422-401.528  18.108  1.00  0.00     0.132 C 
HETATM   18  N3  UNL     1      47.110-400.297  18.296  1.00  0.00    -0.123 NA
HETATM   19  C10 UNL     1      44.973-401.204  18.426  1.00  0.00     0.182 C 
HETATM   20  N4  UNL     1      46.340-399.469  19.072  1.00  0.00    -0.039 NA
HETATM   21  N5  UNL     1      45.112-400.075  19.294  1.00  0.00    -0.118 NA
HETATM   22  C11 UNL     1      44.813-400.891  16.958  1.00  0.00     0.264 C 
BRANCH  22  23
HETATM   23  N6  UNL     1      45.065-399.476  16.649  1.00  0.00    -0.043 N 
ATOM     24  H63 UNL     1      45.615-399.039  17.388  1.00  0.00     0.278 HD
ATOM     25  H62 UNL     1      45.722-399.389  15.873  1.00  0.00     0.278 HD
ATOM     26  H61 UNL     1      44.219-398.938  16.465  1.00  0.00     0.278 HD
ENDBRANCH  22  23
BRANCH  22  27
HETATM   27  O2  UNL     1      43.614-401.247  16.457  1.00  0.00    -0.265 OA
HETATM   28  S1  UNL     1      42.577-400.018  15.942  1.00  0.00     0.095 SA
ENDBRANCH  22  27
ENDBRANCH  15  16
ENDBRANCH   1  15
TORSDOF 11
ENDMDL
MODEL 4
REMARK VINA RESULT: -5.579636225      2.344      2.836
REMARK  11 active torsions:
REMARK  status: ('A' for Active; 'I' for Inactive)
REMARK    1  A    between atoms: C2_2  and  N1_3 
REMARK    2  A    between atoms: C2_2  and  C3_7 
REMARK    3  A    between atoms: C3_7  and  C4_8 
REMARK    4  A    between atoms: C4_8  and  O1_9 
REMARK    5  A    between atoms: O1_9  and  C5_10 
REMARK    6  A    between atoms: C5_10  and  C6_11 
REMARK    7  A    between atoms: C6_11  and  N2_12 
REMARK    8  A    between atoms: N2_12  and  C7_15 
REMARK    9  A    between atoms: C7_15  and  C8_16 
REMARK   10  A    between atoms: C11_22  and  N6_23 
REMARK   11  A    between atoms: C11_22  and  O2_27 
ROOT
HETATM    1  N2  UNL     1      44.601-403.495  15.708  1.00  0.00    -0.073 N 
ATOM      2  H21 UNL     1      44.194-403.414  14.777  1.00  0.00     0.277 HD
ATOM      3  H22 UNL     1      45.575-403.298  15.478  1.00  0.00     0.277 HD
ENDROOT
BRANCH   1   4
HETATM    4  C6  UNL     1      44.452-404.816  16.218  1.00  0.00     0.258 C 
BRANCH   4   5
HETATM    5  C5  UNL     1      45.719-405.549  16.500  1.00  0.00     0.195 C 
BRANCH   5   6
HETATM    6  O1  UNL     1      45.471-406.806  17.000  1.00  0.00    -0.389 OA
BRANCH   6   7
HETATM    7  C4  UNL     1      45.095-407.758  16.092  1.00  0.00     0.169 C 
BRANCH   7   8
HETATM    8  C3  UNL     1      44.211-408.779  16.793  1.00  0.00     0.058 C 
BRANCH   8   9
HETATM    9  C2  UNL     1      42.743-408.517  16.584  1.00  0.00     0.181 C 
HETATM   10  C1  UNL     1      42.059-407.885  17.752  1.00  0.00     0.039 C 
BRANCH   9  11
HETATM   11  N1  UNL     1      42.624-407.635  15.442  1.00  0.00    -0.075 N 
ATOM     12  H13 UNL     1      41.831-407.874  14.846  1.00  0.00     0.274 HD
ATOM     13  H12 UNL     1      42.327-406.695  15.704  1.00  0.00     0.274 HD
ATOM     14  H11 UNL     1      43.508-407.637  14.932  1.00  0.00     0.274 HD
ENDBRANCH   9  11
ENDBRANCH   8   9
ENDBRANCH   7   8
ENDBRANCH   6   7
ENDBRANCH   5   6
ENDBRANCH   4   5
ENDBRANCH   1   4
BRANCH   1  15
HETATM   15  C7  UNL     1      44.075-402.513  16.583  1.00  0.00     0.243 C 
BRANCH  15  16
HETATM   16  C8  UNL     1      44.995-401.973  17.629  1.00  0.00     0.100 C 
HETATM   17  C9  UNL     1      44.410-400.588  18.048  1.00  0.00     0.132 C 
HETATM   18  N3  UNL     1      44.853-400.122  19.317  1.00  0.00    -0.123 NA
HETATM   19  C10 UNL     1      45.380-399.969  17.056  1.00  0.00     0.182 C 
HETATM   20  N4  UNL     1      45.643-399.016  19.134  1.00  0.00    -0.039 NA
HETATM   21  N5  UNL     1      45.832-398.817  17.774  1.00  0.00    -0.118 NA
HETATM   22  C11 UNL     1      46.211-401.218  17.224  1.00  0.00     0.264 C 
BRANCH  22  23
HETATM   23  N6  UNL     1      47.215-401.093  18.291  1.00  0.00    -0.043 N 
ATOM     24  H63 UNL     1      47.516-400.123  18.389  1.00  0.00     0.278 HD
ATOM     25  H62 UNL     1      46.786-401.233  19.206  1.00  0.00     0.278 HD
ATOM     26  H61 UNL     1      48.019-401.708  18.173  1.00  0.00     0.278 HD
ENDBRANCH  22  23
BRANCH  22  27
HETATM   27  O2  UNL     1      46.817-401.620  16.090  1.00  0.00    -0.265 OA
HETATM   28  S1  UNL     1      48.383-402.241  16.209  1.00  0.00     0.095 SA
ENDBRANCH  22  27
ENDBRANCH  15  16
ENDBRANCH   1  15
TORSDOF 11
ENDMDL
MODEL 5
REMARK VINA RESULT: -5.578539229      3.293      6.668
REMARK  11 active torsions:
REMARK  status: ('A' for Active; 'I' for Inactive)
REMARK    1  A    between atoms: C2_2  and  N1_3 
REMARK    2  A    between atoms: C2_2  and  C3_7 
REMARK    3  A    between atoms: C3_7  and  C4_8 
REMARK    4  A    between atoms: C4_8  and  O1_9 
REMARK    5  A    between atoms: O1_9  and  C5_10 
REMARK    6  A    between atoms: C5_10  and  C6_11 
REMARK    7  A    between atoms: C6_11  and  N2_12 
REMARK    8  A    between atoms: N2_12  and  C7_15 
REMARK    9  A    between atoms: C7_15  and  C8_16 
REMARK   10  A    between atoms: C11_22  and  N6_23 
REMARK   11  A    between atoms: C11_22  and  O2_27 
ROOT
HETATM    1  N2  UNL     1      42.331-403.805  16.785  1.00  0.00    -0.073 N 
ATOM      2  H21 UNL     1      41.466-403.345  17.068  1.00  0.00     0.277 HD
ATOM      3  H22 UNL     1      42.595-404.221  17.678  1.00  0.00     0.277 HD
ENDROOT
BRANCH   1   4
HETATM    4  C6  UNL     1      43.300-402.853  16.356  1.00  0.00     0.258 C 
BRANCH   4   5
HETATM    5  C5  UNL     1      44.490-402.696  17.239  1.00  0.00     0.195 C 
BRANCH   5   6
HETATM    6  O1  UNL     1      45.190-403.875  17.352  1.00  0.00    -0.389 OA
BRANCH   6   7
HETATM    7  C4  UNL     1      45.867-404.288  16.236  1.00  0.00     0.169 C 
BRANCH   7   8
HETATM    8  C3  UNL     1      46.615-405.571  16.568  1.00  0.00     0.058 C 
BRANCH   8   9
HETATM    9  C2  UNL     1      48.091-405.347  16.766  1.00  0.00     0.181 C 
HETATM   10  C1  UNL     1      48.928-405.681  15.575  1.00  0.00     0.039 C 
BRANCH   9  11
HETATM   11  N1  UNL     1      48.272-403.946  17.085  1.00  0.00    -0.075 N 
ATOM     12  H13 UNL     1      49.060-403.788  17.713  1.00  0.00     0.274 HD
ATOM     13  H12 UNL     1      48.615-403.406  16.290  1.00  0.00     0.274 HD
ATOM     14  H11 UNL     1      47.397-403.578  17.458  1.00  0.00     0.274 HD
ENDBRANCH   9  11
ENDBRANCH   8   9
ENDBRANCH   7   8
ENDBRANCH   6   7
ENDBRANCH   5   6
ENDBRANCH   4   5
ENDBRANCH   1   4
BRANCH   1  15
HETATM   15  C7  UNL     1      42.084-404.803  15.811  1.00  0.00     0.243 C 
BRANCH  15  16
HETATM   16  C8  UNL     1      41.791-406.181  16.311  1.00  0.00     0.100 C 
HETATM   17  C9  UNL     1      43.110-406.693  16.970  1.00  0.00     0.132 C 
HETATM   18  N3  UNL     1      42.931-407.765  17.888  1.00  0.00    -0.123 NA
HETATM   19  C10 UNL     1      43.413-407.374  15.647  1.00  0.00     0.182 C 
HETATM   20  N4  UNL     1      43.505-408.897  17.369  1.00  0.00    -0.039 NA
HETATM   21  N5  UNL     1      43.947-408.628  16.082  1.00  0.00    -0.118 NA
HETATM   22  C11 UNL     1      41.926-407.343  15.391  1.00  0.00     0.264 C 
BRANCH  22  23
HETATM   23  N6  UNL     1      41.244-408.556  15.864  1.00  0.00    -0.043 N 
ATOM     24  H63 UNL     1      41.742-408.964  16.655  1.00  0.00     0.278 HD
ATOM     25  H62 UNL     1      40.362-408.319  16.319  1.00  0.00     0.278 HD
ATOM     26  H61 UNL     1      41.095-409.255  15.135  1.00  0.00     0.278 HD
ENDBRANCH  22  23
BRANCH  22  27
HETATM   27  O2  UNL     1      41.603-407.127  14.100  1.00  0.00    -0.265 OA
HETATM   28  S1  UNL     1      40.590-408.245  13.342  1.00  0.00     0.095 SA
ENDBRANCH  22  27
ENDBRANCH  15  16
ENDBRANCH   1  15
TORSDOF 11
ENDMDL
