MODEL 1
REMARK VINA RESULT: -6.154636827      0.000      0.000
REMARK  9 active torsions:
REMARK  status: ('A' for Active; 'I' for Inactive)
REMARK    1  A    between atoms: C4_5  and  O1_6 
REMARK    2  A    between atoms: C4_5  and  N2_8 
REMARK    3  A    between atoms: N2_8  and  C5_9 
REMARK    4  A    between atoms: N2_8  and  C10_16 
REMARK    5  A    between atoms: C5_9  and  C6_10 
REMARK    6  A    between atoms: C5_9  and  C7_13 
REMARK    7  A    between atoms: C6_10  and  O2_11 
REMARK    8  A    between atoms: C14_20  and  C15_21 
REMARK    9  A    between atoms: C15_21  and  C17_23 
ROOT
HETATM    1  C1  UNL     1      -8.742   7.430  -1.270  1.00  0.00     0.041 C 
HETATM    2  C2  UNL     1     -10.046   8.050  -1.599  1.00  0.00     0.136 C 
HETATM    3  C3  UNL     1     -10.740   7.157  -2.649  1.00  0.00     0.164 C 
HETATM    4  N1  UNL     1     -12.168   7.289  -2.446  1.00  0.00    -0.315 N 
HETATM    5  C4  UNL     1     -13.030   7.889  -3.319  1.00  0.00     0.226 C 
HETATM    6  C14 UNL     1     -12.474   6.680  -1.135  1.00  0.00     0.026 C 
HETATM    7  C18 UNL     1     -11.706   7.409  -0.057  1.00  0.00     0.164 C 
HETATM    8  C19 UNL     1     -10.875   6.460   0.808  1.00  0.00     0.046 C 
HETATM    9  O3  UNL     1     -10.874   8.402  -0.590  1.00  0.00    -0.374 OA
ENDROOT
BRANCH   5  10
HETATM   10  O1  UNL     1     -14.239   7.895  -2.729  1.00  0.00    -0.332 OA
ATOM     11  H1  UNL     1     -14.861   7.585  -3.376  1.00  0.00     0.221 HD
ENDBRANCH   5  10
BRANCH   5  12
HETATM   12  N2  UNL     1     -13.058   8.482  -4.599  1.00  0.00    -0.309 N 
BRANCH  12  13
HETATM   13  C5  UNL     1     -13.290   7.978  -5.895  1.00  0.00     0.020 C 
BRANCH  13  14
HETATM   14  C6  UNL     1     -14.722   7.957  -6.384  1.00  0.00     0.217 C 
BRANCH  14  15
HETATM   15  O2  UNL     1     -15.426   6.918  -5.788  1.00  0.00    -0.395 OA
ATOM     16  H2  UNL     1     -15.690   6.278  -6.438  1.00  0.00     0.209 HD
ENDBRANCH  14  15
ENDBRANCH  13  14
BRANCH  13  17
HETATM   17  C7  UNL     1     -12.552   6.754  -6.339  1.00  0.00     0.026 C 
HETATM   18  C8  UNL     1     -12.791   6.474  -7.828  1.00  0.00     0.016 C 
HETATM   19  C9  UNL     1     -11.031   6.869  -6.235  1.00  0.00     0.016 C 
ENDBRANCH  13  17
ENDBRANCH  12  13
BRANCH  12  20
HETATM   20  C10 UNL     1     -12.786   9.967  -4.504  1.00  0.00     0.029 C 
HETATM   21  C11 UNL     1     -11.876  10.375  -5.674  1.00  0.00     0.038 C 
HETATM   22  C12 UNL     1     -14.068  10.751  -4.641  1.00  0.00     0.038 C 
HETATM   23  C13 UNL     1     -12.092  10.403  -3.281  1.00  0.00     0.038 C 
ENDBRANCH  12  20
ENDBRANCH   5  12
BRANCH   6  24
HETATM   24  C15 UNL     1     -13.805   6.311  -0.763  1.00  0.00     0.044 C 
HETATM   25  C16 UNL     1     -14.153   7.150   0.521  1.00  0.00     0.017 C 
BRANCH  24  26
HETATM   26  C17 UNL     1     -13.998   4.904  -0.216  1.00  0.00     0.124 C 
HETATM   27 CL1  UNL     1     -14.145   5.009   1.584  1.00  0.00    -0.130 Cl
ENDBRANCH  24  26
ENDBRANCH   6  24
TORSDOF 9
ENDMDL
MODEL 2
REMARK VINA RESULT: -5.672789063      0.912      1.296
REMARK  9 active torsions:
REMARK  status: ('A' for Active; 'I' for Inactive)
REMARK    1  A    between atoms: C4_5  and  O1_6 
REMARK    2  A    between atoms: C4_5  and  N2_8 
REMARK    3  A    between atoms: N2_8  and  C5_9 
REMARK    4  A    between atoms: N2_8  and  C10_16 
REMARK    5  A    between atoms: C5_9  and  C6_10 
REMARK    6  A    between atoms: C5_9  and  C7_13 
REMARK    7  A    between atoms: C6_10  and  O2_11 
REMARK    8  A    between atoms: C14_20  and  C15_21 
REMARK    9  A    between atoms: C15_21  and  C17_23 
ROOT
HETATM    1  C1  UNL     1      -8.753   6.901  -1.695  1.00  0.00     0.041 C 
HETATM    2  C2  UNL     1      -9.968   7.745  -1.756  1.00  0.00     0.136 C 
HETATM    3  C3  UNL     1     -10.941   7.095  -2.762  1.00  0.00     0.164 C 
HETATM    4  N1  UNL     1     -12.285   7.416  -2.325  1.00  0.00    -0.315 N 
HETATM    5  C4  UNL     1     -13.149   8.237  -2.993  1.00  0.00     0.226 C 
HETATM    6  C14 UNL     1     -12.501   6.712  -1.044  1.00  0.00     0.026 C 
HETATM    7  C18 UNL     1     -11.478   7.187  -0.038  1.00  0.00     0.164 C 
HETATM    8  C19 UNL     1     -10.703   6.030   0.594  1.00  0.00     0.046 C 
HETATM    9  O3  UNL     1     -10.575   8.098  -0.602  1.00  0.00    -0.374 OA
ENDROOT
BRANCH   5  10
HETATM   10  O1  UNL     1     -14.244   8.356  -2.222  1.00  0.00    -0.332 OA
ATOM     11  H1  UNL     1     -14.891   8.826  -2.736  1.00  0.00     0.221 HD
ENDBRANCH   5  10
BRANCH   5  12
HETATM   12  N2  UNL     1     -13.257   8.972  -4.192  1.00  0.00    -0.309 N 
BRANCH  12  13
HETATM   13  C5  UNL     1     -14.126   8.895  -5.300  1.00  0.00     0.020 C 
BRANCH  13  14
HETATM   14  C6  UNL     1     -15.504   9.500  -5.142  1.00  0.00     0.217 C 
BRANCH  14  15
HETATM   15  O2  UNL     1     -16.321   8.666  -4.390  1.00  0.00    -0.395 OA
ATOM     16  H2  UNL     1     -17.130   8.483  -4.854  1.00  0.00     0.209 HD
ENDBRANCH  14  15
ENDBRANCH  13  14
BRANCH  13  17
HETATM   17  C7  UNL     1     -14.184   7.625  -6.089  1.00  0.00     0.026 C 
HETATM   18  C8  UNL     1     -14.770   7.866  -7.485  1.00  0.00     0.016 C 
HETATM   19  C9  UNL     1     -12.817   7.004  -6.376  1.00  0.00     0.016 C 
ENDBRANCH  13  17
ENDBRANCH  12  13
BRANCH  12  20
HETATM   20  C10 UNL     1     -12.208  10.060  -4.247  1.00  0.00     0.029 C 
HETATM   21  C11 UNL     1     -12.744  11.216  -5.109  1.00  0.00     0.038 C 
HETATM   22  C12 UNL     1     -11.947  10.615  -2.869  1.00  0.00     0.038 C 
HETATM   23  C13 UNL     1     -10.925   9.667  -4.852  1.00  0.00     0.038 C 
ENDBRANCH  12  20
ENDBRANCH   5  12
BRANCH   6  24
HETATM   24  C15 UNL     1     -13.808   6.508  -0.503  1.00  0.00     0.044 C 
HETATM   25  C16 UNL     1     -13.809   7.183   0.917  1.00  0.00     0.017 C 
BRANCH  24  26
HETATM   26  C17 UNL     1     -14.174   5.082  -0.115  1.00  0.00     0.124 C 
HETATM   27 CL1  UNL     1     -14.110   4.950   1.688  1.00  0.00    -0.130 Cl
ENDBRANCH  24  26
ENDBRANCH   6  24
TORSDOF 9
ENDMDL
MODEL 3
REMARK VINA RESULT: -5.122825678      2.583      4.229
REMARK  9 active torsions:
REMARK  status: ('A' for Active; 'I' for Inactive)
REMARK    1  A    between atoms: C4_5  and  O1_6 
REMARK    2  A    between atoms: C4_5  and  N2_8 
REMARK    3  A    between atoms: N2_8  and  C5_9 
REMARK    4  A    between atoms: N2_8  and  C10_16 
REMARK    5  A    between atoms: C5_9  and  C6_10 
REMARK    6  A    between atoms: C5_9  and  C7_13 
REMARK    7  A    between atoms: C6_10  and  O2_11 
REMARK    8  A    between atoms: C14_20  and  C15_21 
REMARK    9  A    between atoms: C15_21  and  C17_23 
ROOT
HETATM    1  C1  UNL     1     -14.501   8.875  -2.846  1.00  0.00     0.041 C 
HETATM    2  C2  UNL     1     -13.316   8.003  -3.009  1.00  0.00     0.136 C 
HETATM    3  C3  UNL     1     -12.104   8.739  -2.401  1.00  0.00     0.164 C 
HETATM    4  N1  UNL     1     -11.196   7.727  -1.900  1.00  0.00    -0.315 N 
HETATM    5  C4  UNL     1      -9.963   7.456  -2.421  1.00  0.00     0.226 C 
HETATM    6  C14 UNL     1     -11.874   7.064  -0.767  1.00  0.00     0.026 C 
HETATM    7  C18 UNL     1     -13.162   6.441  -1.254  1.00  0.00     0.164 C 
HETATM    8  C19 UNL     1     -14.371   6.887  -0.430  1.00  0.00     0.046 C 
HETATM    9  O3  UNL     1     -13.395   6.715  -2.607  1.00  0.00    -0.374 OA
ENDROOT
BRANCH   5  10
HETATM   10  O1  UNL     1      -9.482   6.396  -1.747  1.00  0.00    -0.332 OA
ATOM     11  H1  UNL     1      -9.628   5.633  -2.295  1.00  0.00     0.221 HD
ENDBRANCH   5  10
BRANCH   5  12
HETATM   12  N2  UNL     1      -9.062   7.917  -3.405  1.00  0.00    -0.309 N 
BRANCH  12  13
HETATM   13  C5  UNL     1      -8.759   7.491  -4.714  1.00  0.00     0.020 C 
BRANCH  13  14
HETATM   14  C6  UNL     1      -9.866   7.570  -5.742  1.00  0.00     0.217 C 
BRANCH  14  15
HETATM   15  O2  UNL     1     -10.525   8.791  -5.657  1.00  0.00    -0.395 OA
ATOM     16  H2  UNL     1     -10.324   9.332  -6.412  1.00  0.00     0.209 HD
ENDBRANCH  14  15
ENDBRANCH  13  14
BRANCH  13  17
HETATM   17  C7  UNL     1      -7.937   6.255  -4.903  1.00  0.00     0.026 C 
HETATM   18  C8  UNL     1      -8.826   5.036  -5.181  1.00  0.00     0.016 C 
HETATM   19  C9  UNL     1      -7.005   6.302  -6.114  1.00  0.00     0.016 C 
ENDBRANCH  13  17
ENDBRANCH  12  13
BRANCH  12  20
HETATM   20  C10 UNL     1      -8.296   9.121  -2.904  1.00  0.00     0.029 C 
HETATM   21  C11 UNL     1      -7.083   9.346  -3.822  1.00  0.00     0.038 C 
HETATM   22  C12 UNL     1      -9.150  10.362  -2.979  1.00  0.00     0.038 C 
HETATM   23  C13 UNL     1      -7.753   8.999  -1.541  1.00  0.00     0.038 C 
ENDBRANCH  12  20
ENDBRANCH   5  12
BRANCH   6  24
HETATM   24  C15 UNL     1     -11.159   6.271   0.185  1.00  0.00     0.044 C 
HETATM   25  C16 UNL     1     -12.172   5.187   0.706  1.00  0.00     0.017 C 
BRANCH  24  26
HETATM   26  C17 UNL     1     -10.796   6.943   1.501  1.00  0.00     0.124 C 
HETATM   27 CL1  UNL     1      -8.995   7.080   1.591  1.00  0.00    -0.130 Cl
ENDBRANCH  24  26
ENDBRANCH   6  24
TORSDOF 9
ENDMDL
MODEL 4
REMARK VINA RESULT: -5.110184055      1.260      1.719
REMARK  9 active torsions:
REMARK  status: ('A' for Active; 'I' for Inactive)
REMARK    1  A    between atoms: C4_5  and  O1_6 
REMARK    2  A    between atoms: C4_5  and  N2_8 
REMARK    3  A    between atoms: N2_8  and  C5_9 
REMARK    4  A    between atoms: N2_8  and  C10_16 
REMARK    5  A    between atoms: C5_9  and  C6_10 
REMARK    6  A    between atoms: C5_9  and  C7_13 
REMARK    7  A    between atoms: C6_10  and  O2_11 
REMARK    8  A    between atoms: C14_20  and  C15_21 
REMARK    9  A    between atoms: C15_21  and  C17_23 
ROOT
HETATM    1  C1  UNL     1      -8.603   7.579  -0.416  1.00  0.00     0.041 C 
HETATM    2  C2  UNL     1      -9.862   8.042  -1.043  1.00  0.00     0.136 C 
HETATM    3  C3  UNL     1     -10.295   6.976  -2.071  1.00  0.00     0.164 C 
HETATM    4  N1  UNL     1     -11.742   7.008  -2.136  1.00  0.00    -0.315 N 
HETATM    5  C4  UNL     1     -12.468   7.425  -3.215  1.00  0.00     0.226 C 
HETATM    6  C14 UNL     1     -12.242   6.533  -0.829  1.00  0.00     0.026 C 
HETATM    7  C18 UNL     1     -11.731   7.446   0.260  1.00  0.00     0.164 C 
HETATM    8  C19 UNL     1     -11.012   6.680   1.372  1.00  0.00     0.046 C 
HETATM    9  O3  UNL     1     -10.880   8.437  -0.246  1.00  0.00    -0.374 OA
ENDROOT
BRANCH   5  10
HETATM   10  O1  UNL     1     -13.761   7.396  -2.848  1.00  0.00    -0.332 OA
ATOM     11  H1  UNL     1     -14.041   8.300  -2.759  1.00  0.00     0.221 HD
ENDBRANCH   5  10
BRANCH   5  12
HETATM   12  N2  UNL     1     -12.301   7.860  -4.547  1.00  0.00    -0.309 N 
BRANCH  12  13
HETATM   13  C5  UNL     1     -12.450   7.227  -5.798  1.00  0.00     0.020 C 
BRANCH  13  14
HETATM   14  C6  UNL     1     -11.188   6.924  -6.575  1.00  0.00     0.217 C 
BRANCH  14  15
HETATM   15  O2  UNL     1     -10.426   5.967  -5.916  1.00  0.00    -0.395 OA
ATOM     16  H2  UNL     1     -10.980   5.272  -5.580  1.00  0.00     0.209 HD
ENDBRANCH  14  15
ENDBRANCH  13  14
BRANCH  13  17
HETATM   17  C7  UNL     1     -13.550   7.672  -6.710  1.00  0.00     0.026 C 
HETATM   18  C8  UNL     1     -13.484   6.940  -8.055  1.00  0.00     0.016 C 
HETATM   19  C9  UNL     1     -14.955   7.356  -6.197  1.00  0.00     0.016 C 
ENDBRANCH  13  17
ENDBRANCH  12  13
BRANCH  12  20
HETATM   20  C10 UNL     1     -11.884   9.314  -4.585  1.00  0.00     0.029 C 
HETATM   21  C11 UNL     1     -10.360   9.382  -4.780  1.00  0.00     0.038 C 
HETATM   22  C12 UNL     1     -12.516  10.016  -5.760  1.00  0.00     0.038 C 
HETATM   23  C13 UNL     1     -12.169  10.083  -3.362  1.00  0.00     0.038 C 
ENDBRANCH  12  20
ENDBRANCH   5  12
BRANCH   6  24
HETATM   24  C15 UNL     1     -13.592   6.097  -0.647  1.00  0.00     0.044 C 
HETATM   25  C16 UNL     1     -14.197   6.998   0.491  1.00  0.00     0.017 C 
BRANCH  24  26
HETATM   26  C17 UNL     1     -13.790   4.722  -0.024  1.00  0.00     0.124 C 
HETATM   27 CL1  UNL     1     -14.195   4.943   1.725  1.00  0.00    -0.130 Cl
ENDBRANCH  24  26
ENDBRANCH   6  24
TORSDOF 9
ENDMDL
MODEL 5
REMARK VINA RESULT: -5.009394419      1.096      3.019
REMARK  9 active torsions:
REMARK  status: ('A' for Active; 'I' for Inactive)
REMARK    1  A    between atoms: C4_5  and  O1_6 
REMARK    2  A    between atoms: C4_5  and  N2_8 
REMARK    3  A    between atoms: N2_8  and  C5_9 
REMARK    4  A    between atoms: N2_8  and  C10_16 
REMARK    5  A    between atoms: C5_9  and  C6_10 
REMARK    6  A    between atoms: C5_9  and  C7_13 
REMARK    7  A    between atoms: C6_10  and  O2_11 
REMARK    8  A    between atoms: C14_20  and  C15_21 
REMARK    9  A    between atoms: C15_21  and  C17_23 
ROOT
HETATM    1  C1  UNL     1      -8.798   7.668  -1.317  1.00  0.00     0.041 C 
HETATM    2  C2  UNL     1     -10.119   8.282  -1.584  1.00  0.00     0.136 C 
HETATM    3  C3  UNL     1     -10.780   7.492  -2.732  1.00  0.00     0.164 C 
HETATM    4  N1  UNL     1     -12.213   7.557  -2.526  1.00  0.00    -0.315 N 
HETATM    5  C4  UNL     1     -13.090   8.225  -3.333  1.00  0.00     0.226 C 
HETATM    6  C14 UNL     1     -12.505   6.796  -1.293  1.00  0.00     0.026 C 
HETATM    7  C18 UNL     1     -11.764   7.422  -0.136  1.00  0.00     0.164 C 
HETATM    8  C19 UNL     1     -10.907   6.408   0.624  1.00  0.00     0.046 C 
HETATM    9  O3  UNL     1     -10.960   8.493  -0.548  1.00  0.00    -0.374 OA
ENDROOT
BRANCH   5  10
HETATM   10  O1  UNL     1     -14.300   8.129  -2.754  1.00  0.00    -0.332 OA
ATOM     11  H1  UNL     1     -14.594   9.016  -2.583  1.00  0.00     0.221 HD
ENDBRANCH   5  10
BRANCH   5  12
HETATM   12  N2  UNL     1     -13.131   8.958  -4.538  1.00  0.00    -0.309 N 
BRANCH  12  13
HETATM   13  C5  UNL     1     -13.077  10.335  -4.836  1.00  0.00     0.020 C 
BRANCH  13  14
HETATM   14  C6  UNL     1     -11.797  11.067  -4.494  1.00  0.00     0.217 C 
BRANCH  14  15
HETATM   15  O2  UNL     1     -11.806  11.472  -3.165  1.00  0.00    -0.395 OA
ATOM     16  H2  UNL     1     -12.695  11.500  -2.831  1.00  0.00     0.209 HD
ENDBRANCH  14  15
ENDBRANCH  13  14
BRANCH  13  17
HETATM   17  C7  UNL     1     -14.275  11.186  -4.554  1.00  0.00     0.026 C 
HETATM   18  C8  UNL     1     -14.276  12.447  -5.426  1.00  0.00     0.016 C 
HETATM   19  C9  UNL     1     -15.609  10.518  -4.888  1.00  0.00     0.016 C 
ENDBRANCH  13  17
ENDBRANCH  12  13
BRANCH  12  20
HETATM   20  C10 UNL     1     -13.251   8.027  -5.724  1.00  0.00     0.029 C 
HETATM   21  C11 UNL     1     -13.169   8.861  -7.013  1.00  0.00     0.038 C 
HETATM   22  C12 UNL     1     -12.101   7.051  -5.751  1.00  0.00     0.038 C 
HETATM   23  C13 UNL     1     -14.514   7.275  -5.809  1.00  0.00     0.038 C 
ENDBRANCH  12  20
ENDBRANCH   5  12
BRANCH   6  24
HETATM   24  C15 UNL     1     -13.826   6.348  -0.975  1.00  0.00     0.044 C 
HETATM   25  C16 UNL     1     -14.282   7.177   0.282  1.00  0.00     0.017 C 
BRANCH  24  26
HETATM   26  C17 UNL     1     -13.955   4.937  -0.418  1.00  0.00     0.124 C 
HETATM   27 CL1  UNL     1     -14.229   5.053   1.365  1.00  0.00    -0.130 Cl
ENDBRANCH  24  26
ENDBRANCH   6  24
TORSDOF 9
ENDMDL
