MODEL 1
REMARK VINA RESULT: -7.462551932      0.000      0.000
REMARK  4 active torsions:
REMARK  status: ('A' for Active; 'I' for Inactive)
REMARK    1  A    between atoms: O1_2  and  C2_3 
REMARK    2  A    between atoms: C4_5  and  C5_6 
REMARK    3  A    between atoms: C9_10  and  C10_11 
REMARK    4  A    between atoms: C15_17  and  N1_18 
REMARK       I    between atoms: C16_20  and  N3_22 
ROOT
HETATM    1  C2  UNL     1     -10.941   7.225  -3.405  1.00  0.00     0.095 A 
HETATM    2  C3  UNL     1     -11.915   7.101  -2.397  1.00  0.00     0.048 A 
HETATM    3  C4  UNL     1     -11.593   6.990  -1.081  1.00  0.00    -0.029 A 
HETATM    4  C13 UNL     1     -10.228   7.003  -0.758  1.00  0.00     0.043 A 
HETATM    5 CL1  UNL     1      -9.702   6.898   0.948  1.00  0.00    -0.084 Cl
HETATM    6  C14 UNL     1      -9.299   7.129  -1.746  1.00  0.00     0.056 A 
HETATM    7  C15 UNL     1      -9.592   7.248  -3.110  1.00  0.00     0.069 A 
ENDROOT
BRANCH   7   8
HETATM    8  N1  UNL     1      -8.590   7.413  -4.089  1.00  0.00    -0.328 N 
HETATM    9  C16 UNL     1      -8.063   6.444  -4.735  1.00  0.00     0.191 C 
HETATM   10  N2  UNL     1      -8.397   5.073  -4.556  1.00  0.00    -0.063 NA
HETATM   11  N3  UNL     1      -7.085   6.715  -5.761  1.00  0.00    -0.351 N 
HETATM   12  C17 UNL     1      -6.641   8.075  -6.060  1.00  0.00     0.151 C 
HETATM   13  C20 UNL     1      -6.536   5.638  -6.504  1.00  0.00     0.151 C 
HETATM   14  C18 UNL     1      -5.843   8.000  -7.352  1.00  0.00     0.187 C 
HETATM   15  O2  UNL     1      -6.465   7.233  -8.330  1.00  0.00    -0.388 OA
HETATM   16  C19 UNL     1      -6.654   5.925  -7.981  1.00  0.00     0.187 C 
ATOM     17  H1  UNL     1      -8.267   8.359  -4.293  1.00  0.00     0.168 HD
ENDBRANCH   7   8
BRANCH   1  18
HETATM   18  O1  UNL     1     -11.339   7.331  -4.733  1.00  0.00    -0.354 OA
HETATM   19  C1  UNL     1     -12.585   7.567  -5.263  1.00  0.00     0.210 C 
ENDBRANCH   1  18
BRANCH   3  20
HETATM   20  C5  UNL     1     -12.577   6.767  -0.040  1.00  0.00     0.025 C 
HETATM   21  C6  UNL     1     -14.004   7.170  -0.455  1.00  0.00     0.010 C 
HETATM   22  C7  UNL     1     -14.790   6.399   0.628  1.00  0.00     0.001 C 
HETATM   23  C8  UNL     1     -14.254   5.030   0.357  1.00  0.00     0.005 C 
HETATM   24  C9  UNL     1     -12.761   5.245   0.194  1.00  0.00    -0.002 C 
BRANCH  24  25
HETATM   25  C10 UNL     1     -11.960   4.778   1.361  1.00  0.00    -0.010 A 
HETATM   26  C11 UNL     1     -11.226   3.487   1.230  1.00  0.00     0.005 A 
HETATM   27  C12 UNL     1     -12.362   3.678   2.229  1.00  0.00     0.005 A 
ENDBRANCH  24  25
ENDBRANCH   3  20
TORSDOF 4
ENDMDL
MODEL 2
REMARK VINA RESULT: -7.355483897      3.564      4.594
REMARK  4 active torsions:
REMARK  status: ('A' for Active; 'I' for Inactive)
REMARK    1  A    between atoms: O1_2  and  C2_3 
REMARK    2  A    between atoms: C4_5  and  C5_6 
REMARK    3  A    between atoms: C9_10  and  C10_11 
REMARK    4  A    between atoms: C15_17  and  N1_18 
REMARK       I    between atoms: C16_20  and  N3_22 
ROOT
HETATM    1  C2  UNL     1     -13.379   7.884  -4.221  1.00  0.00     0.095 A 
HETATM    2  C3  UNL     1     -13.237   7.554  -2.861  1.00  0.00     0.048 A 
HETATM    3  C4  UNL     1     -12.049   7.171  -2.322  1.00  0.00    -0.029 A 
HETATM    4  C13 UNL     1     -10.948   7.115  -3.189  1.00  0.00     0.043 A 
HETATM    5 CL1  UNL     1      -9.334   6.657  -2.570  1.00  0.00    -0.084 Cl
HETATM    6  C14 UNL     1     -11.101   7.443  -4.501  1.00  0.00     0.056 A 
HETATM    7  C15 UNL     1     -12.307   7.844  -5.091  1.00  0.00     0.069 A 
ENDROOT
BRANCH   7   8
HETATM    8  N1  UNL     1     -12.401   8.208  -6.451  1.00  0.00    -0.328 N 
HETATM    9  C16 UNL     1     -12.606   7.372  -7.396  1.00  0.00     0.191 C 
HETATM   10  N2  UNL     1     -12.755   5.970  -7.220  1.00  0.00    -0.063 NA
HETATM   11  N3  UNL     1     -12.746   7.846  -8.752  1.00  0.00    -0.351 N 
HETATM   12  C17 UNL     1     -12.619   9.263  -9.089  1.00  0.00     0.151 C 
HETATM   13  C20 UNL     1     -13.017   6.918  -9.791  1.00  0.00     0.151 C 
HETATM   14  C18 UNL     1     -13.097   9.415 -10.525  1.00  0.00     0.187 C 
HETATM   15  O2  UNL     1     -14.283   8.737 -10.776  1.00  0.00    -0.388 OA
HETATM   16  C19 UNL     1     -14.207   7.385 -10.595  1.00  0.00     0.187 C 
ATOM     17  H1  UNL     1     -12.301   9.194  -6.693  1.00  0.00     0.168 HD
ENDBRANCH   7   8
BRANCH   1  18
HETATM   18  O1  UNL     1     -14.624   8.265  -4.708  1.00  0.00    -0.354 OA
HETATM   19  C1  UNL     1     -15.357   9.401  -4.461  1.00  0.00     0.210 C 
ENDBRANCH   1  18
BRANCH   3  20
HETATM   20  C5  UNL     1     -11.905   6.737  -0.946  1.00  0.00     0.025 C 
HETATM   21  C6  UNL     1     -11.223   7.782  -0.046  1.00  0.00     0.010 C 
HETATM   22  C7  UNL     1     -11.650   7.224   1.329  1.00  0.00     0.001 C 
HETATM   23  C8  UNL     1     -13.129   7.223   1.116  1.00  0.00     0.005 C 
HETATM   24  C9  UNL     1     -13.301   6.642  -0.276  1.00  0.00    -0.002 C 
BRANCH  24  25
HETATM   25  C10 UNL     1     -13.807   5.241  -0.279  1.00  0.00    -0.010 A 
HETATM   26  C11 UNL     1     -14.671   4.810   0.858  1.00  0.00     0.005 A 
HETATM   27  C12 UNL     1     -13.299   4.195   0.602  1.00  0.00     0.005 A 
ENDBRANCH  24  25
ENDBRANCH   3  20
TORSDOF 4
ENDMDL
MODEL 3
REMARK VINA RESULT: -7.308713306      6.732      9.016
REMARK  4 active torsions:
REMARK  status: ('A' for Active; 'I' for Inactive)
REMARK    1  A    between atoms: O1_2  and  C2_3 
REMARK    2  A    between atoms: C4_5  and  C5_6 
REMARK    3  A    between atoms: C9_10  and  C10_11 
REMARK    4  A    between atoms: C15_17  and  N1_18 
REMARK       I    between atoms: C16_20  and  N3_22 
ROOT
HETATM    1  C2  UNL     1      -7.137   7.890   1.962  1.00  0.00     0.095 A 
HETATM    2  C3  UNL     1      -7.962   7.682   0.841  1.00  0.00     0.048 A 
HETATM    3  C4  UNL     1      -7.726   8.276  -0.359  1.00  0.00    -0.029 A 
HETATM    4  C13 UNL     1      -6.609   9.120  -0.440  1.00  0.00     0.043 A 
HETATM    5 CL1  UNL     1      -6.192   9.921  -1.984  1.00  0.00    -0.084 Cl
HETATM    6  C14 UNL     1      -5.818   9.306   0.653  1.00  0.00     0.056 A 
HETATM    7  C15 UNL     1      -6.028   8.710   1.903  1.00  0.00     0.069 A 
ENDROOT
BRANCH   7   8
HETATM    8  N1  UNL     1      -5.155   8.910   2.994  1.00  0.00    -0.328 N 
HETATM    9  C16 UNL     1      -5.318   9.821   3.875  1.00  0.00     0.191 C 
HETATM   10  N2  UNL     1      -6.383  10.763   3.880  1.00  0.00    -0.063 NA
HETATM   11  N3  UNL     1      -4.404   9.911   4.989  1.00  0.00    -0.351 N 
HETATM   12  C17 UNL     1      -3.261   9.010   5.120  1.00  0.00     0.151 C 
HETATM   13  C20 UNL     1      -4.617  10.897   5.987  1.00  0.00     0.151 C 
HETATM   14  C18 UNL     1      -2.706   9.211   6.522  1.00  0.00     0.187 C 
HETATM   15  O2  UNL     1      -3.694   9.239   7.498  1.00  0.00    -0.388 OA
HETATM   16  C19 UNL     1      -4.599  10.252   7.352  1.00  0.00     0.187 C 
ATOM     17  H1  UNL     1      -4.349   8.292   3.084  1.00  0.00     0.168 HD
ENDBRANCH   7   8
BRANCH   1  18
HETATM   18  O1  UNL     1      -7.438   7.254   3.162  1.00  0.00    -0.354 OA
HETATM   19  C1  UNL     1      -8.438   7.511   4.069  1.00  0.00     0.210 C 
ENDBRANCH   1  18
BRANCH   3  20
HETATM   20  C5  UNL     1      -8.616   8.147  -1.496  1.00  0.00     0.025 C 
HETATM   21  C6  UNL     1      -8.623   6.735  -2.108  1.00  0.00     0.010 C 
HETATM   22  C7  UNL     1      -9.937   6.833  -2.912  1.00  0.00     0.001 C 
HETATM   23  C8  UNL     1     -10.854   7.205  -1.792  1.00  0.00     0.005 C 
HETATM   24  C9  UNL     1     -10.089   8.269  -1.027  1.00  0.00    -0.002 C 
BRANCH  24  25
HETATM   25  C10 UNL     1     -10.612   9.647  -1.240  1.00  0.00    -0.010 A 
HETATM   26  C11 UNL     1     -11.320   9.934  -2.521  1.00  0.00     0.005 A 
HETATM   27  C12 UNL     1     -10.004  10.611  -2.151  1.00  0.00     0.005 A 
ENDBRANCH  24  25
ENDBRANCH   3  20
TORSDOF 4
ENDMDL
MODEL 4
REMARK VINA RESULT: -7.258077155      1.099      1.658
REMARK  4 active torsions:
REMARK  status: ('A' for Active; 'I' for Inactive)
REMARK    1  A    between atoms: O1_2  and  C2_3 
REMARK    2  A    between atoms: C4_5  and  C5_6 
REMARK    3  A    between atoms: C9_10  and  C10_11 
REMARK    4  A    between atoms: C15_17  and  N1_18 
REMARK       I    between atoms: C16_20  and  N3_22 
ROOT
HETATM    1  C2  UNL     1     -10.689   7.053  -3.565  1.00  0.00     0.095 A 
HETATM    2  C3  UNL     1     -11.664   7.072  -2.551  1.00  0.00     0.048 A 
HETATM    3  C4  UNL     1     -11.344   7.028  -1.229  1.00  0.00    -0.029 A 
HETATM    4  C13 UNL     1      -9.981   6.961  -0.909  1.00  0.00     0.043 A 
HETATM    5 CL1  UNL     1      -9.455   6.935   0.800  1.00  0.00    -0.084 Cl
HETATM    6  C14 UNL     1      -9.050   6.949  -1.903  1.00  0.00     0.056 A 
HETATM    7  C15 UNL     1      -9.340   6.996  -3.272  1.00  0.00     0.069 A 
ENDROOT
BRANCH   7   8
HETATM    8  N1  UNL     1      -8.334   7.017  -4.261  1.00  0.00    -0.328 N 
HETATM    9  C16 UNL     1      -7.719   8.078  -4.624  1.00  0.00     0.191 C 
HETATM   10  N2  UNL     1      -7.965   9.377  -4.101  1.00  0.00    -0.063 NA
HETATM   11  N3  UNL     1      -6.662   7.992  -5.602  1.00  0.00    -0.351 N 
HETATM   12  C17 UNL     1      -6.295   6.724  -6.229  1.00  0.00     0.151 C 
HETATM   13  C20 UNL     1      -5.954   9.166  -5.969  1.00  0.00     0.151 C 
HETATM   14  C18 UNL     1      -4.990   6.966  -6.972  1.00  0.00     0.187 C 
HETATM   15  O2  UNL     1      -4.060   7.672  -6.220  1.00  0.00    -0.388 OA
HETATM   16  C19 UNL     1      -4.468   8.923  -5.853  1.00  0.00     0.187 C 
ATOM     17  H1  UNL     1      -8.082   6.138  -4.710  1.00  0.00     0.168 HD
ENDBRANCH   7   8
BRANCH   1  18
HETATM   18  O1  UNL     1     -11.085   7.097  -4.897  1.00  0.00    -0.354 OA
HETATM   19  C1  UNL     1     -12.273   7.511  -5.450  1.00  0.00     0.210 C 
ENDBRANCH   1  18
BRANCH   3  20
HETATM   20  C5  UNL     1     -12.337   6.951  -0.175  1.00  0.00     0.025 C 
HETATM   21  C6  UNL     1     -13.718   7.482  -0.600  1.00  0.00     0.010 C 
HETATM   22  C7  UNL     1     -14.570   6.842   0.517  1.00  0.00     0.001 C 
HETATM   23  C8  UNL     1     -14.180   5.415   0.302  1.00  0.00     0.005 C 
HETATM   24  C9  UNL     1     -12.674   5.467   0.123  1.00  0.00    -0.002 C 
BRANCH  24  25
HETATM   25  C10 UNL     1     -11.916   4.968   1.304  1.00  0.00    -0.010 A 
HETATM   26  C11 UNL     1     -11.328   3.600   1.227  1.00  0.00     0.005 A 
HETATM   27  C12 UNL     1     -12.425   3.958   2.224  1.00  0.00     0.005 A 
ENDBRANCH  24  25
ENDBRANCH   3  20
TORSDOF 4
ENDMDL
MODEL 5
REMARK VINA RESULT: -7.035492961      3.970      8.361
REMARK  4 active torsions:
REMARK  status: ('A' for Active; 'I' for Inactive)
REMARK    1  A    between atoms: O1_2  and  C2_3 
REMARK    2  A    between atoms: C4_5  and  C5_6 
REMARK    3  A    between atoms: C9_10  and  C10_11 
REMARK    4  A    between atoms: C15_17  and  N1_18 
REMARK       I    between atoms: C16_20  and  N3_22 
ROOT
HETATM    1  C2  UNL     1      -9.496   7.053   0.438  1.00  0.00     0.095 A 
HETATM    2  C3  UNL     1      -9.080   7.914  -0.593  1.00  0.00     0.048 A 
HETATM    3  C4  UNL     1      -9.778   8.058  -1.752  1.00  0.00    -0.029 A 
HETATM    4  C13 UNL     1     -10.950   7.299  -1.884  1.00  0.00     0.043 A 
HETATM    5 CL1  UNL     1     -11.957   7.443  -3.354  1.00  0.00    -0.084 Cl
HETATM    6  C14 UNL     1     -11.341   6.474  -0.874  1.00  0.00     0.056 A 
HETATM    7  C15 UNL     1     -10.651   6.303   0.333  1.00  0.00     0.069 A 
ENDROOT
BRANCH   7   8
HETATM    8  N1  UNL     1     -11.122   5.461   1.363  1.00  0.00    -0.328 N 
HETATM    9  C16 UNL     1     -12.342   5.099   1.480  1.00  0.00     0.191 C 
HETATM   10  N2  UNL     1     -13.394   5.496   0.610  1.00  0.00    -0.063 NA
HETATM   11  N3  UNL     1     -12.720   4.186   2.534  1.00  0.00    -0.351 N 
HETATM   12  C17 UNL     1     -11.748   3.691   3.506  1.00  0.00     0.151 C 
HETATM   13  C20 UNL     1     -14.068   3.755   2.632  1.00  0.00     0.151 C 
HETATM   14  C18 UNL     1     -12.428   2.563   4.267  1.00  0.00     0.187 C 
HETATM   15  O2  UNL     1     -13.104   1.679   3.436  1.00  0.00    -0.388 OA
HETATM   16  C19 UNL     1     -14.115   2.247   2.714  1.00  0.00     0.187 C 
ATOM     17  H1  UNL     1     -10.451   5.121   2.051  1.00  0.00     0.168 HD
ENDBRANCH   7   8
BRANCH   1  18
HETATM   18  O1  UNL     1      -8.734   6.951   1.596  1.00  0.00    -0.354 OA
HETATM   19  C1  UNL     1      -7.480   7.443   1.871  1.00  0.00     0.210 C 
ENDBRANCH   1  18
BRANCH   3  20
HETATM   20  C5  UNL     1      -9.315   8.868  -2.861  1.00  0.00     0.025 C 
HETATM   21  C6  UNL     1      -8.742  10.228  -2.425  1.00  0.00     0.010 C 
HETATM   22  C7  UNL     1      -7.963  10.579  -3.711  1.00  0.00     0.001 C 
HETATM   23  C8  UNL     1      -7.105   9.358  -3.789  1.00  0.00     0.005 C 
HETATM   24  C9  UNL     1      -8.062   8.216  -3.501  1.00  0.00    -0.002 C 
BRANCH  24  25
HETATM   25  C10 UNL     1      -8.423   7.423  -4.710  1.00  0.00    -0.010 A 
HETATM   26  C11 UNL     1      -8.581   5.949  -4.554  1.00  0.00     0.005 A 
HETATM   27  C12 UNL     1      -7.487   6.561  -5.422  1.00  0.00     0.005 A 
ENDBRANCH  24  25
ENDBRANCH   3  20
TORSDOF 4
ENDMDL
