MODEL 1
REMARK VINA RESULT: -6.611616767      0.000      0.000
REMARK  5 active torsions:
REMARK  status: ('A' for Active; 'I' for Inactive)
REMARK    1  A    between atoms: O1_2  and  C2_3 
REMARK    2  A    between atoms: C8_10  and  O2_11 
REMARK    3  A    between atoms: C9_13  and  C10_14 
REMARK    4  A    between atoms: C10_14  and  N1_15 
REMARK    5  A    between atoms: N1_15  and  C12_17 
ROOT
HETATM    1  C2  UNL     1     -11.330   7.292  -1.895  1.00  0.00     0.089 A 
HETATM    2  C3  UNL     1     -10.295   8.025  -2.402  1.00  0.00    -0.010 A 
HETATM    3  C4  UNL     1     -10.394   8.651  -3.756  1.00  0.00     0.052 C 
HETATM    4  C5  UNL     1      -9.169   8.172  -1.642  1.00  0.00     0.028 A 
HETATM    5 BR1  UNL     1      -7.721   9.202  -2.354  1.00  0.00    -0.050 Br
HETATM    6  C6  UNL     1      -9.085   7.594  -0.401  1.00  0.00    -0.010 A 
HETATM    7  C7  UNL     1      -7.846   7.757   0.429  1.00  0.00     0.052 C 
HETATM    8  C8  UNL     1     -10.159   6.843   0.104  1.00  0.00     0.087 A 
HETATM    9  C9  UNL     1     -11.303   6.677  -0.631  1.00  0.00     0.047 A 
ENDROOT
BRANCH   9  10
HETATM   10  C10 UNL     1     -12.482   5.925  -0.277  1.00  0.00     0.102 C 
BRANCH  10  11
HETATM   11  N1  UNL     1     -13.330   6.291   0.770  1.00  0.00    -0.388 N 
HETATM   12  C11 UNL     1     -14.351   7.252   0.537  1.00  0.00     0.149 C 
BRANCH  11  13
HETATM   13  C12 UNL     1     -13.660   5.221   1.627  1.00  0.00     0.086 C 
HETATM   14  C13 UNL     1     -14.811   4.371   1.149  1.00  0.00     0.055 C 
HETATM   15  C14 UNL     1     -15.048   3.352   2.276  1.00  0.00     0.274 C 
HETATM   16  N2  UNL     1     -13.986   2.382   2.254  1.00  0.00     0.084 N 
HETATM   17  C15 UNL     1     -13.564   2.133   3.629  1.00  0.00     0.309 C 
HETATM   18  C16 UNL     1     -12.832   2.847   1.525  1.00  0.00     0.274 C 
HETATM   19  C17 UNL     1     -12.529   4.278   1.936  1.00  0.00     0.055 C 
ENDBRANCH  11  13
ENDBRANCH  10  11
ENDBRANCH   9  10
BRANCH   1  20
HETATM   20  O1  UNL     1     -12.457   7.183  -2.731  1.00  0.00    -0.354 OA
HETATM   21  C1  UNL     1     -13.457   8.160  -2.806  1.00  0.00     0.210 C 
ENDBRANCH   1  20
BRANCH   8  22
HETATM   22  O2  UNL     1     -10.012   6.280   1.361  1.00  0.00    -0.359 OA
ATOM     23  H2  UNL     1     -10.776   5.872   1.752  1.00  0.00     0.217 HD
ENDBRANCH   8  22
TORSDOF 5
ENDMDL
MODEL 2
REMARK VINA RESULT: -6.600835838      3.125      6.745
REMARK  5 active torsions:
REMARK  status: ('A' for Active; 'I' for Inactive)
REMARK    1  A    between atoms: O1_2  and  C2_3 
REMARK    2  A    between atoms: C8_10  and  O2_11 
REMARK    3  A    between atoms: C9_13  and  C10_14 
REMARK    4  A    between atoms: C10_14  and  N1_15 
REMARK    5  A    between atoms: N1_15  and  C12_17 
ROOT
HETATM    1  C2  UNL     1     -12.040   5.392   0.881  1.00  0.00     0.089 A 
HETATM    2  C3  UNL     1     -12.384   4.295   1.618  1.00  0.00    -0.010 A 
HETATM    3  C4  UNL     1     -11.346   3.513   2.357  1.00  0.00     0.052 C 
HETATM    4  C5  UNL     1     -13.701   3.931   1.664  1.00  0.00     0.028 A 
HETATM    5 BR1  UNL     1     -14.182   2.395   2.700  1.00  0.00    -0.050 Br
HETATM    6  C6  UNL     1     -14.648   4.653   0.984  1.00  0.00    -0.010 A 
HETATM    7  C7  UNL     1     -16.092   4.249   1.037  1.00  0.00     0.052 C 
HETATM    8  C8  UNL     1     -14.275   5.778   0.231  1.00  0.00     0.087 A 
HETATM    9  C9  UNL     1     -12.964   6.171   0.165  1.00  0.00     0.047 A 
ENDROOT
BRANCH   9  10
HETATM   10  C10 UNL     1     -12.408   7.279  -0.574  1.00  0.00     0.102 C 
BRANCH  10  11
HETATM   11  N1  UNL     1     -12.097   7.206  -1.933  1.00  0.00    -0.388 N 
HETATM   12  C11 UNL     1     -13.149   7.157  -2.887  1.00  0.00     0.149 C 
BRANCH  11  13
HETATM   13  C12 UNL     1     -10.961   7.961  -2.291  1.00  0.00     0.086 C 
HETATM   14  C13 UNL     1     -10.615   9.065  -1.323  1.00  0.00     0.055 C 
HETATM   15  C14 UNL     1      -9.427   9.800  -1.966  1.00  0.00     0.274 C 
HETATM   16  N2  UNL     1      -8.253   8.976  -1.846  1.00  0.00     0.084 N 
HETATM   17  C15 UNL     1      -7.532   9.018  -3.115  1.00  0.00     0.309 C 
HETATM   18  C16 UNL     1      -8.575   7.596  -1.578  1.00  0.00     0.274 C 
HETATM   19  C17 UNL     1      -9.703   7.162  -2.499  1.00  0.00     0.055 C 
ENDBRANCH  11  13
ENDBRANCH  10  11
ENDBRANCH   9  10
BRANCH   1  20
HETATM   20  O1  UNL     1     -10.668   5.708   0.879  1.00  0.00    -0.354 OA
HETATM   21  C1  UNL     1     -10.115   6.739   1.649  1.00  0.00     0.210 C 
ENDBRANCH   1  20
BRANCH   8  22
HETATM   22  O2  UNL     1     -15.276   6.462  -0.438  1.00  0.00    -0.359 OA
ATOM     23  H2  UNL     1     -15.460   6.207  -1.335  1.00  0.00     0.217 HD
ENDBRANCH   8  22
TORSDOF 5
ENDMDL
MODEL 3
REMARK VINA RESULT: -6.478744535      1.378      1.925
REMARK  5 active torsions:
REMARK  status: ('A' for Active; 'I' for Inactive)
REMARK    1  A    between atoms: O1_2  and  C2_3 
REMARK    2  A    between atoms: C8_10  and  O2_11 
REMARK    3  A    between atoms: C9_13  and  C10_14 
REMARK    4  A    between atoms: C10_14  and  N1_15 
REMARK    5  A    between atoms: N1_15  and  C12_17 
ROOT
HETATM    1  C2  UNL     1     -11.960   6.716  -0.975  1.00  0.00     0.089 A 
HETATM    2  C3  UNL     1     -11.338   7.337  -2.020  1.00  0.00    -0.010 A 
HETATM    3  C4  UNL     1     -12.048   7.548  -3.318  1.00  0.00     0.052 C 
HETATM    4  C5  UNL     1     -10.050   7.762  -1.848  1.00  0.00     0.028 A 
HETATM    5 BR1  UNL     1      -9.180   8.635  -3.312  1.00  0.00    -0.050 Br
HETATM    6  C6  UNL     1      -9.404   7.566  -0.654  1.00  0.00    -0.010 A 
HETATM    7  C7  UNL     1      -7.990   8.033  -0.471  1.00  0.00     0.052 C 
HETATM    8  C8  UNL     1     -10.060   6.924   0.409  1.00  0.00     0.087 A 
HETATM    9  C9  UNL     1     -11.352   6.487   0.271  1.00  0.00     0.047 A 
ENDROOT
BRANCH   9  10
HETATM   10  C10 UNL     1     -12.161   5.795   1.245  1.00  0.00     0.102 C 
BRANCH  10  11
HETATM   11  N1  UNL     1     -12.292   4.406   1.275  1.00  0.00    -0.388 N 
HETATM   12  C11 UNL     1     -11.152   3.593   1.033  1.00  0.00     0.149 C 
BRANCH  11  13
HETATM   13  C12 UNL     1     -13.192   3.947   2.258  1.00  0.00     0.086 C 
HETATM   14  C13 UNL     1     -13.950   2.699   1.878  1.00  0.00     0.055 C 
HETATM   15  C14 UNL     1     -14.926   2.456   3.040  1.00  0.00     0.274 C 
HETATM   16  N2  UNL     1     -14.184   1.970   4.174  1.00  0.00     0.084 N 
HETATM   17  C15 UNL     1     -14.675   2.650   5.369  1.00  0.00     0.309 C 
HETATM   18  C16 UNL     1     -12.773   2.248   4.067  1.00  0.00     0.274 C 
HETATM   19  C17 UNL     1     -12.584   3.684   3.609  1.00  0.00     0.055 C 
ENDBRANCH  11  13
ENDBRANCH  10  11
ENDBRANCH   9  10
BRANCH   1  20
HETATM   20  O1  UNL     1     -13.284   6.306  -1.222  1.00  0.00    -0.354 OA
HETATM   21  C1  UNL     1     -14.405   7.055  -0.844  1.00  0.00     0.210 C 
ENDBRANCH   1  20
BRANCH   8  22
HETATM   22  O2  UNL     1      -9.354   6.750   1.587  1.00  0.00    -0.359 OA
ATOM     23  H2  UNL     1      -9.428   5.910   2.025  1.00  0.00     0.217 HD
ENDBRANCH   8  22
TORSDOF 5
ENDMDL
MODEL 4
REMARK VINA RESULT: -6.429181976      1.652      3.292
REMARK  5 active torsions:
REMARK  status: ('A' for Active; 'I' for Inactive)
REMARK    1  A    between atoms: O1_2  and  C2_3 
REMARK    2  A    between atoms: C8_10  and  O2_11 
REMARK    3  A    between atoms: C9_13  and  C10_14 
REMARK    4  A    between atoms: C10_14  and  N1_15 
REMARK    5  A    between atoms: N1_15  and  C12_17 
ROOT
HETATM    1  C2  UNL     1     -11.224   6.570  -0.622  1.00  0.00     0.089 A 
HETATM    2  C3  UNL     1     -10.572   6.925  -1.768  1.00  0.00    -0.010 A 
HETATM    3  C4  UNL     1      -9.080   6.879  -1.844  1.00  0.00     0.052 C 
HETATM    4  C5  UNL     1     -11.317   7.321  -2.843  1.00  0.00     0.028 A 
HETATM    5 BR1  UNL     1     -10.401   7.816  -4.449  1.00  0.00    -0.050 Br
HETATM    6  C6  UNL     1     -12.686   7.361  -2.766  1.00  0.00    -0.010 A 
HETATM    7  C7  UNL     1     -13.499   7.799  -3.948  1.00  0.00     0.052 C 
HETATM    8  C8  UNL     1     -13.339   6.994  -1.579  1.00  0.00     0.087 A 
HETATM    9  C9  UNL     1     -12.622   6.590  -0.483  1.00  0.00     0.047 A 
ENDROOT
BRANCH   9  10
HETATM   10  C10 UNL     1     -13.128   6.202   0.812  1.00  0.00     0.102 C 
BRANCH  10  11
HETATM   11  N1  UNL     1     -13.756   4.977   1.047  1.00  0.00    -0.388 N 
HETATM   12  C11 UNL     1     -13.858   4.033  -0.009  1.00  0.00     0.149 C 
BRANCH  11  13
HETATM   13  C12 UNL     1     -13.506   4.456   2.333  1.00  0.00     0.086 C 
HETATM   14  C13 UNL     1     -14.076   3.080   2.570  1.00  0.00     0.055 C 
HETATM   15  C14 UNL     1     -13.773   2.772   4.045  1.00  0.00     0.274 C 
HETATM   16  N2  UNL     1     -12.368   2.494   4.181  1.00  0.00     0.084 N 
HETATM   17  C15 UNL     1     -11.879   3.174   5.377  1.00  0.00     0.309 C 
HETATM   18  C16 UNL     1     -11.600   2.982   3.062  1.00  0.00     0.274 C 
HETATM   19  C17 UNL     1     -12.055   4.393   2.727  1.00  0.00     0.055 C 
ENDBRANCH  11  13
ENDBRANCH  10  11
ENDBRANCH   9  10
BRANCH   1  20
HETATM   20  O1  UNL     1     -10.395   6.172   0.444  1.00  0.00    -0.354 OA
HETATM   21  C1  UNL     1      -9.892   7.062   1.401  1.00  0.00     0.210 C 
ENDBRANCH   1  20
BRANCH   8  22
HETATM   22  O2  UNL     1     -14.722   7.060  -1.561  1.00  0.00    -0.359 OA
ATOM     23  H2  UNL     1     -15.121   7.920  -1.489  1.00  0.00     0.217 HD
ENDBRANCH   8  22
TORSDOF 5
ENDMDL
MODEL 5
REMARK VINA RESULT: -6.290511284      1.414      1.847
REMARK  5 active torsions:
REMARK  status: ('A' for Active; 'I' for Inactive)
REMARK    1  A    between atoms: O1_2  and  C2_3 
REMARK    2  A    between atoms: C8_10  and  O2_11 
REMARK    3  A    between atoms: C9_13  and  C10_14 
REMARK    4  A    between atoms: C10_14  and  N1_15 
REMARK    5  A    between atoms: N1_15  and  C12_17 
ROOT
HETATM    1  C2  UNL     1      -9.454   7.866  -1.961  1.00  0.00     0.089 A 
HETATM    2  C3  UNL     1      -8.378   8.686  -2.150  1.00  0.00    -0.010 A 
HETATM    3  C4  UNL     1      -8.166   9.380  -3.456  1.00  0.00     0.052 C 
HETATM    4  C5  UNL     1      -7.502   8.856  -1.114  1.00  0.00     0.028 A 
HETATM    5 BR1  UNL     1      -5.997  10.008  -1.379  1.00  0.00    -0.050 Br
HETATM    6  C6  UNL     1      -7.704   8.216   0.082  1.00  0.00    -0.010 A 
HETATM    7  C7  UNL     1      -6.739   8.405   1.215  1.00  0.00     0.052 C 
HETATM    8  C8  UNL     1      -8.815   7.376   0.257  1.00  0.00     0.087 A 
HETATM    9  C9  UNL     1      -9.714   7.185  -0.760  1.00  0.00     0.047 A 
ENDROOT
BRANCH   9  10
HETATM   10  C10 UNL     1     -10.888   6.346  -0.758  1.00  0.00     0.102 C 
BRANCH  10  11
HETATM   11  N1  UNL     1     -12.131   6.780  -0.295  1.00  0.00    -0.388 N 
HETATM   12  C11 UNL     1     -13.052   7.358  -1.208  1.00  0.00     0.149 C 
BRANCH  11  13
HETATM   13  C12 UNL     1     -12.677   5.953   0.709  1.00  0.00     0.086 C 
HETATM   14  C13 UNL     1     -13.957   5.258   0.316  1.00  0.00     0.055 C 
HETATM   15  C14 UNL     1     -14.409   4.512   1.582  1.00  0.00     0.274 C 
HETATM   16  N2  UNL     1     -13.549   3.375   1.781  1.00  0.00     0.084 N 
HETATM   17  C15 UNL     1     -13.213   3.296   3.199  1.00  0.00     0.309 C 
HETATM   18  C16 UNL     1     -12.311   3.487   1.049  1.00  0.00     0.274 C 
HETATM   19  C17 UNL     1     -11.753   4.888   1.232  1.00  0.00     0.055 C 
ENDBRANCH  11  13
ENDBRANCH  10  11
ENDBRANCH   9  10
BRANCH   1  20
HETATM   20  O1  UNL     1     -10.313   7.738  -3.069  1.00  0.00    -0.354 OA
HETATM   21  C1  UNL     1     -10.131   6.784  -4.077  1.00  0.00     0.210 C 
ENDBRANCH   1  20
BRANCH   8  22
HETATM   22  O2  UNL     1      -8.961   6.754   1.485  1.00  0.00    -0.359 OA
ATOM     23  H2  UNL     1      -9.807   6.369   1.686  1.00  0.00     0.217 HD
ENDBRANCH   8  22
TORSDOF 5
ENDMDL
