MODEL 1
REMARK VINA RESULT: -7.557680920      0.000      0.000
REMARK  4 active torsions:
REMARK  status: ('A' for Active; 'I' for Inactive)
REMARK    1  A    between atoms: C6_7  and  N1_8 
REMARK    2  A    between atoms: N2_11  and  C9_12 
REMARK    3  A    between atoms: C9_12  and  C10_13 
REMARK       I    between atoms: C10_13  and  N3_15 
REMARK    4  A    between atoms: N3_15  and  C11_17 
ROOT
HETATM    1  N1  UNL     1     -11.763   7.537  -4.547  1.00  0.00    -0.377 N 
HETATM    2  C7  UNL     1     -10.587   6.723  -4.703  1.00  0.00     0.153 C 
HETATM    3  C8  UNL     1      -9.577   7.135  -3.654  1.00  0.00     0.292 C 
HETATM    4  N2  UNL     1     -10.269   7.053  -2.361  1.00  0.00     0.100 N 
HETATM    5  C19 UNL     1     -11.044   8.290  -2.306  1.00  0.00     0.292 C 
HETATM    6  C20 UNL     1     -12.069   8.308  -3.381  1.00  0.00     0.153 C 
ENDROOT
BRANCH   4   7
HETATM    7  C9  UNL     1      -9.292   7.007  -1.287  1.00  0.00     0.374 C 
BRANCH   7   8
HETATM    8  C10 UNL     1      -9.923   6.714  -0.006  1.00  0.00     0.246 C 
HETATM    9  O1  UNL     1      -9.356   6.987   1.072  1.00  0.00    -0.272 OA
HETATM   10  N3  UNL     1     -11.202   6.111   0.038  1.00  0.00    -0.355 N 
ATOM     11  H3  UNL     1     -11.665   5.887  -0.842  1.00  0.00     0.162 HD
BRANCH  10  12
HETATM   12  C11 UNL     1     -11.882   5.798   1.273  1.00  0.00     0.084 C 
HETATM   13  C12 UNL     1     -13.269   6.369   1.278  1.00  0.00     0.025 C 
HETATM   14  C13 UNL     1     -14.204   5.700   0.323  1.00  0.00     0.002 C 
HETATM   15  C14 UNL     1     -14.342   4.238   0.475  1.00  0.00     0.000 C 
HETATM   16  C15 UNL     1     -14.232   3.707   1.857  1.00  0.00     0.004 C 
HETATM   17  C16 UNL     1     -12.948   3.968   2.554  1.00  0.00    -0.017 C 
HETATM   18  C17 UNL     1     -12.527   2.734   3.339  1.00  0.00     0.010 C 
HETATM   19  C18 UNL     1     -11.855   4.321   1.586  1.00  0.00     0.029 C 
ENDBRANCH  10  12
ENDBRANCH   7   8
ENDBRANCH   4   7
BRANCH   1  20
HETATM   20  C6  UNL     1     -12.702   7.579  -5.644  1.00  0.00     0.032 A 
HETATM   21  C5  UNL     1     -14.007   7.948  -5.419  1.00  0.00     0.053 A 
HETATM   22  C4  UNL     1     -14.933   8.002  -6.431  1.00  0.00     0.036 A 
HETATM   23  C3  UNL     1     -14.503   7.668  -7.708  1.00  0.00     0.030 A 
HETATM   24 CL1  UNL     1     -16.611   8.475  -6.157  1.00  0.00    -0.084 Cl
HETATM   25  C2  UNL     1     -13.201   7.297  -7.953  1.00  0.00    -0.058 A 
HETATM   26  C1  UNL     1     -12.728   6.937  -9.311  1.00  0.00     0.048 C 
HETATM   27  C21 UNL     1     -12.306   7.255  -6.913  1.00  0.00     0.036 A 
ENDBRANCH   1  20
TORSDOF 4
ENDMDL
MODEL 2
REMARK VINA RESULT: -7.538311748      1.113      1.729
REMARK  4 active torsions:
REMARK  status: ('A' for Active; 'I' for Inactive)
REMARK    1  A    between atoms: C6_7  and  N1_8 
REMARK    2  A    between atoms: N2_11  and  C9_12 
REMARK    3  A    between atoms: C9_12  and  C10_13 
REMARK       I    between atoms: C10_13  and  N3_15 
REMARK    4  A    between atoms: N3_15  and  C11_17 
ROOT
HETATM    1  N1  UNL     1     -11.783   7.557  -4.561  1.00  0.00    -0.377 N 
HETATM    2  C7  UNL     1     -10.624   6.717  -4.715  1.00  0.00     0.153 C 
HETATM    3  C8  UNL     1      -9.600   7.121  -3.678  1.00  0.00     0.292 C 
HETATM    4  N2  UNL     1     -10.284   7.070  -2.380  1.00  0.00     0.100 N 
HETATM    5  C19 UNL     1     -11.033   8.323  -2.335  1.00  0.00     0.292 C 
HETATM    6  C20 UNL     1     -12.065   8.349  -3.404  1.00  0.00     0.153 C 
ENDROOT
BRANCH   4   7
HETATM    7  C9  UNL     1      -9.301   7.017  -1.311  1.00  0.00     0.374 C 
BRANCH   7   8
HETATM    8  C10 UNL     1      -9.926   6.728  -0.026  1.00  0.00     0.246 C 
HETATM    9  O1  UNL     1      -9.362   7.021   1.047  1.00  0.00    -0.272 OA
HETATM   10  N3  UNL     1     -11.197   6.107   0.025  1.00  0.00    -0.355 N 
ATOM     11  H3  UNL     1     -11.658   5.868  -0.852  1.00  0.00     0.162 HD
BRANCH  10  12
HETATM   12  C11 UNL     1     -11.871   5.798   1.264  1.00  0.00     0.084 C 
HETATM   13  C12 UNL     1     -13.253   6.381   1.280  1.00  0.00     0.025 C 
HETATM   14  C13 UNL     1     -14.201   5.721   0.330  1.00  0.00     0.002 C 
HETATM   15  C14 UNL     1     -14.350   4.260   0.480  1.00  0.00     0.000 C 
HETATM   16  C15 UNL     1     -14.235   3.726   1.861  1.00  0.00     0.004 C 
HETATM   17  C16 UNL     1     -12.943   3.975   2.549  1.00  0.00    -0.017 C 
HETATM   18  C17 UNL     1     -12.528   2.735   3.329  1.00  0.00     0.010 C 
HETATM   19  C18 UNL     1     -11.854   4.320   1.575  1.00  0.00     0.029 C 
ENDBRANCH  10  12
ENDBRANCH   7   8
ENDBRANCH   4   7
BRANCH   1  20
HETATM   20  C6  UNL     1     -12.728   7.604  -5.653  1.00  0.00     0.032 A 
HETATM   21  C5  UNL     1     -12.330   7.255  -6.922  1.00  0.00     0.053 A 
HETATM   22  C4  UNL     1     -13.194   7.286  -7.989  1.00  0.00     0.036 A 
HETATM   23  C3  UNL     1     -14.500   7.685  -7.742  1.00  0.00     0.030 A 
HETATM   24 CL1  UNL     1     -12.698   6.840  -9.624  1.00  0.00    -0.084 Cl
HETATM   25  C2  UNL     1     -14.917   8.038  -6.479  1.00  0.00    -0.058 A 
HETATM   26  C1  UNL     1     -16.308   8.467  -6.200  1.00  0.00     0.048 C 
HETATM   27  C21 UNL     1     -14.022   7.994  -5.438  1.00  0.00     0.036 A 
ENDBRANCH   1  20
TORSDOF 4
ENDMDL
MODEL 3
REMARK VINA RESULT: -7.440836585      1.809      2.822
REMARK  4 active torsions:
REMARK  status: ('A' for Active; 'I' for Inactive)
REMARK    1  A    between atoms: C6_7  and  N1_8 
REMARK    2  A    between atoms: N2_11  and  C9_12 
REMARK    3  A    between atoms: C9_12  and  C10_13 
REMARK       I    between atoms: C10_13  and  N3_15 
REMARK    4  A    between atoms: N3_15  and  C11_17 
ROOT
HETATM    1  N1  UNL     1     -13.417   7.946  -3.586  1.00  0.00    -0.377 N 
HETATM    2  C7  UNL     1     -13.855   7.628  -2.253  1.00  0.00     0.153 C 
HETATM    3  C8  UNL     1     -12.834   6.708  -1.620  1.00  0.00     0.292 C 
HETATM    4  N2  UNL     1     -11.536   7.385  -1.744  1.00  0.00     0.100 N 
HETATM    5  C19 UNL     1     -11.137   7.114  -3.123  1.00  0.00     0.292 C 
HETATM    6  C20 UNL     1     -12.086   7.751  -4.073  1.00  0.00     0.153 C 
ENDROOT
BRANCH   4   7
HETATM    7  C9  UNL     1     -10.590   6.802  -0.808  1.00  0.00     0.374 C 
BRANCH   7   8
HETATM    8  C10 UNL     1     -11.209   6.554   0.489  1.00  0.00     0.246 C 
HETATM    9  O1  UNL     1     -11.530   7.496   1.242  1.00  0.00    -0.272 OA
HETATM   10  N3  UNL     1     -11.459   5.230   0.919  1.00  0.00    -0.355 N 
ATOM     11  H3  UNL     1     -11.195   4.460   0.303  1.00  0.00     0.162 HD
BRANCH  10  12
HETATM   12  C11 UNL     1     -12.071   4.918   2.189  1.00  0.00     0.084 C 
HETATM   13  C12 UNL     1     -13.567   4.939   2.080  1.00  0.00     0.025 C 
HETATM   14  C13 UNL     1     -14.132   3.817   1.269  1.00  0.00     0.002 C 
HETATM   15  C14 UNL     1     -13.753   2.457   1.699  1.00  0.00     0.000 C 
HETATM   16  C15 UNL     1     -13.562   2.258   3.158  1.00  0.00     0.004 C 
HETATM   17  C16 UNL     1     -12.507   3.086   3.795  1.00  0.00    -0.017 C 
HETATM   18  C17 UNL     1     -11.734   2.249   4.804  1.00  0.00     0.010 C 
HETATM   19  C18 UNL     1     -11.544   3.632   2.781  1.00  0.00     0.029 C 
ENDBRANCH  10  12
ENDBRANCH   7   8
ENDBRANCH   4   7
BRANCH   1  20
HETATM   20  C6  UNL     1     -14.389   8.501  -4.498  1.00  0.00     0.032 A 
HETATM   21  C5  UNL     1     -14.334   8.189  -5.836  1.00  0.00     0.053 A 
HETATM   22  C4  UNL     1     -15.238   8.693  -6.738  1.00  0.00     0.036 A 
HETATM   23  C3  UNL     1     -16.223   9.540  -6.251  1.00  0.00     0.030 A 
HETATM   24 CL1  UNL     1     -15.180   8.300  -8.459  1.00  0.00    -0.084 Cl
HETATM   25  C2  UNL     1     -16.295   9.864  -4.915  1.00  0.00    -0.058 A 
HETATM   26  C1  UNL     1     -17.341  10.768  -4.380  1.00  0.00     0.048 C 
HETATM   27  C21 UNL     1     -15.372   9.339  -4.044  1.00  0.00     0.036 A 
ENDBRANCH   1  20
TORSDOF 4
ENDMDL
MODEL 4
REMARK VINA RESULT: -7.398722164      1.607      2.488
REMARK  4 active torsions:
REMARK  status: ('A' for Active; 'I' for Inactive)
REMARK    1  A    between atoms: C6_7  and  N1_8 
REMARK    2  A    between atoms: N2_11  and  C9_12 
REMARK    3  A    between atoms: C9_12  and  C10_13 
REMARK       I    between atoms: C10_13  and  N3_15 
REMARK    4  A    between atoms: N3_15  and  C11_17 
ROOT
HETATM    1  N1  UNL     1     -13.406   8.536  -4.488  1.00  0.00    -0.377 N 
HETATM    2  C7  UNL     1     -12.583   7.467  -4.990  1.00  0.00     0.153 C 
HETATM    3  C8  UNL     1     -11.222   7.565  -4.337  1.00  0.00     0.292 C 
HETATM    4  N2  UNL     1     -11.461   7.590  -2.888  1.00  0.00     0.100 N 
HETATM    5  C19 UNL     1     -11.843   8.975  -2.626  1.00  0.00     0.292 C 
HETATM    6  C20 UNL     1     -13.121   9.299  -3.312  1.00  0.00     0.153 C 
ENDROOT
BRANCH   4   7
HETATM    7  C9  UNL     1     -10.234   7.252  -2.186  1.00  0.00     0.374 C 
BRANCH   7   8
HETATM    8  C10 UNL     1     -10.493   6.930  -0.787  1.00  0.00     0.246 C 
HETATM    9  O1  UNL     1      -9.634   7.137   0.094  1.00  0.00    -0.272 OA
HETATM   10  N3  UNL     1     -11.736   6.374  -0.401  1.00  0.00    -0.355 N 
ATOM     11  H3  UNL     1     -12.438   6.204  -1.121  1.00  0.00     0.162 HD
BRANCH  10  12
HETATM   12  C11 UNL     1     -12.056   6.036   0.966  1.00  0.00     0.084 C 
HETATM   13  C12 UNL     1     -13.469   6.418   1.293  1.00  0.00     0.025 C 
HETATM   14  C13 UNL     1     -14.499   5.583   0.601  1.00  0.00     0.002 C 
HETATM   15  C14 UNL     1     -14.390   4.125   0.807  1.00  0.00     0.000 C 
HETATM   16  C15 UNL     1     -13.885   3.684   2.132  1.00  0.00     0.004 C 
HETATM   17  C16 UNL     1     -12.522   4.148   2.496  1.00  0.00    -0.017 C 
HETATM   18  C17 UNL     1     -11.759   3.022   3.179  1.00  0.00     0.010 C 
HETATM   19  C18 UNL     1     -11.748   4.594   1.289  1.00  0.00     0.029 C 
ENDBRANCH  10  12
ENDBRANCH   7   8
ENDBRANCH   4   7
BRANCH   1  20
HETATM   20  C6  UNL     1     -14.605   8.863  -5.225  1.00  0.00     0.032 A 
HETATM   21  C5  UNL     1     -14.672   8.614  -6.575  1.00  0.00     0.053 A 
HETATM   22  C4  UNL     1     -15.791   8.909  -7.315  1.00  0.00     0.036 A 
HETATM   23  C3  UNL     1     -16.869   9.472  -6.646  1.00  0.00     0.030 A 
HETATM   24 CL1  UNL     1     -15.891   8.595  -9.049  1.00  0.00    -0.084 Cl
HETATM   25  C2  UNL     1     -16.821   9.727  -5.294  1.00  0.00    -0.058 A 
HETATM   26  C1  UNL     1     -17.964  10.328  -4.566  1.00  0.00     0.048 C 
HETATM   27  C21 UNL     1     -15.683   9.418  -4.591  1.00  0.00     0.036 A 
ENDBRANCH   1  20
TORSDOF 4
ENDMDL
MODEL 5
REMARK VINA RESULT: -7.387317215      1.383      1.798
REMARK  4 active torsions:
REMARK  status: ('A' for Active; 'I' for Inactive)
REMARK    1  A    between atoms: C6_7  and  N1_8 
REMARK    2  A    between atoms: N2_11  and  C9_12 
REMARK    3  A    between atoms: C9_12  and  C10_13 
REMARK       I    between atoms: C10_13  and  N3_15 
REMARK    4  A    between atoms: N3_15  and  C11_17 
ROOT
HETATM    1  N1  UNL     1     -13.337   8.474  -4.493  1.00  0.00    -0.377 N 
HETATM    2  C7  UNL     1     -12.459   7.458  -5.011  1.00  0.00     0.153 C 
HETATM    3  C8  UNL     1     -11.121   7.582  -4.314  1.00  0.00     0.292 C 
HETATM    4  N2  UNL     1     -11.401   7.541  -2.873  1.00  0.00     0.100 N 
HETATM    5  C19 UNL     1     -11.845   8.900  -2.570  1.00  0.00     0.292 C 
HETATM    6  C20 UNL     1     -13.114   9.201  -3.281  1.00  0.00     0.153 C 
ENDROOT
BRANCH   4   7
HETATM    7  C9  UNL     1     -10.183   7.223  -2.149  1.00  0.00     0.374 C 
BRANCH   7   8
HETATM    8  C10 UNL     1     -10.461   6.906  -0.753  1.00  0.00     0.246 C 
HETATM    9  O1  UNL     1      -9.613   7.112   0.139  1.00  0.00    -0.272 OA
HETATM   10  N3  UNL     1     -11.711   6.355  -0.382  1.00  0.00    -0.355 N 
ATOM     11  H3  UNL     1     -12.404   6.185  -1.111  1.00  0.00     0.162 HD
BRANCH  10  12
HETATM   12  C11 UNL     1     -12.049   6.023   0.982  1.00  0.00     0.084 C 
HETATM   13  C12 UNL     1     -13.468   6.403   1.287  1.00  0.00     0.025 C 
HETATM   14  C13 UNL     1     -14.486   5.563   0.585  1.00  0.00     0.002 C 
HETATM   15  C14 UNL     1     -14.378   4.107   0.797  1.00  0.00     0.000 C 
HETATM   16  C15 UNL     1     -13.891   3.672   2.132  1.00  0.00     0.004 C 
HETATM   17  C16 UNL     1     -12.534   4.140   2.513  1.00  0.00    -0.017 C 
HETATM   18  C17 UNL     1     -11.780   3.018   3.212  1.00  0.00     0.010 C 
HETATM   19  C18 UNL     1     -11.744   4.582   1.315  1.00  0.00     0.029 C 
ENDBRANCH  10  12
ENDBRANCH   7   8
ENDBRANCH   4   7
BRANCH   1  20
HETATM   20  C6  UNL     1     -14.526   8.784  -5.252  1.00  0.00     0.032 A 
HETATM   21  C5  UNL     1     -15.628   9.311  -4.619  1.00  0.00     0.053 A 
HETATM   22  C4  UNL     1     -16.779   9.620  -5.300  1.00  0.00     0.036 A 
HETATM   23  C3  UNL     1     -16.797   9.381  -6.667  1.00  0.00     0.030 A 
HETATM   24 CL1  UNL     1     -18.200  10.297  -4.501  1.00  0.00    -0.084 Cl
HETATM   25  C2  UNL     1     -15.704   8.855  -7.318  1.00  0.00    -0.058 A 
HETATM   26  C1  UNL     1     -15.708   8.593  -8.777  1.00  0.00     0.048 C 
HETATM   27  C21 UNL     1     -14.571   8.559  -6.601  1.00  0.00     0.036 A 
ENDBRANCH   1  20
TORSDOF 4
ENDMDL
