MODEL 1
REMARK VINA RESULT: -4.882203220      0.000      0.000
REMARK  4 active torsions:
REMARK  status: ('A' for Active; 'I' for Inactive)
REMARK    1  A    between atoms: C2_2  and  N1_4 
REMARK    2  A    between atoms: N1_4  and  O1_6 
REMARK    3  A    between atoms: O1_6  and  C4_7 
REMARK    4  A    between atoms: C4_7  and  C6_9 
ROOT
HETATM    1  O1  UNL     1      -2.374  26.720  -9.358  1.00  0.00    -0.279 OA
ENDROOT
BRANCH   1   2
HETATM    2  N1  UNL     1      -1.748  25.582  -9.410  1.00  0.00    -0.298 N 
ATOM      3  H1  UNL     1      -2.222  24.740  -9.736  1.00  0.00     0.188 HD
BRANCH   2   4
HETATM    4  C2  UNL     1      -0.394  25.538  -9.004  1.00  0.00     0.097 C 
HETATM    5  C1  UNL     1      -0.240  24.438  -7.968  1.00  0.00     0.034 C 
HETATM    6  C3  UNL     1       0.488  25.160 -10.175  1.00  0.00     0.034 C 
ENDBRANCH   2   4
ENDBRANCH   1   2
BRANCH   1   7
HETATM    7  C4  UNL     1      -2.361  27.364 -10.579  1.00  0.00     0.151 C 
HETATM    8  C5  UNL     1      -2.889  26.457 -11.696  1.00  0.00     0.042 C 
BRANCH   7   9
HETATM    9  C6  UNL     1      -3.193  28.606 -10.607  1.00  0.00     0.017 A 
HETATM   10  C7  UNL     1      -3.932  29.039 -11.802  1.00  0.00     0.007 A 
HETATM   11  C8  UNL     1      -4.697  28.341 -10.676  1.00  0.00     0.007 A 
ENDBRANCH   7   9
ENDBRANCH   1   7
TORSDOF 4
ENDMDL
MODEL 2
REMARK VINA RESULT: -4.844024698      0.940      1.051
REMARK  4 active torsions:
REMARK  status: ('A' for Active; 'I' for Inactive)
REMARK    1  A    between atoms: C2_2  and  N1_4 
REMARK    2  A    between atoms: N1_4  and  O1_6 
REMARK    3  A    between atoms: O1_6  and  C4_7 
REMARK    4  A    between atoms: C4_7  and  C6_9 
ROOT
HETATM    1  O1  UNL     1      -2.252  27.216  -9.727  1.00  0.00    -0.279 OA
ENDROOT
BRANCH   1   2
HETATM    2  N1  UNL     1      -2.120  25.925  -9.813  1.00  0.00    -0.298 N 
ATOM      3  H1  UNL     1      -2.769  25.370 -10.372  1.00  0.00     0.188 HD
BRANCH   2   4
HETATM    4  C2  UNL     1      -1.058  25.309  -9.113  1.00  0.00     0.097 C 
HETATM    5  C1  UNL     1      -0.731  23.994  -9.800  1.00  0.00     0.034 C 
HETATM    6  C3  UNL     1       0.188  26.165  -9.198  1.00  0.00     0.034 C 
ENDBRANCH   2   4
ENDBRANCH   1   2
BRANCH   1   7
HETATM    7  C4  UNL     1      -2.744  27.755 -10.899  1.00  0.00     0.151 C 
HETATM    8  C5  UNL     1      -3.183  26.661 -11.878  1.00  0.00     0.042 C 
BRANCH   7   9
HETATM    9  C6  UNL     1      -3.927  28.646 -10.694  1.00  0.00     0.017 A 
HETATM   10  C7  UNL     1      -4.065  29.949 -11.362  1.00  0.00     0.007 A 
HETATM   11  C8  UNL     1      -4.840  28.752 -11.916  1.00  0.00     0.007 A 
ENDBRANCH   7   9
ENDBRANCH   1   7
TORSDOF 4
ENDMDL
MODEL 3
REMARK VINA RESULT: -4.757038117      1.322      1.464
REMARK  4 active torsions:
REMARK  status: ('A' for Active; 'I' for Inactive)
REMARK    1  A    between atoms: C2_2  and  N1_4 
REMARK    2  A    between atoms: N1_4  and  O1_6 
REMARK    3  A    between atoms: O1_6  and  C4_7 
REMARK    4  A    between atoms: C4_7  and  C6_9 
ROOT
HETATM    1  O1  UNL     1      -2.394  27.981 -10.035  1.00  0.00    -0.279 OA
ENDROOT
BRANCH   1   2
HETATM    2  N1  UNL     1      -2.410  26.704  -9.790  1.00  0.00    -0.298 N 
ATOM      3  H1  UNL     1      -3.281  26.230  -9.551  1.00  0.00     0.188 HD
BRANCH   2   4
HETATM    4  C2  UNL     1      -1.193  25.989  -9.862  1.00  0.00     0.097 C 
HETATM    5  C1  UNL     1      -1.092  25.092  -8.641  1.00  0.00     0.034 C 
HETATM    6  C3  UNL     1      -1.196  25.078 -11.071  1.00  0.00     0.034 C 
ENDBRANCH   2   4
ENDBRANCH   1   2
BRANCH   1   7
HETATM    7  C4  UNL     1      -3.112  28.290 -11.172  1.00  0.00     0.151 C 
HETATM    8  C5  UNL     1      -4.284  27.322 -11.376  1.00  0.00     0.042 C 
BRANCH   7   9
HETATM    9  C6  UNL     1      -3.694  29.667 -11.155  1.00  0.00     0.017 A 
HETATM   10  C7  UNL     1      -4.285  30.294 -12.346  1.00  0.00     0.007 A 
HETATM   11  C8  UNL     1      -5.217  29.696 -11.290  1.00  0.00     0.007 A 
ENDBRANCH   7   9
ENDBRANCH   1   7
TORSDOF 4
ENDMDL
MODEL 4
REMARK VINA RESULT: -4.617342194      1.141      4.636
REMARK  4 active torsions:
REMARK  status: ('A' for Active; 'I' for Inactive)
REMARK    1  A    between atoms: C2_2  and  N1_4 
REMARK    2  A    between atoms: N1_4  and  O1_6 
REMARK    3  A    between atoms: O1_6  and  C4_7 
REMARK    4  A    between atoms: C4_7  and  C6_9 
ROOT
HETATM    1  O1  UNL     1      -1.639  27.112  -9.647  1.00  0.00    -0.279 OA
ENDROOT
BRANCH   1   2
HETATM    2  N1  UNL     1      -2.849  26.692  -9.872  1.00  0.00    -0.298 N 
ATOM      3  H1  UNL     1      -3.219  25.879  -9.379  1.00  0.00     0.188 HD
BRANCH   2   4
HETATM    4  C2  UNL     1      -3.640  27.388 -10.814  1.00  0.00     0.097 C 
HETATM    5  C1  UNL     1      -3.198  28.841 -10.831  1.00  0.00     0.034 C 
HETATM    6  C3  UNL     1      -3.394  26.842 -12.205  1.00  0.00     0.034 C 
ENDBRANCH   2   4
ENDBRANCH   1   2
BRANCH   1   7
HETATM    7  C4  UNL     1      -0.712  26.104  -9.814  1.00  0.00     0.151 C 
HETATM    8  C5  UNL     1       0.639  26.476  -9.192  1.00  0.00     0.042 C 
BRANCH   7   9
HETATM    9  C6  UNL     1      -1.124  24.807  -9.197  1.00  0.00     0.017 A 
HETATM   10  C7  UNL     1      -0.333  23.575  -9.335  1.00  0.00     0.007 A 
HETATM   11  C8  UNL     1      -0.238  24.368  -8.030  1.00  0.00     0.007 A 
ENDBRANCH   7   9
ENDBRANCH   1   7
TORSDOF 4
ENDMDL
MODEL 5
REMARK VINA RESULT: -4.616005802      1.352      4.628
REMARK  4 active torsions:
REMARK  status: ('A' for Active; 'I' for Inactive)
REMARK    1  A    between atoms: C2_2  and  N1_4 
REMARK    2  A    between atoms: N1_4  and  O1_6 
REMARK    3  A    between atoms: O1_6  and  C4_7 
REMARK    4  A    between atoms: C4_7  and  C6_9 
ROOT
HETATM    1  O1  UNL     1      -2.344  27.163  -9.857  1.00  0.00    -0.279 OA
ENDROOT
BRANCH   1   2
HETATM    2  N1  UNL     1      -3.582  26.933 -10.181  1.00  0.00    -0.298 N 
ATOM      3  H1  UNL     1      -4.059  26.091  -9.859  1.00  0.00     0.188 HD
BRANCH   2   4
HETATM    4  C2  UNL     1      -4.253  27.878 -10.992  1.00  0.00     0.097 C 
HETATM    5  C1  UNL     1      -3.442  29.162 -11.002  1.00  0.00     0.034 C 
HETATM    6  C3  UNL     1      -4.311  27.388 -12.423  1.00  0.00     0.034 C 
ENDBRANCH   2   4
ENDBRANCH   1   2
BRANCH   1   7
HETATM    7  C4  UNL     1      -1.610  25.996  -9.798  1.00  0.00     0.151 C 
HETATM    8  C5  UNL     1      -1.435  25.373 -11.188  1.00  0.00     0.042 C 
BRANCH   7   9
HETATM    9  C6  UNL     1      -0.236  26.184  -9.238  1.00  0.00     0.017 A 
HETATM   10  C7  UNL     1       0.450  25.148  -8.453  1.00  0.00     0.007 A 
HETATM   11  C8  UNL     1       0.833  25.332  -9.923  1.00  0.00     0.007 A 
ENDBRANCH   7   9
ENDBRANCH   1   7
TORSDOF 4
ENDMDL
