MODEL 1
REMARK VINA RESULT: -3.692074665      0.000      0.000
REMARK  3 active torsions:
REMARK  status: ('A' for Active; 'I' for Inactive)
REMARK    1  A    between atoms: N1_2  and  C2_5 
REMARK    2  A    between atoms: C5_8  and  C6_9 
REMARK    3  A    between atoms: C6_9  and  S1_10 
ROOT
HETATM    1  C2  UNL     1      -4.064  28.403 -12.650  1.00  0.00     0.190 C 
HETATM    2  C3  UNL     1      -4.370  29.883 -12.651  1.00  0.00     0.034 C 
HETATM    3  C4  UNL     1      -4.387  29.784 -11.116  1.00  0.00     0.009 C 
HETATM    4  C5  UNL     1      -3.466  28.599 -11.303  1.00  0.00     0.025 C 
ENDROOT
BRANCH   1   5
HETATM    5  N1  UNL     1      -5.221  27.601 -12.782  1.00  0.00    -0.074 N 
HETATM    6  C1  UNL     1      -4.900  26.436 -13.580  1.00  0.00     0.267 C 
ATOM      7  H12 UNL     1      -6.014  28.122 -13.157  1.00  0.00     0.277 HD
ATOM      8  H11 UNL     1      -5.627  27.353 -11.880  1.00  0.00     0.277 HD
ENDBRANCH   1   5
BRANCH   4   9
HETATM    9  C6  UNL     1      -3.608  27.583 -10.258  1.00  0.00     0.080 C 
BRANCH   9  10
HETATM   10  S1  UNL     1      -1.978  26.868  -9.893  1.00  0.00    -0.173 SA
HETATM   11  C7  UNL     1      -1.522  25.537 -10.993  1.00  0.00     0.089 C 
ENDBRANCH   9  10
ENDBRANCH   4   9
TORSDOF 3
ENDMDL
MODEL 2
REMARK VINA RESULT: -3.682006174      1.379      1.586
REMARK  3 active torsions:
REMARK  status: ('A' for Active; 'I' for Inactive)
REMARK    1  A    between atoms: N1_2  and  C2_5 
REMARK    2  A    between atoms: C5_8  and  C6_9 
REMARK    3  A    between atoms: C6_9  and  S1_10 
ROOT
HETATM    1  C2  UNL     1      -4.948  28.808 -12.552  1.00  0.00     0.190 C 
HETATM    2  C3  UNL     1      -4.608  30.280 -12.559  1.00  0.00     0.034 C 
HETATM    3  C4  UNL     1      -3.903  30.027 -11.217  1.00  0.00     0.009 C 
HETATM    4  C5  UNL     1      -3.743  28.605 -11.706  1.00  0.00     0.025 C 
ENDROOT
BRANCH   1   5
HETATM    5  N1  UNL     1      -6.226  28.540 -12.008  1.00  0.00    -0.074 N 
HETATM    6  C1  UNL     1      -7.224  29.265 -12.766  1.00  0.00     0.267 C 
ATOM      7  H12 UNL     1      -6.273  28.743 -11.010  1.00  0.00     0.277 HD
ATOM      8  H11 UNL     1      -6.427  27.540 -11.960  1.00  0.00     0.277 HD
ENDBRANCH   1   5
BRANCH   4   9
HETATM    9  C6  UNL     1      -3.734  27.616 -10.626  1.00  0.00     0.080 C 
BRANCH   9  10
HETATM   10  S1  UNL     1      -2.355  26.461 -10.881  1.00  0.00    -0.173 SA
HETATM   11  C7  UNL     1      -1.419  26.132  -9.396  1.00  0.00     0.089 C 
ENDBRANCH   9  10
ENDBRANCH   4   9
TORSDOF 3
ENDMDL
MODEL 3
REMARK VINA RESULT: -3.633767614      2.420      3.978
REMARK  3 active torsions:
REMARK  status: ('A' for Active; 'I' for Inactive)
REMARK    1  A    between atoms: N1_2  and  C2_5 
REMARK    2  A    between atoms: C5_8  and  C6_9 
REMARK    3  A    between atoms: C6_9  and  S1_10 
ROOT
HETATM    1  C2  UNL     1      -3.385  26.700 -11.202  1.00  0.00     0.190 C 
HETATM    2  C3  UNL     1      -2.599  27.297 -10.058  1.00  0.00     0.034 C 
HETATM    3  C4  UNL     1      -2.916  28.668 -10.679  1.00  0.00     0.009 C 
HETATM    4  C5  UNL     1      -4.131  27.985 -11.268  1.00  0.00     0.025 C 
ENDROOT
BRANCH   1   5
HETATM    5  N1  UNL     1      -2.569  26.319 -12.293  1.00  0.00    -0.074 N 
HETATM    6  C1  UNL     1      -1.754  25.188 -11.900  1.00  0.00     0.267 C 
ATOM      7  H12 UNL     1      -2.011  27.095 -12.649  1.00  0.00     0.277 HD
ATOM      8  H11 UNL     1      -3.110  26.132 -13.137  1.00  0.00     0.277 HD
ENDBRANCH   1   5
BRANCH   4   9
HETATM    9  C6  UNL     1      -4.550  28.551 -12.552  1.00  0.00     0.080 C 
BRANCH   9  10
HETATM   10  S1  UNL     1      -6.318  28.962 -12.477  1.00  0.00    -0.173 SA
HETATM   11  C7  UNL     1      -6.651  30.707 -12.665  1.00  0.00     0.089 C 
ENDBRANCH   9  10
ENDBRANCH   4   9
TORSDOF 3
ENDMDL
MODEL 4
REMARK VINA RESULT: -3.608376752      3.102      5.497
REMARK  3 active torsions:
REMARK  status: ('A' for Active; 'I' for Inactive)
REMARK    1  A    between atoms: N1_2  and  C2_5 
REMARK    2  A    between atoms: C5_8  and  C6_9 
REMARK    3  A    between atoms: C6_9  and  S1_10 
ROOT
HETATM    1  C2  UNL     1      -0.699  24.329  -9.244  1.00  0.00     0.190 C 
HETATM    2  C3  UNL     1       0.403  24.910  -8.391  1.00  0.00     0.034 C 
HETATM    3  C4  UNL     1       0.200  26.214  -9.181  1.00  0.00     0.009 C 
HETATM    4  C5  UNL     1      -1.211  25.715  -9.404  1.00  0.00     0.025 C 
ENDROOT
BRANCH   1   5
HETATM    5  N1  UNL     1      -0.213  23.637 -10.378  1.00  0.00    -0.074 N 
HETATM    6  C1  UNL     1      -0.656  22.260 -10.317  1.00  0.00     0.267 C 
ATOM      7  H12 UNL     1       0.800  23.716 -10.475  1.00  0.00     0.277 HD
ATOM      8  H11 UNL     1      -0.476  24.091 -11.252  1.00  0.00     0.277 HD
ENDBRANCH   1   5
BRANCH   4   9
HETATM    9  C6  UNL     1      -1.793  26.165 -10.670  1.00  0.00     0.080 C 
BRANCH   9  10
HETATM   10  S1  UNL     1      -2.961  27.518 -10.346  1.00  0.00    -0.173 SA
HETATM   11  C7  UNL     1      -3.706  28.185 -11.826  1.00  0.00     0.089 C 
ENDBRANCH   9  10
ENDBRANCH   4   9
TORSDOF 3
ENDMDL
MODEL 5
REMARK VINA RESULT: -3.599978306      1.864      2.156
REMARK  3 active torsions:
REMARK  status: ('A' for Active; 'I' for Inactive)
REMARK    1  A    between atoms: N1_2  and  C2_5 
REMARK    2  A    between atoms: C5_8  and  C6_9 
REMARK    3  A    between atoms: C6_9  and  S1_10 
ROOT
HETATM    1  C2  UNL     1      -2.924  26.901 -11.911  1.00  0.00     0.190 C 
HETATM    2  C3  UNL     1      -3.657  28.221 -11.892  1.00  0.00     0.034 C 
HETATM    3  C4  UNL     1      -3.507  28.175 -10.362  1.00  0.00     0.009 C 
HETATM    4  C5  UNL     1      -2.294  27.311 -10.628  1.00  0.00     0.025 C 
ENDROOT
BRANCH   1   5
HETATM    5  N1  UNL     1      -3.795  25.786 -11.927  1.00  0.00    -0.074 N 
HETATM    6  C1  UNL     1      -4.446  25.714 -13.219  1.00  0.00     0.267 C 
ATOM      7  H12 UNL     1      -4.462  25.804 -11.156  1.00  0.00     0.277 HD
ATOM      8  H11 UNL     1      -3.319  24.917 -11.684  1.00  0.00     0.277 HD
ENDBRANCH   1   5
BRANCH   4   9
HETATM    9  C6  UNL     1      -2.032  26.335  -9.569  1.00  0.00     0.080 C 
BRANCH   9  10
HETATM   10  S1  UNL     1      -0.240  26.069  -9.430  1.00  0.00    -0.173 SA
HETATM   11  C7  UNL     1       0.203  24.834  -8.217  1.00  0.00     0.089 C 
ENDBRANCH   9  10
ENDBRANCH   4   9
TORSDOF 3
ENDMDL
