MODEL 1
REMARK VINA RESULT: -9.251486183      0.000      0.000
REMARK  4 active torsions:
REMARK  status: ('A' for Active; 'I' for Inactive)
REMARK    1  A    between atoms: C4_5  and  C5_6 
REMARK    2  A    between atoms: C8_9  and  C9_10 
REMARK    3  A    between atoms: C9_10  and  C10_15 
REMARK    4  A    between atoms: N2_11  and  O1_13 
ROOT
HETATM    1  C1  UNL     1      -2.131 -21.914  26.678  1.00  0.00     0.060 C 
HETATM    2  C2  UNL     1      -2.790 -20.576  26.564  1.00  0.00     0.019 C 
HETATM    3  C3  UNL     1      -4.140 -20.408  27.018  1.00  0.00     0.094 C 
HETATM    4  N1  UNL     1      -5.236 -20.288  27.412  1.00  0.00    -0.192 NA
HETATM    5  C4  UNL     1      -2.145 -19.543  26.080  1.00  0.00     0.029 C 
ENDROOT
BRANCH   5   6
HETATM    6  C5  UNL     1      -2.656 -18.198  25.910  1.00  0.00    -0.032 A 
HETATM    7  C6  UNL     1      -2.924 -17.428  27.021  1.00  0.00     0.012 A 
HETATM    8  C7  UNL     1      -3.399 -16.119  26.850  1.00  0.00     0.018 A 
HETATM    9  C8  UNL     1      -3.617 -15.545  25.640  1.00  0.00     0.032 A 
HETATM   10  C14 UNL     1      -3.337 -16.348  24.535  1.00  0.00     0.129 A 
HETATM   11  F1  UNL     1      -3.523 -15.863  23.286  1.00  0.00    -0.205 F 
HETATM   12  C15 UNL     1      -2.865 -17.647  24.679  1.00  0.00     0.054 A 
BRANCH   9  13
HETATM   13  C9  UNL     1      -4.125 -14.197  25.415  1.00  0.00     0.084 C 
HETATM   14  N2  UNL     1      -4.197 -13.853  24.161  1.00  0.00    -0.267 N 
ATOM     15  H2  UNL     1      -3.890 -14.573  23.506  1.00  0.00     0.194 HD
BRANCH  14  16
HETATM   16  O1  UNL     1      -4.595 -12.747  23.600  1.00  0.00    -0.289 OA
ATOM     17  H1  UNL     1      -4.165 -11.906  23.508  1.00  0.00     0.244 HD
ENDBRANCH  14  16
BRANCH  13  18
HETATM   18  C10 UNL     1      -4.537 -13.283  26.472  1.00  0.00     0.035 A 
HETATM   19  C11 UNL     1      -5.766 -12.721  26.676  1.00  0.00     0.023 A 
HETATM   20  C12 UNL     1      -5.898 -11.882  27.712  1.00  0.00     0.028 A 
HETATM   21  C13 UNL     1      -4.806 -11.643  28.494  1.00  0.00     0.052 A 
HETATM   22 BR1  UNL     1      -4.683 -10.499  30.035  1.00  0.00    -0.043 Br
HETATM   23  S1  UNL     1      -3.628 -12.608  27.743  1.00  0.00    -0.081 SA
ENDBRANCH  13  18
ENDBRANCH   9  13
ENDBRANCH   5   6
TORSDOF 4
ENDMDL
MODEL 2
REMARK VINA RESULT: -9.186457010      1.707      1.979
REMARK  4 active torsions:
REMARK  status: ('A' for Active; 'I' for Inactive)
REMARK    1  A    between atoms: C4_5  and  C5_6 
REMARK    2  A    between atoms: C8_9  and  C9_10 
REMARK    3  A    between atoms: C9_10  and  C10_15 
REMARK    4  A    between atoms: N2_11  and  O1_13 
ROOT
HETATM    1  C1  UNL     1      -1.191 -21.288  26.305  1.00  0.00     0.060 C 
HETATM    2  C2  UNL     1      -1.481 -19.822  26.394  1.00  0.00     0.019 C 
HETATM    3  C3  UNL     1      -0.495 -18.936  26.944  1.00  0.00     0.094 C 
HETATM    4  N1  UNL     1       0.328 -18.228  27.378  1.00  0.00    -0.192 NA
HETATM    5  C4  UNL     1      -2.610 -19.328  25.952  1.00  0.00     0.029 C 
ENDROOT
BRANCH   5   6
HETATM    6  C5  UNL     1      -3.023 -17.939  25.976  1.00  0.00    -0.032 A 
HETATM    7  C6  UNL     1      -3.314 -17.338  27.182  1.00  0.00     0.012 A 
HETATM    8  C7  UNL     1      -3.695 -15.988  27.200  1.00  0.00     0.018 A 
HETATM    9  C8  UNL     1      -3.799 -15.215  26.090  1.00  0.00     0.032 A 
HETATM   10  C14 UNL     1      -3.498 -15.850  24.886  1.00  0.00     0.129 A 
HETATM   11  F1  UNL     1      -3.573 -15.161  23.724  1.00  0.00    -0.205 F 
HETATM   12  C15 UNL     1      -3.119 -17.186  24.842  1.00  0.00     0.054 A 
BRANCH   9  13
HETATM   13  C9  UNL     1      -4.206 -13.815  26.061  1.00  0.00     0.084 C 
HETATM   14  N2  UNL     1      -4.564 -13.385  24.885  1.00  0.00    -0.267 N 
ATOM     15  H2  UNL     1      -4.513 -14.085  24.145  1.00  0.00     0.194 HD
BRANCH  14  16
HETATM   16  O1  UNL     1      -4.978 -12.215  24.494  1.00  0.00    -0.289 OA
ATOM     17  H1  UNL     1      -4.501 -11.414  24.313  1.00  0.00     0.244 HD
ENDBRANCH  14  16
BRANCH  13  18
HETATM   18  C10 UNL     1      -4.234 -12.939  27.225  1.00  0.00     0.035 A 
HETATM   19  C11 UNL     1      -3.228 -12.675  28.112  1.00  0.00     0.023 A 
HETATM   20  C12 UNL     1      -3.503 -11.846  29.128  1.00  0.00     0.028 A 
HETATM   21  C13 UNL     1      -4.759 -11.322  29.215  1.00  0.00     0.052 A 
HETATM   22 BR1  UNL     1      -5.449 -10.118  30.546  1.00  0.00    -0.043 Br
HETATM   23  S1  UNL     1      -5.513 -12.013  27.860  1.00  0.00    -0.081 SA
ENDBRANCH  13  18
ENDBRANCH   9  13
ENDBRANCH   5   6
TORSDOF 4
ENDMDL
MODEL 3
REMARK VINA RESULT: -9.019931791      1.198      1.489
REMARK  4 active torsions:
REMARK  status: ('A' for Active; 'I' for Inactive)
REMARK    1  A    between atoms: C4_5  and  C5_6 
REMARK    2  A    between atoms: C8_9  and  C9_10 
REMARK    3  A    between atoms: C9_10  and  C10_15 
REMARK    4  A    between atoms: N2_11  and  O1_13 
ROOT
HETATM    1  C1  UNL     1      -2.397 -21.136  26.132  1.00  0.00     0.060 C 
HETATM    2  C2  UNL     1      -3.005 -19.786  26.349  1.00  0.00     0.019 C 
HETATM    3  C3  UNL     1      -4.148 -19.652  27.207  1.00  0.00     0.094 C 
HETATM    4  N1  UNL     1      -5.067 -19.561  27.924  1.00  0.00    -0.192 NA
HETATM    5  C4  UNL     1      -2.495 -18.717  25.791  1.00  0.00     0.029 C 
ENDROOT
BRANCH   5   6
HETATM    6  C5  UNL     1      -2.978 -17.356  25.911  1.00  0.00    -0.032 A 
HETATM    7  C6  UNL     1      -3.140 -16.800  27.162  1.00  0.00     0.012 A 
HETATM    8  C7  UNL     1      -3.588 -15.476  27.271  1.00  0.00     0.018 A 
HETATM    9  C8  UNL     1      -3.881 -14.685  26.207  1.00  0.00     0.032 A 
HETATM   10  C14 UNL     1      -3.708 -15.274  24.956  1.00  0.00     0.129 A 
HETATM   11  F1  UNL     1      -3.973 -14.564  23.835  1.00  0.00    -0.205 F 
HETATM   12  C15 UNL     1      -3.264 -16.584  24.822  1.00  0.00     0.054 A 
BRANCH   9  13
HETATM   13  C9  UNL     1      -4.365 -13.311  26.274  1.00  0.00     0.084 C 
HETATM   14  N2  UNL     1      -4.795 -12.838  25.140  1.00  0.00    -0.267 N 
ATOM     15  H2  UNL     1      -4.735 -13.492  24.359  1.00  0.00     0.194 HD
BRANCH  14  16
HETATM   16  O1  UNL     1      -5.288 -11.673  24.832  1.00  0.00    -0.289 OA
ATOM     17  H1  UNL     1      -5.929 -11.422  24.178  1.00  0.00     0.244 HD
ENDBRANCH  14  16
BRANCH  13  18
HETATM   18  C10 UNL     1      -4.394 -12.504  27.487  1.00  0.00     0.035 A 
HETATM   19  C11 UNL     1      -3.422 -12.368  28.438  1.00  0.00     0.023 A 
HETATM   20  C12 UNL     1      -3.691 -11.581  29.488  1.00  0.00     0.028 A 
HETATM   21  C13 UNL     1      -4.908 -10.968  29.543  1.00  0.00     0.052 A 
HETATM   22 BR1  UNL     1      -5.581  -9.793  30.908  1.00  0.00    -0.043 Br
HETATM   23  S1  UNL     1      -5.635 -11.521  28.111  1.00  0.00    -0.081 SA
ENDBRANCH  13  18
ENDBRANCH   9  13
ENDBRANCH   5   6
TORSDOF 4
ENDMDL
MODEL 4
REMARK VINA RESULT: -9.018826911      1.994      2.444
REMARK  4 active torsions:
REMARK  status: ('A' for Active; 'I' for Inactive)
REMARK    1  A    between atoms: C4_5  and  C5_6 
REMARK    2  A    between atoms: C8_9  and  C9_10 
REMARK    3  A    between atoms: C9_10  and  C10_15 
REMARK    4  A    between atoms: N2_11  and  O1_13 
ROOT
HETATM    1  C1  UNL     1      -1.273 -21.234  26.499  1.00  0.00     0.060 C 
HETATM    2  C2  UNL     1      -1.539 -19.762  26.519  1.00  0.00     0.019 C 
HETATM    3  C3  UNL     1      -0.549 -18.869  27.049  1.00  0.00     0.094 C 
HETATM    4  N1  UNL     1       0.279 -18.156  27.469  1.00  0.00    -0.192 NA
HETATM    5  C4  UNL     1      -2.651 -19.268  26.035  1.00  0.00     0.029 C 
ENDROOT
BRANCH   5   6
HETATM    6  C5  UNL     1      -3.041 -17.873  25.992  1.00  0.00    -0.032 A 
HETATM    7  C6  UNL     1      -3.011 -17.197  24.791  1.00  0.00     0.012 A 
HETATM    8  C7  UNL     1      -3.409 -15.853  24.752  1.00  0.00     0.018 A 
HETATM    9  C8  UNL     1      -3.831 -15.155  25.837  1.00  0.00     0.032 A 
HETATM   10  C14 UNL     1      -3.850 -15.866  27.037  1.00  0.00     0.129 A 
HETATM   11  F1  UNL     1      -4.256 -15.255  28.174  1.00  0.00    -0.205 F 
HETATM   12  C15 UNL     1      -3.462 -17.198  27.101  1.00  0.00     0.054 A 
BRANCH   9  13
HETATM   13  C9  UNL     1      -4.236 -13.755  25.845  1.00  0.00     0.084 C 
HETATM   14  N2  UNL     1      -4.624 -13.302  24.688  1.00  0.00    -0.267 N 
ATOM     15  H2  UNL     1      -4.592 -13.988  23.933  1.00  0.00     0.194 HD
BRANCH  14  16
HETATM   16  O1  UNL     1      -5.046 -12.124  24.330  1.00  0.00    -0.289 OA
ATOM     17  H1  UNL     1      -5.250 -11.769  23.472  1.00  0.00     0.244 HD
ENDBRANCH  14  16
BRANCH  13  18
HETATM   18  C10 UNL     1      -4.234 -12.902  27.026  1.00  0.00     0.035 A 
HETATM   19  C11 UNL     1      -3.170 -12.521  27.795  1.00  0.00     0.023 A 
HETATM   20  C12 UNL     1      -3.421 -11.745  28.858  1.00  0.00     0.028 A 
HETATM   21  C13 UNL     1      -4.714 -11.384  29.104  1.00  0.00     0.052 A 
HETATM   22 BR1  UNL     1      -5.384 -10.291  30.537  1.00  0.00    -0.043 Br
HETATM   23  S1  UNL     1      -5.533 -12.152  27.830  1.00  0.00    -0.081 SA
ENDBRANCH  13  18
ENDBRANCH   9  13
ENDBRANCH   5   6
TORSDOF 4
ENDMDL
MODEL 5
REMARK VINA RESULT: -8.972255470      3.958      7.297
REMARK  4 active torsions:
REMARK  status: ('A' for Active; 'I' for Inactive)
REMARK    1  A    between atoms: C4_5  and  C5_6 
REMARK    2  A    between atoms: C8_9  and  C9_10 
REMARK    3  A    between atoms: C9_10  and  C10_15 
REMARK    4  A    between atoms: N2_11  and  O1_13 
ROOT
HETATM    1  C1  UNL     1      -5.559  -9.563  30.855  1.00  0.00     0.060 C 
HETATM    2  C2  UNL     1      -5.260 -10.708  29.940  1.00  0.00     0.019 C 
HETATM    3  C3  UNL     1      -5.646 -10.634  28.560  1.00  0.00     0.094 C 
HETATM    4  N1  UNL     1      -5.952 -10.545  27.434  1.00  0.00    -0.192 NA
HETATM    5  C4  UNL     1      -4.625 -11.770  30.370  1.00  0.00     0.029 C 
ENDROOT
BRANCH   5   6
HETATM    6  C5  UNL     1      -4.272 -12.947  29.601  1.00  0.00    -0.032 A 
HETATM    7  C6  UNL     1      -3.022 -13.032  29.026  1.00  0.00     0.012 A 
HETATM    8  C7  UNL     1      -2.679 -14.183  28.300  1.00  0.00     0.018 A 
HETATM    9  C8  UNL     1      -3.510 -15.240  28.120  1.00  0.00     0.032 A 
HETATM   10  C14 UNL     1      -4.767 -15.124  28.713  1.00  0.00     0.129 A 
HETATM   11  F1  UNL     1      -5.665 -16.129  28.589  1.00  0.00    -0.205 F 
HETATM   12  C15 UNL     1      -5.129 -13.996  29.437  1.00  0.00     0.054 A 
BRANCH   9  13
HETATM   13  C9  UNL     1      -3.203 -16.446  27.360  1.00  0.00     0.084 C 
HETATM   14  N2  UNL     1      -2.886 -17.475  28.092  1.00  0.00    -0.267 N 
ATOM     15  H2  UNL     1      -2.897 -17.299  29.097  1.00  0.00     0.194 HD
BRANCH  14  16
HETATM   16  O1  UNL     1      -2.559 -18.691  27.761  1.00  0.00    -0.289 OA
ATOM     17  H1  UNL     1      -1.920 -19.287  28.133  1.00  0.00     0.244 HD
ENDBRANCH  14  16
BRANCH  13  18
HETATM   18  C10 UNL     1      -3.243 -16.539  25.907  1.00  0.00     0.035 A 
HETATM   19  C11 UNL     1      -2.869 -17.588  25.113  1.00  0.00     0.023 A 
HETATM   20  C12 UNL     1      -2.975 -17.428  23.787  1.00  0.00     0.028 A 
HETATM   21  C13 UNL     1      -3.446 -16.238  23.314  1.00  0.00     0.052 A 
HETATM   22 BR1  UNL     1      -3.707 -15.713  21.483  1.00  0.00    -0.043 Br
HETATM   23  S1  UNL     1      -3.725 -15.383  24.755  1.00  0.00    -0.081 SA
ENDBRANCH  13  18
ENDBRANCH   9  13
ENDBRANCH   5   6
TORSDOF 4
ENDMDL
