MODEL 1
REMARK VINA RESULT: -7.900900696      0.000      0.000
REMARK  5 active torsions:
REMARK  status: ('A' for Active; 'I' for Inactive)
REMARK    1  A    between atoms: C2_2  and  C3_4 
REMARK    2  A    between atoms: C3_4  and  C4_5 
REMARK    3  A    between atoms: C4_5  and  C5_6 
REMARK    4  A    between atoms: C5_6  and  C6_7 
REMARK    5  A    between atoms: C21_24  and  O3_25 
ROOT
HETATM    1  C6  UNL     1       5.708   8.713   4.516  1.00  0.00    -0.031 C 
HETATM    2  C7  UNL     1       6.920   9.125   5.349  1.00  0.00     0.016 C 
HETATM    3  C8  UNL     1       4.516   9.000   5.402  1.00  0.00     0.010 C 
HETATM    4  C9  UNL     1       3.216   8.816   4.720  1.00  0.00     0.003 C 
HETATM    5  C10 UNL     1       3.234   8.861   3.238  1.00  0.00     0.031 C 
HETATM    6  C11 UNL     1       4.337   9.681   2.619  1.00  0.00     0.039 C 
HETATM    7  C12 UNL     1       3.786  11.120   2.554  1.00  0.00     0.039 C 
HETATM    8  C13 UNL     1       5.629   9.680   3.365  1.00  0.00     0.091 C 
HETATM    9  C14 UNL     1       6.831   9.633   2.518  1.00  0.00     0.139 C 
HETATM   10  O2  UNL     1       7.893   9.230   2.919  1.00  0.00    -0.297 OA
HETATM   11  C15 UNL     1       6.713  10.105   1.128  1.00  0.00     0.131 C 
HETATM   12  C16 UNL     1       5.518   9.449   0.532  1.00  0.00    -0.006 C 
HETATM   13  N1  UNL     1       4.449   9.270   1.241  1.00  0.00    -0.376 N 
HETATM   14  C17 UNL     1       3.374   8.625   0.541  1.00  0.00     0.134 C 
HETATM   15  C18 UNL     1       3.126   9.218  -0.833  1.00  0.00    -0.005 C 
HETATM   16  C19 UNL     1       2.595  10.619  -0.781  1.00  0.00     0.019 C 
HETATM   17  C20 UNL     1       2.041   8.357  -1.475  1.00  0.00     0.019 C 
HETATM   18  C21 UNL     1       4.354   9.129  -1.661  1.00  0.00     0.132 C 
HETATM   19  C22 UNL     1       5.627   9.028  -0.875  1.00  0.00     0.085 C 
ENDROOT
BRANCH   1  20
HETATM   20  C5  UNL     1       5.876   7.285   4.160  1.00  0.00     0.010 C 
BRANCH  20  21
HETATM   21  C4  UNL     1       6.148   6.495   5.432  1.00  0.00     0.008 C 
BRANCH  21  22
HETATM   22  C3  UNL     1       4.953   5.608   5.771  1.00  0.00     0.078 C 
BRANCH  22  23
HETATM   23  C2  UNL     1       4.777   5.685   7.241  1.00  0.00     0.123 C 
HETATM   24  C1  UNL     1       5.744   5.085   8.191  1.00  0.00     0.091 C 
HETATM   25  O1  UNL     1       3.805   6.262   7.680  1.00  0.00    -0.298 OA
ENDBRANCH  22  23
ENDBRANCH  21  22
ENDBRANCH  20  21
ENDBRANCH   1  20
BRANCH  18  26
HETATM   26  O3  UNL     1       4.447  10.327  -2.408  1.00  0.00    -0.394 OA
ATOM     27  H3  UNL     1       4.559  10.085  -3.319  1.00  0.00     0.210 HD
ENDBRANCH  18  26
TORSDOF 5
ENDMDL
MODEL 2
REMARK VINA RESULT: -6.791768243      2.610      4.241
REMARK  5 active torsions:
REMARK  status: ('A' for Active; 'I' for Inactive)
REMARK    1  A    between atoms: C2_2  and  C3_4 
REMARK    2  A    between atoms: C3_4  and  C4_5 
REMARK    3  A    between atoms: C4_5  and  C5_6 
REMARK    4  A    between atoms: C5_6  and  C6_7 
REMARK    5  A    between atoms: C21_24  and  O3_25 
ROOT
HETATM    1  C6  UNL     1       4.819   9.921   1.226  1.00  0.00    -0.031 C 
HETATM    2  C7  UNL     1       6.130   9.528   0.548  1.00  0.00     0.016 C 
HETATM    3  C8  UNL     1       5.049  11.332   1.720  1.00  0.00     0.010 C 
HETATM    4  C9  UNL     1       3.834  11.967   2.277  1.00  0.00     0.003 C 
HETATM    5  C10 UNL     1       2.534  11.388   1.860  1.00  0.00     0.031 C 
HETATM    6  C11 UNL     1       2.519  10.707   0.515  1.00  0.00     0.039 C 
HETATM    7  C12 UNL     1       2.229  11.828  -0.504  1.00  0.00     0.039 C 
HETATM    8  C13 UNL     1       3.783  10.010   0.138  1.00  0.00     0.091 C 
HETATM    9  C14 UNL     1       3.597   8.728  -0.558  1.00  0.00     0.139 C 
HETATM   10  O2  UNL     1       4.441   7.869  -0.574  1.00  0.00    -0.297 OA
HETATM   11  C15 UNL     1       2.323   8.504  -1.261  1.00  0.00     0.131 C 
HETATM   12  C16 UNL     1       1.224   8.856  -0.321  1.00  0.00    -0.006 C 
HETATM   13  N1  UNL     1       1.347   9.868   0.478  1.00  0.00    -0.376 N 
HETATM   14  C17 UNL     1       0.213  10.092   1.330  1.00  0.00     0.134 C 
HETATM   15  C18 UNL     1      -1.106  10.035   0.583  1.00  0.00    -0.005 C 
HETATM   16  C19 UNL     1      -1.284  11.167  -0.383  1.00  0.00     0.019 C 
HETATM   17  C20 UNL     1      -2.197  10.181   1.641  1.00  0.00     0.019 C 
HETATM   18  C21 UNL     1      -1.264   8.718  -0.083  1.00  0.00     0.132 C 
HETATM   19  C22 UNL     1       0.025   8.001  -0.355  1.00  0.00     0.085 C 
ENDROOT
BRANCH   1  20
HETATM   20  C5  UNL     1       4.557   8.933   2.298  1.00  0.00     0.010 C 
BRANCH  20  21
HETATM   21  C4  UNL     1       5.754   8.905   3.238  1.00  0.00     0.008 C 
BRANCH  21  22
HETATM   22  C3  UNL     1       5.288   8.940   4.691  1.00  0.00     0.078 C 
BRANCH  22  23
HETATM   23  C2  UNL     1       4.941   7.544   5.054  1.00  0.00     0.123 C 
HETATM   24  C1  UNL     1       5.943   6.452   5.060  1.00  0.00     0.091 C 
HETATM   25  O1  UNL     1       3.795   7.290   5.357  1.00  0.00    -0.298 OA
ENDBRANCH  22  23
ENDBRANCH  21  22
ENDBRANCH  20  21
ENDBRANCH   1  20
BRANCH  18  26
HETATM   26  O3  UNL     1      -1.858   8.952  -1.345  1.00  0.00    -0.394 OA
ATOM     27  H3  UNL     1      -2.238   8.132  -1.636  1.00  0.00     0.210 HD
ENDBRANCH  18  26
TORSDOF 5
ENDMDL
MODEL 3
REMARK VINA RESULT: -6.363856959      2.992      5.369
REMARK  5 active torsions:
REMARK  status: ('A' for Active; 'I' for Inactive)
REMARK    1  A    between atoms: C2_2  and  C3_4 
REMARK    2  A    between atoms: C3_4  and  C4_5 
REMARK    3  A    between atoms: C4_5  and  C5_6 
REMARK    4  A    between atoms: C5_6  and  C6_7 
REMARK    5  A    between atoms: C21_24  and  O3_25 
ROOT
HETATM    1  C6  UNL     1       4.733  10.223   0.557  1.00  0.00    -0.031 C 
HETATM    2  C7  UNL     1       5.742   9.678  -0.451  1.00  0.00     0.016 C 
HETATM    3  C8  UNL     1       5.149  11.660   0.779  1.00  0.00     0.010 C 
HETATM    4  C9  UNL     1       4.197  12.427   1.614  1.00  0.00     0.003 C 
HETATM    5  C10 UNL     1       2.818  11.892   1.706  1.00  0.00     0.031 C 
HETATM    6  C11 UNL     1       2.349  11.077   0.527  1.00  0.00     0.039 C 
HETATM    7  C12 UNL     1       1.775  12.102  -0.473  1.00  0.00     0.039 C 
HETATM    8  C13 UNL     1       3.403  10.264  -0.146  1.00  0.00     0.091 C 
HETATM    9  C14 UNL     1       2.967   8.931  -0.588  1.00  0.00     0.139 C 
HETATM   10  O2  UNL     1       3.737   8.023  -0.769  1.00  0.00    -0.297 OA
HETATM   11  C15 UNL     1       1.528   8.718  -0.816  1.00  0.00     0.131 C 
HETATM   12  C16 UNL     1       0.803   9.236   0.376  1.00  0.00    -0.006 C 
HETATM   13  N1  UNL     1       1.205  10.316   0.967  1.00  0.00    -0.376 N 
HETATM   14  C17 UNL     1       0.416  10.700   2.103  1.00  0.00     0.134 C 
HETATM   15  C18 UNL     1      -1.075  10.650   1.828  1.00  0.00    -0.005 C 
HETATM   16  C19 UNL     1      -1.525  11.684   0.841  1.00  0.00     0.019 C 
HETATM   17  C20 UNL     1      -1.760  10.976   3.153  1.00  0.00     0.019 C 
HETATM   18  C21 UNL     1      -1.476   9.284   1.409  1.00  0.00     0.132 C 
HETATM   19  C22 UNL     1      -0.365   8.462   0.828  1.00  0.00     0.085 C 
ENDROOT
BRANCH   1  20
HETATM   20  C5  UNL     1       4.806   9.371   1.767  1.00  0.00     0.010 C 
BRANCH  20  21
HETATM   21  C4  UNL     1       6.230   8.854   1.913  1.00  0.00     0.008 C 
BRANCH  21  22
HETATM   22  C3  UNL     1       6.751   9.126   3.322  1.00  0.00     0.078 C 
BRANCH  22  23
HETATM   23  C2  UNL     1       8.085   9.754   3.162  1.00  0.00     0.123 C 
HETATM   24  C1  UNL     1       8.515  10.396   1.898  1.00  0.00     0.091 C 
HETATM   25  O1  UNL     1       8.849   9.742   4.103  1.00  0.00    -0.298 OA
ENDBRANCH  22  23
ENDBRANCH  21  22
ENDBRANCH  20  21
ENDBRANCH   1  20
BRANCH  18  26
HETATM   26  O3  UNL     1      -2.440   9.423   0.384  1.00  0.00    -0.394 OA
ATOM     27  H3  UNL     1      -2.720   8.550   0.137  1.00  0.00     0.210 HD
ENDBRANCH  18  26
TORSDOF 5
ENDMDL
MODEL 4
REMARK VINA RESULT: -6.252305295      2.050      3.627
REMARK  5 active torsions:
REMARK  status: ('A' for Active; 'I' for Inactive)
REMARK    1  A    between atoms: C2_2  and  C3_4 
REMARK    2  A    between atoms: C3_4  and  C4_5 
REMARK    3  A    between atoms: C4_5  and  C5_6 
REMARK    4  A    between atoms: C5_6  and  C6_7 
REMARK    5  A    between atoms: C21_24  and  O3_25 
ROOT
HETATM    1  C6  UNL     1       4.752  10.260   1.630  1.00  0.00    -0.031 C 
HETATM    2  C7  UNL     1       6.269  10.086   1.623  1.00  0.00     0.016 C 
HETATM    3  C8  UNL     1       4.525  11.632   2.223  1.00  0.00     0.010 C 
HETATM    4  C9  UNL     1       3.111  12.069   2.175  1.00  0.00     0.003 C 
HETATM    5  C10 UNL     1       2.242  11.390   1.184  1.00  0.00     0.031 C 
HETATM    6  C11 UNL     1       2.939  10.847  -0.038  1.00  0.00     0.039 C 
HETATM    7  C12 UNL     1       2.984  12.022  -1.036  1.00  0.00     0.039 C 
HETATM    8  C13 UNL     1       4.322  10.338   0.190  1.00  0.00     0.091 C 
HETATM    9  C14 UNL     1       4.661   9.117  -0.557  1.00  0.00     0.139 C 
HETATM   10  O2  UNL     1       5.536   8.365  -0.210  1.00  0.00    -0.297 OA
HETATM   11  C15 UNL     1       3.893   8.821  -1.778  1.00  0.00     0.131 C 
HETATM   12  C16 UNL     1       2.449   8.952  -1.442  1.00  0.00    -0.006 C 
HETATM   13  N1  UNL     1       2.047   9.889  -0.643  1.00  0.00    -0.376 N 
HETATM   14  C17 UNL     1       0.631   9.898  -0.405  1.00  0.00     0.134 C 
HETATM   15  C18 UNL     1      -0.181   9.766  -1.679  1.00  0.00    -0.005 C 
HETATM   16  C19 UNL     1      -0.063  10.960  -2.578  1.00  0.00     0.019 C 
HETATM   17  C20 UNL     1      -1.642   9.683  -1.243  1.00  0.00     0.019 C 
HETATM   18  C21 UNL     1       0.174   8.511  -2.389  1.00  0.00     0.132 C 
HETATM   19  C22 UNL     1       1.535   7.975  -2.058  1.00  0.00     0.085 C 
ENDROOT
BRANCH   1  20
HETATM   20  C5  UNL     1       4.179   9.148   2.423  1.00  0.00     0.010 C 
BRANCH  20  21
HETATM   21  C4  UNL     1       5.029   8.952   3.671  1.00  0.00     0.008 C 
BRANCH  21  22
HETATM   22  C3  UNL     1       4.139   8.703   4.886  1.00  0.00     0.078 C 
BRANCH  22  23
HETATM   23  C2  UNL     1       4.356   7.291   5.283  1.00  0.00     0.123 C 
HETATM   24  C1  UNL     1       5.674   6.626   5.166  1.00  0.00     0.091 C 
HETATM   25  O1  UNL     1       3.418   6.661   5.722  1.00  0.00    -0.298 OA
ENDBRANCH  22  23
ENDBRANCH  21  22
ENDBRANCH  20  21
ENDBRANCH   1  20
BRANCH  18  26
HETATM   26  O3  UNL     1       0.191   8.799  -3.773  1.00  0.00    -0.394 OA
ATOM     27  H3  UNL     1      -0.024   7.997  -4.233  1.00  0.00     0.210 HD
ENDBRANCH  18  26
TORSDOF 5
ENDMDL
MODEL 5
REMARK VINA RESULT: -6.062758536      2.063      6.821
REMARK  5 active torsions:
REMARK  status: ('A' for Active; 'I' for Inactive)
REMARK    1  A    between atoms: C2_2  and  C3_4 
REMARK    2  A    between atoms: C3_4  and  C4_5 
REMARK    3  A    between atoms: C4_5  and  C5_6 
REMARK    4  A    between atoms: C5_6  and  C6_7 
REMARK    5  A    between atoms: C21_24  and  O3_25 
ROOT
HETATM    1  C6  UNL     1       2.866   9.858  -0.485  1.00  0.00    -0.031 C 
HETATM    2  C7  UNL     1       1.633  10.405  -1.202  1.00  0.00     0.016 C 
HETATM    3  C8  UNL     1       4.025  10.639  -1.063  1.00  0.00     0.010 C 
HETATM    4  C9  UNL     1       5.313  10.372  -0.384  1.00  0.00     0.003 C 
HETATM    5  C10 UNL     1       5.234   9.807   0.985  1.00  0.00     0.031 C 
HETATM    6  C11 UNL     1       3.990  10.148   1.766  1.00  0.00     0.039 C 
HETATM    7  C12 UNL     1       4.296  11.496   2.449  1.00  0.00     0.039 C 
HETATM    8  C13 UNL     1       2.743  10.275   0.956  1.00  0.00     0.091 C 
HETATM    9  C14 UNL     1       1.536   9.726   1.592  1.00  0.00     0.139 C 
HETATM   10  O2  UNL     1       0.569   9.381   0.962  1.00  0.00    -0.297 OA
HETATM   11  C15 UNL     1       1.525   9.603   3.059  1.00  0.00     0.131 C 
HETATM   12  C16 UNL     1       2.790   8.930   3.463  1.00  0.00    -0.006 C 
HETATM   13  N1  UNL     1       3.899   9.202   2.850  1.00  0.00    -0.376 N 
HETATM   14  C17 UNL     1       5.039   8.480   3.340  1.00  0.00     0.134 C 
HETATM   15  C18 UNL     1       5.137   8.491   4.854  1.00  0.00    -0.005 C 
HETATM   16  C19 UNL     1       5.432   9.850   5.414  1.00  0.00     0.019 C 
HETATM   17  C20 UNL     1       6.325   7.599   5.206  1.00  0.00     0.019 C 
HETATM   18  C21 UNL     1       3.911   7.907   5.454  1.00  0.00     0.132 C 
HETATM   19  C22 UNL     1       2.701   7.963   4.570  1.00  0.00     0.085 C 
ENDROOT
BRANCH   1  20
HETATM   20  C5  UNL     1       2.921   8.400  -0.741  1.00  0.00     0.010 C 
BRANCH  20  21
HETATM   21  C4  UNL     1       2.929   8.171  -2.246  1.00  0.00     0.008 C 
BRANCH  21  22
HETATM   22  C3  UNL     1       3.863   7.017  -2.602  1.00  0.00     0.078 C 
BRANCH  22  23
HETATM   23  C2  UNL     1       5.234   7.581  -2.633  1.00  0.00     0.123 C 
HETATM   24  C1  UNL     1       5.682   8.526  -3.682  1.00  0.00     0.091 C 
HETATM   25  O1  UNL     1       6.015   7.256  -1.764  1.00  0.00    -0.298 OA
ENDBRANCH  22  23
ENDBRANCH  21  22
ENDBRANCH  20  21
ENDBRANCH   1  20
BRANCH  18  26
HETATM   26  O3  UNL     1       3.596   8.674   6.600  1.00  0.00    -0.394 OA
ATOM     27  H3  UNL     1       4.337   9.241   6.774  1.00  0.00     0.210 HD
ENDBRANCH  18  26
TORSDOF 5
ENDMDL
