MODEL 1
REMARK VINA RESULT: -7.535893478      0.000      0.000
REMARK  6 active torsions:
REMARK  status: ('A' for Active; 'I' for Inactive)
REMARK    1  A    between atoms: C5_6  and  N2_7 
REMARK       I    between atoms: N2_7  and  C6_9 
REMARK    2  A    between atoms: C6_9  and  C7_11 
REMARK    3  A    between atoms: N3_13  and  C9_14 
REMARK    4  A    between atoms: C9_14  and  C10_15 
REMARK    5  A    between atoms: C10_15  and  N4_16 
REMARK    6  A    between atoms: C13_19  and  C14_20 
ROOT
HETATM    1  C1  UNL     1       5.893   4.391  10.540  1.00  0.00     0.229 C 
HETATM    2  N1  UNL     1       5.954   4.858   9.472  1.00  0.00    -0.428 NA
HETATM    3  C2  UNL     1       6.046   5.405   8.202  1.00  0.00     0.120 A 
HETATM    4  C3  UNL     1       4.919   5.503   7.414  1.00  0.00     0.050 A 
HETATM    5  C4  UNL     1       5.043   6.049   6.166  1.00  0.00     0.052 A 
HETATM    6  C5  UNL     1       6.231   6.507   5.650  1.00  0.00     0.107 A 
HETATM    7  N5  UNL     1       7.310   6.399   6.438  1.00  0.00    -0.349 N 
ATOM      8  H5  UNL     1       8.215   6.726   6.097  1.00  0.00     0.167 HD
HETATM    9  C20 UNL     1       7.220   5.862   7.685  1.00  0.00     0.134 A 
ENDROOT
BRANCH   6  10
HETATM   10  N2  UNL     1       6.292   6.996   4.502  1.00  0.00    -0.309 N 
HETATM   11  C6  UNL     1       6.277   8.319   4.066  1.00  0.00     0.259 C 
HETATM   12  O1  UNL     1       7.073   9.125   4.612  1.00  0.00    -0.267 OA
ATOM     13  H2  UNL     1       6.365   6.307   3.753  1.00  0.00     0.170 HD
BRANCH  11  14
HETATM   14  C7  UNL     1       5.370   8.808   3.000  1.00  0.00     0.055 A 
HETATM   15  C8  UNL     1       5.739   9.133   1.739  1.00  0.00     0.108 A 
HETATM   16  N3  UNL     1       4.629   9.557   1.017  1.00  0.00    -0.356 N 
HETATM   17  C13 UNL     1       3.564   9.501   1.820  1.00  0.00     0.026 A 
HETATM   18  C18 UNL     1       4.030   9.025   3.077  1.00  0.00    -0.021 A 
HETATM   19  C19 UNL     1       3.220   8.786   4.257  1.00  0.00     0.051 C 
BRANCH  16  20
HETATM   20  C9  UNL     1       4.877   9.888  -0.352  1.00  0.00     0.158 C 
BRANCH  20  21
HETATM   21  C10 UNL     1       5.553   8.668  -1.009  1.00  0.00     0.291 C 
BRANCH  21  22
HETATM   22  N4  UNL     1       4.796   8.132  -2.090  1.00  0.00     0.081 N 
HETATM   23  C11 UNL     1       5.533   7.819  -3.272  1.00  0.00     0.309 C 
HETATM   24  C12 UNL     1       3.864   7.105  -1.698  1.00  0.00     0.309 C 
ENDBRANCH  21  22
ENDBRANCH  20  21
ENDBRANCH  16  20
BRANCH  17  25
HETATM   25  C14 UNL     1       2.197   9.851   1.536  1.00  0.00    -0.008 C 
HETATM   26  C15 UNL     1       1.269   9.846   2.723  1.00  0.00     0.021 C 
HETATM   27  C16 UNL     1       2.191  11.343   1.067  1.00  0.00     0.021 C 
HETATM   28  C17 UNL     1       1.534   9.044   0.466  1.00  0.00     0.021 C 
ENDBRANCH  17  25
ENDBRANCH  11  14
ENDBRANCH   6  10
TORSDOF 6
ENDMDL
MODEL 2
REMARK VINA RESULT: -7.518449747      4.313      6.847
REMARK  6 active torsions:
REMARK  status: ('A' for Active; 'I' for Inactive)
REMARK    1  A    between atoms: C5_6  and  N2_7 
REMARK       I    between atoms: N2_7  and  C6_9 
REMARK    2  A    between atoms: C6_9  and  C7_11 
REMARK    3  A    between atoms: N3_13  and  C9_14 
REMARK    4  A    between atoms: C9_14  and  C10_15 
REMARK    5  A    between atoms: C10_15  and  N4_16 
REMARK    6  A    between atoms: C13_19  and  C14_20 
ROOT
HETATM    1  C1  UNL     1      13.345  15.038   4.949  1.00  0.00     0.229 C 
HETATM    2  N1  UNL     1      12.603  14.151   4.796  1.00  0.00    -0.428 NA
HETATM    3  C2  UNL     1      11.735  13.089   4.600  1.00  0.00     0.120 A 
HETATM    4  C3  UNL     1      10.951  12.642   5.643  1.00  0.00     0.050 A 
HETATM    5  C4  UNL     1      10.104  11.593   5.416  1.00  0.00     0.052 A 
HETATM    6  C5  UNL     1       9.988  10.955   4.205  1.00  0.00     0.107 A 
HETATM    7  N5  UNL     1      10.762  11.411   3.209  1.00  0.00    -0.349 N 
ATOM      8  H5  UNL     1      10.710  10.968   2.291  1.00  0.00     0.167 HD
HETATM    9  C20 UNL     1      11.615  12.453   3.402  1.00  0.00     0.134 A 
ENDROOT
BRANCH   6  10
HETATM   10  N2  UNL     1       9.198   9.999   4.049  1.00  0.00    -0.309 N 
HETATM   11  C6  UNL     1       8.352   9.671   2.993  1.00  0.00     0.259 C 
HETATM   12  O1  UNL     1       8.840   9.647   1.835  1.00  0.00    -0.267 OA
ATOM     13  H2  UNL     1       9.169   9.345   4.831  1.00  0.00     0.170 HD
BRANCH  11  14
HETATM   14  C7  UNL     1       6.916   9.353   3.180  1.00  0.00     0.055 A 
HETATM   15  C8  UNL     1       6.405   8.534   4.128  1.00  0.00     0.108 A 
HETATM   16  N3  UNL     1       5.023   8.466   4.000  1.00  0.00    -0.356 N 
HETATM   17  C13 UNL     1       4.662   9.238   2.972  1.00  0.00     0.026 A 
HETATM   18  C18 UNL     1       5.859   9.803   2.452  1.00  0.00    -0.021 A 
HETATM   19  C19 UNL     1       5.956  10.726   1.336  1.00  0.00     0.051 C 
BRANCH  16  20
HETATM   20  C9  UNL     1       4.354   7.665   4.977  1.00  0.00     0.158 C 
BRANCH  20  21
HETATM   21  C10 UNL     1       5.304   6.512   5.361  1.00  0.00     0.291 C 
BRANCH  21  22
HETATM   22  N4  UNL     1       4.875   5.805   6.521  1.00  0.00     0.081 N 
HETATM   23  C11 UNL     1       5.898   5.465   7.456  1.00  0.00     0.309 C 
HETATM   24  C12 UNL     1       3.688   6.347   7.130  1.00  0.00     0.309 C 
ENDBRANCH  21  22
ENDBRANCH  20  21
ENDBRANCH  16  20
BRANCH  17  25
HETATM   25  C14 UNL     1       3.346   9.480   2.441  1.00  0.00    -0.008 C 
HETATM   26  C15 UNL     1       2.206   8.959   3.277  1.00  0.00     0.021 C 
HETATM   27  C16 UNL     1       3.127  11.028   2.441  1.00  0.00     0.021 C 
HETATM   28  C17 UNL     1       3.114   8.996   1.046  1.00  0.00     0.021 C 
ENDBRANCH  17  25
ENDBRANCH  11  14
ENDBRANCH   6  10
TORSDOF 6
ENDMDL
MODEL 3
REMARK VINA RESULT: -7.256564940      1.315      2.031
REMARK  6 active torsions:
REMARK  status: ('A' for Active; 'I' for Inactive)
REMARK    1  A    between atoms: C5_6  and  N2_7 
REMARK       I    between atoms: N2_7  and  C6_9 
REMARK    2  A    between atoms: C6_9  and  C7_11 
REMARK    3  A    between atoms: N3_13  and  C9_14 
REMARK    4  A    between atoms: C9_14  and  C10_15 
REMARK    5  A    between atoms: C10_15  and  N4_16 
REMARK    6  A    between atoms: C13_19  and  C14_20 
ROOT
HETATM    1  C1  UNL     1       5.869   4.352  10.543  1.00  0.00     0.229 C 
HETATM    2  N1  UNL     1       5.932   4.832   9.481  1.00  0.00    -0.428 NA
HETATM    3  C2  UNL     1       6.026   5.395   8.218  1.00  0.00     0.120 A 
HETATM    4  C3  UNL     1       4.894   5.530   7.442  1.00  0.00     0.050 A 
HETATM    5  C4  UNL     1       5.021   6.090   6.200  1.00  0.00     0.052 A 
HETATM    6  C5  UNL     1       6.214   6.527   5.680  1.00  0.00     0.107 A 
HETATM    7  N5  UNL     1       7.298   6.383   6.457  1.00  0.00    -0.349 N 
ATOM      8  H5  UNL     1       8.207   6.694   6.113  1.00  0.00     0.167 HD
HETATM    9  C20 UNL     1       7.206   5.831   7.697  1.00  0.00     0.134 A 
ENDROOT
BRANCH   6  10
HETATM   10  N2  UNL     1       6.277   7.031   4.538  1.00  0.00    -0.309 N 
HETATM   11  C6  UNL     1       6.296   8.360   4.121  1.00  0.00     0.259 C 
HETATM   12  O1  UNL     1       7.121   9.135   4.669  1.00  0.00    -0.267 OA
ATOM     13  H2  UNL     1       6.323   6.351   3.779  1.00  0.00     0.170 HD
BRANCH  11  14
HETATM   14  C7  UNL     1       5.393   8.889   3.072  1.00  0.00     0.055 A 
HETATM   15  C8  UNL     1       5.773   9.319   1.847  1.00  0.00     0.108 A 
HETATM   16  N3  UNL     1       4.662   9.751   1.132  1.00  0.00    -0.356 N 
HETATM   17  C13 UNL     1       3.584   9.597   1.904  1.00  0.00     0.026 A 
HETATM   18  C18 UNL     1       4.043   9.049   3.133  1.00  0.00    -0.021 A 
HETATM   19  C19 UNL     1       3.220   8.694   4.274  1.00  0.00     0.051 C 
BRANCH  16  20
HETATM   20  C9  UNL     1       4.924  10.190  -0.204  1.00  0.00     0.158 C 
BRANCH  20  21
HETATM   21  C10 UNL     1       6.375  10.712  -0.245  1.00  0.00     0.291 C 
BRANCH  21  22
HETATM   22  N4  UNL     1       6.473  12.037  -0.760  1.00  0.00     0.081 N 
HETATM   23  C11 UNL     1       5.513  12.970  -0.266  1.00  0.00     0.309 C 
HETATM   24  C12 UNL     1       7.818  12.551  -0.796  1.00  0.00     0.309 C 
ENDBRANCH  21  22
ENDBRANCH  20  21
ENDBRANCH  16  20
BRANCH  17  25
HETATM   25  C14 UNL     1       2.211   9.914   1.614  1.00  0.00    -0.008 C 
HETATM   26  C15 UNL     1       1.272   9.857   2.791  1.00  0.00     0.021 C 
HETATM   27  C16 UNL     1       2.166  11.415   1.177  1.00  0.00     0.021 C 
HETATM   28  C17 UNL     1       1.581   9.112   0.520  1.00  0.00     0.021 C 
ENDBRANCH  17  25
ENDBRANCH  11  14
ENDBRANCH   6  10
TORSDOF 6
ENDMDL
MODEL 4
REMARK VINA RESULT: -7.123084948      1.491      3.179
REMARK  6 active torsions:
REMARK  status: ('A' for Active; 'I' for Inactive)
REMARK    1  A    between atoms: C5_6  and  N2_7 
REMARK       I    between atoms: N2_7  and  C6_9 
REMARK    2  A    between atoms: C6_9  and  C7_11 
REMARK    3  A    between atoms: N3_13  and  C9_14 
REMARK    4  A    between atoms: C9_14  and  C10_15 
REMARK    5  A    between atoms: C10_15  and  N4_16 
REMARK    6  A    between atoms: C13_19  and  C14_20 
ROOT
HETATM    1  C1  UNL     1       5.907   4.388  10.452  1.00  0.00     0.229 C 
HETATM    2  N1  UNL     1       5.939   4.877   9.393  1.00  0.00    -0.428 NA
HETATM    3  C2  UNL     1       5.996   5.450   8.132  1.00  0.00     0.120 A 
HETATM    4  C3  UNL     1       4.835   5.649   7.416  1.00  0.00     0.050 A 
HETATM    5  C4  UNL     1       4.925   6.218   6.175  1.00  0.00     0.052 A 
HETATM    6  C5  UNL     1       6.111   6.603   5.599  1.00  0.00     0.107 A 
HETATM    7  N5  UNL     1       7.224   6.398   6.318  1.00  0.00    -0.349 N 
ATOM      8  H5  UNL     1       8.128   6.669   5.931  1.00  0.00     0.167 HD
HETATM    9  C20 UNL     1       7.168   5.835   7.556  1.00  0.00     0.134 A 
ENDROOT
BRANCH   6  10
HETATM   10  N2  UNL     1       6.140   7.118   4.461  1.00  0.00    -0.309 N 
HETATM   11  C6  UNL     1       6.253   8.446   4.056  1.00  0.00     0.259 C 
HETATM   12  O1  UNL     1       7.183   9.133   4.551  1.00  0.00    -0.267 OA
ATOM     13  H2  UNL     1       6.069   6.449   3.694  1.00  0.00     0.170 HD
BRANCH  11  14
HETATM   14  C7  UNL     1       5.331   9.073   3.079  1.00  0.00     0.055 A 
HETATM   15  C8  UNL     1       4.054   9.446   3.326  1.00  0.00     0.108 A 
HETATM   16  N3  UNL     1       3.492   9.992   2.179  1.00  0.00    -0.356 N 
HETATM   17  C13 UNL     1       4.410   9.964   1.210  1.00  0.00     0.026 A 
HETATM   18  C18 UNL     1       5.577   9.384   1.778  1.00  0.00    -0.021 A 
HETATM   19  C19 UNL     1       6.842   9.165   1.102  1.00  0.00     0.051 C 
BRANCH  16  20
HETATM   20  C9  UNL     1       2.151  10.471   2.320  1.00  0.00     0.158 C 
BRANCH  20  21
HETATM   21  C10 UNL     1       1.204   9.291   2.021  1.00  0.00     0.291 C 
BRANCH  21  22
HETATM   22  N4  UNL     1       0.383   9.515   0.879  1.00  0.00     0.081 N 
HETATM   23  C11 UNL     1      -0.695   8.599   0.696  1.00  0.00     0.309 C 
HETATM   24  C12 UNL     1       0.011  10.894   0.690  1.00  0.00     0.309 C 
ENDBRANCH  21  22
ENDBRANCH  20  21
ENDBRANCH  16  20
BRANCH  17  25
HETATM   25  C14 UNL     1       4.298  10.403  -0.156  1.00  0.00    -0.008 C 
HETATM   26  C15 UNL     1       5.604  10.574  -0.888  1.00  0.00     0.021 C 
HETATM   27  C16 UNL     1       3.575   9.266  -0.949  1.00  0.00     0.021 C 
HETATM   28  C17 UNL     1       3.518  11.661  -0.367  1.00  0.00     0.021 C 
ENDBRANCH  17  25
ENDBRANCH  11  14
ENDBRANCH   6  10
TORSDOF 6
ENDMDL
MODEL 5
REMARK VINA RESULT: -6.921663780      3.634      8.670
REMARK  6 active torsions:
REMARK  status: ('A' for Active; 'I' for Inactive)
REMARK    1  A    between atoms: C5_6  and  N2_7 
REMARK       I    between atoms: N2_7  and  C6_9 
REMARK    2  A    between atoms: C6_9  and  C7_11 
REMARK    3  A    between atoms: N3_13  and  C9_14 
REMARK    4  A    between atoms: C9_14  and  C10_15 
REMARK    5  A    between atoms: C10_15  and  N4_16 
REMARK    6  A    between atoms: C13_19  and  C14_20 
ROOT
HETATM    1  C1  UNL     1      -4.097   8.874  -3.838  1.00  0.00     0.229 C 
HETATM    2  N1  UNL     1      -3.373   8.821  -2.925  1.00  0.00    -0.428 NA
HETATM    3  C2  UNL     1      -2.529   8.761  -1.828  1.00  0.00     0.120 A 
HETATM    4  C3  UNL     1      -1.368   8.020  -1.895  1.00  0.00     0.050 A 
HETATM    5  C4  UNL     1      -0.556   7.982  -0.795  1.00  0.00     0.052 A 
HETATM    6  C5  UNL     1      -0.831   8.641   0.378  1.00  0.00     0.107 A 
HETATM    7  N5  UNL     1      -1.967   9.354   0.415  1.00  0.00    -0.349 N 
ATOM      8  H5  UNL     1      -2.213   9.861   1.266  1.00  0.00     0.167 HD
HETATM    9  C20 UNL     1      -2.796   9.413  -0.662  1.00  0.00     0.134 A 
ENDROOT
BRANCH   6  10
HETATM   10  N2  UNL     1      -0.056   8.573   1.356  1.00  0.00    -0.309 N 
HETATM   11  C6  UNL     1       0.689   9.554   2.006  1.00  0.00     0.259 C 
HETATM   12  O1  UNL     1       0.094  10.603   2.363  1.00  0.00    -0.267 OA
ATOM     13  H2  UNL     1       0.048   7.637   1.746  1.00  0.00     0.170 HD
BRANCH  11  14
HETATM   14  C7  UNL     1       2.137   9.411   2.289  1.00  0.00     0.055 A 
HETATM   15  C8  UNL     1       2.677   9.030   3.470  1.00  0.00     0.108 A 
HETATM   16  N3  UNL     1       4.063   9.013   3.372  1.00  0.00    -0.356 N 
HETATM   17  C13 UNL     1       4.398   9.384   2.134  1.00  0.00     0.026 A 
HETATM   18  C18 UNL     1       3.180   9.635   1.445  1.00  0.00    -0.021 A 
HETATM   19  C19 UNL     1       3.048  10.048   0.060  1.00  0.00     0.051 C 
BRANCH  16  20
HETATM   20  C9  UNL     1       4.757   8.580   4.546  1.00  0.00     0.158 C 
BRANCH  20  21
HETATM   21  C10 UNL     1       3.810   7.644   5.324  1.00  0.00     0.291 C 
BRANCH  21  22
HETATM   22  N4  UNL     1       4.430   6.419   5.703  1.00  0.00     0.081 N 
HETATM   23  C11 UNL     1       5.774   6.238   5.259  1.00  0.00     0.309 C 
HETATM   24  C12 UNL     1       4.221   6.061   7.083  1.00  0.00     0.309 C 
ENDBRANCH  21  22
ENDBRANCH  20  21
ENDBRANCH  16  20
BRANCH  17  25
HETATM   25  C14 UNL     1       5.708   9.532   1.557  1.00  0.00    -0.008 C 
HETATM   26  C15 UNL     1       5.933   8.789   0.265  1.00  0.00     0.021 C 
HETATM   27  C16 UNL     1       5.868  11.034   1.153  1.00  0.00     0.021 C 
HETATM   28  C17 UNL     1       6.852   9.187   2.457  1.00  0.00     0.021 C 
ENDBRANCH  17  25
ENDBRANCH  11  14
ENDBRANCH   6  10
TORSDOF 6
ENDMDL
