MODEL 1
REMARK VINA RESULT: -6.793494985      0.000      0.000
REMARK  4 active torsions:
REMARK  status: ('A' for Active; 'I' for Inactive)
REMARK    1  A    between atoms: N1_2  and  C2_5 
REMARK    2  A    between atoms: C2_5  and  C3_6 
REMARK    3  A    between atoms: N2_19  and  C16_20 
REMARK    4  A    between atoms: C16_20  and  C17_21 
ROOT
HETATM    1  C3  UNL     1       0.397   9.287   0.247  1.00  0.00     0.024 C 
HETATM    2  C4  UNL     1       1.753   8.734   0.192  1.00  0.00    -0.001 C 
HETATM    3  C5  UNL     1       1.373   8.136  -1.178  1.00  0.00     0.015 C 
HETATM    4  C6  UNL     1       0.225   9.075  -1.218  1.00  0.00    -0.038 C 
HETATM    5  C7  UNL     1      -1.033   8.342  -1.658  1.00  0.00     0.015 C 
HETATM    6  C8  UNL     1       0.386  10.312  -2.020  1.00  0.00     0.010 C 
HETATM    7  C9  UNL     1       1.718  10.968  -2.046  1.00  0.00     0.002 C 
HETATM    8  C10 UNL     1       2.117  11.738  -0.831  1.00  0.00     0.010 C 
HETATM    9  C11 UNL     1       2.891  11.002   0.203  1.00  0.00    -0.033 C 
HETATM   10  C12 UNL     1       4.386  11.310  -0.060  1.00  0.00     0.012 C 
HETATM   11  C13 UNL     1       5.144  10.107   0.419  1.00  0.00     0.037 C 
HETATM   12  C14 UNL     1       4.102   9.190   1.006  1.00  0.00     0.228 C 
HETATM   13  C15 UNL     1       2.937   9.526   0.057  1.00  0.00     0.032 C 
HETATM   14  N2  UNL     1       3.807   9.479   2.362  1.00  0.00     0.093 N 
HETATM   15  C22 UNL     1       3.717  10.929   2.563  1.00  0.00     0.273 C 
HETATM   16  C23 UNL     1       2.689  11.473   1.614  1.00  0.00     0.040 C 
ENDROOT
BRANCH  14  17
HETATM   17  C16 UNL     1       5.014   9.109   3.128  1.00  0.00     0.277 C 
BRANCH  17  18
HETATM   18  C17 UNL     1       4.732   8.990   4.607  1.00  0.00     0.018 C 
HETATM   19  C18 UNL     1       5.910   8.276   5.232  1.00  0.00     0.032 C 
HETATM   20  C19 UNL     1       5.889   6.827   4.897  1.00  0.00     0.168 C 
HETATM   21  O1  UNL     1       4.865   6.238   5.647  1.00  0.00    -0.391 OA
HETATM   22  C20 UNL     1       3.842   7.118   5.933  1.00  0.00     0.168 C 
HETATM   23  C21 UNL     1       3.534   8.072   4.807  1.00  0.00     0.032 C 
ENDBRANCH  17  18
ENDBRANCH  14  17
BRANCH   1  24
HETATM   24  C2  UNL     1      -0.572   8.461   1.077  1.00  0.00     0.237 C 
BRANCH  24  25
HETATM   25  N1  UNL     1      -1.460   9.299   1.832  1.00  0.00    -0.079 N 
HETATM   26  C1  UNL     1      -0.977  10.641   1.979  1.00  0.00     0.267 C 
ATOM     27  H12 UNL     1      -1.665   8.885   2.741  1.00  0.00     0.276 HD
ATOM     28  H11 UNL     1      -2.398   9.292   1.429  1.00  0.00     0.276 HD
ENDBRANCH  24  25
ENDBRANCH   1  24
TORSDOF 4
ENDMDL
MODEL 2
REMARK VINA RESULT: -6.744221434      1.377      2.070
REMARK  4 active torsions:
REMARK  status: ('A' for Active; 'I' for Inactive)
REMARK    1  A    between atoms: N1_2  and  C2_5 
REMARK    2  A    between atoms: C2_5  and  C3_6 
REMARK    3  A    between atoms: N2_19  and  C16_20 
REMARK    4  A    between atoms: C16_20  and  C17_21 
ROOT
HETATM    1  C3  UNL     1       2.154   9.458   0.033  1.00  0.00     0.024 C 
HETATM    2  C4  UNL     1       3.337   8.725   0.492  1.00  0.00    -0.001 C 
HETATM    3  C5  UNL     1       3.395   8.090  -0.912  1.00  0.00     0.015 C 
HETATM    4  C6  UNL     1       2.496   9.169  -1.388  1.00  0.00    -0.038 C 
HETATM    5  C7  UNL     1       1.388   8.583  -2.250  1.00  0.00     0.015 C 
HETATM    6  C8  UNL     1       3.121  10.314  -2.093  1.00  0.00     0.010 C 
HETATM    7  C9  UNL     1       4.454  10.781  -1.635  1.00  0.00     0.002 C 
HETATM    8  C10 UNL     1       4.496  11.574  -0.371  1.00  0.00     0.010 C 
HETATM    9  C11 UNL     1       4.722  10.815   0.886  1.00  0.00    -0.033 C 
HETATM   10  C12 UNL     1       6.239  10.899   1.190  1.00  0.00     0.012 C 
HETATM   11  C13 UNL     1       6.580   9.642   1.934  1.00  0.00     0.037 C 
HETATM   12  C14 UNL     1       5.271   8.917   2.109  1.00  0.00     0.228 C 
HETATM   13  C15 UNL     1       4.595   9.339   0.791  1.00  0.00     0.032 C 
HETATM   14  N2  UNL     1       4.551   9.337   3.255  1.00  0.00     0.093 N 
HETATM   15  C22 UNL     1       4.614  10.797   3.386  1.00  0.00     0.273 C 
HETATM   16  C23 UNL     1       4.095  11.406   2.116  1.00  0.00     0.040 C 
ENDROOT
BRANCH  14  17
HETATM   17  C16 UNL     1       5.327   8.863   4.418  1.00  0.00     0.277 C 
BRANCH  17  18
HETATM   18  C17 UNL     1       5.118   7.389   4.676  1.00  0.00     0.018 C 
HETATM   19  C18 UNL     1       3.723   7.226   5.239  1.00  0.00     0.032 C 
HETATM   20  C19 UNL     1       3.666   7.696   6.649  1.00  0.00     0.168 C 
HETATM   21  O1  UNL     1       4.323   6.743   7.436  1.00  0.00    -0.391 OA
HETATM   22  C20 UNL     1       5.308   6.070   6.744  1.00  0.00     0.168 C 
HETATM   23  C21 UNL     1       6.068   6.941   5.777  1.00  0.00     0.032 C 
ENDBRANCH  17  18
ENDBRANCH  14  17
BRANCH   1  24
HETATM   24  C2  UNL     1       0.837   8.830   0.459  1.00  0.00     0.237 C 
BRANCH  24  25
HETATM   25  N1  UNL     1       0.594   9.025   1.861  1.00  0.00    -0.079 N 
HETATM   26  C1  UNL     1       0.384  10.400   2.209  1.00  0.00     0.267 C 
ATOM     27  H12 UNL     1       1.345   8.619   2.420  1.00  0.00     0.276 HD
ATOM     28  H11 UNL     1      -0.184   8.446   2.179  1.00  0.00     0.276 HD
ENDBRANCH  24  25
ENDBRANCH   1  24
TORSDOF 4
ENDMDL
MODEL 3
REMARK VINA RESULT: -6.731815469      1.169      1.395
REMARK  4 active torsions:
REMARK  status: ('A' for Active; 'I' for Inactive)
REMARK    1  A    between atoms: N1_2  and  C2_5 
REMARK    2  A    between atoms: C2_5  and  C3_6 
REMARK    3  A    between atoms: N2_19  and  C16_20 
REMARK    4  A    between atoms: C16_20  and  C17_21 
ROOT
HETATM    1  C3  UNL     1       1.835   9.421  -0.112  1.00  0.00     0.024 C 
HETATM    2  C4  UNL     1       3.114   8.727   0.063  1.00  0.00    -0.001 C 
HETATM    3  C5  UNL     1       2.893   8.124  -1.339  1.00  0.00     0.015 C 
HETATM    4  C6  UNL     1       1.876   9.177  -1.582  1.00  0.00    -0.038 C 
HETATM    5  C7  UNL     1       0.632   8.566  -2.207  1.00  0.00     0.015 C 
HETATM    6  C8  UNL     1       2.298  10.361  -2.369  1.00  0.00     0.010 C 
HETATM    7  C9  UNL     1       3.681  10.871  -2.191  1.00  0.00     0.002 C 
HETATM    8  C10 UNL     1       3.963  11.638  -0.942  1.00  0.00     0.010 C 
HETATM    9  C11 UNL     1       4.478  10.861   0.216  1.00  0.00    -0.033 C 
HETATM   10  C12 UNL     1       6.021  11.000   0.194  1.00  0.00     0.012 C 
HETATM   11  C13 UNL     1       6.556   9.741   0.811  1.00  0.00     0.037 C 
HETATM   12  C14 UNL     1       5.340   8.961   1.238  1.00  0.00     0.228 C 
HETATM   13  C15 UNL     1       4.384   9.384   0.107  1.00  0.00     0.032 C 
HETATM   14  N2  UNL     1       4.866   9.327   2.523  1.00  0.00     0.093 N 
HETATM   15  C22 UNL     1       4.905  10.785   2.680  1.00  0.00     0.273 C 
HETATM   16  C23 UNL     1       4.107  11.400   1.568  1.00  0.00     0.040 C 
ENDROOT
BRANCH  14  17
HETATM   17  C16 UNL     1       5.888   8.860   3.481  1.00  0.00     0.277 C 
BRANCH  17  18
HETATM   18  C17 UNL     1       5.320   8.670   4.868  1.00  0.00     0.018 C 
HETATM   19  C18 UNL     1       6.198   7.664   5.578  1.00  0.00     0.032 C 
HETATM   20  C19 UNL     1       5.953   6.291   5.061  1.00  0.00     0.168 C 
HETATM   21  O1  UNL     1       4.712   5.872   5.555  1.00  0.00    -0.391 OA
HETATM   22  C20 UNL     1       3.849   6.923   5.782  1.00  0.00     0.168 C 
HETATM   23  C21 UNL     1       3.948   8.020   4.753  1.00  0.00     0.032 C 
ENDBRANCH  17  18
ENDBRANCH  14  17
BRANCH   1  24
HETATM   24  C2  UNL     1       0.662   8.732   0.564  1.00  0.00     0.237 C 
BRANCH  24  25
HETATM   25  N1  UNL     1       0.579   9.085   1.953  1.00  0.00    -0.079 N 
HETATM   26  C1  UNL     1       0.479  10.499   2.169  1.00  0.00     0.267 C 
ATOM     27  H12 UNL     1       1.362   8.692   2.476  1.00  0.00     0.276 HD
ATOM     28  H11 UNL     1      -0.190   8.593   2.409  1.00  0.00     0.276 HD
ENDBRANCH  24  25
ENDBRANCH   1  24
TORSDOF 4
ENDMDL
MODEL 4
REMARK VINA RESULT: -6.685948040      1.681      2.720
REMARK  4 active torsions:
REMARK  status: ('A' for Active; 'I' for Inactive)
REMARK    1  A    between atoms: N1_2  and  C2_5 
REMARK    2  A    between atoms: C2_5  and  C3_6 
REMARK    3  A    between atoms: N2_19  and  C16_20 
REMARK    4  A    between atoms: C16_20  and  C17_21 
ROOT
HETATM    1  C3  UNL     1       3.086   9.301  -0.779  1.00  0.00     0.024 C 
HETATM    2  C4  UNL     1       4.060   8.585   0.050  1.00  0.00    -0.001 C 
HETATM    3  C5  UNL     1       4.421   7.772  -1.210  1.00  0.00     0.015 C 
HETATM    4  C6  UNL     1       3.753   8.818  -2.022  1.00  0.00    -0.038 C 
HETATM    5  C7  UNL     1       2.857   8.173  -3.068  1.00  0.00     0.015 C 
HETATM    6  C8  UNL     1       4.617   9.836  -2.667  1.00  0.00     0.010 C 
HETATM    7  C9  UNL     1       5.823  10.302  -1.936  1.00  0.00     0.002 C 
HETATM    8  C10 UNL     1       5.604  11.248  -0.803  1.00  0.00     0.010 C 
HETATM    9  C11 UNL     1       5.450  10.648   0.548  1.00  0.00    -0.033 C 
HETATM   10  C12 UNL     1       6.845  10.707   1.221  1.00  0.00     0.012 C 
HETATM   11  C13 UNL     1       6.895   9.543   2.166  1.00  0.00     0.037 C 
HETATM   12  C14 UNL     1       5.534   8.902   2.078  1.00  0.00     0.228 C 
HETATM   13  C15 UNL     1       5.243   9.180   0.592  1.00  0.00     0.032 C 
HETATM   14  N2  UNL     1       4.582   9.496   2.945  1.00  0.00     0.093 N 
HETATM   15  C22 UNL     1       4.717  10.957   2.920  1.00  0.00     0.273 C 
HETATM   16  C23 UNL     1       4.580  11.418   1.498  1.00  0.00     0.040 C 
ENDROOT
BRANCH  14  17
HETATM   17  C16 UNL     1       5.005   9.144   4.315  1.00  0.00     0.277 C 
BRANCH  17  18
HETATM   18  C17 UNL     1       4.926   7.656   4.566  1.00  0.00     0.018 C 
HETATM   19  C18 UNL     1       3.591   7.382   5.221  1.00  0.00     0.032 C 
HETATM   20  C19 UNL     1       3.596   7.834   6.639  1.00  0.00     0.168 C 
HETATM   21  O1  UNL     1       4.377   6.928   7.365  1.00  0.00    -0.391 OA
HETATM   22  C20 UNL     1       5.360   6.339   6.598  1.00  0.00     0.168 C 
HETATM   23  C21 UNL     1       5.982   7.274   5.593  1.00  0.00     0.032 C 
ENDBRANCH  17  18
ENDBRANCH  14  17
BRANCH   1  24
HETATM   24  C2  UNL     1       1.663   8.789  -0.639  1.00  0.00     0.237 C 
BRANCH  24  25
HETATM   25  N1  UNL     1       1.186   8.931   0.708  1.00  0.00    -0.079 N 
HETATM   26  C1  UNL     1      -0.238   8.804   0.816  1.00  0.00     0.267 C 
ATOM     27  H12 UNL     1       1.505   9.810   1.115  1.00  0.00     0.276 HD
ATOM     28  H11 UNL     1       1.659   8.277   1.332  1.00  0.00     0.276 HD
ENDBRANCH  24  25
ENDBRANCH   1  24
TORSDOF 4
ENDMDL
MODEL 5
REMARK VINA RESULT: -6.465803249      2.178      3.205
REMARK  4 active torsions:
REMARK  status: ('A' for Active; 'I' for Inactive)
REMARK    1  A    between atoms: N1_2  and  C2_5 
REMARK    2  A    between atoms: C2_5  and  C3_6 
REMARK    3  A    between atoms: N2_19  and  C16_20 
REMARK    4  A    between atoms: C16_20  and  C17_21 
ROOT
HETATM    1  C3  UNL     1       3.624   8.840  -1.567  1.00  0.00     0.024 C 
HETATM    2  C4  UNL     1       4.644   8.427  -0.599  1.00  0.00    -0.001 C 
HETATM    3  C5  UNL     1       5.273   7.593  -1.734  1.00  0.00     0.015 C 
HETATM    4  C6  UNL     1       4.482   8.392  -2.700  1.00  0.00    -0.038 C 
HETATM    5  C7  UNL     1       3.833   7.477  -3.726  1.00  0.00     0.015 C 
HETATM    6  C8  UNL     1       5.177   9.503  -3.394  1.00  0.00     0.010 C 
HETATM    7  C9  UNL     1       6.194  10.280  -2.640  1.00  0.00     0.002 C 
HETATM    8  C10 UNL     1       5.687  11.262  -1.637  1.00  0.00     0.010 C 
HETATM    9  C11 UNL     1       5.538  10.774  -0.241  1.00  0.00    -0.033 C 
HETATM   10  C12 UNL     1       6.826  11.190   0.514  1.00  0.00     0.012 C 
HETATM   11  C13 UNL     1       7.026  10.157   1.584  1.00  0.00     0.037 C 
HETATM   12  C14 UNL     1       5.837   9.239   1.476  1.00  0.00     0.228 C 
HETATM   13  C15 UNL     1       5.629   9.306  -0.048  1.00  0.00     0.032 C 
HETATM   14  N2  UNL     1       4.711   9.698   2.205  1.00  0.00     0.093 N 
HETATM   15  C22 UNL     1       4.549  11.145   2.027  1.00  0.00     0.273 C 
HETATM   16  C23 UNL     1       4.449  11.431   0.557  1.00  0.00     0.040 C 
ENDROOT
BRANCH  14  17
HETATM   17  C16 UNL     1       5.072   9.574   3.631  1.00  0.00     0.277 C 
BRANCH  17  18
HETATM   18  C17 UNL     1       4.601   8.266   4.222  1.00  0.00     0.018 C 
HETATM   19  C18 UNL     1       3.119   8.153   3.938  1.00  0.00     0.032 C 
HETATM   20  C19 UNL     1       2.342   9.071   4.813  1.00  0.00     0.168 C 
HETATM   21  O1  UNL     1       2.350   8.527   6.103  1.00  0.00    -0.391 OA
HETATM   22  C20 UNL     1       3.477   7.771   6.354  1.00  0.00     0.168 C 
HETATM   23  C21 UNL     1       4.731   8.334   5.737  1.00  0.00     0.032 C 
ENDBRANCH  17  18
ENDBRANCH  14  17
BRANCH   1  24
HETATM   24  C2  UNL     1       2.327   8.056  -1.467  1.00  0.00     0.237 C 
BRANCH  24  25
HETATM   25  N1  UNL     1       1.245   8.887  -1.019  1.00  0.00    -0.079 N 
HETATM   26  C1  UNL     1       1.119   8.925   0.408  1.00  0.00     0.267 C 
ATOM     27  H12 UNL     1       0.367   8.606  -1.455  1.00  0.00     0.276 HD
ATOM     28  H11 UNL     1       1.328   9.829  -1.402  1.00  0.00     0.276 HD
ENDBRANCH  24  25
ENDBRANCH   1  24
TORSDOF 4
ENDMDL
