MODEL 1
REMARK VINA RESULT: -7.897471170      0.000      0.000
REMARK  7 active torsions:
REMARK  status: ('A' for Active; 'I' for Inactive)
REMARK    1  A    between atoms: O1_2  and  C2_3 
REMARK    2  A    between atoms: C2_3  and  C3_4 
REMARK    3  A    between atoms: C5_6  and  C6_7 
REMARK       I    between atoms: C6_7  and  N1_9 
REMARK    4  A    between atoms: N1_9  and  C7_11 
REMARK       I    between atoms: N3_16  and  C11_17 
REMARK    5  A    between atoms: C11_17  and  C12_19 
REMARK       I    between atoms: N4_24  and  C17_25 
REMARK       I    between atoms: C17_25  and  N5_27 
REMARK    6  A    between atoms: C22_34  and  C23_35 
REMARK    7  A    between atoms: C26_38  and  C27_39 
ROOT
HETATM    1  C7  UNL     1       2.253   0.710  -9.103  1.00  0.00     0.122 A 
HETATM    2  C8  UNL     1       1.026   0.806  -8.302  1.00  0.00     0.091 C 
HETATM    3  N2  UNL     1       0.055   0.896  -7.673  1.00  0.00    -0.195 NA
HETATM    4  C9  UNL     1       3.014   1.961  -9.419  1.00  0.00     0.050 A 
HETATM    5  C10 UNL     1       2.201   1.327 -10.480  1.00  0.00     0.050 A 
ENDROOT
BRANCH   1   6
HETATM    6  N1  UNL     1       2.989  -0.504  -8.882  1.00  0.00    -0.337 N 
HETATM    7  C6  UNL     1       3.931  -0.595  -7.845  1.00  0.00     0.242 C 
HETATM    8  O2  UNL     1       4.122   0.402  -7.110  1.00  0.00    -0.271 OA
ATOM      9  H1  UNL     1       2.824  -1.309  -9.486  1.00  0.00     0.164 HD
BRANCH   7  10
HETATM   10  C5  UNL     1       4.694  -1.865  -7.623  1.00  0.00     0.179 C 
HETATM   11  C4  UNL     1       4.038  -2.555  -6.456  1.00  0.00     0.043 C 
HETATM   12  C3  UNL     1       2.994  -3.420  -7.127  1.00  0.00     0.030 C 
HETATM   13  C29 UNL     1       3.792  -3.942  -8.315  1.00  0.00     0.133 C 
HETATM   14  N3  UNL     1       4.521  -2.745  -8.763  1.00  0.00    -0.338 N 
HETATM   15  C11 UNL     1       4.946  -2.538 -10.094  1.00  0.00     0.227 C 
HETATM   16  O3  UNL     1       5.551  -1.439 -10.340  1.00  0.00    -0.273 OA
BRANCH  12  17
HETATM   17  C2  UNL     1       2.526  -4.537  -6.230  1.00  0.00     0.173 C 
BRANCH  17  18
HETATM   18  O1  UNL     1       2.722  -5.753  -6.870  1.00  0.00    -0.396 OA
HETATM   19  C1  UNL     1       1.591  -6.534  -6.596  1.00  0.00     0.201 C 
ENDBRANCH  17  18
ENDBRANCH  12  17
BRANCH  15  20
HETATM   20  C12 UNL     1       4.726  -3.518 -11.203  1.00  0.00     0.109 C 
HETATM   21  C13 UNL     1       3.298  -4.038 -11.120  1.00  0.00     0.047 C 
HETATM   22  C14 UNL     1       2.540  -3.257 -12.164  1.00  0.00     0.031 C 
HETATM   23  C15 UNL     1       1.971  -4.162 -13.207  1.00  0.00     0.038 C 
HETATM   24  C16 UNL     1       1.344  -2.642 -11.439  1.00  0.00     0.038 C 
HETATM   25  N4  UNL     1       3.445  -2.243 -12.686  1.00  0.00    -0.314 N 
HETATM   26  C17 UNL     1       3.059  -1.009 -13.213  1.00  0.00     0.322 C 
HETATM   27  C22 UNL     1       4.791  -2.832 -12.541  1.00  0.00     0.152 C 
HETATM   28  O4  UNL     1       1.777  -0.821 -13.263  1.00  0.00    -0.247 OA
HETATM   29  N5  UNL     1       3.832   0.052 -13.693  1.00  0.00    -0.328 N 
HETATM   30  C18 UNL     1       5.271   0.201 -13.770  1.00  0.00     0.133 C 
HETATM   31  C21 UNL     1       3.223   1.291 -14.243  1.00  0.00     0.206 C 
HETATM   32  C19 UNL     1       5.510   1.581 -14.385  1.00  0.00     0.101 C 
HETATM   33  C20 UNL     1       4.271   2.313 -13.852  1.00  0.00     0.261 C 
HETATM   34  F1  UNL     1       4.409   2.423 -12.497  1.00  0.00    -0.204 F 
HETATM   35  F2  UNL     1       4.097   3.518 -14.478  1.00  0.00    -0.204 F 
BRANCH  27  36
HETATM   36  C23 UNL     1       5.075  -3.742 -13.681  1.00  0.00     0.033 A 
HETATM   37  C24 UNL     1       5.148  -3.316 -14.981  1.00  0.00     0.028 A 
HETATM   38  C25 UNL     1       5.433  -4.249 -15.982  1.00  0.00     0.016 A 
HETATM   39  C26 UNL     1       5.636  -5.573 -15.668  1.00  0.00     0.021 A 
HETATM   40  C28 UNL     1       5.546  -5.912 -14.351  1.00  0.00     0.100 A 
HETATM   41  N6  UNL     1       5.277  -5.058 -13.363  1.00  0.00    -0.367 N 
ATOM     42  H6  UNL     1       5.223  -5.377 -12.396  1.00  0.00     0.165 HD
BRANCH  39  43
HETATM   43  C27 UNL     1       5.939  -6.574 -16.712  1.00  0.00     0.388 C 
HETATM   44  F3  UNL     1       4.875  -7.407 -16.973  1.00  0.00    -0.209 F 
HETATM   45  F4  UNL     1       6.307  -5.985 -17.906  1.00  0.00    -0.209 F 
ENDBRANCH  39  43
ENDBRANCH  27  36
ENDBRANCH  15  20
ENDBRANCH   7  10
ENDBRANCH   1   6
TORSDOF 7
ENDMDL
MODEL 2
REMARK VINA RESULT: -7.761754226      0.894      1.116
REMARK  7 active torsions:
REMARK  status: ('A' for Active; 'I' for Inactive)
REMARK    1  A    between atoms: O1_2  and  C2_3 
REMARK    2  A    between atoms: C2_3  and  C3_4 
REMARK    3  A    between atoms: C5_6  and  C6_7 
REMARK       I    between atoms: C6_7  and  N1_9 
REMARK    4  A    between atoms: N1_9  and  C7_11 
REMARK       I    between atoms: N3_16  and  C11_17 
REMARK    5  A    between atoms: C11_17  and  C12_19 
REMARK       I    between atoms: N4_24  and  C17_25 
REMARK       I    between atoms: C17_25  and  N5_27 
REMARK    6  A    between atoms: C22_34  and  C23_35 
REMARK    7  A    between atoms: C26_38  and  C27_39 
ROOT
HETATM    1  C7  UNL     1       4.111   1.846  -8.814  1.00  0.00     0.122 A 
HETATM    2  C8  UNL     1       3.028   1.749  -9.800  1.00  0.00     0.091 C 
HETATM    3  N2  UNL     1       2.167   1.685 -10.576  1.00  0.00    -0.195 NA
HETATM    4  C9  UNL     1       3.982   2.824  -7.686  1.00  0.00     0.050 A 
HETATM    5  C10 UNL     1       4.895   3.137  -8.809  1.00  0.00     0.050 A 
ENDROOT
BRANCH   1   6
HETATM    6  N1  UNL     1       4.775   0.597  -8.565  1.00  0.00    -0.337 N 
HETATM    7  C6  UNL     1       4.107  -0.457  -7.921  1.00  0.00     0.242 C 
HETATM    8  O2  UNL     1       2.917  -0.291  -7.565  1.00  0.00    -0.271 OA
ATOM      9  H1  UNL     1       5.744   0.474  -8.861  1.00  0.00     0.164 HD
BRANCH   7  10
HETATM   10  C5  UNL     1       4.808  -1.756  -7.665  1.00  0.00     0.179 C 
HETATM   11  C4  UNL     1       4.120  -2.383  -6.481  1.00  0.00     0.043 C 
HETATM   12  C3  UNL     1       3.035  -3.214  -7.130  1.00  0.00     0.030 C 
HETATM   13  C29 UNL     1       3.807  -3.804  -8.304  1.00  0.00     0.133 C 
HETATM   14  N3  UNL     1       4.592  -2.656  -8.782  1.00  0.00    -0.338 N 
HETATM   15  C11 UNL     1       5.026  -2.504 -10.117  1.00  0.00     0.227 C 
HETATM   16  O3  UNL     1       5.683  -1.442 -10.392  1.00  0.00    -0.273 OA
BRANCH  12  17
HETATM   17  C2  UNL     1       2.514  -4.283  -6.204  1.00  0.00     0.173 C 
BRANCH  17  18
HETATM   18  O1  UNL     1       2.881  -5.530  -6.691  1.00  0.00    -0.396 OA
HETATM   19  C1  UNL     1       1.979  -6.453  -6.143  1.00  0.00     0.201 C 
ENDBRANCH  17  18
ENDBRANCH  12  17
BRANCH  15  20
HETATM   20  C12 UNL     1       4.758  -3.501 -11.201  1.00  0.00     0.109 C 
HETATM   21  C13 UNL     1       3.326  -3.998 -11.065  1.00  0.00     0.047 C 
HETATM   22  C14 UNL     1       2.547  -3.225 -12.100  1.00  0.00     0.031 C 
HETATM   23  C15 UNL     1       1.934  -4.141 -13.108  1.00  0.00     0.038 C 
HETATM   24  C16 UNL     1       1.383  -2.580 -11.350  1.00  0.00     0.038 C 
HETATM   25  N4  UNL     1       3.450  -2.234 -12.668  1.00  0.00    -0.314 N 
HETATM   26  C17 UNL     1       3.066  -1.005 -13.206  1.00  0.00     0.322 C 
HETATM   27  C22 UNL     1       4.791  -2.840 -12.552  1.00  0.00     0.152 C 
HETATM   28  O4  UNL     1       1.786  -0.799 -13.220  1.00  0.00    -0.247 OA
HETATM   29  N5  UNL     1       3.838   0.036 -13.729  1.00  0.00    -0.328 N 
HETATM   30  C18 UNL     1       5.276   0.162 -13.852  1.00  0.00     0.133 C 
HETATM   31  C21 UNL     1       3.231   1.273 -14.283  1.00  0.00     0.206 C 
HETATM   32  C19 UNL     1       5.516   1.527 -14.499  1.00  0.00     0.101 C 
HETATM   33  C20 UNL     1       4.305   2.287 -13.943  1.00  0.00     0.261 C 
HETATM   34  F1  UNL     1       4.485   2.420 -12.595  1.00  0.00    -0.204 F 
HETATM   35  F2  UNL     1       4.128   3.482 -14.586  1.00  0.00    -0.204 F 
BRANCH  27  36
HETATM   36  C23 UNL     1       5.028  -3.775 -13.683  1.00  0.00     0.033 A 
HETATM   37  C24 UNL     1       5.032  -3.380 -14.995  1.00  0.00     0.028 A 
HETATM   38  C25 UNL     1       5.276  -4.334 -15.987  1.00  0.00     0.016 A 
HETATM   39  C26 UNL     1       5.508  -5.648 -15.652  1.00  0.00     0.021 A 
HETATM   40  C28 UNL     1       5.486  -5.956 -14.325  1.00  0.00     0.100 A 
HETATM   41  N6  UNL     1       5.258  -5.081 -13.345  1.00  0.00    -0.367 N 
ATOM     42  H6  UNL     1       5.255  -5.377 -12.370  1.00  0.00     0.165 HD
BRANCH  39  43
HETATM   43  C27 UNL     1       5.768  -6.672 -16.686  1.00  0.00     0.388 C 
HETATM   44  F3  UNL     1       5.345  -7.926 -16.309  1.00  0.00    -0.209 F 
HETATM   45  F4  UNL     1       5.153  -6.368 -17.885  1.00  0.00    -0.209 F 
ENDBRANCH  39  43
ENDBRANCH  27  36
ENDBRANCH  15  20
ENDBRANCH   7  10
ENDBRANCH   1   6
TORSDOF 7
ENDMDL
MODEL 3
REMARK VINA RESULT: -7.695607073      0.990      1.214
REMARK  7 active torsions:
REMARK  status: ('A' for Active; 'I' for Inactive)
REMARK    1  A    between atoms: O1_2  and  C2_3 
REMARK    2  A    between atoms: C2_3  and  C3_4 
REMARK    3  A    between atoms: C5_6  and  C6_7 
REMARK       I    between atoms: C6_7  and  N1_9 
REMARK    4  A    between atoms: N1_9  and  C7_11 
REMARK       I    between atoms: N3_16  and  C11_17 
REMARK    5  A    between atoms: C11_17  and  C12_19 
REMARK       I    between atoms: N4_24  and  C17_25 
REMARK       I    between atoms: C17_25  and  N5_27 
REMARK    6  A    between atoms: C22_34  and  C23_35 
REMARK    7  A    between atoms: C26_38  and  C27_39 
ROOT
HETATM    1  C7  UNL     1       1.852  -0.143  -8.554  1.00  0.00     0.122 A 
HETATM    2  C8  UNL     1       0.756   0.098  -7.608  1.00  0.00     0.091 C 
HETATM    3  N2  UNL     1      -0.112   0.303  -6.864  1.00  0.00    -0.195 NA
HETATM    4  C9  UNL     1       2.674   1.017  -9.025  1.00  0.00     0.050 A 
HETATM    5  C10 UNL     1       1.673   0.425  -9.941  1.00  0.00     0.050 A 
ENDROOT
BRANCH   1   6
HETATM    6  N1  UNL     1       2.499  -1.413  -8.370  1.00  0.00    -0.337 N 
HETATM    7  C6  UNL     1       3.462  -1.591  -7.363  1.00  0.00     0.242 C 
HETATM    8  O2  UNL     1       3.748  -0.622  -6.622  1.00  0.00    -0.271 OA
ATOM      9  H1  UNL     1       2.256  -2.194  -8.980  1.00  0.00     0.164 HD
BRANCH   7  10
HETATM   10  C5  UNL     1       4.131  -2.918  -7.181  1.00  0.00     0.179 C 
HETATM   11  C4  UNL     1       3.324  -3.662  -6.149  1.00  0.00     0.043 C 
HETATM   12  C3  UNL     1       2.311  -4.404  -6.994  1.00  0.00     0.030 C 
HETATM   13  C29 UNL     1       3.201  -4.873  -8.139  1.00  0.00     0.133 C 
HETATM   14  N3  UNL     1       4.033  -3.688  -8.405  1.00  0.00    -0.338 N 
HETATM   15  C11 UNL     1       4.603  -3.398  -9.664  1.00  0.00     0.227 C 
HETATM   16  O3  UNL     1       5.286  -2.320  -9.751  1.00  0.00    -0.273 OA
BRANCH  12  17
HETATM   17  C2  UNL     1       1.697  -5.561  -6.249  1.00  0.00     0.173 C 
BRANCH  17  18
HETATM   18  O1  UNL     1       0.827  -6.240  -7.093  1.00  0.00    -0.396 OA
HETATM   19  C1  UNL     1       1.003  -7.605  -6.832  1.00  0.00     0.201 C 
ENDBRANCH  17  18
ENDBRANCH  12  17
BRANCH  15  20
HETATM   20  C12 UNL     1       4.449  -4.268 -10.871  1.00  0.00     0.109 C 
HETATM   21  C13 UNL     1       3.013  -4.771 -10.932  1.00  0.00     0.047 C 
HETATM   22  C14 UNL     1       2.335  -3.885 -11.947  1.00  0.00     0.031 C 
HETATM   23  C15 UNL     1       1.829  -4.681 -13.105  1.00  0.00     0.038 C 
HETATM   24  C16 UNL     1       1.099  -3.320 -11.249  1.00  0.00     0.038 C 
HETATM   25  N4  UNL     1       3.283  -2.841 -12.311  1.00  0.00    -0.314 N 
HETATM   26  C17 UNL     1       2.945  -1.558 -12.745  1.00  0.00     0.322 C 
HETATM   27  C22 UNL     1       4.610  -3.462 -12.132  1.00  0.00     0.152 C 
HETATM   28  O4  UNL     1       1.672  -1.346 -12.862  1.00  0.00    -0.247 OA
HETATM   29  N5  UNL     1       3.758  -0.469 -13.072  1.00  0.00    -0.328 N 
HETATM   30  C18 UNL     1       5.201  -0.337 -13.039  1.00  0.00     0.133 C 
HETATM   31  C21 UNL     1       3.200   0.825 -13.543  1.00  0.00     0.206 C 
HETATM   32  C19 UNL     1       5.494   1.091 -13.505  1.00  0.00     0.101 C 
HETATM   33  C20 UNL     1       4.229   1.789 -12.990  1.00  0.00     0.261 C 
HETATM   34  F1  UNL     1       4.276   1.772 -11.624  1.00  0.00    -0.204 F 
HETATM   35  F2  UNL     1       4.109   3.050 -13.511  1.00  0.00    -0.204 F 
BRANCH  27  36
HETATM   36  C23 UNL     1       4.962  -4.267 -13.331  1.00  0.00     0.033 A 
HETATM   37  C24 UNL     1       5.258  -5.604 -13.277  1.00  0.00     0.028 A 
HETATM   38  C25 UNL     1       5.566  -6.276 -14.462  1.00  0.00     0.016 A 
HETATM   39  C26 UNL     1       5.572  -5.607 -15.665  1.00  0.00     0.021 A 
HETATM   40  C28 UNL     1       5.267  -4.280 -15.630  1.00  0.00     0.100 A 
HETATM   41  N6  UNL     1       4.967  -3.598 -14.524  1.00  0.00    -0.367 N 
ATOM     42  H6  UNL     1       4.748  -2.603 -14.567  1.00  0.00     0.165 HD
BRANCH  39  43
HETATM   43  C27 UNL     1       5.895  -6.301 -16.929  1.00  0.00     0.388 C 
HETATM   44  F3  UNL     1       5.663  -7.656 -16.865  1.00  0.00    -0.209 F 
HETATM   45  F4  UNL     1       5.168  -5.805 -17.994  1.00  0.00    -0.209 F 
ENDBRANCH  39  43
ENDBRANCH  27  36
ENDBRANCH  15  20
ENDBRANCH   7  10
ENDBRANCH   1   6
TORSDOF 7
ENDMDL
MODEL 4
REMARK VINA RESULT: -7.635727526      0.938      1.338
REMARK  7 active torsions:
REMARK  status: ('A' for Active; 'I' for Inactive)
REMARK    1  A    between atoms: O1_2  and  C2_3 
REMARK    2  A    between atoms: C2_3  and  C3_4 
REMARK    3  A    between atoms: C5_6  and  C6_7 
REMARK       I    between atoms: C6_7  and  N1_9 
REMARK    4  A    between atoms: N1_9  and  C7_11 
REMARK       I    between atoms: N3_16  and  C11_17 
REMARK    5  A    between atoms: C11_17  and  C12_19 
REMARK       I    between atoms: N4_24  and  C17_25 
REMARK       I    between atoms: C17_25  and  N5_27 
REMARK    6  A    between atoms: C22_34  and  C23_35 
REMARK    7  A    between atoms: C26_38  and  C27_39 
ROOT
HETATM    1  C7  UNL     1       2.768   0.486  -9.405  1.00  0.00     0.122 A 
HETATM    2  C8  UNL     1       3.675   1.639  -9.366  1.00  0.00     0.091 C 
HETATM    3  N2  UNL     1       4.382   2.559  -9.340  1.00  0.00    -0.195 NA
HETATM    4  C9  UNL     1       1.624   0.493 -10.373  1.00  0.00     0.050 A 
HETATM    5  C10 UNL     1       1.354   0.733  -8.938  1.00  0.00     0.050 A 
ENDROOT
BRANCH   1   6
HETATM    6  N1  UNL     1       3.416  -0.765  -9.118  1.00  0.00    -0.337 N 
HETATM    7  C6  UNL     1       4.121  -0.950  -7.918  1.00  0.00     0.242 C 
HETATM    8  O2  UNL     1       4.177  -0.006  -7.096  1.00  0.00    -0.271 OA
ATOM      9  H1  UNL     1       3.363  -1.526  -9.795  1.00  0.00     0.164 HD
BRANCH   7  10
HETATM   10  C5  UNL     1       4.794  -2.257  -7.629  1.00  0.00     0.179 C 
HETATM   11  C4  UNL     1       4.055  -2.865  -6.465  1.00  0.00     0.043 C 
HETATM   12  C3  UNL     1       2.982  -3.686  -7.148  1.00  0.00     0.030 C 
HETATM   13  C29 UNL     1       3.787  -4.296  -8.288  1.00  0.00     0.133 C 
HETATM   14  N3  UNL     1       4.606  -3.162  -8.746  1.00  0.00    -0.338 N 
HETATM   15  C11 UNL     1       5.089  -3.027 -10.066  1.00  0.00     0.227 C 
HETATM   16  O3  UNL     1       5.771  -1.976 -10.324  1.00  0.00    -0.273 OA
BRANCH  12  17
HETATM   17  C2  UNL     1       2.413  -4.741  -6.234  1.00  0.00     0.173 C 
BRANCH  17  18
HETATM   18  O1  UNL     1       2.426  -5.967  -6.884  1.00  0.00    -0.396 OA
HETATM   19  C1  UNL     1       2.228  -6.943  -5.898  1.00  0.00     0.201 C 
ENDBRANCH  17  18
ENDBRANCH  12  17
BRANCH  15  20
HETATM   20  C12 UNL     1       4.847  -4.028 -11.151  1.00  0.00     0.109 C 
HETATM   21  C13 UNL     1       3.446  -4.601 -10.984  1.00  0.00     0.047 C 
HETATM   22  C14 UNL     1       2.602  -3.862 -11.992  1.00  0.00     0.031 C 
HETATM   23  C15 UNL     1       2.013  -4.801 -12.993  1.00  0.00     0.038 C 
HETATM   24  C16 UNL     1       1.426  -3.284 -11.208  1.00  0.00     0.038 C 
HETATM   25  N4  UNL     1       3.438  -2.820 -12.574  1.00  0.00    -0.314 N 
HETATM   26  C17 UNL     1       2.976  -1.609 -13.091  1.00  0.00     0.322 C 
HETATM   27  C22 UNL     1       4.811  -3.356 -12.497  1.00  0.00     0.152 C 
HETATM   28  O4  UNL     1       1.687  -1.470 -13.071  1.00  0.00    -0.247 OA
HETATM   29  N5  UNL     1       3.680  -0.525 -13.624  1.00  0.00    -0.328 N 
HETATM   30  C18 UNL     1       5.106  -0.322 -13.781  1.00  0.00     0.133 C 
HETATM   31  C21 UNL     1       2.995   0.683 -14.152  1.00  0.00     0.206 C 
HETATM   32  C19 UNL     1       5.258   1.058 -14.422  1.00  0.00     0.101 C 
HETATM   33  C20 UNL     1       4.022   1.749 -13.829  1.00  0.00     0.261 C 
HETATM   34  F1  UNL     1       4.230   1.881 -12.485  1.00  0.00    -0.204 F 
HETATM   35  F2  UNL     1       3.768   2.939 -14.457  1.00  0.00    -0.204 F 
BRANCH  27  36
HETATM   36  C23 UNL     1       5.068  -4.269 -13.642  1.00  0.00     0.033 A 
HETATM   37  C24 UNL     1       5.378  -5.595 -13.490  1.00  0.00     0.028 A 
HETATM   38  C25 UNL     1       5.590  -6.373 -14.631  1.00  0.00     0.016 A 
HETATM   39  C26 UNL     1       5.490  -5.818 -15.886  1.00  0.00     0.021 A 
HETATM   40  C28 UNL     1       5.177  -4.494 -15.948  1.00  0.00     0.100 A 
HETATM   41  N6  UNL     1       4.966  -3.712 -14.888  1.00  0.00    -0.367 N 
ATOM     42  H6  UNL     1       4.736  -2.726 -15.003  1.00  0.00     0.165 HD
BRANCH  39  43
HETATM   43  C27 UNL     1       5.710  -6.625 -17.104  1.00  0.00     0.388 C 
HETATM   44  F3  UNL     1       5.398  -7.954 -16.924  1.00  0.00    -0.209 F 
HETATM   45  F4  UNL     1       4.966  -6.166 -18.174  1.00  0.00    -0.209 F 
ENDBRANCH  39  43
ENDBRANCH  27  36
ENDBRANCH  15  20
ENDBRANCH   7  10
ENDBRANCH   1   6
TORSDOF 7
ENDMDL
MODEL 5
REMARK VINA RESULT: -7.414857276      1.316      1.719
REMARK  7 active torsions:
REMARK  status: ('A' for Active; 'I' for Inactive)
REMARK    1  A    between atoms: O1_2  and  C2_3 
REMARK    2  A    between atoms: C2_3  and  C3_4 
REMARK    3  A    between atoms: C5_6  and  C6_7 
REMARK       I    between atoms: C6_7  and  N1_9 
REMARK    4  A    between atoms: N1_9  and  C7_11 
REMARK       I    between atoms: N3_16  and  C11_17 
REMARK    5  A    between atoms: C11_17  and  C12_19 
REMARK       I    between atoms: N4_24  and  C17_25 
REMARK       I    between atoms: C17_25  and  N5_27 
REMARK    6  A    between atoms: C22_34  and  C23_35 
REMARK    7  A    between atoms: C26_38  and  C27_39 
ROOT
HETATM    1  C7  UNL     1       3.660   0.239  -7.962  1.00  0.00     0.122 A 
HETATM    2  C8  UNL     1       2.588   0.362  -8.957  1.00  0.00     0.091 C 
HETATM    3  N2  UNL     1       1.736   0.472  -9.738  1.00  0.00    -0.195 NA
HETATM    4  C9  UNL     1       3.577   1.043  -6.701  1.00  0.00     0.050 A 
HETATM    5  C10 UNL     1       4.525   1.459  -7.758  1.00  0.00     0.050 A 
ENDROOT
BRANCH   1   6
HETATM    6  N1  UNL     1       4.238  -1.075  -7.900  1.00  0.00    -0.337 N 
HETATM    7  C6  UNL     1       3.505  -2.160  -7.391  1.00  0.00     0.242 C 
HETATM    8  O2  UNL     1       2.334  -1.965  -6.990  1.00  0.00    -0.271 OA
ATOM      9  H1  UNL     1       5.191  -1.222  -8.230  1.00  0.00     0.164 HD
BRANCH   7  10
HETATM   10  C5  UNL     1       4.117  -3.526  -7.330  1.00  0.00     0.179 C 
HETATM   11  C4  UNL     1       3.259  -4.333  -6.391  1.00  0.00     0.043 C 
HETATM   12  C3  UNL     1       2.235  -4.945  -7.321  1.00  0.00     0.030 C 
HETATM   13  C29 UNL     1       3.126  -5.336  -8.493  1.00  0.00     0.133 C 
HETATM   14  N3  UNL     1       4.011  -4.167  -8.627  1.00  0.00    -0.338 N 
HETATM   15  C11 UNL     1       4.617  -3.778  -9.841  1.00  0.00     0.227 C 
HETATM   16  O3  UNL     1       5.345  -2.727  -9.811  1.00  0.00    -0.273 OA
BRANCH  12  17
HETATM   17  C2  UNL     1       1.559  -6.143  -6.704  1.00  0.00     0.173 C 
BRANCH  17  18
HETATM   18  O1  UNL     1       0.224  -5.844  -6.466  1.00  0.00    -0.396 OA
HETATM   19  C1  UNL     1       0.020  -6.001  -5.089  1.00  0.00     0.201 C 
ENDBRANCH  17  18
ENDBRANCH  12  17
BRANCH  15  20
HETATM   20  C12 UNL     1       4.452  -4.518 -11.132  1.00  0.00     0.109 C 
HETATM   21  C13 UNL     1       3.010  -4.994 -11.241  1.00  0.00     0.047 C 
HETATM   22  C14 UNL     1       2.341  -4.000 -12.158  1.00  0.00     0.031 C 
HETATM   23  C15 UNL     1       1.826  -4.667 -13.391  1.00  0.00     0.038 C 
HETATM   24  C16 UNL     1       1.114  -3.495 -11.404  1.00  0.00     0.038 C 
HETATM   25  N4  UNL     1       3.303  -2.936 -12.415  1.00  0.00    -0.314 N 
HETATM   26  C17 UNL     1       2.980  -1.612 -12.715  1.00  0.00     0.322 C 
HETATM   27  C22 UNL     1       4.622  -3.589 -12.304  1.00  0.00     0.152 C 
HETATM   28  O4  UNL     1       1.710  -1.373 -12.806  1.00  0.00    -0.247 OA
HETATM   29  N5  UNL     1       3.807  -0.505 -12.929  1.00  0.00    -0.328 N 
HETATM   30  C18 UNL     1       5.251  -0.395 -12.886  1.00  0.00     0.133 C 
HETATM   31  C21 UNL     1       3.265   0.837 -13.265  1.00  0.00     0.206 C 
HETATM   32  C19 UNL     1       5.562   1.069 -13.203  1.00  0.00     0.101 C 
HETATM   33  C20 UNL     1       4.306   1.727 -12.617  1.00  0.00     0.261 C 
HETATM   34  F1  UNL     1       4.353   1.569 -11.260  1.00  0.00    -0.204 F 
HETATM   35  F2  UNL     1       4.202   3.035 -13.006  1.00  0.00    -0.204 F 
BRANCH  27  36
HETATM   36  C23 UNL     1       4.963  -4.271 -13.579  1.00  0.00     0.033 A 
HETATM   37  C24 UNL     1       5.252  -5.608 -13.661  1.00  0.00     0.028 A 
HETATM   38  C25 UNL     1       5.549  -6.159 -14.910  1.00  0.00     0.016 A 
HETATM   39  C26 UNL     1       5.554  -5.373 -16.039  1.00  0.00     0.021 A 
HETATM   40  C28 UNL     1       5.256  -4.054 -15.870  1.00  0.00     0.100 A 
HETATM   41  N6  UNL     1       4.966  -3.485 -14.699  1.00  0.00    -0.367 N 
ATOM     42  H6  UNL     1       4.752  -2.490 -14.640  1.00  0.00     0.165 HD
BRANCH  39  43
HETATM   43  C27 UNL     1       5.865  -5.937 -17.369  1.00  0.00     0.388 C 
HETATM   44  F3  UNL     1       5.741  -7.307 -17.407  1.00  0.00    -0.209 F 
HETATM   45  F4  UNL     1       5.051  -5.419 -18.358  1.00  0.00    -0.209 F 
ENDBRANCH  39  43
ENDBRANCH  27  36
ENDBRANCH  15  20
ENDBRANCH   7  10
ENDBRANCH   1   6
TORSDOF 7
ENDMDL
