MODEL 1
REMARK VINA RESULT: -8.958618698      0.000      0.000
REMARK  9 active torsions:
REMARK  status: ('A' for Active; 'I' for Inactive)
REMARK       I    between atoms: N1_2  and  C3_4 
REMARK    1  A    between atoms: C3_4  and  C4_6 
REMARK    2  A    between atoms: C8_10  and  C9_11 
REMARK    3  A    between atoms: C8_10  and  C16_20 
REMARK    4  A    between atoms: C9_11  and  O2_12 
REMARK    5  A    between atoms: O2_12  and  C10_13 
REMARK       I    between atoms: C16_20  and  N2_22 
REMARK    6  A    between atoms: N2_22  and  S1_24 
REMARK    7  A    between atoms: S1_24  and  C17_27 
REMARK    8  A    between atoms: C17_27  and  C18_28 
REMARK    9  A    between atoms: C21_31  and  C22_32 
ROOT
HETATM    1  C16 UNL     1       3.583  -1.094 -11.532  1.00  0.00     0.242 C 
HETATM    2  O3  UNL     1       2.611  -0.697 -10.876  1.00  0.00    -0.272 OA
HETATM    3  N2  UNL     1       4.462  -0.170 -12.147  1.00  0.00    -0.253 N 
ATOM      4  H2  UNL     1       5.233  -0.609 -12.651  1.00  0.00     0.181 HD
ENDROOT
BRANCH   1   5
HETATM    5  C8  UNL     1       3.895  -2.550 -11.713  1.00  0.00     0.076 C 
HETATM    6  C4  UNL     1       4.035  -3.385 -10.571  1.00  0.00     0.098 C 
HETATM    7  C5  UNL     1       5.172  -2.796  -9.716  1.00  0.00     0.015 C 
HETATM    8  C6  UNL     1       5.911  -1.871 -10.656  1.00  0.00     0.002 C 
HETATM    9  C7  UNL     1       5.541  -2.421 -11.982  1.00  0.00     0.022 C 
BRANCH   6  10
HETATM   10  C3  UNL     1       2.845  -3.423  -9.657  1.00  0.00     0.224 C 
HETATM   11  N1  UNL     1       1.736  -4.222  -9.959  1.00  0.00    -0.360 N 
HETATM   12  C1  UNL     1       1.538  -4.997 -11.175  1.00  0.00     0.152 C 
HETATM   13  C2  UNL     1       0.658  -4.357  -8.952  1.00  0.00     0.152 C 
HETATM   14  O1  UNL     1       2.846  -2.745  -8.615  1.00  0.00    -0.273 OA
ENDBRANCH   6  10
BRANCH   5  15
HETATM   15  C9  UNL     1       3.574  -3.054 -13.103  1.00  0.00     0.196 C 
BRANCH  15  16
HETATM   16  O2  UNL     1       4.673  -3.031 -13.919  1.00  0.00    -0.350 OA
BRANCH  16  17
HETATM   17  C10 UNL     1       5.013  -3.591 -15.087  1.00  0.00     0.068 A 
HETATM   18  C11 UNL     1       5.254  -4.925 -15.271  1.00  0.00     0.038 A 
HETATM   19  C12 UNL     1       5.584  -5.453 -16.528  1.00  0.00     0.026 A 
HETATM   20  C13 UNL     1       5.674  -4.622 -17.619  1.00  0.00     0.034 A 
HETATM   21 CL1  UNL     1       6.062  -5.261 -19.199  1.00  0.00    -0.084 Cl
HETATM   22  C14 UNL     1       5.443  -3.272 -17.473  1.00  0.00     0.026 A 
HETATM   23  C15 UNL     1       5.126  -2.795 -16.248  1.00  0.00     0.038 A 
ENDBRANCH  16  17
ENDBRANCH  15  16
ENDBRANCH   5  15
ENDBRANCH   1   5
BRANCH   3  24
HETATM   24  S1  UNL     1       4.481   1.485 -12.206  1.00  0.00     0.248 S 
HETATM   25  O4  UNL     1       4.098   2.022 -10.783  1.00  0.00    -0.204 OA
HETATM   26  O5  UNL     1       5.971   1.925 -12.273  1.00  0.00    -0.204 OA
BRANCH  24  27
HETATM   27  C17 UNL     1       3.635   2.433 -13.358  1.00  0.00     0.133 C 
HETATM   28  C25 UNL     1       3.644   3.935 -13.214  1.00  0.00     0.060 C 
HETATM   29  C26 UNL     1       2.588   4.266 -14.272  1.00  0.00     0.169 C 
HETATM   30  O6  UNL     1       1.767   3.180 -14.380  1.00  0.00    -0.389 OA
HETATM   31  C27 UNL     1       2.177   2.179 -13.510  1.00  0.00     0.200 C 
BRANCH  27  32
HETATM   32  C18 UNL     1       4.391   2.247 -14.683  1.00  0.00    -0.031 A 
HETATM   33  C19 UNL     1       5.351   3.134 -15.017  1.00  0.00     0.010 A 
HETATM   34  C20 UNL     1       6.148   2.938 -16.137  1.00  0.00     0.017 A 
HETATM   35  C21 UNL     1       5.930   1.814 -16.900  1.00  0.00     0.047 A 
HETATM   36  C23 UNL     1       4.956   0.910 -16.575  1.00  0.00     0.017 A 
HETATM   37  C24 UNL     1       4.179   1.133 -15.456  1.00  0.00     0.010 A 
BRANCH  35  38
HETATM   38  C22 UNL     1       6.834   1.567 -18.066  1.00  0.00     0.417 C 
HETATM   39  F1  UNL     1       8.148   1.738 -17.779  1.00  0.00    -0.166 F 
HETATM   40  F2  UNL     1       6.381   2.454 -19.059  1.00  0.00    -0.166 F 
HETATM   41  F3  UNL     1       6.636   0.284 -18.564  1.00  0.00    -0.166 F 
ENDBRANCH  35  38
ENDBRANCH  27  32
ENDBRANCH  24  27
ENDBRANCH   3  24
TORSDOF 9
ENDMDL
MODEL 2
REMARK VINA RESULT: -8.718422073      1.502      1.992
REMARK  9 active torsions:
REMARK  status: ('A' for Active; 'I' for Inactive)
REMARK       I    between atoms: N1_2  and  C3_4 
REMARK    1  A    between atoms: C3_4  and  C4_6 
REMARK    2  A    between atoms: C8_10  and  C9_11 
REMARK    3  A    between atoms: C8_10  and  C16_20 
REMARK    4  A    between atoms: C9_11  and  O2_12 
REMARK    5  A    between atoms: O2_12  and  C10_13 
REMARK       I    between atoms: C16_20  and  N2_22 
REMARK    6  A    between atoms: N2_22  and  S1_24 
REMARK    7  A    between atoms: S1_24  and  C17_27 
REMARK    8  A    between atoms: C17_27  and  C18_28 
REMARK    9  A    between atoms: C21_31  and  C22_32 
ROOT
HETATM    1  C16 UNL     1       3.376  -2.070 -12.037  1.00  0.00     0.242 C 
HETATM    2  O3  UNL     1       2.197  -2.320 -11.758  1.00  0.00    -0.272 OA
HETATM    3  N2  UNL     1       3.734  -0.816 -12.591  1.00  0.00    -0.253 N 
ATOM      4  H2  UNL     1       4.734  -0.716 -12.771  1.00  0.00     0.181 HD
ENDROOT
BRANCH   1   5
HETATM    5  C8  UNL     1       4.488  -3.052 -11.808  1.00  0.00     0.076 C 
HETATM    6  C4  UNL     1       4.825  -3.432 -10.481  1.00  0.00     0.098 C 
HETATM    7  C5  UNL     1       5.213  -2.147  -9.726  1.00  0.00     0.015 C 
HETATM    8  C6  UNL     1       5.481  -1.135 -10.817  1.00  0.00     0.002 C 
HETATM    9  C7  UNL     1       5.783  -2.006 -11.977  1.00  0.00     0.022 C 
BRANCH   6  10
HETATM   10  C3  UNL     1       3.703  -4.025  -9.681  1.00  0.00     0.224 C 
HETATM   11  N1  UNL     1       3.531  -5.413  -9.609  1.00  0.00    -0.360 N 
HETATM   12  C1  UNL     1       4.295  -6.414 -10.338  1.00  0.00     0.152 C 
HETATM   13  C2  UNL     1       2.515  -5.959  -8.679  1.00  0.00     0.152 C 
HETATM   14  O1  UNL     1       2.921  -3.278  -9.066  1.00  0.00    -0.273 OA
ENDBRANCH   6  10
BRANCH   5  15
HETATM   15  C9  UNL     1       4.816  -3.868 -13.039  1.00  0.00     0.196 C 
BRANCH  15  16
HETATM   16  O2  UNL     1       5.320  -3.089 -14.046  1.00  0.00    -0.350 OA
BRANCH  16  17
HETATM   17  C10 UNL     1       5.328  -3.138 -15.384  1.00  0.00     0.068 A 
HETATM   18  C11 UNL     1       5.445  -2.047 -16.202  1.00  0.00     0.038 A 
HETATM   19  C12 UNL     1       5.471  -2.168 -17.600  1.00  0.00     0.026 A 
HETATM   20  C13 UNL     1       5.375  -3.409 -18.183  1.00  0.00     0.034 A 
HETATM   21 CL1  UNL     1       5.427  -3.584 -19.921  1.00  0.00    -0.084 Cl
HETATM   22  C14 UNL     1       5.251  -4.530 -17.394  1.00  0.00     0.026 A 
HETATM   23  C15 UNL     1       5.230  -4.379 -16.050  1.00  0.00     0.038 A 
ENDBRANCH  16  17
ENDBRANCH  15  16
ENDBRANCH   5  15
ENDBRANCH   1   5
BRANCH   3  24
HETATM   24  S1  UNL     1       2.844   0.518 -13.004  1.00  0.00     0.248 S 
HETATM   25  O4  UNL     1       2.171   0.237 -14.393  1.00  0.00    -0.204 OA
HETATM   26  O5  UNL     1       1.587   0.531 -12.089  1.00  0.00    -0.204 OA
BRANCH  24  27
HETATM   27  C17 UNL     1       3.446   2.123 -13.039  1.00  0.00     0.133 C 
HETATM   28  C25 UNL     1       4.443   2.551 -11.991  1.00  0.00     0.060 C 
HETATM   29  C26 UNL     1       4.452   4.051 -12.291  1.00  0.00     0.169 C 
HETATM   30  O6  UNL     1       3.243   4.362 -12.844  1.00  0.00    -0.389 OA
HETATM   31  C27 UNL     1       2.451   3.225 -12.939  1.00  0.00     0.200 C 
BRANCH  27  32
HETATM   32  C18 UNL     1       4.285   2.223 -14.322  1.00  0.00    -0.031 A 
HETATM   33  C19 UNL     1       5.465   1.568 -14.383  1.00  0.00     0.010 A 
HETATM   34  C20 UNL     1       6.196   1.522 -15.562  1.00  0.00     0.017 A 
HETATM   35  C21 UNL     1       5.689   2.164 -16.667  1.00  0.00     0.047 A 
HETATM   36  C23 UNL     1       4.497   2.836 -16.617  1.00  0.00     0.017 A 
HETATM   37  C24 UNL     1       3.793   2.865 -15.429  1.00  0.00     0.010 A 
BRANCH  35  38
HETATM   38  C22 UNL     1       6.442   2.056 -17.955  1.00  0.00     0.417 C 
HETATM   39  F1  UNL     1       6.455   0.803 -18.471  1.00  0.00    -0.166 F 
HETATM   40  F2  UNL     1       7.733   2.525 -17.650  1.00  0.00    -0.166 F 
HETATM   41  F3  UNL     1       5.917   2.934 -18.895  1.00  0.00    -0.166 F 
ENDBRANCH  35  38
ENDBRANCH  27  32
ENDBRANCH  24  27
ENDBRANCH   3  24
TORSDOF 9
ENDMDL
MODEL 3
REMARK VINA RESULT: -8.684741287      1.812      2.394
REMARK  9 active torsions:
REMARK  status: ('A' for Active; 'I' for Inactive)
REMARK       I    between atoms: N1_2  and  C3_4 
REMARK    1  A    between atoms: C3_4  and  C4_6 
REMARK    2  A    between atoms: C8_10  and  C9_11 
REMARK    3  A    between atoms: C8_10  and  C16_20 
REMARK    4  A    between atoms: C9_11  and  O2_12 
REMARK    5  A    between atoms: O2_12  and  C10_13 
REMARK       I    between atoms: C16_20  and  N2_22 
REMARK    6  A    between atoms: N2_22  and  S1_24 
REMARK    7  A    between atoms: S1_24  and  C17_27 
REMARK    8  A    between atoms: C17_27  and  C18_28 
REMARK    9  A    between atoms: C21_31  and  C22_32 
ROOT
HETATM    1  C16 UNL     1       3.120  -2.751 -10.816  1.00  0.00     0.242 C 
HETATM    2  O3  UNL     1       2.036  -2.778 -10.221  1.00  0.00    -0.272 OA
HETATM    3  N2  UNL     1       3.485  -1.627 -11.597  1.00  0.00    -0.253 N 
ATOM      4  H2  UNL     1       4.405  -1.709 -12.032  1.00  0.00     0.181 HD
ENDROOT
BRANCH   1   5
HETATM    5  C8  UNL     1       4.107  -3.880 -10.750  1.00  0.00     0.076 C 
HETATM    6  C4  UNL     1       4.687  -4.231  -9.500  1.00  0.00     0.098 C 
HETATM    7  C5  UNL     1       5.413  -2.982  -8.969  1.00  0.00     0.015 C 
HETATM    8  C6  UNL     1       5.559  -2.087 -10.180  1.00  0.00     0.002 C 
HETATM    9  C7  UNL     1       5.461  -3.060 -11.294  1.00  0.00     0.022 C 
BRANCH   6  10
HETATM   10  C3  UNL     1       3.710  -4.596  -8.422  1.00  0.00     0.224 C 
HETATM   11  N1  UNL     1       3.311  -5.926  -8.237  1.00  0.00    -0.360 N 
HETATM   12  C1  UNL     1       3.674  -7.058  -9.076  1.00  0.00     0.152 C 
HETATM   13  C2  UNL     1       2.476  -6.264  -7.061  1.00  0.00     0.152 C 
HETATM   14  O1  UNL     1       3.254  -3.711  -7.676  1.00  0.00    -0.273 OA
ENDBRANCH   6  10
BRANCH   5  15
HETATM   15  C9  UNL     1       4.026  -4.805 -11.943  1.00  0.00     0.196 C 
BRANCH  15  16
HETATM   16  O2  UNL     1       4.780  -4.352 -12.991  1.00  0.00    -0.350 OA
BRANCH  16  17
HETATM   17  C10 UNL     1       5.068  -4.786 -14.225  1.00  0.00     0.068 A 
HETATM   18  C11 UNL     1       5.549  -6.032 -14.520  1.00  0.00     0.038 A 
HETATM   19  C12 UNL     1       5.809  -6.435 -15.839  1.00  0.00     0.026 A 
HETATM   20  C13 UNL     1       5.582  -5.564 -16.878  1.00  0.00     0.034 A 
HETATM   21 CL1  UNL     1       5.878  -6.052 -18.530  1.00  0.00    -0.084 Cl
HETATM   22  C14 UNL     1       5.103  -4.299 -16.622  1.00  0.00     0.026 A 
HETATM   23  C15 UNL     1       4.862  -3.943 -15.340  1.00  0.00     0.038 A 
ENDBRANCH  16  17
ENDBRANCH  15  16
ENDBRANCH   5  15
ENDBRANCH   1   5
BRANCH   3  24
HETATM   24  S1  UNL     1       2.708  -0.206 -11.940  1.00  0.00     0.248 S 
HETATM   25  O4  UNL     1       1.535  -0.525 -12.931  1.00  0.00    -0.204 OA
HETATM   26  O5  UNL     1       1.897   0.190 -10.674  1.00  0.00    -0.204 OA
BRANCH  24  27
HETATM   27  C17 UNL     1       3.479   1.221 -12.498  1.00  0.00     0.133 C 
HETATM   28  C25 UNL     1       4.652   1.766 -11.722  1.00  0.00     0.060 C 
HETATM   29  C26 UNL     1       4.792   3.109 -12.444  1.00  0.00     0.169 C 
HETATM   30  O6  UNL     1       3.562   3.432 -12.941  1.00  0.00    -0.389 OA
HETATM   31  C27 UNL     1       2.640   2.443 -12.625  1.00  0.00     0.200 C 
BRANCH  27  32
HETATM   32  C18 UNL     1       4.142   0.840 -13.830  1.00  0.00    -0.031 A 
HETATM   33  C19 UNL     1       5.100  -0.112 -13.834  1.00  0.00     0.010 A 
HETATM   34  C20 UNL     1       5.636  -0.581 -15.025  1.00  0.00     0.017 A 
HETATM   35  C21 UNL     1       5.167  -0.049 -16.204  1.00  0.00     0.047 A 
HETATM   36  C23 UNL     1       4.200   0.920 -16.213  1.00  0.00     0.017 A 
HETATM   37  C24 UNL     1       3.687   1.368 -15.012  1.00  0.00     0.010 A 
BRANCH  35  38
HETATM   38  C22 UNL     1       5.694  -0.604 -17.489  1.00  0.00     0.417 C 
HETATM   39  F1  UNL     1       4.727  -1.088 -18.307  1.00  0.00    -0.166 F 
HETATM   40  F2  UNL     1       6.612  -1.595 -17.096  1.00  0.00    -0.166 F 
HETATM   41  F3  UNL     1       6.426   0.364 -18.166  1.00  0.00    -0.166 F 
ENDBRANCH  35  38
ENDBRANCH  27  32
ENDBRANCH  24  27
ENDBRANCH   3  24
TORSDOF 9
ENDMDL
MODEL 4
REMARK VINA RESULT: -8.632803893      4.852      7.681
REMARK  9 active torsions:
REMARK  status: ('A' for Active; 'I' for Inactive)
REMARK       I    between atoms: N1_2  and  C3_4 
REMARK    1  A    between atoms: C3_4  and  C4_6 
REMARK    2  A    between atoms: C8_10  and  C9_11 
REMARK    3  A    between atoms: C8_10  and  C16_20 
REMARK    4  A    between atoms: C9_11  and  O2_12 
REMARK    5  A    between atoms: O2_12  and  C10_13 
REMARK       I    between atoms: C16_20  and  N2_22 
REMARK    6  A    between atoms: N2_22  and  S1_24 
REMARK    7  A    between atoms: S1_24  and  C17_27 
REMARK    8  A    between atoms: C17_27  and  C18_28 
REMARK    9  A    between atoms: C21_31  and  C22_32 
ROOT
HETATM    1  C16 UNL     1       4.256  -2.947 -10.663  1.00  0.00     0.242 C 
HETATM    2  O3  UNL     1       5.036  -3.632  -9.990  1.00  0.00    -0.272 OA
HETATM    3  N2  UNL     1       3.483  -1.929 -10.054  1.00  0.00    -0.253 N 
ATOM      4  H2  UNL     1       2.883  -1.422 -10.706  1.00  0.00     0.181 HD
ENDROOT
BRANCH   1   5
HETATM    5  C8  UNL     1       4.079  -3.140 -12.141  1.00  0.00     0.076 C 
HETATM    6  C4  UNL     1       2.769  -3.222 -12.686  1.00  0.00     0.098 C 
HETATM    7  C5  UNL     1       2.068  -4.410 -12.002  1.00  0.00     0.015 C 
HETATM    8  C6  UNL     1       3.194  -5.214 -11.392  1.00  0.00     0.002 C 
HETATM    9  C7  UNL     1       4.353  -4.789 -12.213  1.00  0.00     0.022 C 
BRANCH   6  10
HETATM   10  C3  UNL     1       1.886  -2.041 -12.408  1.00  0.00     0.224 C 
HETATM   11  N1  UNL     1       2.073  -0.832 -13.089  1.00  0.00    -0.360 N 
HETATM   12  C1  UNL     1       3.147  -0.526 -14.023  1.00  0.00     0.152 C 
HETATM   13  C2  UNL     1       1.080   0.252 -12.905  1.00  0.00     0.152 C 
HETATM   14  O1  UNL     1       0.971  -2.138 -11.572  1.00  0.00    -0.273 OA
ENDBRANCH   6  10
BRANCH   5  15
HETATM   15  C9  UNL     1       5.312  -2.768 -12.935  1.00  0.00     0.196 C 
BRANCH  15  16
HETATM   16  O2  UNL     1       5.520  -3.624 -13.982  1.00  0.00    -0.350 OA
BRANCH  16  17
HETATM   17  C10 UNL     1       5.457  -3.540 -15.318  1.00  0.00     0.068 A 
HETATM   18  C11 UNL     1       5.631  -2.388 -16.035  1.00  0.00     0.038 A 
HETATM   19  C12 UNL     1       5.576  -2.372 -17.437  1.00  0.00     0.026 A 
HETATM   20  C13 UNL     1       5.339  -3.537 -18.128  1.00  0.00     0.034 A 
HETATM   21 CL1  UNL     1       5.288  -3.544 -19.875  1.00  0.00    -0.084 Cl
HETATM   22  C14 UNL     1       5.154  -4.716 -17.441  1.00  0.00     0.026 A 
HETATM   23  C15 UNL     1       5.214  -4.697 -16.090  1.00  0.00     0.038 A 
ENDBRANCH  16  17
ENDBRANCH  15  16
ENDBRANCH   5  15
ENDBRANCH   1   5
BRANCH   3  24
HETATM   24  S1  UNL     1       3.364  -1.401  -8.489  1.00  0.00     0.248 S 
HETATM   25  O4  UNL     1       4.800  -1.442  -7.857  1.00  0.00    -0.204 OA
HETATM   26  O5  UNL     1       3.131   0.135  -8.539  1.00  0.00    -0.204 OA
BRANCH  24  27
HETATM   27  C17 UNL     1       2.272  -2.029  -7.325  1.00  0.00     0.133 C 
HETATM   28  C25 UNL     1       0.858  -1.503  -7.295  1.00  0.00     0.060 C 
HETATM   29  C26 UNL     1       0.407  -2.153  -5.985  1.00  0.00     0.169 C 
HETATM   30  O6  UNL     1       1.521  -2.341  -5.220  1.00  0.00    -0.389 OA
HETATM   31  C27 UNL     1       2.649  -1.888  -5.892  1.00  0.00     0.200 C 
BRANCH  27  32
HETATM   32  C18 UNL     1       2.047  -3.496  -7.717  1.00  0.00    -0.031 A 
HETATM   33  C19 UNL     1       2.917  -4.431  -7.278  1.00  0.00     0.010 A 
HETATM   34  C20 UNL     1       2.686  -5.782  -7.498  1.00  0.00     0.017 A 
HETATM   35  C21 UNL     1       1.547  -6.145  -8.178  1.00  0.00     0.047 A 
HETATM   36  C23 UNL     1       0.659  -5.207  -8.632  1.00  0.00     0.017 A 
HETATM   37  C24 UNL     1       0.917  -3.870  -8.400  1.00  0.00     0.010 A 
BRANCH  35  38
HETATM   38  C22 UNL     1       1.263  -7.602  -8.353  1.00  0.00     0.417 C 
HETATM   39  F1  UNL     1       0.726  -8.186  -7.253  1.00  0.00    -0.166 F 
HETATM   40  F2  UNL     1       2.503  -8.164  -8.708  1.00  0.00    -0.166 F 
HETATM   41  F3  UNL     1       0.416  -7.800  -9.437  1.00  0.00    -0.166 F 
ENDBRANCH  35  38
ENDBRANCH  27  32
ENDBRANCH  24  27
ENDBRANCH   3  24
TORSDOF 9
ENDMDL
MODEL 5
REMARK VINA RESULT: -8.588800426      7.601     11.734
REMARK  9 active torsions:
REMARK  status: ('A' for Active; 'I' for Inactive)
REMARK       I    between atoms: N1_2  and  C3_4 
REMARK    1  A    between atoms: C3_4  and  C4_6 
REMARK    2  A    between atoms: C8_10  and  C9_11 
REMARK    3  A    between atoms: C8_10  and  C16_20 
REMARK    4  A    between atoms: C9_11  and  O2_12 
REMARK    5  A    between atoms: O2_12  and  C10_13 
REMARK       I    between atoms: C16_20  and  N2_22 
REMARK    6  A    between atoms: N2_22  and  S1_24 
REMARK    7  A    between atoms: S1_24  and  C17_27 
REMARK    8  A    between atoms: C17_27  and  C18_28 
REMARK    9  A    between atoms: C21_31  and  C22_32 
ROOT
HETATM    1  C16 UNL     1       2.761  -6.048  -8.803  1.00  0.00     0.242 C 
HETATM    2  O3  UNL     1       3.257  -6.021  -7.670  1.00  0.00    -0.272 OA
HETATM    3  N2  UNL     1       1.950  -7.135  -9.209  1.00  0.00    -0.253 N 
ATOM      4  H2  UNL     1       1.585  -7.046 -10.158  1.00  0.00     0.181 HD
ENDROOT
BRANCH   1   5
HETATM    5  C8  UNL     1       2.973  -4.950  -9.805  1.00  0.00     0.076 C 
HETATM    6  C4  UNL     1       2.546  -3.629  -9.498  1.00  0.00     0.098 C 
HETATM    7  C5  UNL     1       1.031  -3.693  -9.231  1.00  0.00     0.015 C 
HETATM    8  C6  UNL     1       0.598  -5.014  -9.826  1.00  0.00     0.002 C 
HETATM    9  C7  UNL     1       1.676  -5.275 -10.810  1.00  0.00     0.022 C 
BRANCH   6  10
HETATM   10  C3  UNL     1       3.133  -3.042  -8.248  1.00  0.00     0.224 C 
HETATM   11  N1  UNL     1       4.326  -2.310  -8.293  1.00  0.00    -0.360 N 
HETATM   12  C1  UNL     1       5.175  -2.117  -9.460  1.00  0.00     0.152 C 
HETATM   13  C2  UNL     1       4.781  -1.611  -7.069  1.00  0.00     0.152 C 
HETATM   14  O1  UNL     1       2.550  -3.197  -7.161  1.00  0.00    -0.273 OA
ENDBRANCH   6  10
BRANCH   5  15
HETATM   15  C9  UNL     1       4.026  -5.288 -10.836  1.00  0.00     0.196 C 
BRANCH  15  16
HETATM   16  O2  UNL     1       3.609  -4.991 -12.105  1.00  0.00    -0.350 OA
BRANCH  16  17
HETATM   17  C10 UNL     1       4.112  -4.317 -13.148  1.00  0.00     0.068 A 
HETATM   18  C11 UNL     1       3.867  -2.998 -13.414  1.00  0.00     0.038 A 
HETATM   19  C12 UNL     1       4.444  -2.343 -14.512  1.00  0.00     0.026 A 
HETATM   20  C13 UNL     1       5.282  -3.030 -15.357  1.00  0.00     0.034 A 
HETATM   21 CL1  UNL     1       6.030  -2.228 -16.719  1.00  0.00    -0.084 Cl
HETATM   22  C14 UNL     1       5.550  -4.361 -15.126  1.00  0.00     0.026 A 
HETATM   23  C15 UNL     1       4.978  -4.962 -14.058  1.00  0.00     0.038 A 
ENDBRANCH  16  17
ENDBRANCH  15  16
ENDBRANCH   5  15
ENDBRANCH   1   5
BRANCH   3  24
HETATM   24  S1  UNL     1       1.478  -8.525  -8.440  1.00  0.00     0.248 S 
HETATM   25  O4  UNL     1       1.319  -8.201  -6.914  1.00  0.00    -0.204 OA
HETATM   26  O5  UNL     1      -0.007  -8.780  -8.823  1.00  0.00    -0.204 OA
BRANCH  24  27
HETATM   27  C17 UNL     1       2.285 -10.033  -8.564  1.00  0.00     0.133 C 
HETATM   28  C25 UNL     1       3.792 -10.050  -8.634  1.00  0.00     0.060 C 
HETATM   29  C26 UNL     1       3.983 -11.527  -8.985  1.00  0.00     0.169 C 
HETATM   30  O6  UNL     1       2.852 -11.941  -9.629  1.00  0.00    -0.389 OA
HETATM   31  C27 UNL     1       1.945 -10.893  -9.730  1.00  0.00     0.200 C 
BRANCH  27  32
HETATM   32  C18 UNL     1       2.032 -10.749  -7.230  1.00  0.00    -0.031 A 
HETATM   33  C19 UNL     1       2.857 -10.504  -6.189  1.00  0.00     0.010 A 
HETATM   34  C20 UNL     1       2.594 -11.026  -4.930  1.00  0.00     0.017 A 
HETATM   35  C21 UNL     1       1.471 -11.804  -4.770  1.00  0.00     0.047 A 
HETATM   36  C23 UNL     1       0.630 -12.064  -5.818  1.00  0.00     0.017 A 
HETATM   37  C24 UNL     1       0.918 -11.533  -7.059  1.00  0.00     0.010 A 
BRANCH  35  38
HETATM   38  C22 UNL     1       1.151 -12.308  -3.399  1.00  0.00     0.417 C 
HETATM   39  F1  UNL     1       2.248 -12.553  -2.642  1.00  0.00    -0.166 F 
HETATM   40  F2  UNL     1       0.380 -13.464  -3.618  1.00  0.00    -0.166 F 
HETATM   41  F3  UNL     1       0.328 -11.406  -2.735  1.00  0.00    -0.166 F 
ENDBRANCH  35  38
ENDBRANCH  27  32
ENDBRANCH  24  27
ENDBRANCH   3  24
TORSDOF 9
ENDMDL
