MODEL 1
REMARK VINA RESULT: -8.210167285      0.000      0.000
REMARK  10 active torsions:
REMARK  status: ('A' for Active; 'I' for Inactive)
REMARK    1  A    between atoms: N1_4  and  C4_5 
REMARK    2  A    between atoms: C4_5  and  C5_6 
REMARK    3  A    between atoms: C8_9  and  O1_10 
REMARK    4  A    between atoms: O1_10  and  C9_11 
REMARK    5  A    between atoms: C12_17  and  C13_18 
REMARK       I    between atoms: C13_18  and  N2_20 
REMARK    6  A    between atoms: C17_25  and  C18_26 
REMARK       I    between atoms: C18_26  and  N3_28 
REMARK    7  A    between atoms: N3_28  and  C19_30 
REMARK    8  A    between atoms: N4_35  and  C24_36 
REMARK    9  A    between atoms: C24_36  and  O4_37 
REMARK   10  A    between atoms: C24_36  and  C25_39 
ROOT
HETATM    1  C1  UNL     1       2.159   1.354 -13.325  1.00  0.00     0.034 C 
HETATM    2  C2  UNL     1       2.669   0.133 -12.688  1.00  0.00     0.099 C 
HETATM    3  C3  UNL     1       4.196   0.020 -12.765  1.00  0.00     0.143 C 
HETATM    4  N1  UNL     1       4.569  -1.288 -12.506  1.00  0.00    -0.393 N 
HETATM    5  C12 UNL     1       3.857  -2.139 -11.656  1.00  0.00     0.190 C 
HETATM    6  C23 UNL     1       2.631  -1.590 -11.012  1.00  0.00     0.160 C 
HETATM    7  N4  UNL     1       2.381  -0.155 -11.332  1.00  0.00    -0.357 N 
ENDROOT
BRANCH   5   8
HETATM    8  C13 UNL     1       4.720  -2.691 -10.541  1.00  0.00     0.244 C 
HETATM    9  O2  UNL     1       5.727  -2.003 -10.176  1.00  0.00    -0.271 OA
HETATM   10  N2  UNL     1       4.463  -3.924  -9.894  1.00  0.00    -0.334 N 
HETATM   11  C14 UNL     1       5.296  -4.431  -8.818  1.00  0.00     0.164 C 
HETATM   12  C17 UNL     1       3.455  -4.924 -10.120  1.00  0.00     0.182 C 
HETATM   13  C15 UNL     1       5.146  -5.939  -8.898  1.00  0.00     0.190 C 
HETATM   14  F4  UNL     1       6.377  -6.509  -9.006  1.00  0.00    -0.248 F 
HETATM   15  C16 UNL     1       4.320  -6.183 -10.164  1.00  0.00     0.074 C 
BRANCH  12  16
HETATM   16  C18 UNL     1       2.486  -4.961  -9.046  1.00  0.00     0.241 C 
HETATM   17  O3  UNL     1       1.894  -6.008  -8.720  1.00  0.00    -0.271 OA
HETATM   18  N3  UNL     1       2.177  -3.779  -8.321  1.00  0.00    -0.351 N 
ATOM     19  H3  UNL     1       2.653  -2.914  -8.576  1.00  0.00     0.163 HD
BRANCH  18  20
HETATM   20  C19 UNL     1       1.216  -3.744  -7.233  1.00  0.00     0.022 C 
HETATM   21  C20 UNL     1      -0.119  -4.319  -7.623  1.00  0.00     0.037 C 
HETATM   22  C21 UNL     1       1.720  -4.439  -5.989  1.00  0.00     0.037 C 
HETATM   23  C22 UNL     1       0.950  -2.283  -6.842  1.00  0.00     0.037 C 
ENDBRANCH  18  20
ENDBRANCH  12  16
ENDBRANCH   5   8
BRANCH   4  24
HETATM   24  C4  UNL     1       5.769  -1.801 -13.049  1.00  0.00     0.156 C 
BRANCH  24  25
HETATM   25  C5  UNL     1       5.521  -2.640 -14.248  1.00  0.00    -0.041 A 
HETATM   26  C6  UNL     1       5.614  -2.168 -15.518  1.00  0.00     0.011 A 
HETATM   27  C7  UNL     1       5.385  -2.962 -16.628  1.00  0.00     0.037 A 
HETATM   28  C8  UNL     1       5.044  -4.295 -16.490  1.00  0.00     0.078 A 
HETATM   29  C10 UNL     1       4.944  -4.796 -15.192  1.00  0.00     0.037 A 
HETATM   30  C11 UNL     1       5.176  -3.989 -14.101  1.00  0.00     0.011 A 
BRANCH  28  31
HETATM   31  O1  UNL     1       4.814  -5.098 -17.582  1.00  0.00    -0.255 OA
BRANCH  31  32
HETATM   32  C9  UNL     1       5.724  -6.045 -18.093  1.00  0.00     0.530 C 
HETATM   33  F1  UNL     1       6.097  -5.661 -19.370  1.00  0.00    -0.144 F 
HETATM   34  F2  UNL     1       6.879  -6.150 -17.341  1.00  0.00    -0.144 F 
HETATM   35  F3  UNL     1       5.138  -7.304 -18.212  1.00  0.00    -0.144 F 
ENDBRANCH  31  32
ENDBRANCH  28  31
ENDBRANCH  24  25
ENDBRANCH   4  24
BRANCH   7  36
HETATM   36  C24 UNL     1       1.921   0.649 -10.294  1.00  0.00     0.118 C 
BRANCH  36  37
HETATM   37  O4  UNL     1       0.629   0.656 -10.144  1.00  0.00    -0.349 OA
ATOM     38  H4  UNL     1       0.272   1.475  -9.820  1.00  0.00     0.219 HD
ENDBRANCH  36  37
BRANCH  36  39
HETATM   39  C25 UNL     1       2.624   1.493  -9.338  1.00  0.00     0.064 C 
HETATM   40  C26 UNL     1       4.016   0.895  -9.000  1.00  0.00     0.039 C 
HETATM   41  C27 UNL     1       3.922  -0.081  -7.866  1.00  0.00     0.168 C 
HETATM   42  O5  UNL     1       3.650   0.566  -6.661  1.00  0.00    -0.391 OA
HETATM   43  C28 UNL     1       2.840   1.682  -6.857  1.00  0.00     0.168 C 
HETATM   44  C29 UNL     1       1.883   1.369  -7.992  1.00  0.00     0.039 C 
ENDBRANCH  36  39
ENDBRANCH   7  36
TORSDOF 10
ENDMDL
MODEL 2
REMARK VINA RESULT: -8.132899322      1.566      2.074
REMARK  10 active torsions:
REMARK  status: ('A' for Active; 'I' for Inactive)
REMARK    1  A    between atoms: N1_4  and  C4_5 
REMARK    2  A    between atoms: C4_5  and  C5_6 
REMARK    3  A    between atoms: C8_9  and  O1_10 
REMARK    4  A    between atoms: O1_10  and  C9_11 
REMARK    5  A    between atoms: C12_17  and  C13_18 
REMARK       I    between atoms: C13_18  and  N2_20 
REMARK    6  A    between atoms: C17_25  and  C18_26 
REMARK       I    between atoms: C18_26  and  N3_28 
REMARK    7  A    between atoms: N3_28  and  C19_30 
REMARK    8  A    between atoms: N4_35  and  C24_36 
REMARK    9  A    between atoms: C24_36  and  O4_37 
REMARK   10  A    between atoms: C24_36  and  C25_39 
ROOT
HETATM    1  C1  UNL     1       1.989   0.947 -13.218  1.00  0.00     0.034 C 
HETATM    2  C2  UNL     1       2.443  -0.258 -12.511  1.00  0.00     0.099 C 
HETATM    3  C3  UNL     1       3.970  -0.396 -12.502  1.00  0.00     0.143 C 
HETATM    4  N1  UNL     1       4.306  -1.700 -12.177  1.00  0.00    -0.393 N 
HETATM    5  C12 UNL     1       3.535  -2.509 -11.336  1.00  0.00     0.190 C 
HETATM    6  C23 UNL     1       2.286  -1.917 -10.779  1.00  0.00     0.160 C 
HETATM    7  N4  UNL     1       2.078  -0.491 -11.164  1.00  0.00    -0.357 N 
ENDROOT
BRANCH   5   8
HETATM    8  C13 UNL     1       4.327  -3.031 -10.157  1.00  0.00     0.244 C 
HETATM    9  O2  UNL     1       5.016  -2.196  -9.488  1.00  0.00    -0.271 OA
HETATM   10  N2  UNL     1       4.340  -4.394  -9.769  1.00  0.00    -0.334 N 
HETATM   11  C14 UNL     1       5.098  -4.874  -8.627  1.00  0.00     0.164 C 
HETATM   12  C17 UNL     1       3.719  -5.553 -10.350  1.00  0.00     0.182 C 
HETATM   13  C15 UNL     1       5.410  -6.322  -8.960  1.00  0.00     0.190 C 
HETATM   14  F4  UNL     1       6.754  -6.521  -8.886  1.00  0.00    -0.248 F 
HETATM   15  C16 UNL     1       4.909  -6.510 -10.394  1.00  0.00     0.074 C 
BRANCH  12  16
HETATM   16  C18 UNL     1       2.641  -6.054  -9.524  1.00  0.00     0.241 C 
HETATM   17  O3  UNL     1       1.646  -5.360  -9.237  1.00  0.00    -0.271 OA
HETATM   18  N3  UNL     1       2.691  -7.376  -9.007  1.00  0.00    -0.351 N 
ATOM     19  H3  UNL     1       3.499  -7.956  -9.233  1.00  0.00     0.163 HD
BRANCH  18  20
HETATM   20  C19 UNL     1       1.646  -7.942  -8.172  1.00  0.00     0.022 C 
HETATM   21  C20 UNL     1       1.166  -6.981  -7.118  1.00  0.00     0.037 C 
HETATM   22  C21 UNL     1       0.466  -8.440  -8.975  1.00  0.00     0.037 C 
HETATM   23  C22 UNL     1       2.207  -9.155  -7.416  1.00  0.00     0.037 C 
ENDBRANCH  18  20
ENDBRANCH  12  16
ENDBRANCH   5   8
BRANCH   4  24
HETATM   24  C4  UNL     1       5.524  -2.251 -12.635  1.00  0.00     0.156 C 
BRANCH  24  25
HETATM   25  C5  UNL     1       5.361  -2.955 -13.932  1.00  0.00    -0.041 A 
HETATM   26  C6  UNL     1       5.495  -2.338 -15.134  1.00  0.00     0.011 A 
HETATM   27  C7  UNL     1       5.345  -3.007 -16.337  1.00  0.00     0.037 A 
HETATM   28  C8  UNL     1       5.046  -4.357 -16.367  1.00  0.00     0.078 A 
HETATM   29  C10 UNL     1       4.906  -5.006 -15.140  1.00  0.00     0.037 A 
HETATM   30  C11 UNL     1       5.059  -4.322 -13.955  1.00  0.00     0.011 A 
BRANCH  28  31
HETATM   31  O1  UNL     1       4.895  -5.036 -17.552  1.00  0.00    -0.255 OA
BRANCH  31  32
HETATM   32  C9  UNL     1       5.783  -6.017 -18.038  1.00  0.00     0.530 C 
HETATM   33  F1  UNL     1       6.235  -5.628 -19.288  1.00  0.00    -0.144 F 
HETATM   34  F2  UNL     1       6.894  -6.192 -17.235  1.00  0.00    -0.144 F 
HETATM   35  F3  UNL     1       5.144  -7.244 -18.211  1.00  0.00    -0.144 F 
ENDBRANCH  31  32
ENDBRANCH  28  31
ENDBRANCH  24  25
ENDBRANCH   4  24
BRANCH   7  36
HETATM   36  C24 UNL     1       1.577   0.357 -10.182  1.00  0.00     0.118 C 
BRANCH  36  37
HETATM   37  O4  UNL     1       0.286   0.516 -10.207  1.00  0.00    -0.349 OA
ATOM     38  H4  UNL     1      -0.060   1.065  -9.513  1.00  0.00     0.219 HD
ENDBRANCH  36  37
BRANCH  36  39
HETATM   39  C25 UNL     1       2.237   1.109  -9.123  1.00  0.00     0.064 C 
HETATM   40  C26 UNL     1       1.909   2.621  -9.239  1.00  0.00     0.039 C 
HETATM   41  C27 UNL     1       2.877   3.314 -10.150  1.00  0.00     0.168 C 
HETATM   42  O5  UNL     1       4.145   3.396  -9.575  1.00  0.00    -0.391 OA
HETATM   43  C28 UNL     1       4.413   2.285  -8.779  1.00  0.00     0.168 C 
HETATM   44  C29 UNL     1       3.749   1.081  -9.421  1.00  0.00     0.039 C 
ENDBRANCH  36  39
ENDBRANCH   7  36
TORSDOF 10
ENDMDL
MODEL 3
REMARK VINA RESULT: -8.061821245      3.245      4.388
REMARK  10 active torsions:
REMARK  status: ('A' for Active; 'I' for Inactive)
REMARK    1  A    between atoms: N1_4  and  C4_5 
REMARK    2  A    between atoms: C4_5  and  C5_6 
REMARK    3  A    between atoms: C8_9  and  O1_10 
REMARK    4  A    between atoms: O1_10  and  C9_11 
REMARK    5  A    between atoms: C12_17  and  C13_18 
REMARK       I    between atoms: C13_18  and  N2_20 
REMARK    6  A    between atoms: C17_25  and  C18_26 
REMARK       I    between atoms: C18_26  and  N3_28 
REMARK    7  A    between atoms: N3_28  and  C19_30 
REMARK    8  A    between atoms: N4_35  and  C24_36 
REMARK    9  A    between atoms: C24_36  and  O4_37 
REMARK   10  A    between atoms: C24_36  and  C25_39 
ROOT
HETATM    1  C1  UNL     1       3.004  -1.889 -10.703  1.00  0.00     0.034 C 
HETATM    2  C2  UNL     1       3.203  -3.284 -10.289  1.00  0.00     0.099 C 
HETATM    3  C3  UNL     1       4.365  -3.959 -11.026  1.00  0.00     0.143 C 
HETATM    4  N1  UNL     1       4.258  -5.332 -10.885  1.00  0.00    -0.393 N 
HETATM    5  C12 UNL     1       3.702  -5.951  -9.760  1.00  0.00     0.190 C 
HETATM    6  C23 UNL     1       3.200  -5.064  -8.674  1.00  0.00     0.160 C 
HETATM    7  N4  UNL     1       3.431  -3.614  -8.931  1.00  0.00    -0.357 N 
ENDROOT
BRANCH   5   8
HETATM    8  C13 UNL     1       4.658  -6.929  -9.112  1.00  0.00     0.244 C 
HETATM    9  O2  UNL     1       5.851  -6.539  -8.900  1.00  0.00    -0.271 OA
HETATM   10  N2  UNL     1       4.292  -8.245  -8.736  1.00  0.00    -0.334 N 
HETATM   11  C14 UNL     1       5.220  -9.164  -8.104  1.00  0.00     0.164 C 
HETATM   12  C17 UNL     1       3.060  -8.970  -8.895  1.00  0.00     0.182 C 
HETATM   13  C15 UNL     1       4.720 -10.542  -8.500  1.00  0.00     0.190 C 
HETATM   14  F4  UNL     1       5.730 -11.234  -9.095  1.00  0.00    -0.248 F 
HETATM   15  C16 UNL     1       3.585 -10.275  -9.491  1.00  0.00     0.074 C 
BRANCH  12  16
HETATM   16  C18 UNL     1       2.391  -9.174  -7.628  1.00  0.00     0.241 C 
HETATM   17  O3  UNL     1       2.461  -8.346  -6.699  1.00  0.00    -0.271 OA
HETATM   18  N3  UNL     1       1.623 -10.348  -7.406  1.00  0.00    -0.351 N 
ATOM     19  H3  UNL     1       1.557 -11.035  -8.157  1.00  0.00     0.163 HD
BRANCH  18  20
HETATM   20  C19 UNL     1       0.927 -10.616  -6.160  1.00  0.00     0.022 C 
HETATM   21  C20 UNL     1       1.870 -10.850  -5.010  1.00  0.00     0.037 C 
HETATM   22  C21 UNL     1      -0.053  -9.525  -5.794  1.00  0.00     0.037 C 
HETATM   23  C22 UNL     1       0.111 -11.909  -6.307  1.00  0.00     0.037 C 
ENDBRANCH  18  20
ENDBRANCH  12  16
ENDBRANCH   5   8
BRANCH   4  24
HETATM   24  C4  UNL     1       4.797  -6.188 -11.871  1.00  0.00     0.156 C 
BRANCH  24  25
HETATM   25  C5  UNL     1       4.972  -5.494 -13.172  1.00  0.00    -0.041 A 
HETATM   26  C6  UNL     1       4.423  -4.283 -13.447  1.00  0.00     0.011 A 
HETATM   27  C7  UNL     1       4.597  -3.643 -14.662  1.00  0.00     0.037 A 
HETATM   28  C8  UNL     1       5.351  -4.220 -15.667  1.00  0.00     0.078 A 
HETATM   29  C10 UNL     1       5.922  -5.465 -15.401  1.00  0.00     0.037 A 
HETATM   30  C11 UNL     1       5.736  -6.084 -14.186  1.00  0.00     0.011 A 
BRANCH  28  31
HETATM   31  O1  UNL     1       5.534  -3.598 -16.879  1.00  0.00    -0.255 OA
BRANCH  31  32
HETATM   32  C9  UNL     1       5.263  -4.181 -18.134  1.00  0.00     0.530 C 
HETATM   33  F1  UNL     1       5.061  -3.171 -19.060  1.00  0.00    -0.144 F 
HETATM   34  F2  UNL     1       6.296  -4.970 -18.603  1.00  0.00    -0.144 F 
HETATM   35  F3  UNL     1       4.088  -4.933 -18.105  1.00  0.00    -0.144 F 
ENDBRANCH  31  32
ENDBRANCH  28  31
ENDBRANCH  24  25
ENDBRANCH   4  24
BRANCH   7  36
HETATM   36  C24 UNL     1       3.820  -2.837  -7.844  1.00  0.00     0.118 C 
BRANCH  36  37
HETATM   37  O4  UNL     1       5.107  -2.737  -7.682  1.00  0.00    -0.349 OA
ATOM     38  H4  UNL     1       5.450  -3.210  -6.932  1.00  0.00     0.219 HD
ENDBRANCH  36  37
BRANCH  36  39
HETATM   39  C25 UNL     1       3.048  -2.113  -6.845  1.00  0.00     0.064 C 
HETATM   40  C26 UNL     1       1.598  -2.662  -6.769  1.00  0.00     0.039 C 
HETATM   41  C27 UNL     1       0.709  -1.975  -7.761  1.00  0.00     0.168 C 
HETATM   42  O5  UNL     1       0.472  -0.650  -7.398  1.00  0.00    -0.391 OA
HETATM   43  C28 UNL     1       1.579  -0.095  -6.760  1.00  0.00     0.168 C 
HETATM   44  C29 UNL     1       2.825  -0.687  -7.389  1.00  0.00     0.039 C 
ENDBRANCH  36  39
ENDBRANCH   7  36
TORSDOF 10
ENDMDL
MODEL 4
REMARK VINA RESULT: -8.032982378      1.336      1.704
REMARK  10 active torsions:
REMARK  status: ('A' for Active; 'I' for Inactive)
REMARK    1  A    between atoms: N1_4  and  C4_5 
REMARK    2  A    between atoms: C4_5  and  C5_6 
REMARK    3  A    between atoms: C8_9  and  O1_10 
REMARK    4  A    between atoms: O1_10  and  C9_11 
REMARK    5  A    between atoms: C12_17  and  C13_18 
REMARK       I    between atoms: C13_18  and  N2_20 
REMARK    6  A    between atoms: C17_25  and  C18_26 
REMARK       I    between atoms: C18_26  and  N3_28 
REMARK    7  A    between atoms: N3_28  and  C19_30 
REMARK    8  A    between atoms: N4_35  and  C24_36 
REMARK    9  A    between atoms: C24_36  and  O4_37 
REMARK   10  A    between atoms: C24_36  and  C25_39 
ROOT
HETATM    1  C1  UNL     1       2.119   1.070 -13.311  1.00  0.00     0.034 C 
HETATM    2  C2  UNL     1       2.540  -0.134 -12.583  1.00  0.00     0.099 C 
HETATM    3  C3  UNL     1       4.062  -0.311 -12.563  1.00  0.00     0.143 C 
HETATM    4  N1  UNL     1       4.364  -1.617 -12.216  1.00  0.00    -0.393 N 
HETATM    5  C12 UNL     1       3.568  -2.393 -11.367  1.00  0.00     0.190 C 
HETATM    6  C23 UNL     1       2.332  -1.761 -10.826  1.00  0.00     0.160 C 
HETATM    7  N4  UNL     1       2.162  -0.336 -11.234  1.00  0.00    -0.357 N 
ENDROOT
BRANCH   5   8
HETATM    8  C13 UNL     1       4.341  -2.917 -10.176  1.00  0.00     0.244 C 
HETATM    9  O2  UNL     1       5.025  -2.083  -9.499  1.00  0.00    -0.271 OA
HETATM   10  N2  UNL     1       4.343  -4.278  -9.785  1.00  0.00    -0.334 N 
HETATM   11  C14 UNL     1       5.082  -4.760  -8.632  1.00  0.00     0.164 C 
HETATM   12  C17 UNL     1       3.724  -5.436 -10.372  1.00  0.00     0.182 C 
HETATM   13  C15 UNL     1       5.392  -6.210  -8.957  1.00  0.00     0.190 C 
HETATM   14  F4  UNL     1       6.734  -6.415  -8.864  1.00  0.00    -0.248 F 
HETATM   15  C16 UNL     1       4.910  -6.398 -10.398  1.00  0.00     0.074 C 
BRANCH  12  16
HETATM   16  C18 UNL     1       2.633  -5.930  -9.560  1.00  0.00     0.241 C 
HETATM   17  O3  UNL     1       1.633  -5.235  -9.297  1.00  0.00    -0.271 OA
HETATM   18  N3  UNL     1       2.675  -7.248  -9.032  1.00  0.00    -0.351 N 
ATOM     19  H3  UNL     1       3.487  -7.830  -9.239  1.00  0.00     0.163 HD
BRANCH  18  20
HETATM   20  C19 UNL     1       1.616  -7.808  -8.210  1.00  0.00     0.022 C 
HETATM   21  C20 UNL     1       1.110  -6.834  -7.179  1.00  0.00     0.037 C 
HETATM   22  C21 UNL     1       0.455  -8.323  -9.029  1.00  0.00     0.037 C 
HETATM   23  C22 UNL     1       2.167  -9.007  -7.425  1.00  0.00     0.037 C 
ENDBRANCH  18  20
ENDBRANCH  12  16
ENDBRANCH   5   8
BRANCH   4  24
HETATM   24  C4  UNL     1       5.570  -2.206 -12.659  1.00  0.00     0.156 C 
BRANCH  24  25
HETATM   25  C5  UNL     1       5.394  -2.928 -13.945  1.00  0.00    -0.041 A 
HETATM   26  C6  UNL     1       5.524  -2.331 -15.157  1.00  0.00     0.011 A 
HETATM   27  C7  UNL     1       5.363  -3.016 -16.348  1.00  0.00     0.037 A 
HETATM   28  C8  UNL     1       5.056  -4.364 -16.356  1.00  0.00     0.078 A 
HETATM   29  C10 UNL     1       4.919  -4.994 -15.118  1.00  0.00     0.037 A 
HETATM   30  C11 UNL     1       5.083  -4.293 -13.945  1.00  0.00     0.011 A 
BRANCH  28  31
HETATM   31  O1  UNL     1       4.893  -5.061 -17.530  1.00  0.00    -0.255 OA
BRANCH  31  32
HETATM   32  C9  UNL     1       5.789  -6.031 -18.023  1.00  0.00     0.530 C 
HETATM   33  F1  UNL     1       6.257  -5.617 -19.259  1.00  0.00    -0.144 F 
HETATM   34  F2  UNL     1       6.889  -6.220 -17.209  1.00  0.00    -0.144 F 
HETATM   35  F3  UNL     1       5.154  -7.255 -18.228  1.00  0.00    -0.144 F 
ENDBRANCH  31  32
ENDBRANCH  28  31
ENDBRANCH  24  25
ENDBRANCH   4  24
BRANCH   7  36
HETATM   36  C24 UNL     1       1.679   0.540 -10.267  1.00  0.00     0.118 C 
BRANCH  36  37
HETATM   37  O4  UNL     1       0.415   0.399  -9.990  1.00  0.00    -0.349 OA
ATOM     38  H4  UNL     1       0.037   1.114  -9.491  1.00  0.00     0.219 HD
ENDBRANCH  36  37
BRANCH  36  39
HETATM   39  C25 UNL     1       2.330   1.595  -9.504  1.00  0.00     0.064 C 
HETATM   40  C26 UNL     1       3.666   1.089  -8.898  1.00  0.00     0.039 C 
HETATM   41  C27 UNL     1       3.443   0.445  -7.563  1.00  0.00     0.168 C 
HETATM   42  O5  UNL     1       3.095   1.388  -6.597  1.00  0.00    -0.391 OA
HETATM   43  C28 UNL     1       2.344   2.424  -7.149  1.00  0.00     0.168 C 
HETATM   44  C29 UNL     1       1.475   1.838  -8.244  1.00  0.00     0.039 C 
ENDBRANCH  36  39
ENDBRANCH   7  36
TORSDOF 10
ENDMDL
MODEL 5
REMARK VINA RESULT: -8.029843676      2.584      3.477
REMARK  10 active torsions:
REMARK  status: ('A' for Active; 'I' for Inactive)
REMARK    1  A    between atoms: N1_4  and  C4_5 
REMARK    2  A    between atoms: C4_5  and  C5_6 
REMARK    3  A    between atoms: C8_9  and  O1_10 
REMARK    4  A    between atoms: O1_10  and  C9_11 
REMARK    5  A    between atoms: C12_17  and  C13_18 
REMARK       I    between atoms: C13_18  and  N2_20 
REMARK    6  A    between atoms: C17_25  and  C18_26 
REMARK       I    between atoms: C18_26  and  N3_28 
REMARK    7  A    between atoms: N3_28  and  C19_30 
REMARK    8  A    between atoms: N4_35  and  C24_36 
REMARK    9  A    between atoms: C24_36  and  O4_37 
REMARK   10  A    between atoms: C24_36  and  C25_39 
ROOT
HETATM    1  C1  UNL     1       4.040   2.292 -15.901  1.00  0.00     0.034 C 
HETATM    2  C2  UNL     1       3.899   1.414 -14.731  1.00  0.00     0.099 C 
HETATM    3  C3  UNL     1       5.210   0.714 -14.357  1.00  0.00     0.143 C 
HETATM    4  N1  UNL     1       4.931  -0.357 -13.524  1.00  0.00    -0.393 N 
HETATM    5  C12 UNL     1       3.857  -0.379 -12.629  1.00  0.00     0.190 C 
HETATM    6  C23 UNL     1       2.976   0.822 -12.593  1.00  0.00     0.160 C 
HETATM    7  N4  UNL     1       3.425   1.919 -13.497  1.00  0.00    -0.357 N 
ENDROOT
BRANCH   5   8
HETATM    8  C13 UNL     1       4.302  -0.630 -11.204  1.00  0.00     0.244 C 
HETATM    9  O2  UNL     1       4.798   0.348 -10.557  1.00  0.00    -0.271 OA
HETATM   10  N2  UNL     1       4.197  -1.890 -10.565  1.00  0.00    -0.334 N 
HETATM   11  C14 UNL     1       4.620  -2.108  -9.193  1.00  0.00     0.164 C 
HETATM   12  C17 UNL     1       3.741  -3.165 -11.047  1.00  0.00     0.182 C 
HETATM   13  C15 UNL     1       4.994  -3.578  -9.139  1.00  0.00     0.190 C 
HETATM   14  F4  UNL     1       6.268  -3.702  -8.677  1.00  0.00    -0.248 F 
HETATM   15  C16 UNL     1       4.889  -4.061 -10.588  1.00  0.00     0.074 C 
BRANCH  12  16
HETATM   16  C18 UNL     1       2.477  -3.542 -10.451  1.00  0.00     0.241 C 
HETATM   17  O3  UNL     1       1.473  -2.806 -10.501  1.00  0.00    -0.271 OA
HETATM   18  N3  UNL     1       2.347  -4.787  -9.779  1.00  0.00    -0.351 N 
ATOM     19  H3  UNL     1       3.160  -5.400  -9.729  1.00  0.00     0.163 HD
BRANCH  18  20
HETATM   20  C19 UNL     1       1.110  -5.228  -9.158  1.00  0.00     0.022 C 
HETATM   21  C20 UNL     1       0.572  -4.228  -8.169  1.00  0.00     0.037 C 
HETATM   22  C21 UNL     1       0.039  -5.562 -10.170  1.00  0.00     0.037 C 
HETATM   23  C22 UNL     1       1.377  -6.511  -8.359  1.00  0.00     0.037 C 
ENDBRANCH  18  20
ENDBRANCH  12  16
ENDBRANCH   5   8
BRANCH   4  24
HETATM   24  C4  UNL     1       5.800  -1.471 -13.491  1.00  0.00     0.156 C 
BRANCH  24  25
HETATM   25  C5  UNL     1       5.532  -2.415 -14.606  1.00  0.00    -0.041 A 
HETATM   26  C6  UNL     1       5.646  -2.071 -15.914  1.00  0.00     0.011 A 
HETATM   27  C7  UNL     1       5.399  -2.961 -16.945  1.00  0.00     0.037 A 
HETATM   28  C8  UNL     1       5.017  -4.264 -16.682  1.00  0.00     0.078 A 
HETATM   29  C10 UNL     1       4.896  -4.634 -15.342  1.00  0.00     0.037 A 
HETATM   30  C11 UNL     1       5.146  -3.733 -14.333  1.00  0.00     0.011 A 
BRANCH  28  31
HETATM   31  O1  UNL     1       4.769  -5.161 -17.693  1.00  0.00    -0.255 OA
BRANCH  31  32
HETATM   32  C9  UNL     1       5.705  -6.085 -18.199  1.00  0.00     0.530 C 
HETATM   33  F1  UNL     1       6.820  -6.087 -17.377  1.00  0.00    -0.144 F 
HETATM   34  F2  UNL     1       5.224  -7.380 -18.242  1.00  0.00    -0.144 F 
HETATM   35  F3  UNL     1       6.149  -5.718 -19.469  1.00  0.00    -0.144 F 
ENDBRANCH  31  32
ENDBRANCH  28  31
ENDBRANCH  24  25
ENDBRANCH   4  24
BRANCH   7  36
HETATM   36  C24 UNL     1       3.315   3.218 -13.010  1.00  0.00     0.118 C 
BRANCH  36  37
HETATM   37  O4  UNL     1       2.124   3.734 -13.105  1.00  0.00    -0.349 OA
ATOM     38  H4  UNL     1       1.882   4.306 -12.386  1.00  0.00     0.219 HD
ENDBRANCH  36  37
BRANCH  36  39
HETATM   39  C25 UNL     1       4.294   4.115 -12.412  1.00  0.00     0.064 C 
HETATM   40  C26 UNL     1       4.635   5.278 -13.381  1.00  0.00     0.039 C 
HETATM   41  C27 UNL     1       5.749   4.897 -14.309  1.00  0.00     0.168 C 
HETATM   42  O5  UNL     1       6.964   4.799 -13.630  1.00  0.00    -0.391 OA
HETATM   43  C28 UNL     1       6.780   4.337 -12.329  1.00  0.00     0.168 C 
HETATM   44  C29 UNL     1       5.630   3.348 -12.343  1.00  0.00     0.039 C 
ENDBRANCH  36  39
ENDBRANCH   7  36
TORSDOF 10
ENDMDL
