MODEL 1
REMARK VINA RESULT: -5.638676167      0.000      0.000
REMARK  8 active torsions:
REMARK  status: ('A' for Active; 'I' for Inactive)
REMARK    1  A    between atoms: C1_2  and  C2_4 
REMARK    2  A    between atoms: C2_4  and  N2_5 
REMARK    3  A    between atoms: C2_4  and  C3_9 
REMARK    4  A    between atoms: C3_9  and  C4_10 
REMARK    5  A    between atoms: C4_10  and  N3_11 
REMARK    6  A    between atoms: C4_10  and  C6_16 
REMARK    7  A    between atoms: C6_16  and  N6_17 
REMARK    8  A    between atoms: C6_16  and  C7_21 
ROOT
HETATM    1  C4  UNL     1      -1.551  25.634 -10.870  1.00  0.00     0.122 C 
ENDROOT
BRANCH   1   2
HETATM    2  C3  UNL     1      -0.196  25.267 -10.332  1.00  0.00     0.069 C 
BRANCH   2   3
HETATM    3  C2  UNL     1      -0.169  24.996  -8.866  1.00  0.00     0.273 C 
BRANCH   3   4
HETATM    4  C1  UNL     1      -0.330  23.603  -8.461  1.00  0.00     0.261 C 
HETATM    5  N1  UNL     1      -0.427  22.467  -9.299  1.00  0.00    -0.060 NA
HETATM    6  O1  UNL     1      -0.399  23.340  -7.212  1.00  0.00    -0.275 OA
ENDBRANCH   3   4
BRANCH   3   7
HETATM    7  N2  UNL     1       1.160  25.454  -8.401  1.00  0.00    -0.067 N 
ATOM      8  H23 UNL     1       1.640  24.759  -7.829  1.00  0.00     0.275 HD
ATOM      9  H22 UNL     1       1.845  25.508  -9.154  1.00  0.00     0.275 HD
ATOM     10  H21 UNL     1       1.033  26.343  -7.917  1.00  0.00     0.275 HD
ENDBRANCH   3   7
ENDBRANCH   2   3
ENDBRANCH   1   2
BRANCH   1  11
HETATM   11  N3  UNL     1      -2.256  24.481 -11.384  1.00  0.00    -0.360 N 
HETATM   12  C5  UNL     1      -2.513  24.341 -12.643  1.00  0.00     0.197 C 
HETATM   13  N4  UNL     1      -3.211  23.183 -13.082  1.00  0.00    -0.067 NA
HETATM   14  N5  UNL     1      -2.128  25.296 -13.623  1.00  0.00    -0.067 NA
ATOM     15  H3  UNL     1      -2.561  23.757 -10.733  1.00  0.00     0.162 HD
ENDBRANCH   1  11
BRANCH   1  16
HETATM   16  C6  UNL     1      -2.372  26.403  -9.864  1.00  0.00     0.255 C 
BRANCH  16  17
HETATM   17  N6  UNL     1      -3.270  25.431  -9.251  1.00  0.00    -0.068 N 
ATOM     18  H63 UNL     1      -3.987  25.083  -9.886  1.00  0.00     0.275 HD
ATOM     19  H62 UNL     1      -2.827  24.533  -9.060  1.00  0.00     0.275 HD
ATOM     20  H61 UNL     1      -3.648  25.884  -8.419  1.00  0.00     0.275 HD
ENDBRANCH  16  17
BRANCH  16  21
HETATM   21  C7  UNL     1      -3.129  27.530 -10.397  1.00  0.00     0.041 A 
HETATM   22  C8  UNL     1      -2.697  28.754 -10.861  1.00  0.00     0.028 A 
HETATM   23  C9  UNL     1      -3.788  29.487 -11.263  1.00  0.00     0.019 A 
HETATM   24  C10 UNL     1      -4.876  28.694 -11.040  1.00  0.00     0.088 A 
HETATM   25  N7  UNL     1      -4.467  27.543 -10.528  1.00  0.00    -0.367 N 
ATOM     26  H7  UNL     1      -5.083  26.773 -10.268  1.00  0.00     0.165 HD
ENDBRANCH  16  21
ENDBRANCH   1  16
TORSDOF 8
ENDMDL
MODEL 2
REMARK VINA RESULT: -5.596370270      1.220      1.330
REMARK  8 active torsions:
REMARK  status: ('A' for Active; 'I' for Inactive)
REMARK    1  A    between atoms: C1_2  and  C2_4 
REMARK    2  A    between atoms: C2_4  and  N2_5 
REMARK    3  A    between atoms: C2_4  and  C3_9 
REMARK    4  A    between atoms: C3_9  and  C4_10 
REMARK    5  A    between atoms: C4_10  and  N3_11 
REMARK    6  A    between atoms: C4_10  and  C6_16 
REMARK    7  A    between atoms: C6_16  and  N6_17 
REMARK    8  A    between atoms: C6_16  and  C7_21 
ROOT
HETATM    1  C4  UNL     1      -1.912  24.975 -10.884  1.00  0.00     0.122 C 
ENDROOT
BRANCH   1   2
HETATM    2  C3  UNL     1      -1.166  23.802 -10.312  1.00  0.00     0.069 C 
BRANCH   2   3
HETATM    3  C2  UNL     1       0.178  24.139  -9.759  1.00  0.00     0.273 C 
BRANCH   3   4
HETATM    4  C1  UNL     1       0.275  24.239  -8.306  1.00  0.00     0.261 C 
HETATM    5  N1  UNL     1      -0.485  23.537  -7.341  1.00  0.00    -0.060 NA
HETATM    6  O1  UNL     1       1.131  25.048  -7.811  1.00  0.00    -0.275 OA
ENDBRANCH   3   4
BRANCH   3   7
HETATM    7  N2  UNL     1       1.075  23.046 -10.200  1.00  0.00    -0.067 N 
ATOM      8  H23 UNL     1       1.799  23.365 -10.844  1.00  0.00     0.275 HD
ATOM      9  H22 UNL     1       1.691  22.715  -9.456  1.00  0.00     0.275 HD
ATOM     10  H21 UNL     1       0.496  22.304 -10.592  1.00  0.00     0.275 HD
ENDBRANCH   3   7
ENDBRANCH   2   3
ENDBRANCH   1   2
BRANCH   1  11
HETATM   11  N3  UNL     1      -3.067  24.557 -11.647  1.00  0.00    -0.360 N 
HETATM   12  C5  UNL     1      -3.213  24.870 -12.894  1.00  0.00     0.197 C 
HETATM   13  N4  UNL     1      -4.373  24.428 -13.586  1.00  0.00    -0.067 NA
HETATM   14  N5  UNL     1      -2.263  25.645 -13.614  1.00  0.00    -0.067 NA
ATOM     15  H3  UNL     1      -3.787  23.998 -11.190  1.00  0.00     0.162 HD
ENDBRANCH   1  11
BRANCH   1  16
HETATM   16  C6  UNL     1      -2.266  25.993  -9.828  1.00  0.00     0.255 C 
BRANCH  16  17
HETATM   17  N6  UNL     1      -3.052  25.279  -8.828  1.00  0.00    -0.068 N 
ATOM     18  H63 UNL     1      -2.926  25.635  -7.881  1.00  0.00     0.275 HD
ATOM     19  H62 UNL     1      -4.053  25.458  -8.896  1.00  0.00     0.275 HD
ATOM     20  H61 UNL     1      -2.807  24.294  -8.929  1.00  0.00     0.275 HD
ENDBRANCH  16  17
BRANCH  16  21
HETATM   21  C7  UNL     1      -2.989  27.168 -10.300  1.00  0.00     0.041 A 
HETATM   22  C8  UNL     1      -2.518  28.356 -10.816  1.00  0.00     0.028 A 
HETATM   23  C9  UNL     1      -3.589  29.162 -11.124  1.00  0.00     0.019 A 
HETATM   24  C10 UNL     1      -4.704  28.448 -10.791  1.00  0.00     0.088 A 
HETATM   25  N7  UNL     1      -4.330  27.274 -10.307  1.00  0.00    -0.367 N 
ATOM     26  H7  UNL     1      -4.971  26.550  -9.982  1.00  0.00     0.165 HD
ENDBRANCH  16  21
ENDBRANCH   1  16
TORSDOF 8
ENDMDL
MODEL 3
REMARK VINA RESULT: -5.518019989      1.542      1.822
REMARK  8 active torsions:
REMARK  status: ('A' for Active; 'I' for Inactive)
REMARK    1  A    between atoms: C1_2  and  C2_4 
REMARK    2  A    between atoms: C2_4  and  N2_5 
REMARK    3  A    between atoms: C2_4  and  C3_9 
REMARK    4  A    between atoms: C3_9  and  C4_10 
REMARK    5  A    between atoms: C4_10  and  N3_11 
REMARK    6  A    between atoms: C4_10  and  C6_16 
REMARK    7  A    between atoms: C6_16  and  N6_17 
REMARK    8  A    between atoms: C6_16  and  C7_21 
ROOT
HETATM    1  C4  UNL     1      -1.299  24.838 -10.306  1.00  0.00     0.122 C 
ENDROOT
BRANCH   1   2
HETATM    2  C3  UNL     1      -0.462  23.834  -9.563  1.00  0.00     0.069 C 
BRANCH   2   3
HETATM    3  C2  UNL     1       0.922  24.297  -9.252  1.00  0.00     0.273 C 
BRANCH   3   4
HETATM    4  C1  UNL     1       1.436  25.397 -10.061  1.00  0.00     0.261 C 
HETATM    5  N1  UNL     1       1.958  25.329 -11.375  1.00  0.00    -0.060 NA
HETATM    6  O1  UNL     1       1.434  26.571  -9.558  1.00  0.00    -0.275 OA
ENDBRANCH   3   4
BRANCH   3   7
HETATM    7  N2  UNL     1       0.882  24.751  -7.842  1.00  0.00    -0.067 N 
ATOM      8  H23 UNL     1       1.483  25.556  -7.669  1.00  0.00     0.275 HD
ATOM      9  H22 UNL     1      -0.006  25.187  -7.592  1.00  0.00     0.275 HD
ATOM     10  H21 UNL     1       1.111  23.953  -7.250  1.00  0.00     0.275 HD
ENDBRANCH   3   7
ENDBRANCH   2   3
ENDBRANCH   1   2
BRANCH   1  11
HETATM   11  N3  UNL     1      -2.221  24.198 -11.218  1.00  0.00    -0.360 N 
HETATM   12  C5  UNL     1      -2.161  24.386 -12.496  1.00  0.00     0.197 C 
HETATM   13  N4  UNL     1      -3.099  23.728 -13.337  1.00  0.00    -0.067 NA
HETATM   14  N5  UNL     1      -1.193  25.228 -13.110  1.00  0.00    -0.067 NA
ATOM     15  H3  UNL     1      -2.941  23.581 -10.842  1.00  0.00     0.162 HD
ENDBRANCH   1  11
BRANCH   1  16
HETATM   16  C6  UNL     1      -1.994  25.799  -9.373  1.00  0.00     0.255 C 
BRANCH  16  17
HETATM   17  N6  UNL     1      -2.913  24.993  -8.577  1.00  0.00    -0.068 N 
ATOM     18  H63 UNL     1      -3.865  25.359  -8.559  1.00  0.00     0.275 HD
ATOM     19  H62 UNL     1      -3.135  24.093  -9.001  1.00  0.00     0.275 HD
ATOM     20  H61 UNL     1      -2.490  24.915  -7.653  1.00  0.00     0.275 HD
ENDBRANCH  16  17
BRANCH  16  21
HETATM   21  C7  UNL     1      -2.706  26.898 -10.015  1.00  0.00     0.041 A 
HETATM   22  C8  UNL     1      -2.226  28.053 -10.595  1.00  0.00     0.028 A 
HETATM   23  C9  UNL     1      -3.287  28.785 -11.070  1.00  0.00     0.019 A 
HETATM   24  C10 UNL     1      -4.406  28.063 -10.773  1.00  0.00     0.088 A 
HETATM   25  N7  UNL     1      -4.043  26.952 -10.150  1.00  0.00    -0.367 N 
ATOM     26  H7  UNL     1      -4.689  26.235  -9.818  1.00  0.00     0.165 HD
ENDBRANCH  16  21
ENDBRANCH   1  16
TORSDOF 8
ENDMDL
MODEL 4
REMARK VINA RESULT: -5.429180661      2.119      3.530
REMARK  8 active torsions:
REMARK  status: ('A' for Active; 'I' for Inactive)
REMARK    1  A    between atoms: C1_2  and  C2_4 
REMARK    2  A    between atoms: C2_4  and  N2_5 
REMARK    3  A    between atoms: C2_4  and  C3_9 
REMARK    4  A    between atoms: C3_9  and  C4_10 
REMARK    5  A    between atoms: C4_10  and  N3_11 
REMARK    6  A    between atoms: C4_10  and  C6_16 
REMARK    7  A    between atoms: C6_16  and  N6_17 
REMARK    8  A    between atoms: C6_16  and  C7_21 
ROOT
HETATM    1  C4  UNL     1      -0.151  24.612 -10.377  1.00  0.00     0.122 C 
ENDROOT
BRANCH   1   2
HETATM    2  C3  UNL     1      -1.122  23.978 -11.333  1.00  0.00     0.069 C 
BRANCH   2   3
HETATM    3  C2  UNL     1      -0.892  22.523 -11.570  1.00  0.00     0.273 C 
BRANCH   3   4
HETATM    4  C1  UNL     1      -0.096  21.821 -10.569  1.00  0.00     0.261 C 
HETATM    5  N1  UNL     1       1.169  21.213 -10.745  1.00  0.00    -0.060 NA
HETATM    6  O1  UNL     1      -0.566  21.718  -9.385  1.00  0.00    -0.275 OA
ENDBRANCH   3   4
BRANCH   3   7
HETATM    7  N2  UNL     1      -2.238  21.906 -11.595  1.00  0.00    -0.067 N 
ATOM      8  H23 UNL     1      -2.205  20.887 -11.628  1.00  0.00     0.275 HD
ATOM      9  H22 UNL     1      -2.732  21.998 -10.707  1.00  0.00     0.275 HD
ATOM     10  H21 UNL     1      -2.753  22.310 -12.378  1.00  0.00     0.275 HD
ENDBRANCH   3   7
ENDBRANCH   2   3
ENDBRANCH   1   2
BRANCH   1  11
HETATM   11  N3  UNL     1       0.848  25.397 -11.068  1.00  0.00    -0.360 N 
HETATM   12  C5  UNL     1       2.113  25.156 -10.944  1.00  0.00     0.197 C 
HETATM   13  N4  UNL     1       3.043  25.966 -11.651  1.00  0.00    -0.067 NA
HETATM   14  N5  UNL     1       2.626  24.110 -10.129  1.00  0.00    -0.067 NA
ATOM     15  H3  UNL     1       0.547  26.163 -11.670  1.00  0.00     0.162 HD
ENDBRANCH   1  11
BRANCH   1  16
HETATM   16  C6  UNL     1      -0.850  25.402  -9.298  1.00  0.00     0.255 C 
BRANCH  16  17
HETATM   17  N6  UNL     1      -1.379  24.420  -8.360  1.00  0.00    -0.068 N 
ATOM     18  H63 UNL     1      -1.569  23.512  -8.784  1.00  0.00     0.275 HD
ATOM     19  H62 UNL     1      -0.692  24.096  -7.680  1.00  0.00     0.275 HD
ATOM     20  H61 UNL     1      -2.201  24.850  -7.935  1.00  0.00     0.275 HD
ENDBRANCH  16  17
BRANCH  16  21
HETATM   21  C7  UNL     1      -1.911  26.292  -9.755  1.00  0.00     0.041 A 
HETATM   22  C8  UNL     1      -1.839  27.526 -10.365  1.00  0.00     0.028 A 
HETATM   23  C9  UNL     1      -3.114  27.977 -10.610  1.00  0.00     0.019 A 
HETATM   24  C10 UNL     1      -3.951  27.006 -10.144  1.00  0.00     0.088 A 
HETATM   25  N7  UNL     1      -3.224  26.019  -9.643  1.00  0.00    -0.367 N 
ATOM     26  H7  UNL     1      -3.606  25.169  -9.229  1.00  0.00     0.165 HD
ENDBRANCH  16  21
ENDBRANCH   1  16
TORSDOF 8
ENDMDL
MODEL 5
REMARK VINA RESULT: -5.429101798      2.522      4.268
REMARK  8 active torsions:
REMARK  status: ('A' for Active; 'I' for Inactive)
REMARK    1  A    between atoms: C1_2  and  C2_4 
REMARK    2  A    between atoms: C2_4  and  N2_5 
REMARK    3  A    between atoms: C2_4  and  C3_9 
REMARK    4  A    between atoms: C3_9  and  C4_10 
REMARK    5  A    between atoms: C4_10  and  N3_11 
REMARK    6  A    between atoms: C4_10  and  C6_16 
REMARK    7  A    between atoms: C6_16  and  N6_17 
REMARK    8  A    between atoms: C6_16  and  C7_21 
ROOT
HETATM    1  C4  UNL     1       1.507  24.883 -10.197  1.00  0.00     0.122 C 
ENDROOT
BRANCH   1   2
HETATM    2  C3  UNL     1       0.587  24.101 -11.092  1.00  0.00     0.069 C 
BRANCH   2   3
HETATM    3  C2  UNL     1       0.698  22.621 -10.947  1.00  0.00     0.273 C 
BRANCH   3   4
HETATM    4  C1  UNL     1      -0.334  21.968 -10.148  1.00  0.00     0.261 C 
HETATM    5  N1  UNL     1      -1.241  20.965 -10.565  1.00  0.00    -0.060 NA
HETATM    6  O1  UNL     1      -0.468  22.320  -8.927  1.00  0.00    -0.275 OA
ENDBRANCH   3   4
BRANCH   3   7
HETATM    7  N2  UNL     1       0.618  22.079 -12.323  1.00  0.00    -0.067 N 
ATOM      8  H23 UNL     1       0.814  21.079 -12.365  1.00  0.00     0.275 HD
ATOM      9  H22 UNL     1      -0.338  22.046 -12.680  1.00  0.00     0.275 HD
ATOM     10  H21 UNL     1       1.241  22.629 -12.913  1.00  0.00     0.275 HD
ENDBRANCH   3   7
ENDBRANCH   2   3
ENDBRANCH   1   2
BRANCH   1  11
HETATM   11  N3  UNL     1       2.367  25.769 -10.950  1.00  0.00    -0.360 N 
HETATM   12  C5  UNL     1       3.560  25.423 -11.309  1.00  0.00     0.197 C 
HETATM   13  N4  UNL     1       4.353  26.342 -12.048  1.00  0.00    -0.067 NA
HETATM   14  N5  UNL     1       4.125  24.156 -10.998  1.00  0.00    -0.067 NA
ATOM     15  H3  UNL     1       2.021  26.694 -11.206  1.00  0.00     0.162 HD
ENDBRANCH   1  11
BRANCH   1  16
HETATM   16  C6  UNL     1       0.758  25.608  -9.106  1.00  0.00     0.255 C 
BRANCH  16  17
HETATM   17  N6  UNL     1       0.792  24.730  -7.942  1.00  0.00    -0.068 N 
ATOM     18  H63 UNL     1       0.478  25.180  -7.083  1.00  0.00     0.275 HD
ATOM     19  H62 UNL     1       0.083  23.998  -7.964  1.00  0.00     0.275 HD
ATOM     20  H61 UNL     1       1.746  24.372  -7.888  1.00  0.00     0.275 HD
ENDBRANCH  16  17
BRANCH  16  21
HETATM   21  C7  UNL     1      -0.617  25.978  -9.424  1.00  0.00     0.041 A 
HETATM   22  C8  UNL     1      -1.115  27.095 -10.059  1.00  0.00     0.028 A 
HETATM   23  C9  UNL     1      -2.484  26.993 -10.129  1.00  0.00     0.019 A 
HETATM   24  C10 UNL     1      -2.803  25.808  -9.532  1.00  0.00     0.088 A 
HETATM   25  N7  UNL     1      -1.688  25.223  -9.122  1.00  0.00    -0.367 N 
ATOM     26  H7  UNL     1      -1.648  24.323  -8.643  1.00  0.00     0.165 HD
ENDBRANCH  16  21
ENDBRANCH   1  16
TORSDOF 8
ENDMDL
