MODEL 1
REMARK VINA RESULT: -5.138863718      0.000      0.000
REMARK  8 active torsions:
REMARK  status: ('A' for Active; 'I' for Inactive)
REMARK    1  A    between atoms: C3_3  and  C5_5 
REMARK    2  A    between atoms: C5_5  and  N1_6 
REMARK    3  A    between atoms: C5_5  and  C9_16 
REMARK       I    between atoms: N1_6  and  C6_8 
REMARK    4  A    between atoms: C6_8  and  C7_10 
REMARK    5  A    between atoms: C7_10  and  N2_12 
REMARK    6  A    between atoms: C9_16  and  N3_17 
REMARK    7  A    between atoms: C9_16  and  C10_21 
REMARK    8  A    between atoms: C10_21  and  N4_22 
REMARK       I    between atoms: N4_22  and  C11_24 
ROOT
HETATM    1  C1  UNL     1      -2.582  28.395 -10.788  1.00  0.00     0.012 C 
HETATM    2  C2  UNL     1      -1.990  27.468 -10.295  1.00  0.00    -0.111 C 
HETATM    3  C3  UNL     1      -1.273  26.324  -9.667  1.00  0.00     0.085 C 
HETATM    4  C4  UNL     1      -2.334  25.387  -9.173  1.00  0.00     0.025 C 
ENDROOT
BRANCH   3   5
HETATM    5  C5  UNL     1      -0.388  25.738 -10.727  1.00  0.00     0.131 C 
BRANCH   5   6
HETATM    6  N1  UNL     1      -0.993  24.523 -11.212  1.00  0.00    -0.351 N 
HETATM    7  C6  UNL     1      -1.145  24.203 -12.575  1.00  0.00     0.248 C 
HETATM    8  O1  UNL     1      -0.743  24.999 -13.437  1.00  0.00    -0.271 OA
ATOM      9  H1  UNL     1      -1.332  23.851 -10.523  1.00  0.00     0.163 HD
BRANCH   7  10
HETATM   10  C7  UNL     1      -1.773  22.940 -12.976  1.00  0.00     0.270 C 
HETATM   11  C8  UNL     1      -0.737  22.048 -13.639  1.00  0.00     0.050 C 
BRANCH  10  12
HETATM   12  N2  UNL     1      -2.257  22.270 -11.784  1.00  0.00    -0.067 N 
ATOM     13  H23 UNL     1      -2.213  22.864 -10.955  1.00  0.00     0.275 HD
ATOM     14  H22 UNL     1      -3.267  22.125 -11.797  1.00  0.00     0.275 HD
ATOM     15  H21 UNL     1      -1.737  21.400 -11.670  1.00  0.00     0.275 HD
ENDBRANCH  10  12
ENDBRANCH   7  10
ENDBRANCH   5   6
BRANCH   5  16
HETATM   16  C9  UNL     1       1.031  25.597 -10.269  1.00  0.00     0.224 C 
BRANCH  16  17
HETATM   17  N3  UNL     1       1.606  26.736  -9.646  1.00  0.00    -0.071 N 
ATOM     18  H33 UNL     1       2.510  26.489  -9.245  1.00  0.00     0.274 HD
ATOM     19  H32 UNL     1       1.895  27.408 -10.357  1.00  0.00     0.274 HD
ATOM     20  H31 UNL     1       1.032  27.203  -8.944  1.00  0.00     0.274 HD
ENDBRANCH  16  17
BRANCH  16  21
HETATM   21  C10 UNL     1       1.231  24.364  -9.410  1.00  0.00     0.159 C 
BRANCH  21  22
HETATM   22  N4  UNL     1       1.933  23.372 -10.168  1.00  0.00    -0.343 N 
HETATM   23  C11 UNL     1       1.440  22.103 -10.542  1.00  0.00     0.328 C 
HETATM   24  N5  UNL     1       2.232  21.185 -11.311  1.00  0.00    -0.040 NA
HETATM   25  O2  UNL     1       0.306  21.714 -10.231  1.00  0.00    -0.251 OA
ATOM     26  H4  UNL     1       2.881  23.605 -10.467  1.00  0.00     0.163 HD
ENDBRANCH  21  22
ENDBRANCH  16  21
ENDBRANCH   5  16
ENDBRANCH   3   5
TORSDOF 8
ENDMDL
MODEL 2
REMARK VINA RESULT: -5.037340150      2.858      3.493
REMARK  8 active torsions:
REMARK  status: ('A' for Active; 'I' for Inactive)
REMARK    1  A    between atoms: C3_3  and  C5_5 
REMARK    2  A    between atoms: C5_5  and  N1_6 
REMARK    3  A    between atoms: C5_5  and  C9_16 
REMARK       I    between atoms: N1_6  and  C6_8 
REMARK    4  A    between atoms: C6_8  and  C7_10 
REMARK    5  A    between atoms: C7_10  and  N2_12 
REMARK    6  A    between atoms: C9_16  and  N3_17 
REMARK    7  A    between atoms: C9_16  and  C10_21 
REMARK    8  A    between atoms: C10_21  and  N4_22 
REMARK       I    between atoms: N4_22  and  C11_24 
ROOT
HETATM    1  C1  UNL     1      -3.766  29.837 -11.409  1.00  0.00     0.012 C 
HETATM    2  C2  UNL     1      -3.397  28.762 -11.007  1.00  0.00    -0.111 C 
HETATM    3  C3  UNL     1      -2.954  27.438 -10.488  1.00  0.00     0.085 C 
HETATM    4  C4  UNL     1      -4.160  26.813  -9.854  1.00  0.00     0.025 C 
ENDROOT
BRANCH   3   5
HETATM    5  C5  UNL     1      -2.418  26.675 -11.663  1.00  0.00     0.131 C 
BRANCH   5   6
HETATM    6  N1  UNL     1      -3.520  26.036 -12.338  1.00  0.00    -0.351 N 
HETATM    7  C6  UNL     1      -3.627  25.912 -13.736  1.00  0.00     0.248 C 
HETATM    8  O1  UNL     1      -2.731  26.374 -14.460  1.00  0.00    -0.271 OA
ATOM      9  H1  UNL     1      -4.270  25.648 -11.765  1.00  0.00     0.163 HD
BRANCH   7  10
HETATM   10  C7  UNL     1      -4.786  25.244 -14.337  1.00  0.00     0.270 C 
HETATM   11  C8  UNL     1      -5.073  23.956 -13.584  1.00  0.00     0.050 C 
BRANCH  10  12
HETATM   12  N2  UNL     1      -5.937  26.117 -14.204  1.00  0.00    -0.067 N 
ATOM     13  H23 UNL     1      -6.003  26.541 -13.278  1.00  0.00     0.275 HD
ATOM     14  H22 UNL     1      -5.841  26.978 -14.744  1.00  0.00     0.275 HD
ATOM     15  H21 UNL     1      -6.773  25.589 -14.453  1.00  0.00     0.275 HD
ENDBRANCH  10  12
ENDBRANCH   7  10
ENDBRANCH   5   6
BRANCH   5  16
HETATM   16  C9  UNL     1      -1.296  25.759 -11.281  1.00  0.00     0.224 C 
BRANCH  16  17
HETATM   17  N3  UNL     1      -0.435  25.349 -12.333  1.00  0.00    -0.071 N 
ATOM     18  H33 UNL     1      -0.948  25.340 -13.215  1.00  0.00     0.274 HD
ATOM     19  H32 UNL     1       0.249  26.081 -12.525  1.00  0.00     0.274 HD
ATOM     20  H31 UNL     1       0.042  24.457 -12.203  1.00  0.00     0.274 HD
ENDBRANCH  16  17
BRANCH  16  21
HETATM   21  C10 UNL     1      -0.492  26.299 -10.116  1.00  0.00     0.159 C 
BRANCH  21  22
HETATM   22  N4  UNL     1      -0.065  25.207  -9.293  1.00  0.00    -0.343 N 
HETATM   23  C11 UNL     1      -0.865  24.489  -8.378  1.00  0.00     0.328 C 
HETATM   24  N5  UNL     1      -0.331  23.403  -7.605  1.00  0.00    -0.040 NA
HETATM   25  O2  UNL     1      -2.060  24.752  -8.194  1.00  0.00    -0.251 OA
ATOM     26  H4  UNL     1       0.911  24.922  -9.376  1.00  0.00     0.163 HD
ENDBRANCH  21  22
ENDBRANCH  16  21
ENDBRANCH   5  16
ENDBRANCH   3   5
TORSDOF 8
ENDMDL
MODEL 3
REMARK VINA RESULT: -5.014528922      2.502      4.065
REMARK  8 active torsions:
REMARK  status: ('A' for Active; 'I' for Inactive)
REMARK    1  A    between atoms: C3_3  and  C5_5 
REMARK    2  A    between atoms: C5_5  and  N1_6 
REMARK    3  A    between atoms: C5_5  and  C9_16 
REMARK       I    between atoms: N1_6  and  C6_8 
REMARK    4  A    between atoms: C6_8  and  C7_10 
REMARK    5  A    between atoms: C7_10  and  N2_12 
REMARK    6  A    between atoms: C9_16  and  N3_17 
REMARK    7  A    between atoms: C9_16  and  C10_21 
REMARK    8  A    between atoms: C10_21  and  N4_22 
REMARK       I    between atoms: N4_22  and  C11_24 
ROOT
HETATM    1  C1  UNL     1      -4.224  28.532 -10.790  1.00  0.00     0.012 C 
HETATM    2  C2  UNL     1      -3.204  27.903 -10.920  1.00  0.00    -0.111 C 
HETATM    3  C3  UNL     1      -1.931  27.146 -11.077  1.00  0.00     0.085 C 
HETATM    4  C4  UNL     1      -1.039  27.593  -9.958  1.00  0.00     0.025 C 
ENDROOT
BRANCH   3   5
HETATM    5  C5  UNL     1      -2.289  25.690 -11.028  1.00  0.00     0.131 C 
BRANCH   5   6
HETATM    6  N1  UNL     1      -1.285  24.995 -10.261  1.00  0.00    -0.351 N 
HETATM    7  C6  UNL     1      -1.435  24.628  -8.910  1.00  0.00     0.248 C 
HETATM    8  O1  UNL     1      -2.486  24.908  -8.314  1.00  0.00    -0.271 OA
ATOM      9  H1  UNL     1      -0.411  24.753 -10.728  1.00  0.00     0.163 HD
BRANCH   7  10
HETATM   10  C7  UNL     1      -0.358  23.920  -8.209  1.00  0.00     0.270 C 
HETATM   11  C8  UNL     1       0.893  24.782  -8.203  1.00  0.00     0.050 C 
BRANCH  10  12
HETATM   12  N2  UNL     1      -0.771  23.705  -6.835  1.00  0.00    -0.067 N 
ATOM     13  H23 UNL     1      -1.472  22.968  -6.747  1.00  0.00     0.275 HD
ATOM     14  H22 UNL     1      -0.042  23.270  -6.269  1.00  0.00     0.275 HD
ATOM     15  H21 UNL     1      -1.088  24.595  -6.451  1.00  0.00     0.275 HD
ENDBRANCH  10  12
ENDBRANCH   7  10
ENDBRANCH   5   6
BRANCH   5  16
HETATM   16  C9  UNL     1      -2.547  25.122 -12.389  1.00  0.00     0.224 C 
BRANCH  16  17
HETATM   17  N3  UNL     1      -2.630  26.058 -13.454  1.00  0.00    -0.071 N 
ATOM     18  H33 UNL     1      -2.843  25.570 -14.324  1.00  0.00     0.274 HD
ATOM     19  H32 UNL     1      -3.471  26.626 -13.349  1.00  0.00     0.274 HD
ATOM     20  H31 UNL     1      -1.820  26.662 -13.586  1.00  0.00     0.274 HD
ENDBRANCH  16  17
BRANCH  16  21
HETATM   21  C10 UNL     1      -1.580  24.008 -12.734  1.00  0.00     0.159 C 
BRANCH  21  22
HETATM   22  N4  UNL     1      -0.531  24.534 -13.557  1.00  0.00    -0.343 N 
HETATM   23  C11 UNL     1       0.789  24.819 -13.145  1.00  0.00     0.328 C 
HETATM   24  N5  UNL     1       1.765  25.341 -14.060  1.00  0.00    -0.040 NA
HETATM   25  O2  UNL     1       1.176  24.635 -11.984  1.00  0.00    -0.251 OA
ATOM     26  H4  UNL     1      -0.761  24.720 -14.533  1.00  0.00     0.163 HD
ENDBRANCH  21  22
ENDBRANCH  16  21
ENDBRANCH   5  16
ENDBRANCH   3   5
TORSDOF 8
ENDMDL
MODEL 4
REMARK VINA RESULT: -4.943304380      2.703      3.121
REMARK  8 active torsions:
REMARK  status: ('A' for Active; 'I' for Inactive)
REMARK    1  A    between atoms: C3_3  and  C5_5 
REMARK    2  A    between atoms: C5_5  and  N1_6 
REMARK    3  A    between atoms: C5_5  and  C9_16 
REMARK       I    between atoms: N1_6  and  C6_8 
REMARK    4  A    between atoms: C6_8  and  C7_10 
REMARK    5  A    between atoms: C7_10  and  N2_12 
REMARK    6  A    between atoms: C9_16  and  N3_17 
REMARK    7  A    between atoms: C9_16  and  C10_21 
REMARK    8  A    between atoms: C10_21  and  N4_22 
REMARK       I    between atoms: N4_22  and  C11_24 
ROOT
HETATM    1  C1  UNL     1      -4.077  29.892 -11.875  1.00  0.00     0.012 C 
HETATM    2  C2  UNL     1      -3.654  28.941 -11.266  1.00  0.00    -0.111 C 
HETATM    3  C3  UNL     1      -3.147  27.773 -10.494  1.00  0.00     0.085 C 
HETATM    4  C4  UNL     1      -4.346  27.147  -9.848  1.00  0.00     0.025 C 
ENDROOT
BRANCH   3   5
HETATM    5  C5  UNL     1      -2.449  26.880 -11.477  1.00  0.00     0.131 C 
BRANCH   5   6
HETATM    6  N1  UNL     1      -3.423  26.004 -12.077  1.00  0.00    -0.351 N 
HETATM    7  C6  UNL     1      -3.588  25.834 -13.465  1.00  0.00     0.248 C 
HETATM    8  O1  UNL     1      -2.862  26.467 -14.247  1.00  0.00    -0.271 OA
ATOM      9  H1  UNL     1      -4.033  25.472 -11.455  1.00  0.00     0.163 HD
BRANCH   7  10
HETATM   10  C7  UNL     1      -4.608  24.918 -13.986  1.00  0.00     0.270 C 
HETATM   11  C8  UNL     1      -4.176  24.404 -15.349  1.00  0.00     0.050 C 
BRANCH  10  12
HETATM   12  N2  UNL     1      -4.712  23.788 -13.083  1.00  0.00    -0.067 N 
ATOM     13  H23 UNL     1      -4.637  22.892 -13.565  1.00  0.00     0.275 HD
ATOM     14  H22 UNL     1      -3.895  23.691 -12.480  1.00  0.00     0.275 HD
ATOM     15  H21 UNL     1      -5.581  23.877 -12.555  1.00  0.00     0.275 HD
ENDBRANCH  10  12
ENDBRANCH   7  10
ENDBRANCH   5   6
BRANCH   5  16
HETATM   16  C9  UNL     1      -1.265  26.188 -10.875  1.00  0.00     0.224 C 
BRANCH  16  17
HETATM   17  N3  UNL     1      -0.620  26.863  -9.805  1.00  0.00    -0.071 N 
ATOM     18  H33 UNL     1      -1.229  26.872  -8.986  1.00  0.00     0.274 HD
ATOM     19  H32 UNL     1       0.153  26.297  -9.455  1.00  0.00     0.274 HD
ATOM     20  H31 UNL     1      -0.293  27.809 -10.001  1.00  0.00     0.274 HD
ENDBRANCH  16  17
BRANCH  16  21
HETATM   21  C10 UNL     1      -1.579  24.757 -10.487  1.00  0.00     0.159 C 
BRANCH  21  22
HETATM   22  N4  UNL     1      -1.307  24.577  -9.092  1.00  0.00    -0.343 N 
HETATM   23  C11 UNL     1      -0.547  23.535  -8.518  1.00  0.00     0.328 C 
HETATM   24  N5  UNL     1      -0.332  23.455  -7.100  1.00  0.00    -0.040 NA
HETATM   25  O2  UNL     1      -0.026  22.641  -9.198  1.00  0.00    -0.251 OA
ATOM     26  H4  UNL     1      -1.700  25.268  -8.453  1.00  0.00     0.163 HD
ENDBRANCH  21  22
ENDBRANCH  16  21
ENDBRANCH   5  16
ENDBRANCH   3   5
TORSDOF 8
ENDMDL
MODEL 5
REMARK VINA RESULT: -4.862689034      2.093      2.312
REMARK  8 active torsions:
REMARK  status: ('A' for Active; 'I' for Inactive)
REMARK    1  A    between atoms: C3_3  and  C5_5 
REMARK    2  A    between atoms: C5_5  and  N1_6 
REMARK    3  A    between atoms: C5_5  and  C9_16 
REMARK       I    between atoms: N1_6  and  C6_8 
REMARK    4  A    between atoms: C6_8  and  C7_10 
REMARK    5  A    between atoms: C7_10  and  N2_12 
REMARK    6  A    between atoms: C9_16  and  N3_17 
REMARK    7  A    between atoms: C9_16  and  C10_21 
REMARK    8  A    between atoms: C10_21  and  N4_22 
REMARK       I    between atoms: N4_22  and  C11_24 
ROOT
HETATM    1  C1  UNL     1      -3.618  29.536 -11.315  1.00  0.00     0.012 C 
HETATM    2  C2  UNL     1      -3.175  28.521 -10.837  1.00  0.00    -0.111 C 
HETATM    3  C3  UNL     1      -2.644  27.272 -10.226  1.00  0.00     0.085 C 
HETATM    4  C4  UNL     1      -3.839  26.488  -9.773  1.00  0.00     0.025 C 
ENDROOT
BRANCH   3   5
HETATM    5  C5  UNL     1      -1.833  26.587 -11.287  1.00  0.00     0.131 C 
BRANCH   5   6
HETATM    6  N1  UNL     1      -2.638  25.554 -11.888  1.00  0.00    -0.351 N 
HETATM    7  C6  UNL     1      -3.125  25.598 -13.209  1.00  0.00     0.248 C 
HETATM    8  O1  UNL     1      -2.860  26.576 -13.925  1.00  0.00    -0.271 OA
ATOM      9  H1  UNL     1      -2.870  24.739 -11.320  1.00  0.00     0.163 HD
BRANCH   7  10
HETATM   10  C7  UNL     1      -3.938  24.498 -13.738  1.00  0.00     0.270 C 
HETATM   11  C8  UNL     1      -3.187  23.810 -14.865  1.00  0.00     0.050 C 
BRANCH  10  12
HETATM   12  N2  UNL     1      -4.151  23.534 -12.675  1.00  0.00    -0.067 N 
ATOM     13  H23 UNL     1      -3.530  23.684 -11.879  1.00  0.00     0.275 HD
ATOM     14  H22 UNL     1      -5.036  23.675 -12.188  1.00  0.00     0.275 HD
ATOM     15  H21 UNL     1      -4.064  22.597 -13.068  1.00  0.00     0.275 HD
ENDBRANCH  10  12
ENDBRANCH   7  10
ENDBRANCH   5   6
BRANCH   5  16
HETATM   16  C9  UNL     1      -0.500  26.131 -10.777  1.00  0.00     0.224 C 
BRANCH  16  17
HETATM   17  N3  UNL     1      -0.422  25.853  -9.386  1.00  0.00    -0.071 N 
ATOM     18  H33 UNL     1       0.003  26.643  -8.901  1.00  0.00     0.274 HD
ATOM     19  H32 UNL     1      -1.357  25.867  -8.978  1.00  0.00     0.274 HD
ATOM     20  H31 UNL     1       0.055  24.990  -9.125  1.00  0.00     0.274 HD
ENDBRANCH  16  17
BRANCH  16  21
HETATM   21  C10 UNL     1       0.051  24.972 -11.582  1.00  0.00     0.159 C 
BRANCH  21  22
HETATM   22  N4  UNL     1       0.168  23.824 -10.734  1.00  0.00    -0.343 N 
HETATM   23  C11 UNL     1      -0.684  22.698 -10.730  1.00  0.00     0.328 C 
HETATM   24  N5  UNL     1      -0.468  21.595  -9.836  1.00  0.00    -0.040 NA
HETATM   25  O2  UNL     1      -1.655  22.598 -11.491  1.00  0.00    -0.251 OA
ATOM     26  H4  UNL     1       0.942  23.819 -10.069  1.00  0.00     0.163 HD
ENDBRANCH  21  22
ENDBRANCH  16  21
ENDBRANCH   5  16
ENDBRANCH   3   5
TORSDOF 8
ENDMDL
