MODEL 1
REMARK VINA RESULT: -5.783476926      0.000      0.000
REMARK  7 active torsions:
REMARK  status: ('A' for Active; 'I' for Inactive)
REMARK    1  A    between atoms: C3_3  and  N1_4 
REMARK    2  A    between atoms: C3_3  and  C10_24 
REMARK       I    between atoms: N1_4  and  C4_6 
REMARK    3  A    between atoms: C4_6  and  C5_8 
REMARK    4  A    between atoms: C5_8  and  N2_9 
REMARK    5  A    between atoms: C5_8  and  C6_13 
REMARK    6  A    between atoms: C6_13  and  C7_14 
REMARK    7  A    between atoms: C9_18  and  N4_19 
ROOT
HETATM    1  C1  UNL     1      -7.826  28.589 -12.417  1.00  0.00     0.015 C 
HETATM    2  C2  UNL     1      -6.641  28.745 -12.208  1.00  0.00    -0.083 C 
HETATM    3  C3  UNL     1      -5.224  28.939 -11.959  1.00  0.00     0.253 C 
ENDROOT
BRANCH   3   4
HETATM    4  N1  UNL     1      -4.651  27.685 -11.571  1.00  0.00    -0.337 N 
HETATM    5  C4  UNL     1      -3.402  27.611 -10.895  1.00  0.00     0.250 C 
HETATM    6  O1  UNL     1      -2.759  28.653 -10.615  1.00  0.00    -0.271 OA
ATOM      7  H1  UNL     1      -5.151  26.822 -11.787  1.00  0.00     0.164 HD
BRANCH   5   8
HETATM    8  C5  UNL     1      -2.829  26.319 -10.504  1.00  0.00     0.280 C 
BRANCH   8   9
HETATM    9  N2  UNL     1      -3.424  25.206 -11.216  1.00  0.00    -0.066 N 
ATOM     10  H23 UNL     1      -4.441  25.246 -11.172  1.00  0.00     0.275 HD
ATOM     11  H22 UNL     1      -3.297  25.306 -12.223  1.00  0.00     0.275 HD
ATOM     12  H21 UNL     1      -3.078  24.303 -10.891  1.00  0.00     0.275 HD
ENDBRANCH   8   9
BRANCH   8  13
HETATM   13  C6  UNL     1      -1.331  26.261 -10.739  1.00  0.00     0.101 C 
BRANCH  13  14
HETATM   14  C7  UNL     1      -0.711  25.548  -9.594  1.00  0.00     0.045 A 
HETATM   15  C8  UNL     1       0.634  25.537  -9.227  1.00  0.00     0.131 A 
HETATM   16  N3  UNL     1       0.769  24.768  -8.133  1.00  0.00    -0.200 N 
HETATM   17  C9  UNL     1      -0.451  24.302  -7.807  1.00  0.00     0.675 A 
ATOM     18  H3  UNL     1       1.639  24.573  -7.639  1.00  0.00     0.183 HD
HETATM   19  N5  UNL     1      -1.333  24.775  -8.690  1.00  0.00    -0.194 N 
ATOM     20  H5  UNL     1      -2.334  24.577  -8.679  1.00  0.00     0.184 HD
BRANCH  17  21
HETATM   21  N4  UNL     1      -0.712  23.516  -6.793  1.00  0.00    -0.234 N 
ATOM     22  H42 UNL     1      -1.389  23.688  -6.050  1.00  0.00     0.174 HD
ATOM     23  H41 UNL     1      -0.264  22.616  -6.616  1.00  0.00     0.174 HD
ENDBRANCH  17  21
ENDBRANCH  13  14
ENDBRANCH   8  13
ENDBRANCH   5   8
ENDBRANCH   3   4
BRANCH   3  24
HETATM   24  C10 UNL     1      -4.532  29.517 -13.158  1.00  0.00     0.265 C 
HETATM   25  N6  UNL     1      -4.243  30.904 -13.242  1.00  0.00    -0.059 NA
HETATM   26  O2  UNL     1      -4.181  28.800 -14.131  1.00  0.00    -0.273 OA
ENDBRANCH   3  24
TORSDOF 7
ENDMDL
MODEL 2
REMARK VINA RESULT: -5.773516411      1.557      1.568
REMARK  7 active torsions:
REMARK  status: ('A' for Active; 'I' for Inactive)
REMARK    1  A    between atoms: C3_3  and  N1_4 
REMARK    2  A    between atoms: C3_3  and  C10_24 
REMARK       I    between atoms: N1_4  and  C4_6 
REMARK    3  A    between atoms: C4_6  and  C5_8 
REMARK    4  A    between atoms: C5_8  and  N2_9 
REMARK    5  A    between atoms: C5_8  and  C6_13 
REMARK    6  A    between atoms: C6_13  and  C7_14 
REMARK    7  A    between atoms: C9_18  and  N4_19 
ROOT
HETATM    1  C1  UNL     1      -7.734  27.488 -13.787  1.00  0.00     0.015 C 
HETATM    2  C2  UNL     1      -6.955  28.069 -13.060  1.00  0.00    -0.083 C 
HETATM    3  C3  UNL     1      -6.030  28.769 -12.188  1.00  0.00     0.253 C 
ENDROOT
BRANCH   3   4
HETATM    4  N1  UNL     1      -4.758  28.111 -12.246  1.00  0.00    -0.337 N 
HETATM    5  C4  UNL     1      -4.245  27.377 -11.141  1.00  0.00     0.250 C 
HETATM    6  O1  UNL     1      -4.898  27.283 -10.072  1.00  0.00    -0.271 OA
ATOM      7  H1  UNL     1      -4.207  28.171 -13.102  1.00  0.00     0.164 HD
BRANCH   5   8
HETATM    8  C5  UNL     1      -2.943  26.708 -11.217  1.00  0.00     0.280 C 
BRANCH   8   9
HETATM    9  N2  UNL     1      -2.474  26.550 -12.579  1.00  0.00    -0.066 N 
ATOM     10  H23 UNL     1      -1.456  26.567 -12.619  1.00  0.00     0.275 HD
ATOM     11  H22 UNL     1      -2.637  25.601 -12.915  1.00  0.00     0.275 HD
ATOM     12  H21 UNL     1      -2.877  27.238 -13.215  1.00  0.00     0.275 HD
ENDBRANCH   8   9
BRANCH   8  13
HETATM   13  C6  UNL     1      -1.868  27.458 -10.451  1.00  0.00     0.101 C 
BRANCH  13  14
HETATM   14  C7  UNL     1      -1.015  26.460  -9.758  1.00  0.00     0.045 A 
HETATM   15  C8  UNL     1       0.377  26.447  -9.669  1.00  0.00     0.131 A 
HETATM   16  N3  UNL     1       0.746  25.371  -8.953  1.00  0.00    -0.200 N 
HETATM   17  C9  UNL     1      -0.373  24.715  -8.593  1.00  0.00     0.675 A 
ATOM     18  H3  UNL     1       1.702  25.101  -8.725  1.00  0.00     0.183 HD
HETATM   19  N5  UNL     1      -1.424  25.376  -9.081  1.00  0.00    -0.194 N 
ATOM     20  H5  UNL     1      -2.398  25.097  -8.957  1.00  0.00     0.184 HD
BRANCH  17  21
HETATM   21  N4  UNL     1      -0.406  23.614  -7.885  1.00  0.00    -0.234 N 
ATOM     22  H42 UNL     1      -0.147  22.680  -8.203  1.00  0.00     0.174 HD
ATOM     23  H41 UNL     1      -0.699  23.550  -6.910  1.00  0.00     0.174 HD
ENDBRANCH  17  21
ENDBRANCH  13  14
ENDBRANCH   8  13
ENDBRANCH   5   8
ENDBRANCH   3   4
BRANCH   3  24
HETATM   24  C10 UNL     1      -5.920  30.219 -12.556  1.00  0.00     0.265 C 
HETATM   25  N6  UNL     1      -4.713  30.755 -13.078  1.00  0.00    -0.059 NA
HETATM   26  O2  UNL     1      -6.886  31.014 -12.418  1.00  0.00    -0.273 OA
ENDBRANCH   3  24
TORSDOF 7
ENDMDL
MODEL 3
REMARK VINA RESULT: -5.708694186      2.952      4.349
REMARK  7 active torsions:
REMARK  status: ('A' for Active; 'I' for Inactive)
REMARK    1  A    between atoms: C3_3  and  N1_4 
REMARK    2  A    between atoms: C3_3  and  C10_24 
REMARK       I    between atoms: N1_4  and  C4_6 
REMARK    3  A    between atoms: C4_6  and  C5_8 
REMARK    4  A    between atoms: C5_8  and  N2_9 
REMARK    5  A    between atoms: C5_8  and  C6_13 
REMARK    6  A    between atoms: C6_13  and  C7_14 
REMARK    7  A    between atoms: C9_18  and  N4_19 
ROOT
HETATM    1  C1  UNL     1      -9.389  30.178 -15.745  1.00  0.00     0.015 C 
HETATM    2  C2  UNL     1      -9.044  30.231 -14.583  1.00  0.00    -0.083 C 
HETATM    3  C3  UNL     1      -8.639  30.296 -13.191  1.00  0.00     0.253 C 
ENDROOT
BRANCH   3   4
HETATM    4  N1  UNL     1      -7.238  30.006 -13.107  1.00  0.00    -0.337 N 
HETATM    5  C4  UNL     1      -6.755  28.817 -12.494  1.00  0.00     0.250 C 
HETATM    6  O1  UNL     1      -7.551  27.978 -12.004  1.00  0.00    -0.271 OA
ATOM      7  H1  UNL     1      -6.569  30.671 -13.497  1.00  0.00     0.164 HD
BRANCH   5   8
HETATM    8  C5  UNL     1      -5.319  28.535 -12.417  1.00  0.00     0.280 C 
BRANCH   8   9
HETATM    9  N2  UNL     1      -4.583  29.071 -13.545  1.00  0.00    -0.066 N 
ATOM     10  H23 UNL     1      -3.664  29.404 -13.256  1.00  0.00     0.275 HD
ATOM     11  H22 UNL     1      -4.297  28.328 -14.182  1.00  0.00     0.275 HD
ATOM     12  H21 UNL     1      -5.098  29.800 -14.039  1.00  0.00     0.275 HD
ENDBRANCH   8   9
BRANCH   8  13
HETATM   13  C6  UNL     1      -4.691  29.099 -11.156  1.00  0.00     0.101 C 
BRANCH  13  14
HETATM   14  C7  UNL     1      -3.712  28.106 -10.645  1.00  0.00     0.045 A 
HETATM   15  C8  UNL     1      -2.322  28.216 -10.625  1.00  0.00     0.131 A 
HETATM   16  N3  UNL     1      -1.816  27.097 -10.080  1.00  0.00    -0.200 N 
HETATM   17  C9  UNL     1      -2.848  26.294  -9.758  1.00  0.00     0.675 A 
ATOM     18  H3  UNL     1      -0.827  26.893  -9.935  1.00  0.00     0.183 HD
HETATM   19  N5  UNL     1      -3.981  26.909 -10.102  1.00  0.00    -0.194 N 
ATOM     20  H5  UNL     1      -4.917  26.523  -9.971  1.00  0.00     0.184 HD
BRANCH  17  21
HETATM   21  N4  UNL     1      -2.740  25.113  -9.205  1.00  0.00    -0.234 N 
ATOM     22  H42 UNL     1      -2.014  24.421  -9.390  1.00  0.00     0.174 HD
ATOM     23  H41 UNL     1      -3.379  24.730  -8.507  1.00  0.00     0.174 HD
ENDBRANCH  17  21
ENDBRANCH  13  14
ENDBRANCH   8  13
ENDBRANCH   5   8
ENDBRANCH   3   4
BRANCH   3  24
HETATM   24  C10 UNL     1      -8.965  31.630 -12.587  1.00  0.00     0.265 C 
HETATM   25  N6  UNL     1     -10.134  32.342 -12.964  1.00  0.00    -0.059 NA
HETATM   26  O2  UNL     1      -8.220  32.168 -11.726  1.00  0.00    -0.273 OA
ENDBRANCH   3  24
TORSDOF 7
ENDMDL
MODEL 4
REMARK VINA RESULT: -5.698338145      2.344      7.210
REMARK  7 active torsions:
REMARK  status: ('A' for Active; 'I' for Inactive)
REMARK    1  A    between atoms: C3_3  and  N1_4 
REMARK    2  A    between atoms: C3_3  and  C10_24 
REMARK       I    between atoms: N1_4  and  C4_6 
REMARK    3  A    between atoms: C4_6  and  C5_8 
REMARK    4  A    between atoms: C5_8  and  N2_9 
REMARK    5  A    between atoms: C5_8  and  C6_13 
REMARK    6  A    between atoms: C6_13  and  C7_14 
REMARK    7  A    between atoms: C9_18  and  N4_19 
ROOT
HETATM    1  C1  UNL     1      -0.085  21.553 -10.535  1.00  0.00     0.015 C 
HETATM    2  C2  UNL     1      -0.082  22.708 -10.165  1.00  0.00    -0.083 C 
HETATM    3  C3  UNL     1      -0.071  24.089  -9.718  1.00  0.00     0.253 C 
ENDROOT
BRANCH   3   4
HETATM    4  N1  UNL     1      -1.324  24.692 -10.064  1.00  0.00    -0.337 N 
HETATM    5  C4  UNL     1      -1.482  26.104 -10.130  1.00  0.00     0.250 C 
HETATM    6  O1  UNL     1      -0.517  26.871  -9.884  1.00  0.00    -0.271 OA
ATOM      7  H1  UNL     1      -2.124  24.093 -10.268  1.00  0.00     0.164 HD
BRANCH   5   8
HETATM    8  C5  UNL     1      -2.770  26.705 -10.486  1.00  0.00     0.280 C 
BRANCH   8   9
HETATM    9  N2  UNL     1      -3.819  26.379  -9.542  1.00  0.00    -0.066 N 
ATOM     10  H23 UNL     1      -3.964  25.371  -9.490  1.00  0.00     0.275 HD
ATOM     11  H22 UNL     1      -3.517  26.551  -8.584  1.00  0.00     0.275 HD
ATOM     12  H21 UNL     1      -4.694  26.864  -9.743  1.00  0.00     0.275 HD
ENDBRANCH   8   9
BRANCH   8  13
HETATM   13  C6  UNL     1      -2.692  28.219 -10.573  1.00  0.00     0.101 C 
BRANCH  13  14
HETATM   14  C7  UNL     1      -3.770  28.685 -11.481  1.00  0.00     0.045 A 
HETATM   15  C8  UNL     1      -4.012  28.277 -12.793  1.00  0.00     0.131 A 
HETATM   16  N3  UNL     1      -5.083  28.945 -13.254  1.00  0.00    -0.200 N 
HETATM   17  C9  UNL     1      -5.517  29.755 -12.269  1.00  0.00     0.675 A 
ATOM     18  H3  UNL     1      -5.494  28.855 -14.183  1.00  0.00     0.183 HD
HETATM   19  N5  UNL     1      -4.722  29.591 -11.209  1.00  0.00    -0.194 N 
ATOM     20  H5  UNL     1      -4.823  30.084 -10.322  1.00  0.00     0.184 HD
BRANCH  17  21
HETATM   21  N4  UNL     1      -6.545  30.561 -12.353  1.00  0.00    -0.234 N 
ATOM     22  H42 UNL     1      -7.429  30.470 -11.853  1.00  0.00     0.174 HD
ATOM     23  H41 UNL     1      -6.590  31.397 -12.936  1.00  0.00     0.174 HD
ENDBRANCH  17  21
ENDBRANCH  13  14
ENDBRANCH   8  13
ENDBRANCH   5   8
ENDBRANCH   3   4
BRANCH   3  24
HETATM   24  C10 UNL     1       0.203  24.188  -8.247  1.00  0.00     0.265 C 
HETATM   25  N6  UNL     1      -0.536  23.421  -7.309  1.00  0.00    -0.059 NA
HETATM   26  O2  UNL     1       1.093  24.950  -7.788  1.00  0.00    -0.273 OA
ENDBRANCH   3  24
TORSDOF 7
ENDMDL
MODEL 5
REMARK VINA RESULT: -5.691616090      1.545      2.057
REMARK  7 active torsions:
REMARK  status: ('A' for Active; 'I' for Inactive)
REMARK    1  A    between atoms: C3_3  and  N1_4 
REMARK    2  A    between atoms: C3_3  and  C10_24 
REMARK       I    between atoms: N1_4  and  C4_6 
REMARK    3  A    between atoms: C4_6  and  C5_8 
REMARK    4  A    between atoms: C5_8  and  N2_9 
REMARK    5  A    between atoms: C5_8  and  C6_13 
REMARK    6  A    between atoms: C6_13  and  C7_14 
REMARK    7  A    between atoms: C9_18  and  N4_19 
ROOT
HETATM    1  C1  UNL     1      -8.956  28.291 -12.398  1.00  0.00     0.015 C 
HETATM    2  C2  UNL     1      -7.853  28.790 -12.474  1.00  0.00    -0.083 C 
HETATM    3  C3  UNL     1      -6.537  29.394 -12.566  1.00  0.00     0.253 C 
ENDROOT
BRANCH   3   4
HETATM    4  N1  UNL     1      -5.549  28.365 -12.428  1.00  0.00    -0.337 N 
HETATM    5  C4  UNL     1      -4.399  28.538 -11.610  1.00  0.00     0.250 C 
HETATM    6  O1  UNL     1      -4.213  29.609 -10.980  1.00  0.00    -0.271 OA
ATOM      7  H1  UNL     1      -5.675  27.485 -12.929  1.00  0.00     0.164 HD
BRANCH   5   8
HETATM    8  C5  UNL     1      -3.398  27.475 -11.478  1.00  0.00     0.280 C 
BRANCH   8   9
HETATM    9  N2  UNL     1      -2.869  27.044 -12.756  1.00  0.00    -0.066 N 
ATOM     10  H23 UNL     1      -3.151  27.679 -13.502  1.00  0.00     0.275 HD
ATOM     11  H22 UNL     1      -1.859  27.178 -12.799  1.00  0.00     0.275 HD
ATOM     12  H21 UNL     1      -3.120  26.081 -12.980  1.00  0.00     0.275 HD
ENDBRANCH   8   9
BRANCH   8  13
HETATM   13  C6  UNL     1      -2.221  27.899 -10.619  1.00  0.00     0.101 C 
BRANCH  13  14
HETATM   14  C7  UNL     1      -1.694  26.694  -9.931  1.00  0.00     0.045 A 
HETATM   15  C8  UNL     1      -2.422  25.615  -9.429  1.00  0.00     0.131 A 
HETATM   16  N3  UNL     1      -1.560  24.740  -8.884  1.00  0.00    -0.200 N 
HETATM   17  C9  UNL     1      -0.319  25.239  -9.032  1.00  0.00     0.675 A 
ATOM     18  H3  UNL     1      -1.803  23.855  -8.438  1.00  0.00     0.183 HD
HETATM   19  N5  UNL     1      -0.410  26.412  -9.661  1.00  0.00    -0.194 N 
ATOM     20  H5  UNL     1       0.382  27.009  -9.902  1.00  0.00     0.184 HD
BRANCH  17  21
HETATM   21  N4  UNL     1       0.781  24.660  -8.621  1.00  0.00    -0.234 N 
ATOM     22  H42 UNL     1       1.361  24.012  -9.154  1.00  0.00     0.174 HD
ATOM     23  H41 UNL     1       1.206  24.789  -7.702  1.00  0.00     0.174 HD
ENDBRANCH  17  21
ENDBRANCH  13  14
ENDBRANCH   8  13
ENDBRANCH   5   8
ENDBRANCH   3   4
BRANCH   3  24
HETATM   24  C10 UNL     1      -6.370  30.152 -13.851  1.00  0.00     0.265 C 
HETATM   25  N6  UNL     1      -5.081  30.447 -14.367  1.00  0.00    -0.059 NA
HETATM   26  O2  UNL     1      -7.360  30.553 -14.517  1.00  0.00    -0.273 OA
ENDBRANCH   3  24
TORSDOF 7
ENDMDL
