MODEL 1
REMARK VINA RESULT: -4.909522126      0.000      0.000
REMARK  6 active torsions:
REMARK  status: ('A' for Active; 'I' for Inactive)
REMARK       I    between atoms: C2_2  and  N1_4 
REMARK    1  A    between atoms: N1_4  and  C3_6 
REMARK    2  A    between atoms: C3_6  and  C4_7 
REMARK    3  A    between atoms: C4_7  and  C5_8 
REMARK    4  A    between atoms: C4_7  and  C7_14 
REMARK    5  A    between atoms: C5_8  and  N2_10 
REMARK    6  A    between atoms: C9_19  and  N4_20 
REMARK       I    between atoms: N4_20  and  C10_22 
ROOT
HETATM    1  C7  UNL     1      -2.253  26.590 -10.117  1.00  0.00     0.124 C 
HETATM    2  N3  UNL     1      -1.834  27.971 -10.050  1.00  0.00    -0.352 N 
ATOM      3  H3  UNL     1      -1.102  28.468  -9.544  1.00  0.00     0.163 HD
HETATM    4  C8  UNL     1      -2.859  28.367 -10.980  1.00  0.00     0.242 C 
HETATM    5  O2  UNL     1      -3.294  29.473 -11.385  1.00  0.00    -0.271 OA
HETATM    6  C9  UNL     1      -3.155  26.933 -11.232  1.00  0.00     0.199 C 
ENDROOT
BRANCH   1   7
HETATM    7  C4  UNL     1      -1.166  25.588 -10.380  1.00  0.00     0.058 C 
BRANCH   7   8
HETATM    8  C3  UNL     1      -1.677  24.278  -9.752  1.00  0.00     0.131 C 
BRANCH   8   9
HETATM    9  N1  UNL     1      -1.738  23.211 -10.721  1.00  0.00    -0.361 N 
HETATM   10  C2  UNL     1      -0.991  22.041 -10.497  1.00  0.00     0.213 C 
HETATM   11  C1  UNL     1      -0.990  20.885 -11.439  1.00  0.00     0.117 C 
HETATM   12  O1  UNL     1      -0.275  21.916  -9.471  1.00  0.00    -0.274 OA
ATOM     13  H1  UNL     1      -2.316  23.304 -11.557  1.00  0.00     0.162 HD
ENDBRANCH   8   9
ENDBRANCH   7   8
BRANCH   7  14
HETATM   14  C5  UNL     1       0.138  25.866  -9.721  1.00  0.00     0.187 C 
HETATM   15  C6  UNL     1       1.354  25.650 -10.569  1.00  0.00     0.040 C 
BRANCH  14  16
HETATM   16  N2  UNL     1       0.265  25.005  -8.562  1.00  0.00    -0.075 N 
ATOM     17  H23 UNL     1      -0.367  24.204  -8.600  1.00  0.00     0.274 HD
ATOM     18  H22 UNL     1       1.145  24.489  -8.554  1.00  0.00     0.274 HD
ATOM     19  H21 UNL     1       0.134  25.567  -7.722  1.00  0.00     0.274 HD
ENDBRANCH  14  16
ENDBRANCH   7  14
ENDBRANCH   1   7
BRANCH   6  20
HETATM   20  N4  UNL     1      -2.834  26.499 -12.557  1.00  0.00    -0.350 N 
HETATM   21  C10 UNL     1      -3.800  25.637 -13.196  1.00  0.00     0.182 C 
HETATM   22  N5  UNL     1      -4.129  25.820 -14.421  1.00  0.00    -0.374 N 
HETATM   23  N6  UNL     1      -4.352  24.603 -12.422  1.00  0.00    -0.064 NA
ATOM     24  H52 UNL     1      -3.728  26.572 -14.983  1.00  0.00     0.158 HD
ATOM     25  H51 UNL     1      -4.812  25.211 -14.873  1.00  0.00     0.158 HD
ATOM     26  H4  UNL     1      -1.972  26.782 -13.022  1.00  0.00     0.163 HD
ENDBRANCH   6  20
TORSDOF 6
ENDMDL
MODEL 2
REMARK VINA RESULT: -4.838130003      2.664      4.610
REMARK  6 active torsions:
REMARK  status: ('A' for Active; 'I' for Inactive)
REMARK       I    between atoms: C2_2  and  N1_4 
REMARK    1  A    between atoms: N1_4  and  C3_6 
REMARK    2  A    between atoms: C3_6  and  C4_7 
REMARK    3  A    between atoms: C4_7  and  C5_8 
REMARK    4  A    between atoms: C4_7  and  C7_14 
REMARK    5  A    between atoms: C5_8  and  N2_10 
REMARK    6  A    between atoms: C9_19  and  N4_20 
REMARK       I    between atoms: N4_20  and  C10_22 
ROOT
HETATM    1  C7  UNL     1      -0.754  25.888 -10.788  1.00  0.00     0.124 C 
HETATM    2  N3  UNL     1      -2.119  26.092 -11.212  1.00  0.00    -0.352 N 
ATOM      3  H3  UNL     1      -2.575  26.193 -12.119  1.00  0.00     0.163 HD
HETATM    4  C8  UNL     1      -2.583  26.095  -9.850  1.00  0.00     0.242 C 
HETATM    5  O2  UNL     1      -3.679  26.358  -9.298  1.00  0.00    -0.271 OA
HETATM    6  C9  UNL     1      -1.230  25.664  -9.411  1.00  0.00     0.199 C 
ENDROOT
BRANCH   1   7
HETATM    7  C4  UNL     1      -0.018  24.768 -11.464  1.00  0.00     0.058 C 
BRANCH   7   8
HETATM    8  C3  UNL     1       1.463  25.185 -11.420  1.00  0.00     0.131 C 
BRANCH   8   9
HETATM    9  N1  UNL     1       2.244  24.294 -10.596  1.00  0.00    -0.361 N 
HETATM   10  C2  UNL     1       2.949  23.241 -11.206  1.00  0.00     0.213 C 
HETATM   11  C1  UNL     1       3.782  22.270 -10.439  1.00  0.00     0.117 C 
HETATM   12  O1  UNL     1       2.907  23.068 -12.451  1.00  0.00    -0.274 OA
ATOM     13  H1  UNL     1       2.284  24.426  -9.585  1.00  0.00     0.162 HD
ENDBRANCH   8   9
ENDBRANCH   7   8
BRANCH   7  14
HETATM   14  C5  UNL     1      -0.334  24.567 -12.904  1.00  0.00     0.187 C 
HETATM   15  C6  UNL     1      -0.688  23.167 -13.302  1.00  0.00     0.040 C 
BRANCH  14  16
HETATM   16  N2  UNL     1       0.819  24.958 -13.691  1.00  0.00    -0.075 N 
ATOM     17  H23 UNL     1       1.124  25.910 -13.489  1.00  0.00     0.274 HD
ATOM     18  H22 UNL     1       1.669  24.474 -13.404  1.00  0.00     0.274 HD
ATOM     19  H21 UNL     1       0.603  24.818 -14.677  1.00  0.00     0.274 HD
ENDBRANCH  14  16
ENDBRANCH   7  14
ENDBRANCH   1   7
BRANCH   6  20
HETATM   20  N4  UNL     1      -1.193  24.345  -8.859  1.00  0.00    -0.350 N 
HETATM   21  C10 UNL     1      -0.281  24.141  -7.757  1.00  0.00     0.182 C 
HETATM   22  N5  UNL     1      -0.643  23.473  -6.725  1.00  0.00    -0.374 N 
HETATM   23  N6  UNL     1       1.002  24.701  -7.871  1.00  0.00    -0.064 NA
ATOM     24  H52 UNL     1      -1.575  23.067  -6.642  1.00  0.00     0.158 HD
ATOM     25  H51 UNL     1       0.001  23.330  -5.947  1.00  0.00     0.158 HD
ATOM     26  H4  UNL     1      -1.776  23.592  -9.223  1.00  0.00     0.163 HD
ENDBRANCH   6  20
TORSDOF 6
ENDMDL
MODEL 3
REMARK VINA RESULT: -4.797908936      1.678      5.873
REMARK  6 active torsions:
REMARK  status: ('A' for Active; 'I' for Inactive)
REMARK       I    between atoms: C2_2  and  N1_4 
REMARK    1  A    between atoms: N1_4  and  C3_6 
REMARK    2  A    between atoms: C3_6  and  C4_7 
REMARK    3  A    between atoms: C4_7  and  C5_8 
REMARK    4  A    between atoms: C4_7  and  C7_14 
REMARK    5  A    between atoms: C5_8  and  N2_10 
REMARK    6  A    between atoms: C9_19  and  N4_20 
REMARK       I    between atoms: N4_20  and  C10_22 
ROOT
HETATM    1  C7  UNL     1      -1.450  24.332  -9.979  1.00  0.00     0.124 C 
HETATM    2  N3  UNL     1      -1.632  22.947 -10.342  1.00  0.00    -0.352 N 
ATOM      3  H3  UNL     1      -2.430  22.389 -10.646  1.00  0.00     0.163 HD
HETATM    4  C8  UNL     1      -0.241  22.662 -10.104  1.00  0.00     0.242 C 
HETATM    5  O2  UNL     1       0.442  21.610 -10.057  1.00  0.00    -0.271 OA
HETATM    6  C9  UNL     1       0.008  24.119  -9.947  1.00  0.00     0.199 C 
ENDROOT
BRANCH   1   7
HETATM    7  C4  UNL     1      -1.988  25.341 -10.953  1.00  0.00     0.058 C 
BRANCH   7   8
HETATM    8  C3  UNL     1      -3.080  26.097 -10.175  1.00  0.00     0.131 C 
BRANCH   8   9
HETATM    9  N1  UNL     1      -2.977  27.524 -10.364  1.00  0.00    -0.361 N 
HETATM   10  C2  UNL     1      -4.031  28.207 -10.997  1.00  0.00     0.213 C 
HETATM   11  C1  UNL     1      -4.017  29.680 -11.236  1.00  0.00     0.117 C 
HETATM   12  O1  UNL     1      -5.053  27.594 -11.397  1.00  0.00    -0.274 OA
ATOM     13  H1  UNL     1      -2.152  28.031 -10.042  1.00  0.00     0.162 HD
ENDBRANCH   8   9
ENDBRANCH   7   8
BRANCH   7  14
HETATM   14  C5  UNL     1      -2.667  24.779 -12.151  1.00  0.00     0.187 C 
HETATM   15  C6  UNL     1      -2.470  25.540 -13.426  1.00  0.00     0.040 C 
BRANCH  14  16
HETATM   16  N2  UNL     1      -4.093  24.730 -11.896  1.00  0.00    -0.075 N 
ATOM     17  H23 UNL     1      -4.556  23.980 -12.410  1.00  0.00     0.274 HD
ATOM     18  H22 UNL     1      -4.310  24.409 -10.953  1.00  0.00     0.274 HD
ATOM     19  H21 UNL     1      -4.491  25.647 -12.099  1.00  0.00     0.274 HD
ENDBRANCH  14  16
ENDBRANCH   7  14
ENDBRANCH   1   7
BRANCH   6  20
HETATM   20  N4  UNL     1       0.825  24.681 -10.978  1.00  0.00    -0.350 N 
HETATM   21  C10 UNL     1       1.804  25.654 -10.554  1.00  0.00     0.182 C 
HETATM   22  N5  UNL     1       2.999  25.624 -11.020  1.00  0.00    -0.374 N 
HETATM   23  N6  UNL     1       1.391  26.621  -9.623  1.00  0.00    -0.064 NA
ATOM     24  H52 UNL     1       3.298  24.921 -11.696  1.00  0.00     0.158 HD
ATOM     25  H51 UNL     1       3.691  26.310 -10.720  1.00  0.00     0.158 HD
ATOM     26  H4  UNL     1       0.720  24.411 -11.956  1.00  0.00     0.163 HD
ENDBRANCH   6  20
TORSDOF 6
ENDMDL
MODEL 4
REMARK VINA RESULT: -4.710429278      2.372      5.999
REMARK  6 active torsions:
REMARK  status: ('A' for Active; 'I' for Inactive)
REMARK       I    between atoms: C2_2  and  N1_4 
REMARK    1  A    between atoms: N1_4  and  C3_6 
REMARK    2  A    between atoms: C3_6  and  C4_7 
REMARK    3  A    between atoms: C4_7  and  C5_8 
REMARK    4  A    between atoms: C4_7  and  C7_14 
REMARK    5  A    between atoms: C5_8  and  N2_10 
REMARK    6  A    between atoms: C9_19  and  N4_20 
REMARK       I    between atoms: N4_20  and  C10_22 
ROOT
HETATM    1  C7  UNL     1       0.083  25.154  -9.858  1.00  0.00     0.124 C 
HETATM    2  N3  UNL     1       0.037  23.711  -9.890  1.00  0.00    -0.352 N 
ATOM      3  H3  UNL     1      -0.714  23.021  -9.853  1.00  0.00     0.163 HD
HETATM    4  C8  UNL     1       1.470  23.629  -9.994  1.00  0.00     0.242 C 
HETATM    5  O2  UNL     1       2.301  22.689  -9.939  1.00  0.00    -0.271 OA
HETATM    6  C9  UNL     1       1.519  25.101 -10.189  1.00  0.00     0.199 C 
ENDROOT
BRANCH   1   7
HETATM    7  C4  UNL     1      -0.830  25.860 -10.819  1.00  0.00     0.058 C 
BRANCH   7   8
HETATM    8  C3  UNL     1      -1.786  26.674  -9.929  1.00  0.00     0.131 C 
BRANCH   8   9
HETATM    9  N1  UNL     1      -2.039  27.984 -10.478  1.00  0.00    -0.361 N 
HETATM   10  C2  UNL     1      -3.364  28.368 -10.746  1.00  0.00     0.213 C 
HETATM   11  C1  UNL     1      -3.726  29.700 -11.312  1.00  0.00     0.117 C 
HETATM   12  O1  UNL     1      -4.324  27.589 -10.517  1.00  0.00    -0.274 OA
ATOM     13  H1  UNL     1      -1.266  28.624 -10.668  1.00  0.00     0.162 HD
ENDBRANCH   8   9
ENDBRANCH   7   8
BRANCH   7  14
HETATM   14  C5  UNL     1      -1.702  24.979 -11.642  1.00  0.00     0.187 C 
HETATM   15  C6  UNL     1      -1.962  25.447 -13.041  1.00  0.00     0.040 C 
BRANCH  14  16
HETATM   16  N2  UNL     1      -2.988  24.855 -10.985  1.00  0.00    -0.075 N 
ATOM     17  H23 UNL     1      -3.254  23.883 -10.829  1.00  0.00     0.274 HD
ATOM     18  H22 UNL     1      -2.958  25.151 -10.010  1.00  0.00     0.274 HD
ATOM     19  H21 UNL     1      -3.682  25.368 -11.528  1.00  0.00     0.274 HD
ENDBRANCH  14  16
ENDBRANCH   7  14
ENDBRANCH   1   7
BRANCH   6  20
HETATM   20  N4  UNL     1       1.957  25.500 -11.491  1.00  0.00    -0.350 N 
HETATM   21  C10 UNL     1       3.218  26.201 -11.552  1.00  0.00     0.182 C 
HETATM   22  N5  UNL     1       4.083  25.913 -12.453  1.00  0.00    -0.374 N 
HETATM   23  N6  UNL     1       3.446  27.200 -10.591  1.00  0.00    -0.064 NA
ATOM     24  H52 UNL     1       3.916  25.187 -13.151  1.00  0.00     0.158 HD
ATOM     25  H51 UNL     1       4.974  26.408 -12.496  1.00  0.00     0.158 HD
ATOM     26  H4  UNL     1       1.410  25.300 -12.328  1.00  0.00     0.163 HD
ENDBRANCH   6  20
TORSDOF 6
ENDMDL
MODEL 5
REMARK VINA RESULT: -4.567344689      2.054      5.824
REMARK  6 active torsions:
REMARK  status: ('A' for Active; 'I' for Inactive)
REMARK       I    between atoms: C2_2  and  N1_4 
REMARK    1  A    between atoms: N1_4  and  C3_6 
REMARK    2  A    between atoms: C3_6  and  C4_7 
REMARK    3  A    between atoms: C4_7  and  C5_8 
REMARK    4  A    between atoms: C4_7  and  C7_14 
REMARK    5  A    between atoms: C5_8  and  N2_10 
REMARK    6  A    between atoms: C9_19  and  N4_20 
REMARK       I    between atoms: N4_20  and  C10_22 
ROOT
HETATM    1  C7  UNL     1      -1.261  26.030  -9.425  1.00  0.00     0.124 C 
HETATM    2  N3  UNL     1      -1.803  24.805  -8.887  1.00  0.00    -0.352 N 
ATOM      3  H3  UNL     1      -2.744  24.483  -8.656  1.00  0.00     0.163 HD
HETATM    4  C8  UNL     1      -0.493  24.216  -8.803  1.00  0.00     0.242 C 
HETATM    5  O2  UNL     1      -0.036  23.162  -8.296  1.00  0.00    -0.271 OA
HETATM    6  C9  UNL     1       0.052  25.373  -9.560  1.00  0.00     0.199 C 
ENDROOT
BRANCH   1   7
HETATM    7  C4  UNL     1      -1.916  26.543 -10.675  1.00  0.00     0.058 C 
BRANCH   7   8
HETATM    8  C3  UNL     1      -3.065  27.440 -10.178  1.00  0.00     0.131 C 
BRANCH   8   9
HETATM    9  N1  UNL     1      -3.165  28.655 -10.951  1.00  0.00    -0.361 N 
HETATM   10  C2  UNL     1      -4.361  28.933 -11.634  1.00  0.00     0.213 C 
HETATM   11  C1  UNL     1      -4.560  30.162 -12.456  1.00  0.00     0.117 C 
HETATM   12  O1  UNL     1      -5.338  28.143 -11.580  1.00  0.00    -0.274 OA
ATOM     13  H1  UNL     1      -2.378  29.303 -11.000  1.00  0.00     0.162 HD
ENDBRANCH   8   9
ENDBRANCH   7   8
BRANCH   7  14
HETATM   14  C5  UNL     1      -2.558  25.512 -11.535  1.00  0.00     0.187 C 
HETATM   15  C6  UNL     1      -2.550  25.796 -13.005  1.00  0.00     0.040 C 
BRANCH  14  16
HETATM   16  N2  UNL     1      -3.943  25.369 -11.133  1.00  0.00    -0.075 N 
ATOM     17  H23 UNL     1      -4.493  26.207 -11.324  1.00  0.00     0.274 HD
ATOM     18  H22 UNL     1      -4.458  24.723 -11.730  1.00  0.00     0.274 HD
ATOM     19  H21 UNL     1      -3.971  25.099 -10.150  1.00  0.00     0.274 HD
ENDBRANCH  14  16
ENDBRANCH   7  14
ENDBRANCH   1   7
BRANCH   6  20
HETATM   20  N4  UNL     1       0.541  25.036 -10.861  1.00  0.00    -0.350 N 
HETATM   21  C10 UNL     1       1.956  25.226 -11.078  1.00  0.00     0.182 C 
HETATM   22  N5  UNL     1       2.647  24.339 -11.694  1.00  0.00    -0.374 N 
HETATM   23  N6  UNL     1       2.529  26.412 -10.591  1.00  0.00    -0.064 NA
ATOM     24  H52 UNL     1       2.230  23.477 -12.047  1.00  0.00     0.158 HD
ATOM     25  H51 UNL     1       3.647  24.472 -11.847  1.00  0.00     0.158 HD
ATOM     26  H4  UNL     1      -0.075  24.683 -11.593  1.00  0.00     0.163 HD
ENDBRANCH   6  20
TORSDOF 6
ENDMDL
