MODEL 1
REMARK VINA RESULT: -4.539792324      0.000      0.000
REMARK  4 active torsions:
REMARK  status: ('A' for Active; 'I' for Inactive)
REMARK    1  A    between atoms: C3_3  and  C4_4 
REMARK    2  A    between atoms: C4_4  and  C5_5 
REMARK    3  A    between atoms: C7_7  and  C8_8 
REMARK    4  A    between atoms: C10_11  and  C11_12 
ROOT
HETATM    1  C1  UNL     1      31.133 154.317 332.899  1.00  0.00     0.098 C 
HETATM    2  C2  UNL     1      31.211 153.560 333.861  1.00  0.00    -0.177 C 
HETATM    3  C3  UNL     1      31.291 152.609 334.998  1.00  0.00     0.024 A 
HETATM    4  C9  UNL     1      30.407 151.333 334.814  1.00  0.00     0.037 A 
HETATM    5  C10 UNL     1      31.880 151.310 334.635  1.00  0.00     0.096 A 
ENDROOT
BRANCH   3   6
HETATM    6  C4  UNL     1      31.194 153.179 336.352  1.00  0.00     0.027 C 
BRANCH   6   7
HETATM    7  C5  UNL     1      32.166 154.199 336.787  1.00  0.00    -0.006 A 
HETATM    8  C6  UNL     1      31.936 155.363 337.628  1.00  0.00     0.012 A 
HETATM    9  C7  UNL     1      32.566 154.169 338.274  1.00  0.00     0.019 A 
BRANCH   9  10
HETATM   10  C8  UNL     1      34.029 154.130 338.573  1.00  0.00     0.227 C 
HETATM   11  F1  UNL     1      34.181 153.513 339.811  1.00  0.00    -0.255 F 
ENDBRANCH   9  10
ENDBRANCH   6   7
ENDBRANCH   3   6
BRANCH   5  12
HETATM   12  C11 UNL     1      32.663 150.437 335.489  1.00  0.00     0.236 C 
HETATM   13  N1  UNL     1      33.932 150.807 335.969  1.00  0.00    -0.062 NA
HETATM   14  O1  UNL     1      32.222 149.312 335.826  1.00  0.00    -0.276 OA
ENDBRANCH   5  12
TORSDOF 4
ENDMDL
MODEL 2
REMARK VINA RESULT: -4.508391940      1.335      1.358
REMARK  4 active torsions:
REMARK  status: ('A' for Active; 'I' for Inactive)
REMARK    1  A    between atoms: C3_3  and  C4_4 
REMARK    2  A    between atoms: C4_4  and  C5_5 
REMARK    3  A    between atoms: C7_7  and  C8_8 
REMARK    4  A    between atoms: C10_11  and  C11_12 
ROOT
HETATM    1  C1  UNL     1      31.259 155.388 334.104  1.00  0.00     0.098 C 
HETATM    2  C2  UNL     1      31.549 154.281 334.545  1.00  0.00    -0.177 C 
HETATM    3  C3  UNL     1      31.858 152.924 335.062  1.00  0.00     0.024 A 
HETATM    4  C9  UNL     1      30.601 152.010 335.223  1.00  0.00     0.037 A 
HETATM    5  C10 UNL     1      31.560 151.849 334.102  1.00  0.00     0.096 A 
ENDROOT
BRANCH   3   6
HETATM    6  C4  UNL     1      32.774 152.841 336.212  1.00  0.00     0.027 C 
BRANCH   6   7
HETATM    7  C5  UNL     1      32.957 154.014 337.087  1.00  0.00    -0.006 A 
HETATM    8  C6  UNL     1      32.075 154.505 338.134  1.00  0.00     0.012 A 
HETATM    9  C7  UNL     1      33.273 153.719 338.565  1.00  0.00     0.019 A 
BRANCH   9  10
HETATM   10  C8  UNL     1      34.477 154.392 339.140  1.00  0.00     0.227 C 
HETATM   11  F1  UNL     1      34.952 153.582 340.167  1.00  0.00    -0.255 F 
ENDBRANCH   9  10
ENDBRANCH   6   7
ENDBRANCH   3   6
BRANCH   5  12
HETATM   12  C11 UNL     1      32.252 150.582 333.966  1.00  0.00     0.236 C 
HETATM   13  N1  UNL     1      33.162 150.340 332.921  1.00  0.00    -0.062 NA
HETATM   14  O1  UNL     1      32.055 149.656 334.787  1.00  0.00    -0.276 OA
ENDBRANCH   5  12
TORSDOF 4
ENDMDL
MODEL 3
REMARK VINA RESULT: -4.486666939      2.280      4.205
REMARK  4 active torsions:
REMARK  status: ('A' for Active; 'I' for Inactive)
REMARK    1  A    between atoms: C3_3  and  C4_4 
REMARK    2  A    between atoms: C4_4  and  C5_5 
REMARK    3  A    between atoms: C7_7  and  C8_8 
REMARK    4  A    between atoms: C10_11  and  C11_12 
ROOT
HETATM    1  C1  UNL     1      31.656 154.677 338.187  1.00  0.00     0.098 C 
HETATM    2  C2  UNL     1      32.303 154.022 337.377  1.00  0.00    -0.177 C 
HETATM    3  C3  UNL     1      33.124 153.232 336.425  1.00  0.00     0.024 A 
HETATM    4  C9  UNL     1      34.664 153.396 336.634  1.00  0.00     0.037 A 
HETATM    5  C10 UNL     1      33.929 152.185 337.075  1.00  0.00     0.096 A 
ENDROOT
BRANCH   3   6
HETATM    6  C4  UNL     1      32.733 153.280 335.006  1.00  0.00     0.027 C 
BRANCH   6   7
HETATM    7  C5  UNL     1      31.439 152.712 334.585  1.00  0.00    -0.006 A 
HETATM    8  C6  UNL     1      30.975 152.428 333.236  1.00  0.00     0.012 A 
HETATM    9  C7  UNL     1      31.472 151.271 334.044  1.00  0.00     0.019 A 
BRANCH   9  10
HETATM   10  C8  UNL     1      30.527 150.298 334.670  1.00  0.00     0.227 C 
HETATM   11  F1  UNL     1      31.258 149.533 335.573  1.00  0.00    -0.255 F 
ENDBRANCH   9  10
ENDBRANCH   6   7
ENDBRANCH   3   6
BRANCH   5  12
HETATM   12  C11 UNL     1      34.315 150.904 336.514  1.00  0.00     0.236 C 
HETATM   13  N1  UNL     1      35.150 150.807 335.385  1.00  0.00    -0.062 NA
HETATM   14  O1  UNL     1      33.910 149.835 337.027  1.00  0.00    -0.276 OA
ENDBRANCH   5  12
TORSDOF 4
ENDMDL
MODEL 4
REMARK VINA RESULT: -4.483770706      2.427      3.368
REMARK  4 active torsions:
REMARK  status: ('A' for Active; 'I' for Inactive)
REMARK    1  A    between atoms: C3_3  and  C4_4 
REMARK    2  A    between atoms: C4_4  and  C5_5 
REMARK    3  A    between atoms: C7_7  and  C8_8 
REMARK    4  A    between atoms: C10_11  and  C11_12 
ROOT
HETATM    1  C1  UNL     1      34.905 151.353 337.468  1.00  0.00     0.098 C 
HETATM    2  C2  UNL     1      34.162 151.940 336.689  1.00  0.00    -0.177 C 
HETATM    3  C3  UNL     1      33.271 152.616 335.713  1.00  0.00     0.024 A 
HETATM    4  C9  UNL     1      33.505 152.173 334.233  1.00  0.00     0.037 A 
HETATM    5  C10 UNL     1      32.346 151.697 335.028  1.00  0.00     0.096 A 
ENDROOT
BRANCH   3   6
HETATM    6  C4  UNL     1      33.111 154.073 335.853  1.00  0.00     0.027 C 
BRANCH   6   7
HETATM    7  C5  UNL     1      32.051 154.613 336.725  1.00  0.00    -0.006 A 
HETATM    8  C6  UNL     1      31.794 154.312 338.124  1.00  0.00     0.012 A 
HETATM    9  C7  UNL     1      32.504 155.594 337.821  1.00  0.00     0.019 A 
BRANCH   9  10
HETATM   10  C8  UNL     1      31.794 156.907 337.880  1.00  0.00     0.227 C 
HETATM   11  F1  UNL     1      31.197 156.998 339.133  1.00  0.00    -0.255 F 
ENDBRANCH   9  10
ENDBRANCH   6   7
ENDBRANCH   3   6
BRANCH   5  12
HETATM   12  C11 UNL     1      31.012 151.997 334.547  1.00  0.00     0.236 C 
HETATM   13  N1  UNL     1      30.793 152.816 333.424  1.00  0.00    -0.062 NA
HETATM   14  O1  UNL     1      30.004 151.528 335.126  1.00  0.00    -0.276 OA
ENDBRANCH   5  12
TORSDOF 4
ENDMDL
MODEL 5
REMARK VINA RESULT: -4.465044520      1.207      1.283
REMARK  4 active torsions:
REMARK  status: ('A' for Active; 'I' for Inactive)
REMARK    1  A    between atoms: C3_3  and  C4_4 
REMARK    2  A    between atoms: C4_4  and  C5_5 
REMARK    3  A    between atoms: C7_7  and  C8_8 
REMARK    4  A    between atoms: C10_11  and  C11_12 
ROOT
HETATM    1  C1  UNL     1      31.036 154.077 332.560  1.00  0.00     0.098 C 
HETATM    2  C2  UNL     1      31.171 153.428 333.591  1.00  0.00    -0.177 C 
HETATM    3  C3  UNL     1      31.315 152.606 334.819  1.00  0.00     0.024 A 
HETATM    4  C9  UNL     1      30.356 151.373 334.867  1.00  0.00     0.037 A 
HETATM    5  C10 UNL     1      31.801 151.241 334.557  1.00  0.00     0.096 A 
ENDROOT
BRANCH   3   6
HETATM    6  C4  UNL     1      31.380 153.326 336.101  1.00  0.00     0.027 C 
BRANCH   6   7
HETATM    7  C5  UNL     1      32.188 154.556 336.208  1.00  0.00    -0.006 A 
HETATM    8  C6  UNL     1      31.744 155.937 336.106  1.00  0.00     0.012 A 
HETATM    9  C7  UNL     1      31.982 155.397 337.481  1.00  0.00     0.019 A 
BRANCH   9  10
HETATM   10  C8  UNL     1      33.210 155.754 338.253  1.00  0.00     0.227 C 
HETATM   11  F1  UNL     1      32.904 156.872 339.023  1.00  0.00    -0.255 F 
ENDBRANCH   9  10
ENDBRANCH   6   7
ENDBRANCH   3   6
BRANCH   5  12
HETATM   12  C11 UNL     1      32.619 150.422 335.430  1.00  0.00     0.236 C 
HETATM   13  N1  UNL     1      33.905 150.822 335.836  1.00  0.00    -0.062 NA
HETATM   14  O1  UNL     1      32.197 149.319 335.851  1.00  0.00    -0.276 OA
ENDBRANCH   5  12
TORSDOF 4
ENDMDL
