MODEL 1
REMARK VINA RESULT: -4.520599811      0.000      0.000
REMARK  4 active torsions:
REMARK  status: ('A' for Active; 'I' for Inactive)
REMARK       I    between atoms: C1_2  and  N1_3 
REMARK    1  A    between atoms: C1_2  and  C7_11 
REMARK    2  A    between atoms: N1_3  and  C2_5 
REMARK    3  A    between atoms: C2_5  and  C3_6 
REMARK    4  A    between atoms: C3_6  and  C4_7 
ROOT
HETATM    1  O1  UNL     1      33.895 150.483 336.481  1.00  0.00    -0.273 OA
HETATM    2  C1  UNL     1      33.158 151.316 335.905  1.00  0.00     0.221 C 
HETATM    3  N1  UNL     1      33.052 152.628 336.426  1.00  0.00    -0.361 N 
ATOM      4  H1  UNL     1      32.457 153.322 335.973  1.00  0.00     0.162 HD
ENDROOT
BRANCH   3   5
HETATM    5  C2  UNL     1      33.805 152.963 337.614  1.00  0.00     0.123 C 
BRANCH   5   6
HETATM    6  C3  UNL     1      33.306 154.244 338.251  1.00  0.00     0.027 C 
BRANCH   6   7
HETATM    7  C4  UNL     1      32.012 154.709 337.679  1.00  0.00     0.024 A 
HETATM    8  C5  UNL     1      31.926 155.869 336.763  1.00  0.00     0.045 A 
HETATM    9  C6  UNL     1      31.528 156.051 338.212  1.00  0.00     0.174 A 
HETATM   10  F1  UNL     1      32.434 156.823 338.931  1.00  0.00    -0.249 F 
ENDBRANCH   6   7
ENDBRANCH   5   6
ENDBRANCH   3   5
BRANCH   2  11
HETATM   11  C7  UNL     1      32.422 150.877 334.688  1.00  0.00     0.078 C 
HETATM   12  C8  UNL     1      31.184 150.115 335.063  1.00  0.00     0.014 C 
HETATM   13  C9  UNL     1      30.290 150.236 333.842  1.00  0.00     0.001 C 
HETATM   14  C10 UNL     1      30.540 151.639 333.360  1.00  0.00     0.001 C 
HETATM   15  C11 UNL     1      31.820 152.112 334.008  1.00  0.00     0.014 C 
ENDBRANCH   2  11
TORSDOF 4
ENDMDL
MODEL 2
REMARK VINA RESULT: -4.479213509      2.265      2.913
REMARK  4 active torsions:
REMARK  status: ('A' for Active; 'I' for Inactive)
REMARK       I    between atoms: C1_2  and  N1_3 
REMARK    1  A    between atoms: C1_2  and  C7_11 
REMARK    2  A    between atoms: N1_3  and  C2_5 
REMARK    3  A    between atoms: C2_5  and  C3_6 
REMARK    4  A    between atoms: C3_6  and  C4_7 
ROOT
HETATM    1  O1  UNL     1      30.442 154.117 332.859  1.00  0.00    -0.273 OA
HETATM    2  C1  UNL     1      31.168 153.659 333.771  1.00  0.00     0.221 C 
HETATM    3  N1  UNL     1      31.749 154.547 334.709  1.00  0.00    -0.361 N 
ATOM      4  H1  UNL     1      32.344 154.195 335.459  1.00  0.00     0.162 HD
ENDROOT
BRANCH   3   5
HETATM    5  C2  UNL     1      31.481 155.961 334.580  1.00  0.00     0.123 C 
BRANCH   5   6
HETATM    6  C3  UNL     1      31.551 156.669 335.917  1.00  0.00     0.027 C 
BRANCH   6   7
HETATM    7  C4  UNL     1      32.331 155.910 336.934  1.00  0.00     0.024 A 
HETATM    8  C5  UNL     1      31.678 155.170 338.037  1.00  0.00     0.045 A 
HETATM    9  C6  UNL     1      32.309 156.515 338.332  1.00  0.00     0.174 A 
HETATM   10  F1  UNL     1      31.371 157.509 338.588  1.00  0.00    -0.249 F 
ENDBRANCH   6   7
ENDBRANCH   5   6
ENDBRANCH   3   5
BRANCH   2  11
HETATM   11  C7  UNL     1      31.385 152.187 333.822  1.00  0.00     0.078 C 
HETATM   12  C8  UNL     1      31.011 151.642 335.169  1.00  0.00     0.014 C 
HETATM   13  C9  UNL     1      30.734 150.172 334.911  1.00  0.00     0.001 C 
HETATM   14  C10 UNL     1      30.059 150.171 333.567  1.00  0.00     0.001 C 
HETATM   15  C11 UNL     1      30.344 151.508 332.924  1.00  0.00     0.014 C 
ENDBRANCH   2  11
TORSDOF 4
ENDMDL
MODEL 3
REMARK VINA RESULT: -4.379955703      2.693      5.582
REMARK  4 active torsions:
REMARK  status: ('A' for Active; 'I' for Inactive)
REMARK       I    between atoms: C1_2  and  N1_3 
REMARK    1  A    between atoms: C1_2  and  C7_11 
REMARK    2  A    between atoms: N1_3  and  C2_5 
REMARK    3  A    between atoms: C2_5  and  C3_6 
REMARK    4  A    between atoms: C3_6  and  C4_7 
ROOT
HETATM    1  O1  UNL     1      32.687 154.608 334.709  1.00  0.00    -0.273 OA
HETATM    2  C1  UNL     1      32.473 154.457 335.933  1.00  0.00     0.221 C 
HETATM    3  N1  UNL     1      32.990 153.317 336.595  1.00  0.00    -0.361 N 
ATOM      4  H1  UNL     1      32.828 153.175 337.591  1.00  0.00     0.162 HD
ENDROOT
BRANCH   3   5
HETATM    5  C2  UNL     1      33.754 152.360 335.827  1.00  0.00     0.123 C 
BRANCH   5   6
HETATM    6  C3  UNL     1      32.994 151.065 335.631  1.00  0.00     0.027 C 
BRANCH   6   7
HETATM    7  C4  UNL     1      32.205 151.042 334.368  1.00  0.00     0.024 A 
HETATM    8  C5  UNL     1      30.848 151.628 334.275  1.00  0.00     0.045 A 
HETATM    9  C6  UNL     1      30.989 150.124 334.395  1.00  0.00     0.174 A 
HETATM   10  F1  UNL     1      30.578 149.638 335.631  1.00  0.00    -0.249 F 
ENDBRANCH   6   7
ENDBRANCH   5   6
ENDBRANCH   3   5
BRANCH   2  11
HETATM   11  C7  UNL     1      31.674 155.498 336.638  1.00  0.00     0.078 C 
HETATM   12  C8  UNL     1      32.076 155.585 338.082  1.00  0.00     0.014 C 
HETATM   13  C9  UNL     1      31.644 156.978 338.503  1.00  0.00     0.001 C 
HETATM   14  C10 UNL     1      31.937 157.819 337.291  1.00  0.00     0.001 C 
HETATM   15  C11 UNL     1      32.104 156.876 336.123  1.00  0.00     0.014 C 
ENDBRANCH   2  11
TORSDOF 4
ENDMDL
MODEL 4
REMARK VINA RESULT: -4.293263529      2.680      5.376
REMARK  4 active torsions:
REMARK  status: ('A' for Active; 'I' for Inactive)
REMARK       I    between atoms: C1_2  and  N1_3 
REMARK    1  A    between atoms: C1_2  and  C7_11 
REMARK    2  A    between atoms: N1_3  and  C2_5 
REMARK    3  A    between atoms: C2_5  and  C3_6 
REMARK    4  A    between atoms: C3_6  and  C4_7 
ROOT
HETATM    1  O1  UNL     1      32.758 153.808 338.584  1.00  0.00    -0.273 OA
HETATM    2  C1  UNL     1      32.665 154.322 337.446  1.00  0.00     0.221 C 
HETATM    3  N1  UNL     1      33.343 153.723 336.356  1.00  0.00    -0.361 N 
ATOM      4  H1  UNL     1      33.281 154.125 335.421  1.00  0.00     0.162 HD
ENDROOT
BRANCH   3   5
HETATM    5  C2  UNL     1      34.124 152.531 336.598  1.00  0.00     0.123 C 
BRANCH   5   6
HETATM    6  C3  UNL     1      33.386 151.280 336.167  1.00  0.00     0.027 C 
BRANCH   6   7
HETATM    7  C4  UNL     1      32.491 151.510 334.998  1.00  0.00     0.024 A 
HETATM    8  C5  UNL     1      31.038 151.745 335.152  1.00  0.00     0.045 A 
HETATM    9  C6  UNL     1      31.514 150.376 334.714  1.00  0.00     0.174 A 
HETATM   10  F1  UNL     1      31.352 149.406 335.696  1.00  0.00    -0.249 F 
ENDBRANCH   6   7
ENDBRANCH   5   6
ENDBRANCH   3   5
BRANCH   2  11
HETATM   11  C7  UNL     1      31.837 155.550 337.297  1.00  0.00     0.078 C 
HETATM   12  C8  UNL     1      32.588 156.756 337.779  1.00  0.00     0.014 C 
HETATM   13  C9  UNL     1      31.915 157.919 337.072  1.00  0.00     0.001 C 
HETATM   14  C10 UNL     1      31.601 157.368 335.708  1.00  0.00     0.001 C 
HETATM   15  C11 UNL     1      31.692 155.863 335.803  1.00  0.00     0.014 C 
ENDBRANCH   2  11
TORSDOF 4
ENDMDL
MODEL 5
REMARK VINA RESULT: -4.264122591      3.213      5.840
REMARK  4 active torsions:
REMARK  status: ('A' for Active; 'I' for Inactive)
REMARK       I    between atoms: C1_2  and  N1_3 
REMARK    1  A    between atoms: C1_2  and  C7_11 
REMARK    2  A    between atoms: N1_3  and  C2_5 
REMARK    3  A    between atoms: C2_5  and  C3_6 
REMARK    4  A    between atoms: C3_6  and  C4_7 
ROOT
HETATM    1  O1  UNL     1      33.150 151.532 335.597  1.00  0.00    -0.273 OA
HETATM    2  C1  UNL     1      32.231 152.383 335.577  1.00  0.00     0.221 C 
HETATM    3  N1  UNL     1      30.918 151.978 335.237  1.00  0.00    -0.361 N 
ATOM      4  H1  UNL     1      30.154 152.654 335.214  1.00  0.00     0.162 HD
ENDROOT
BRANCH   3   5
HETATM    5  C2  UNL     1      30.682 150.587 334.923  1.00  0.00     0.123 C 
BRANCH   5   6
HETATM    6  C3  UNL     1      29.878 150.428 333.649  1.00  0.00     0.027 C 
BRANCH   6   7
HETATM    7  C4  UNL     1      30.567 150.994 332.455  1.00  0.00     0.024 A 
HETATM    8  C5  UNL     1      30.128 152.256 331.818  1.00  0.00     0.045 A 
HETATM    9  C6  UNL     1      29.754 150.940 331.168  1.00  0.00     0.174 A 
HETATM   10  F1  UNL     1      28.398 150.649 331.275  1.00  0.00    -0.249 F 
ENDBRANCH   6   7
ENDBRANCH   5   6
ENDBRANCH   3   5
BRANCH   2  11
HETATM   11  C7  UNL     1      32.572 153.792 335.915  1.00  0.00     0.078 C 
HETATM   12  C8  UNL     1      31.633 154.742 335.233  1.00  0.00     0.014 C 
HETATM   13  C9  UNL     1      31.710 156.006 336.070  1.00  0.00     0.001 C 
HETATM   14  C10 UNL     1      31.824 155.489 337.478  1.00  0.00     0.001 C 
HETATM   15  C11 UNL     1      32.230 154.037 337.389  1.00  0.00     0.014 C 
ENDBRANCH   2  11
TORSDOF 4
ENDMDL
