MODEL 1
REMARK VINA RESULT: -4.634983379      0.000      0.000
REMARK  4 active torsions:
REMARK  status: ('A' for Active; 'I' for Inactive)
REMARK    1  A    between atoms: C2_2  and  C3_3 
REMARK    2  A    between atoms: C2_2  and  N1_6 
REMARK    3  A    between atoms: C3_3  and  C4_4 
REMARK       I    between atoms: N1_6  and  C5_8 
REMARK    4  A    between atoms: C5_8  and  C6_10 
ROOT
HETATM    1  N1  UNL     1      31.531 153.432 335.952  1.00  0.00    -0.331 N 
ATOM      2  H1  UNL     1      30.807 154.073 336.279  1.00  0.00     0.168 HD
HETATM    3  C5  UNL     1      32.739 153.459 336.641  1.00  0.00     0.226 C 
HETATM    4  O1  UNL     1      33.721 152.741 336.367  1.00  0.00    -0.273 OA
ENDROOT
BRANCH   3   5
HETATM    5  C6  UNL     1      32.862 154.415 337.786  1.00  0.00     0.082 C 
HETATM    6  C7  UNL     1      31.523 155.051 338.118  1.00  0.00     0.019 C 
HETATM    7  C8  UNL     1      31.766 156.538 338.217  1.00  0.00    -0.013 C 
HETATM    8  C9  UNL     1      31.848 157.086 336.826  1.00  0.00     0.005 C 
HETATM    9  C12 UNL     1      33.259 156.549 338.592  1.00  0.00     0.010 C 
HETATM   10  C10 UNL     1      33.086 156.387 336.274  1.00  0.00     0.006 C 
HETATM   11  C11 UNL     1      33.689 155.623 337.435  1.00  0.00    -0.001 C 
ENDBRANCH   3   5
BRANCH   1  12
HETATM   12  C2  UNL     1      31.198 152.617 334.850  1.00  0.00     0.005 C 
HETATM   13  C1  UNL     1      31.420 152.869 333.587  1.00  0.00     0.038 C 
BRANCH  12  14
HETATM   14  C3  UNL     1      30.499 151.287 335.114  1.00  0.00     0.087 C 
BRANCH  14  15
HETATM   15  C4  UNL     1      31.463 150.194 334.721  1.00  0.00     0.228 C 
HETATM   16  F1  UNL     1      31.770 149.423 335.807  1.00  0.00    -0.255 F 
ENDBRANCH  14  15
ENDBRANCH  12  14
ENDBRANCH   1  12
TORSDOF 4
ENDMDL
MODEL 2
REMARK VINA RESULT: -4.478108136      1.787      2.535
REMARK  4 active torsions:
REMARK  status: ('A' for Active; 'I' for Inactive)
REMARK    1  A    between atoms: C2_2  and  C3_3 
REMARK    2  A    between atoms: C2_2  and  N1_6 
REMARK    3  A    between atoms: C3_3  and  C4_4 
REMARK       I    between atoms: N1_6  and  C5_8 
REMARK    4  A    between atoms: C5_8  and  C6_10 
ROOT
HETATM    1  N1  UNL     1      30.988 152.541 335.381  1.00  0.00    -0.331 N 
ATOM      2  H1  UNL     1      30.137 152.763 335.899  1.00  0.00     0.168 HD
HETATM    3  C5  UNL     1      32.008 153.486 335.432  1.00  0.00     0.226 C 
HETATM    4  O1  UNL     1      33.107 153.365 334.856  1.00  0.00    -0.273 OA
ENDROOT
BRANCH   3   5
HETATM    5  C6  UNL     1      31.763 154.726 336.234  1.00  0.00     0.082 C 
HETATM    6  C7  UNL     1      32.989 155.623 336.249  1.00  0.00     0.019 C 
HETATM    7  C8  UNL     1      33.228 155.998 337.692  1.00  0.00    -0.013 C 
HETATM    8  C9  UNL     1      33.888 154.837 338.368  1.00  0.00     0.005 C 
HETATM    9  C12 UNL     1      31.802 155.856 338.254  1.00  0.00     0.010 C 
HETATM   10  C10 UNL     1      32.815 153.758 338.279  1.00  0.00     0.006 C 
HETATM   11  C11 UNL     1      31.588 154.431 337.700  1.00  0.00    -0.001 C 
ENDBRANCH   3   5
BRANCH   1  12
HETATM   12  C2  UNL     1      31.002 151.310 334.692  1.00  0.00     0.005 C 
HETATM   13  C1  UNL     1      31.327 150.140 335.176  1.00  0.00     0.038 C 
BRANCH  12  14
HETATM   14  C3  UNL     1      30.600 151.295 333.221  1.00  0.00     0.087 C 
BRANCH  14  15
HETATM   15  C4  UNL     1      29.542 150.231 333.060  1.00  0.00     0.228 C 
HETATM   16  F1  UNL     1      28.493 150.715 332.330  1.00  0.00    -0.255 F 
ENDBRANCH  14  15
ENDBRANCH  12  14
ENDBRANCH   1  12
TORSDOF 4
ENDMDL
MODEL 3
REMARK VINA RESULT: -4.384800690      1.371      2.021
REMARK  4 active torsions:
REMARK  status: ('A' for Active; 'I' for Inactive)
REMARK    1  A    between atoms: C2_2  and  C3_3 
REMARK    2  A    between atoms: C2_2  and  N1_6 
REMARK    3  A    between atoms: C3_3  and  C4_4 
REMARK       I    between atoms: N1_6  and  C5_8 
REMARK    4  A    between atoms: C5_8  and  C6_10 
ROOT
HETATM    1  N1  UNL     1      32.192 153.062 336.225  1.00  0.00    -0.331 N 
ATOM      2  H1  UNL     1      31.578 152.915 337.027  1.00  0.00     0.168 HD
HETATM    3  C5  UNL     1      32.380 154.381 335.823  1.00  0.00     0.226 C 
HETATM    4  O1  UNL     1      33.099 154.728 334.865  1.00  0.00    -0.273 OA
ENDROOT
BRANCH   3   5
HETATM    5  C6  UNL     1      31.672 155.448 336.598  1.00  0.00     0.082 C 
HETATM    6  C7  UNL     1      32.128 156.833 336.171  1.00  0.00     0.019 C 
HETATM    7  C8  UNL     1      32.447 157.590 337.438  1.00  0.00    -0.013 C 
HETATM    8  C9  UNL     1      33.790 157.136 337.921  1.00  0.00     0.005 C 
HETATM    9  C12 UNL     1      31.542 156.848 338.438  1.00  0.00     0.010 C 
HETATM   10  C10 UNL     1      33.540 155.666 338.238  1.00  0.00     0.006 C 
HETATM   11  C11 UNL     1      32.053 155.443 338.055  1.00  0.00    -0.001 C 
ENDBRANCH   3   5
BRANCH   1  12
HETATM   12  C2  UNL     1      32.755 151.907 335.645  1.00  0.00     0.005 C 
HETATM   13  C1  UNL     1      33.840 151.283 336.026  1.00  0.00     0.038 C 
BRANCH  12  14
HETATM   14  C3  UNL     1      32.059 151.283 334.440  1.00  0.00     0.087 C 
BRANCH  14  15
HETATM   15  C4  UNL     1      30.667 150.901 334.881  1.00  0.00     0.228 C 
HETATM   16  F1  UNL     1      30.693 149.706 335.543  1.00  0.00    -0.255 F 
ENDBRANCH  14  15
ENDBRANCH  12  14
ENDBRANCH   1  12
TORSDOF 4
ENDMDL
MODEL 4
REMARK VINA RESULT: -4.364166167      2.472      5.697
REMARK  4 active torsions:
REMARK  status: ('A' for Active; 'I' for Inactive)
REMARK    1  A    between atoms: C2_2  and  C3_3 
REMARK    2  A    between atoms: C2_2  and  N1_6 
REMARK    3  A    between atoms: C3_3  and  C4_4 
REMARK       I    between atoms: N1_6  and  C5_8 
REMARK    4  A    between atoms: C5_8  and  C6_10 
ROOT
HETATM    1  N1  UNL     1      31.791 153.915 335.856  1.00  0.00    -0.331 N 
ATOM      2  H1  UNL     1      30.847 153.795 335.488  1.00  0.00     0.168 HD
HETATM    3  C5  UNL     1      32.817 153.307 335.139  1.00  0.00     0.226 C 
HETATM    4  O1  UNL     1      34.022 153.359 335.454  1.00  0.00    -0.273 OA
ENDROOT
BRANCH   3   5
HETATM    5  C6  UNL     1      32.441 152.542 333.908  1.00  0.00     0.082 C 
HETATM    6  C7  UNL     1      30.934 152.489 333.731  1.00  0.00     0.019 C 
HETATM    7  C8  UNL     1      30.583 151.045 333.464  1.00  0.00    -0.013 C 
HETATM    8  C9  UNL     1      30.603 150.316 334.771  1.00  0.00     0.005 C 
HETATM    9  C12 UNL     1      31.910 150.546 332.863  1.00  0.00     0.010 C 
HETATM   10  C10 UNL     1      32.066 150.432 335.185  1.00  0.00     0.006 C 
HETATM   11  C11 UNL     1      32.783 151.080 334.018  1.00  0.00    -0.001 C 
ENDBRANCH   3   5
BRANCH   1  12
HETATM   12  C2  UNL     1      31.914 154.678 337.036  1.00  0.00     0.005 C 
HETATM   13  C1  UNL     1      32.081 154.228 338.252  1.00  0.00     0.038 C 
BRANCH  12  14
HETATM   14  C3  UNL     1      31.852 156.198 336.929  1.00  0.00     0.087 C 
BRANCH  14  15
HETATM   15  C4  UNL     1      32.328 156.756 338.248  1.00  0.00     0.228 C 
HETATM   16  F1  UNL     1      31.274 157.265 338.953  1.00  0.00    -0.255 F 
ENDBRANCH  14  15
ENDBRANCH  12  14
ENDBRANCH   1  12
TORSDOF 4
ENDMDL
MODEL 5
REMARK VINA RESULT: -4.277072167      1.194      1.894
REMARK  4 active torsions:
REMARK  status: ('A' for Active; 'I' for Inactive)
REMARK    1  A    between atoms: C2_2  and  C3_3 
REMARK    2  A    between atoms: C2_2  and  N1_6 
REMARK    3  A    between atoms: C3_3  and  C4_4 
REMARK       I    between atoms: N1_6  and  C5_8 
REMARK    4  A    between atoms: C5_8  and  C6_10 
ROOT
HETATM    1  N1  UNL     1      31.344 153.693 335.401  1.00  0.00    -0.331 N 
ATOM      2  H1  UNL     1      30.534 153.694 336.022  1.00  0.00     0.168 HD
HETATM    3  C5  UNL     1      32.150 154.826 335.434  1.00  0.00     0.226 C 
HETATM    4  O1  UNL     1      33.174 154.981 334.740  1.00  0.00    -0.273 OA
ENDROOT
BRANCH   3   5
HETATM    5  C6  UNL     1      31.758 155.928 336.369  1.00  0.00     0.082 C 
HETATM    6  C7  UNL     1      32.831 157.001 336.436  1.00  0.00     0.019 C 
HETATM    7  C8  UNL     1      33.080 157.267 337.901  1.00  0.00    -0.013 C 
HETATM    8  C9  UNL     1      33.943 156.163 338.430  1.00  0.00     0.005 C 
HETATM    9  C12 UNL     1      31.723 156.847 338.493  1.00  0.00     0.010 C 
HETATM   10  C10 UNL     1      33.046 154.942 338.265  1.00  0.00     0.006 C 
HETATM   11  C11 UNL     1      31.703 155.467 337.801  1.00  0.00    -0.001 C 
ENDBRANCH   3   5
BRANCH   1  12
HETATM   12  C2  UNL     1      31.523 152.544 334.603  1.00  0.00     0.005 C 
HETATM   13  C1  UNL     1      31.137 152.376 333.365  1.00  0.00     0.038 C 
BRANCH  12  14
HETATM   14  C3  UNL     1      32.240 151.341 335.209  1.00  0.00     0.087 C 
BRANCH  14  15
HETATM   15  C4  UNL     1      31.538 150.105 334.702  1.00  0.00     0.228 C 
HETATM   16  F1  UNL     1      30.583 149.706 335.595  1.00  0.00    -0.255 F 
ENDBRANCH  14  15
ENDBRANCH  12  14
ENDBRANCH   1  12
TORSDOF 4
ENDMDL
