MODEL 1
REMARK VINA RESULT: -7.822220356      0.000      0.000
REMARK  4 active torsions:
REMARK  status: ('A' for Active; 'I' for Inactive)
REMARK    1  A    between atoms: N1_2  and  N2_4 
REMARK       I    between atoms: C2_6  and  N3_7 
REMARK       I    between atoms: C2_6  and  N5_12 
REMARK    2  A    between atoms: N3_7  and  N4_9 
REMARK       I    between atoms: N5_12  and  C3_14 
REMARK    3  A    between atoms: C3_14  and  C4_16 
REMARK    4  A    between atoms: C4_16  and  O2_17 
ROOT
HETATM    1  N2  UNL     1      22.856   8.465  -8.605  1.00  0.00    -0.135 N 
ATOM      2  H2  UNL     1      23.025   7.520  -8.949  1.00  0.00     0.205 HD
HETATM    3  C2  UNL     1      22.436   8.584  -7.399  1.00  0.00     0.713 C 
HETATM    4  N3  UNL     1      22.197   9.892  -6.912  1.00  0.00    -0.137 N 
ATOM      5  H3  UNL     1      21.247  10.262  -6.957  1.00  0.00     0.205 HD
HETATM    6  N5  UNL     1      22.220   7.424  -6.589  1.00  0.00    -0.152 N 
ATOM      7  H5  UNL     1      22.401   6.498  -6.976  1.00  0.00     0.187 HD
HETATM    8  C3  UNL     1      21.755   7.549  -5.254  1.00  0.00     0.299 C 
HETATM    9  O1  UNL     1      21.511   8.660  -4.722  1.00  0.00    -0.266 OA
ENDROOT
BRANCH   8  10
HETATM   10  C4  UNL     1      21.542   6.326  -4.442  1.00  0.00     0.254 C 
HETATM   11  C5  UNL     1      22.746   5.430  -4.429  1.00  0.00     0.080 C 
HETATM   12  C6  UNL     1      22.442   4.266  -3.502  1.00  0.00     0.016 C 
HETATM   13  C7  UNL     1      22.382   4.710  -2.058  1.00  0.00     0.111 C 
HETATM   14  C8  UNL     1      21.621   5.984  -2.008  1.00  0.00     0.261 C 
HETATM   15  O3  UNL     1      21.256   6.400  -0.880  1.00  0.00    -0.265 OA
HETATM   16  O4  UNL     1      21.290   6.737  -3.112  1.00  0.00    -0.274 OA
BRANCH  10  17
HETATM   17  O2  UNL     1      20.459   5.600  -4.933  1.00  0.00    -0.358 OA
ATOM     18  H2  UNL     1      20.157   4.977  -4.283  1.00  0.00     0.213 HD
ENDBRANCH  10  17
ENDBRANCH   8  10
BRANCH   1  19
HETATM   19  N1  UNL     1      23.098   9.500  -9.473  1.00  0.00    -0.327 N 
HETATM   20  C1  UNL     1      24.459   9.968  -9.773  1.00  0.00     0.168 C 
ATOM     21  H1  UNL     1      22.307   9.959  -9.926  1.00  0.00     0.180 HD
ENDBRANCH   1  19
BRANCH   4  22
HETATM   22  N4  UNL     1      23.206  10.702  -6.372  1.00  0.00    -0.331 N 
ATOM     23  H42 UNL     1      24.037  10.237  -6.006  1.00  0.00     0.177 HD
ATOM     24  H41 UNL     1      23.141  11.719  -6.333  1.00  0.00     0.177 HD
ENDBRANCH   4  22
TORSDOF 4
ENDMDL
MODEL 2
REMARK VINA RESULT: -7.434684062      2.729      6.233
REMARK  4 active torsions:
REMARK  status: ('A' for Active; 'I' for Inactive)
REMARK    1  A    between atoms: N1_2  and  N2_4 
REMARK       I    between atoms: C2_6  and  N3_7 
REMARK       I    between atoms: C2_6  and  N5_12 
REMARK    2  A    between atoms: N3_7  and  N4_9 
REMARK       I    between atoms: N5_12  and  C3_14 
REMARK    3  A    between atoms: C3_14  and  C4_16 
REMARK    4  A    between atoms: C4_16  and  O2_17 
ROOT
HETATM    1  N2  UNL     1      23.043   4.767  -4.817  1.00  0.00    -0.135 N 
ATOM      2  H2  UNL     1      23.738   4.544  -5.529  1.00  0.00     0.205 HD
HETATM    3  C2  UNL     1      22.599   5.970  -4.788  1.00  0.00     0.713 C 
HETATM    4  N3  UNL     1      21.634   6.290  -3.803  1.00  0.00    -0.137 N 
ATOM      5  H3  UNL     1      21.952   6.709  -2.929  1.00  0.00     0.205 HD
HETATM    6  N5  UNL     1      23.076   6.941  -5.724  1.00  0.00    -0.152 N 
ATOM      7  H5  UNL     1      23.773   6.673  -6.419  1.00  0.00     0.187 HD
HETATM    8  C3  UNL     1      22.589   8.274  -5.697  1.00  0.00     0.299 C 
HETATM    9  O1  UNL     1      21.733   8.666  -4.867  1.00  0.00    -0.266 OA
ENDROOT
BRANCH   8  10
HETATM   10  C4  UNL     1      23.103   9.255  -6.683  1.00  0.00     0.254 C 
HETATM   11  C5  UNL     1      24.603   9.295  -6.724  1.00  0.00     0.080 C 
HETATM   12  C6  UNL     1      25.008  10.263  -7.823  1.00  0.00     0.016 C 
HETATM   13  C7  UNL     1      24.684   9.710  -9.193  1.00  0.00     0.111 C 
HETATM   14  C8  UNL     1      23.331   9.103  -9.127  1.00  0.00     0.261 C 
HETATM   15  O3  UNL     1      22.777   8.796 -10.213  1.00  0.00    -0.265 OA
HETATM   16  O4  UNL     1      22.644   8.856  -7.960  1.00  0.00    -0.274 OA
BRANCH  10  17
HETATM   17  O2  UNL     1      22.637  10.533  -6.383  1.00  0.00    -0.358 OA
ATOM     18  H2  UNL     1      23.343  11.166  -6.447  1.00  0.00     0.213 HD
ENDBRANCH  10  17
ENDBRANCH   8  10
BRANCH   1  19
HETATM   19  N1  UNL     1      22.662   3.753  -3.974  1.00  0.00    -0.327 N 
HETATM   20  C1  UNL     1      23.334   2.445  -3.969  1.00  0.00     0.168 C 
ATOM     21  H1  UNL     1      21.889   3.913  -3.328  1.00  0.00     0.180 HD
ENDBRANCH   1  19
BRANCH   4  22
HETATM   22  N4  UNL     1      20.261   6.058  -3.973  1.00  0.00    -0.331 N 
ATOM     23  H42 UNL     1      19.970   5.552  -4.810  1.00  0.00     0.177 HD
ATOM     24  H41 UNL     1      19.557   6.370  -3.304  1.00  0.00     0.177 HD
ENDBRANCH   4  22
TORSDOF 4
ENDMDL
MODEL 3
REMARK VINA RESULT: -7.411937931      1.421      2.218
REMARK  4 active torsions:
REMARK  status: ('A' for Active; 'I' for Inactive)
REMARK    1  A    between atoms: N1_2  and  N2_4 
REMARK       I    between atoms: C2_6  and  N3_7 
REMARK       I    between atoms: C2_6  and  N5_12 
REMARK    2  A    between atoms: N3_7  and  N4_9 
REMARK       I    between atoms: N5_12  and  C3_14 
REMARK    3  A    between atoms: C3_14  and  C4_16 
REMARK    4  A    between atoms: C4_16  and  O2_17 
ROOT
HETATM    1  N2  UNL     1      23.161   9.236  -8.618  1.00  0.00    -0.135 N 
ATOM      2  H2  UNL     1      23.439   9.822  -7.831  1.00  0.00     0.205 HD
HETATM    3  C2  UNL     1      22.539   8.147  -8.346  1.00  0.00     0.713 C 
HETATM    4  N3  UNL     1      22.150   7.325  -9.431  1.00  0.00    -0.137 N 
ATOM      5  H3  UNL     1      22.760   6.552  -9.699  1.00  0.00     0.205 HD
HETATM    6  N5  UNL     1      22.259   7.792  -6.989  1.00  0.00    -0.152 N 
ATOM      7  H5  UNL     1      22.557   8.410  -6.234  1.00  0.00     0.187 HD
HETATM    8  C3  UNL     1      21.571   6.589  -6.682  1.00  0.00     0.299 C 
HETATM    9  O1  UNL     1      21.180   5.787  -7.566  1.00  0.00    -0.266 OA
ENDROOT
BRANCH   8  10
HETATM   10  C4  UNL     1      21.296   6.252  -5.264  1.00  0.00     0.254 C 
HETATM   11  C5  UNL     1      22.241   5.217  -4.726  1.00  0.00     0.080 C 
HETATM   12  C6  UNL     1      21.919   5.021  -3.255  1.00  0.00     0.016 C 
HETATM   13  C7  UNL     1      22.305   6.235  -2.438  1.00  0.00     0.111 C 
HETATM   14  C8  UNL     1      21.877   7.441  -3.191  1.00  0.00     0.261 C 
HETATM   15  O3  UNL     1      21.892   8.542  -2.585  1.00  0.00    -0.265 OA
HETATM   16  O4  UNL     1      21.465   7.433  -4.505  1.00  0.00    -0.274 OA
BRANCH  10  17
HETATM   17  O2  UNL     1      19.994   5.774  -5.124  1.00  0.00    -0.358 OA
ATOM     18  H2  UNL     1      19.700   5.875  -4.226  1.00  0.00     0.213 HD
ENDBRANCH  10  17
ENDBRANCH   8  10
BRANCH   1  19
HETATM   19  N1  UNL     1      23.485   9.679  -9.876  1.00  0.00    -0.327 N 
HETATM   20  C1  UNL     1      24.862   9.640 -10.389  1.00  0.00     0.168 C 
ATOM     21  H1  UNL     1      22.746  10.048 -10.474  1.00  0.00     0.180 HD
ENDBRANCH   1  19
BRANCH   4  22
HETATM   22  N4  UNL     1      20.964   7.524 -10.154  1.00  0.00    -0.331 N 
ATOM     23  H42 UNL     1      20.659   8.486 -10.302  1.00  0.00     0.177 HD
ATOM     24  H41 UNL     1      20.408   6.756 -10.531  1.00  0.00     0.177 HD
ENDBRANCH   4  22
TORSDOF 4
ENDMDL
MODEL 4
REMARK VINA RESULT: -7.365988768      2.726      3.170
REMARK  4 active torsions:
REMARK  status: ('A' for Active; 'I' for Inactive)
REMARK    1  A    between atoms: N1_2  and  N2_4 
REMARK       I    between atoms: C2_6  and  N3_7 
REMARK       I    between atoms: C2_6  and  N5_12 
REMARK    2  A    between atoms: N3_7  and  N4_9 
REMARK       I    between atoms: N5_12  and  C3_14 
REMARK    3  A    between atoms: C3_14  and  C4_16 
REMARK    4  A    between atoms: C4_16  and  O2_17 
ROOT
HETATM    1  N2  UNL     1      25.555   6.924  -8.835  1.00  0.00    -0.135 N 
ATOM      2  H2  UNL     1      24.925   6.140  -9.003  1.00  0.00     0.205 HD
HETATM    3  C2  UNL     1      25.249   7.728  -7.883  1.00  0.00     0.713 C 
HETATM    4  N3  UNL     1      26.115   8.821  -7.641  1.00  0.00    -0.137 N 
ATOM      5  H3  UNL     1      25.892   9.721  -8.065  1.00  0.00     0.205 HD
HETATM    6  N5  UNL     1      24.067   7.513  -7.105  1.00  0.00    -0.152 N 
ATOM      7  H5  UNL     1      23.466   6.715  -7.311  1.00  0.00     0.187 HD
HETATM    8  C3  UNL     1      23.723   8.398  -6.051  1.00  0.00     0.299 C 
HETATM    9  O1  UNL     1      24.419   9.398  -5.750  1.00  0.00    -0.266 OA
ENDROOT
BRANCH   8  10
HETATM   10  C4  UNL     1      22.491   8.145  -5.264  1.00  0.00     0.254 C 
HETATM   11  C5  UNL     1      21.871   6.815  -5.580  1.00  0.00     0.080 C 
HETATM   12  C6  UNL     1      20.679   6.633  -4.657  1.00  0.00     0.016 C 
HETATM   13  C7  UNL     1      21.116   6.427  -3.223  1.00  0.00     0.111 C 
HETATM   14  C8  UNL     1      22.200   7.401  -2.938  1.00  0.00     0.261 C 
HETATM   15  O3  UNL     1      22.541   7.557  -1.738  1.00  0.00    -0.265 OA
HETATM   16  O4  UNL     1      22.853   8.142  -3.896  1.00  0.00    -0.274 OA
BRANCH  10  17
HETATM   17  O2  UNL     1      21.547   9.140  -5.508  1.00  0.00    -0.358 OA
ATOM     18  H2  UNL     1      20.792   9.025  -4.942  1.00  0.00     0.213 HD
ENDBRANCH  10  17
ENDBRANCH   8  10
BRANCH   1  19
HETATM   19  N1  UNL     1      26.657   7.029  -9.646  1.00  0.00    -0.327 N 
HETATM   20  C1  UNL     1      27.834   6.163  -9.482  1.00  0.00     0.168 C 
ATOM     21  H1  UNL     1      26.660   7.730 -10.387  1.00  0.00     0.180 HD
ENDBRANCH   1  19
BRANCH   4  22
HETATM   22  N4  UNL     1      27.267   8.722  -6.846  1.00  0.00    -0.331 N 
ATOM     23  H42 UNL     1      27.286   7.990  -6.135  1.00  0.00     0.177 HD
ATOM     24  H41 UNL     1      28.070   9.342  -6.951  1.00  0.00     0.177 HD
ENDBRANCH   4  22
TORSDOF 4
ENDMDL
MODEL 5
REMARK VINA RESULT: -7.241344841      1.588      1.710
REMARK  4 active torsions:
REMARK  status: ('A' for Active; 'I' for Inactive)
REMARK    1  A    between atoms: N1_2  and  N2_4 
REMARK       I    between atoms: C2_6  and  N3_7 
REMARK       I    between atoms: C2_6  and  N5_12 
REMARK    2  A    between atoms: N3_7  and  N4_9 
REMARK       I    between atoms: N5_12  and  C3_14 
REMARK    3  A    between atoms: C3_14  and  C4_16 
REMARK    4  A    between atoms: C4_16  and  O2_17 
ROOT
HETATM    1  N2  UNL     1      22.741   8.653  -9.411  1.00  0.00    -0.135 N 
ATOM      2  H2  UNL     1      21.981   8.001  -9.605  1.00  0.00     0.205 HD
HETATM    3  C2  UNL     1      23.093   8.795  -8.186  1.00  0.00     0.713 C 
HETATM    4  N3  UNL     1      24.147   9.698  -7.905  1.00  0.00    -0.137 N 
ATOM      5  H3  UNL     1      23.910  10.651  -7.630  1.00  0.00     0.205 HD
HETATM    6  N5  UNL     1      22.431   8.060  -7.152  1.00  0.00    -0.152 N 
ATOM      7  H5  UNL     1      21.675   7.419  -7.394  1.00  0.00     0.187 HD
HETATM    8  C3  UNL     1      22.816   8.212  -5.795  1.00  0.00     0.299 C 
HETATM    9  O1  UNL     1      23.737   8.985  -5.434  1.00  0.00    -0.266 OA
ENDROOT
BRANCH   8  10
HETATM   10  C4  UNL     1      22.109   7.434  -4.749  1.00  0.00     0.254 C 
HETATM   11  C5  UNL     1      22.734   6.089  -4.513  1.00  0.00     0.080 C 
HETATM   12  C6  UNL     1      21.984   5.428  -3.370  1.00  0.00     0.016 C 
HETATM   13  C7  UNL     1      22.259   6.121  -2.054  1.00  0.00     0.111 C 
HETATM   14  C8  UNL     1      22.207   7.585  -2.296  1.00  0.00     0.261 C 
HETATM   15  O3  UNL     1      22.176   8.340  -1.291  1.00  0.00    -0.265 OA
HETATM   16  O4  UNL     1      22.191   8.169  -3.542  1.00  0.00    -0.274 OA
BRANCH  10  17
HETATM   17  O2  UNL     1      20.776   7.242  -5.104  1.00  0.00    -0.358 OA
ATOM     18  H2  UNL     1      20.585   6.315  -5.187  1.00  0.00     0.213 HD
ENDBRANCH  10  17
ENDBRANCH   8  10
BRANCH   1  19
HETATM   19  N1  UNL     1      23.299   9.302 -10.484  1.00  0.00    -0.327 N 
HETATM   20  C1  UNL     1      24.160   8.612 -11.456  1.00  0.00     0.168 C 
ATOM     21  H1  UNL     1      23.111  10.296 -10.611  1.00  0.00     0.180 HD
ENDBRANCH   1  19
BRANCH   4  22
HETATM   22  N4  UNL     1      25.501   9.341  -7.988  1.00  0.00    -0.331 N 
ATOM     23  H42 UNL     1      25.720   8.358  -8.149  1.00  0.00     0.177 HD
ATOM     24  H41 UNL     1      26.260  10.017  -7.896  1.00  0.00     0.177 HD
ENDBRANCH   4  22
TORSDOF 4
ENDMDL
