MODEL 1
REMARK VINA RESULT: -6.209475189      0.000      0.000
REMARK  2 active torsions:
REMARK  status: ('A' for Active; 'I' for Inactive)
REMARK    1  A    between atoms: O1_1  and  C1_3 
REMARK    2  A    between atoms: C1_3  and  C2_4 
ROOT
HETATM    1  C1  UNL     1      93.065  13.784 132.605  1.00  0.00     0.063 C 
HETATM    2  C6  UNL     1      93.226  15.142 131.961  1.00  0.00     0.038 C 
HETATM    3  C7  UNL     1      92.609  14.990 130.578  1.00  0.00     0.003 C 
HETATM    4  C8  UNL     1      92.900  13.540 130.272  1.00  0.00     0.003 C 
HETATM    5  C9  UNL     1      92.543  12.860 131.576  1.00  0.00     0.038 C 
ENDROOT
BRANCH   1   6
HETATM    6  O1  UNL     1      94.341  13.361 132.980  1.00  0.00    -0.389 OA
ATOM      7  H1  UNL     1      94.962  13.667 132.329  1.00  0.00     0.210 HD
ENDBRANCH   1   6
BRANCH   1   8
HETATM    8  C2  UNL     1      92.245  13.937 133.828  1.00  0.00     0.047 C 
HETATM    9  C3  UNL     1      92.431  15.261 134.536  1.00  0.00     0.036 C 
HETATM   10  C4  UNL     1      91.708  14.946 135.840  1.00  0.00     0.232 C 
HETATM   11  N1  UNL     1      91.837  13.543 136.068  1.00  0.00    -0.075 N 
HETATM   12  C5  UNL     1      92.520  12.968 134.924  1.00  0.00     0.239 C 
ATOM     13  H12 UNL     1      92.296  13.326 136.953  1.00  0.00     0.277 HD
ATOM     14  H11 UNL     1      90.944  13.090 136.265  1.00  0.00     0.277 HD
ENDBRANCH   1   8
TORSDOF 2
ENDMDL
MODEL 2
REMARK VINA RESULT: -6.186053940      1.757      2.192
REMARK  2 active torsions:
REMARK  status: ('A' for Active; 'I' for Inactive)
REMARK    1  A    between atoms: O1_1  and  C1_3 
REMARK    2  A    between atoms: C1_3  and  C2_4 
ROOT
HETATM    1  C1  UNL     1      93.578  13.922 132.418  1.00  0.00     0.063 C 
HETATM    2  C6  UNL     1      93.754  14.293 130.963  1.00  0.00     0.038 C 
HETATM    3  C7  UNL     1      92.618  13.583 130.242  1.00  0.00     0.003 C 
HETATM    4  C8  UNL     1      92.442  12.346 131.091  1.00  0.00     0.003 C 
HETATM    5  C9  UNL     1      92.501  12.911 132.494  1.00  0.00     0.038 C 
ENDROOT
BRANCH   1   6
HETATM    6  O1  UNL     1      94.773  13.334 132.834  1.00  0.00    -0.389 OA
ATOM      7  H1  UNL     1      94.737  13.213 133.776  1.00  0.00     0.210 HD
ENDBRANCH   1   6
BRANCH   1   8
HETATM    8  C2  UNL     1      93.370  15.163 133.199  1.00  0.00     0.047 C 
HETATM    9  C3  UNL     1      92.396  15.015 134.347  1.00  0.00     0.036 C 
HETATM   10  C4  UNL     1      92.209  16.485 134.701  1.00  0.00     0.232 C 
HETATM   11  N1  UNL     1      92.399  17.238 133.502  1.00  0.00    -0.075 N 
HETATM   12  C5  UNL     1      92.786  16.312 132.453  1.00  0.00     0.239 C 
ATOM     13  H12 UNL     1      91.584  17.799 133.254  1.00  0.00     0.277 HD
ATOM     14  H11 UNL     1      93.062  18.005 133.617  1.00  0.00     0.277 HD
ENDBRANCH   1   8
TORSDOF 2
ENDMDL
MODEL 3
REMARK VINA RESULT: -6.161234411      1.770      2.419
REMARK  2 active torsions:
REMARK  status: ('A' for Active; 'I' for Inactive)
REMARK    1  A    between atoms: O1_1  and  C1_3 
REMARK    2  A    between atoms: C1_3  and  C2_4 
ROOT
HETATM    1  C1  UNL     1      93.176  14.179 132.222  1.00  0.00     0.063 C 
HETATM    2  C6  UNL     1      93.473  14.278 130.744  1.00  0.00     0.038 C 
HETATM    3  C7  UNL     1      92.569  13.240 130.096  1.00  0.00     0.003 C 
HETATM    4  C8  UNL     1      92.490  12.187 131.176  1.00  0.00     0.003 C 
HETATM    5  C9  UNL     1      92.277  13.021 132.420  1.00  0.00     0.038 C 
ENDROOT
BRANCH   1   6
HETATM    6  O1  UNL     1      94.388  13.918 132.863  1.00  0.00    -0.389 OA
ATOM      7  H1  UNL     1      95.014  13.623 132.212  1.00  0.00     0.210 HD
ENDBRANCH   1   6
BRANCH   1   8
HETATM    8  C2  UNL     1      92.671  15.489 132.691  1.00  0.00     0.047 C 
HETATM    9  C3  UNL     1      93.442  16.676 132.156  1.00  0.00     0.036 C 
HETATM   10  C4  UNL     1      92.866  17.767 133.051  1.00  0.00     0.232 C 
HETATM   11  N1  UNL     1      92.498  17.152 134.286  1.00  0.00    -0.075 N 
HETATM   12  C5  UNL     1      92.732  15.726 134.160  1.00  0.00     0.239 C 
ATOM     13  H12 UNL     1      92.975  17.562 135.089  1.00  0.00     0.277 HD
ATOM     14  H11 UNL     1      91.543  17.373 134.569  1.00  0.00     0.277 HD
ENDBRANCH   1   8
TORSDOF 2
ENDMDL
MODEL 4
REMARK VINA RESULT: -6.152792313      2.292      3.280
REMARK  2 active torsions:
REMARK  status: ('A' for Active; 'I' for Inactive)
REMARK    1  A    between atoms: O1_1  and  C1_3 
REMARK    2  A    between atoms: C1_3  and  C2_4 
ROOT
HETATM    1  C1  UNL     1      93.115  14.050 131.975  1.00  0.00     0.063 C 
HETATM    2  C6  UNL     1      93.190  13.535 130.556  1.00  0.00     0.038 C 
HETATM    3  C7  UNL     1      92.258  12.333 130.530  1.00  0.00     0.003 C 
HETATM    4  C8  UNL     1      92.392  11.811 131.941  1.00  0.00     0.003 C 
HETATM    5  C9  UNL     1      92.317  13.083 132.759  1.00  0.00     0.038 C 
ENDROOT
BRANCH   1   6
HETATM    6  O1  UNL     1      94.418  14.060 132.472  1.00  0.00    -0.389 OA
ATOM      7  H1  UNL     1      94.898  13.345 132.071  1.00  0.00     0.210 HD
ENDBRANCH   1   6
BRANCH   1   8
HETATM    8  C2  UNL     1      92.613  15.443 131.944  1.00  0.00     0.047 C 
HETATM    9  C3  UNL     1      92.970  16.201 130.685  1.00  0.00     0.036 C 
HETATM   10  C4  UNL     1      92.581  17.607 131.126  1.00  0.00     0.232 C 
HETATM   11  N1  UNL     1      92.756  17.671 132.542  1.00  0.00    -0.075 N 
HETATM   12  C5  UNL     1      93.141  16.349 133.002  1.00  0.00     0.239 C 
ATOM     13  H12 UNL     1      93.414  18.396 132.826  1.00  0.00     0.277 HD
ATOM     14  H11 UNL     1      91.936  18.035 133.026  1.00  0.00     0.277 HD
ENDBRANCH   1   8
TORSDOF 2
ENDMDL
MODEL 5
REMARK VINA RESULT: -6.022843628      0.821      1.267
REMARK  2 active torsions:
REMARK  status: ('A' for Active; 'I' for Inactive)
REMARK    1  A    between atoms: O1_1  and  C1_3 
REMARK    2  A    between atoms: C1_3  and  C2_4 
ROOT
HETATM    1  C1  UNL     1      93.524  13.915 132.622  1.00  0.00     0.063 C 
HETATM    2  C6  UNL     1      93.415  15.191 131.819  1.00  0.00     0.038 C 
HETATM    3  C7  UNL     1      92.477  14.848 130.671  1.00  0.00     0.003 C 
HETATM    4  C8  UNL     1      92.782  13.385 130.453  1.00  0.00     0.003 C 
HETATM    5  C9  UNL     1      92.822  12.853 131.869  1.00  0.00     0.038 C 
ENDROOT
BRANCH   1   6
HETATM    6  O1  UNL     1      94.880  13.593 132.690  1.00  0.00    -0.389 OA
ATOM      7  H1  UNL     1      95.164  13.680 133.592  1.00  0.00     0.210 HD
ENDBRANCH   1   6
BRANCH   1   8
HETATM    8  C2  UNL     1      93.036  14.179 133.994  1.00  0.00     0.047 C 
HETATM    9  C3  UNL     1      91.866  13.315 134.412  1.00  0.00     0.036 C 
HETATM   10  C4  UNL     1      91.463  14.047 135.686  1.00  0.00     0.232 C 
HETATM   11  N1  UNL     1      91.819  15.420 135.518  1.00  0.00    -0.075 N 
HETATM   12  C5  UNL     1      92.505  15.548 134.245  1.00  0.00     0.239 C 
ATOM     13  H12 UNL     1      91.021  16.049 135.602  1.00  0.00     0.277 HD
ATOM     14  H11 UNL     1      92.363  15.786 136.299  1.00  0.00     0.277 HD
ENDBRANCH   1   8
TORSDOF 2
ENDMDL
