MODEL 1
REMARK VINA RESULT: -6.646982869      0.000      0.000
REMARK  1 active torsions:
REMARK  status: ('A' for Active; 'I' for Inactive)
REMARK    1  A    between atoms: C3_3  and  C4_7 
ROOT
HETATM    1  C1  UNL     1      92.183  13.271 135.357  1.00  0.00     0.019 C 
HETATM    2  C2  UNL     1      92.505  12.998 134.226  1.00  0.00    -0.064 C 
HETATM    3  C3  UNL     1      92.871  12.674 132.857  1.00  0.00     0.062 C 
HETATM    4  N1  UNL     1      92.617  11.466 132.462  1.00  0.00    -0.395 N 
ATOM      5  H11 UNL     1      92.873  11.238 131.502  1.00  0.00     0.156 HD
ATOM      6  H12 UNL     1      92.184  10.766 133.064  1.00  0.00     0.156 HD
ENDROOT
BRANCH   3   7
HETATM    7  C4  UNL     1      93.502  13.695 131.981  1.00  0.00     0.061 C 
HETATM    8  C5  UNL     1      92.910  13.605 130.599  1.00  0.00     0.013 C 
HETATM    9  C6  UNL     1      93.506  14.606 129.666  1.00  0.00     0.002 C 
HETATM   10  C7  UNL     1      92.471  15.720 129.489  1.00  0.00     0.019 C 
HETATM   11  C8  UNL     1      92.104  16.170 130.891  1.00  0.00     0.113 C 
HETATM   12  N2  UNL     1      93.281  16.129 131.682  1.00  0.00    -0.420 N 
HETATM   13  C9  UNL     1      93.357  15.039 132.610  1.00  0.00     0.125 C 
ATOM     14  H2  UNL     1      94.020  16.827 131.597  1.00  0.00     0.153 HD
ENDBRANCH   3   7
TORSDOF 1
ENDMDL
MODEL 2
REMARK VINA RESULT: -6.356472376      1.328      4.191
REMARK  1 active torsions:
REMARK  status: ('A' for Active; 'I' for Inactive)
REMARK    1  A    between atoms: C3_3  and  C4_7 
ROOT
HETATM    1  C1  UNL     1      92.482  17.494 131.096  1.00  0.00     0.019 C 
HETATM    2  C2  UNL     1      92.865  16.467 130.591  1.00  0.00    -0.064 C 
HETATM    3  C3  UNL     1      93.348  15.240 129.981  1.00  0.00     0.062 C 
HETATM    4  N1  UNL     1      93.450  15.237 128.689  1.00  0.00    -0.395 N 
ATOM      5  H11 UNL     1      93.789  14.376 128.260  1.00  0.00     0.156 HD
ATOM      6  H12 UNL     1      93.208  16.043 128.113  1.00  0.00     0.156 HD
ENDROOT
BRANCH   3   7
HETATM    7  C4  UNL     1      93.700  14.065 130.821  1.00  0.00     0.061 C 
HETATM    8  C5  UNL     1      93.938  14.515 132.238  1.00  0.00     0.013 C 
HETATM    9  C6  UNL     1      94.301  13.379 133.136  1.00  0.00     0.002 C 
HETATM   10  C7  UNL     1      93.061  13.064 133.977  1.00  0.00     0.019 C 
HETATM   11  C8  UNL     1      91.928  12.869 132.988  1.00  0.00     0.113 C 
HETATM   12  N2  UNL     1      92.455  12.207 131.849  1.00  0.00    -0.420 N 
HETATM   13  C9  UNL     1      92.635  13.031 130.690  1.00  0.00     0.125 C 
ATOM     14  H2  UNL     1      92.688  11.214 131.855  1.00  0.00     0.153 HD
ENDBRANCH   3   7
TORSDOF 1
ENDMDL
MODEL 3
REMARK VINA RESULT: -6.212008596      1.632      4.078
REMARK  1 active torsions:
REMARK  status: ('A' for Active; 'I' for Inactive)
REMARK    1  A    between atoms: C3_3  and  C4_7 
ROOT
HETATM    1  C1  UNL     1      93.472  15.189 128.893  1.00  0.00     0.019 C 
HETATM    2  C2  UNL     1      93.258  14.468 129.837  1.00  0.00    -0.064 C 
HETATM    3  C3  UNL     1      93.021  13.587 130.968  1.00  0.00     0.062 C 
HETATM    4  N1  UNL     1      92.457  12.450 130.707  1.00  0.00    -0.395 N 
ATOM      5  H11 UNL     1      92.291  11.832 131.501  1.00  0.00     0.156 HD
ATOM      6  H12 UNL     1      92.186  12.169 129.765  1.00  0.00     0.156 HD
ENDROOT
BRANCH   3   7
HETATM    7  C4  UNL     1      93.417  13.997 132.341  1.00  0.00     0.061 C 
HETATM    8  C5  UNL     1      92.599  15.189 132.764  1.00  0.00     0.013 C 
HETATM    9  C6  UNL     1      92.952  15.654 134.138  1.00  0.00     0.002 C 
HETATM   10  C7  UNL     1      91.828  15.188 135.066  1.00  0.00     0.019 C 
HETATM   11  C8  UNL     1      91.681  13.698 134.824  1.00  0.00     0.113 C 
HETATM   12  N2  UNL     1      92.978  13.162 134.616  1.00  0.00    -0.420 N 
HETATM   13  C9  UNL     1      93.291  12.827 133.258  1.00  0.00     0.125 C 
ATOM     14  H2  UNL     1      93.641  13.025 135.379  1.00  0.00     0.153 HD
ENDBRANCH   3   7
TORSDOF 1
ENDMDL
MODEL 4
REMARK VINA RESULT: -6.132564116      2.079      3.019
REMARK  1 active torsions:
REMARK  status: ('A' for Active; 'I' for Inactive)
REMARK    1  A    between atoms: C3_3  and  C4_7 
ROOT
HETATM    1  C1  UNL     1      92.119  17.021 135.127  1.00  0.00     0.019 C 
HETATM    2  C2  UNL     1      92.135  15.815 135.098  1.00  0.00    -0.064 C 
HETATM    3  C3  UNL     1      92.134  14.362 135.051  1.00  0.00     0.062 C 
HETATM    4  N1  UNL     1      91.410  13.756 135.939  1.00  0.00    -0.395 N 
ATOM      5  H11 UNL     1      91.409  12.737 135.906  1.00  0.00     0.156 HD
ATOM      6  H12 UNL     1      90.863  14.253 136.641  1.00  0.00     0.156 HD
ENDROOT
BRANCH   3   7
HETATM    7  C4  UNL     1      92.931  13.638 134.027  1.00  0.00     0.061 C 
HETATM    8  C5  UNL     1      92.046  12.658 133.303  1.00  0.00     0.013 C 
HETATM    9  C6  UNL     1      92.790  11.892 132.260  1.00  0.00     0.002 C 
HETATM   10  C7  UNL     1      92.390  12.482 130.905  1.00  0.00     0.019 C 
HETATM   11  C8  UNL     1      92.634  13.975 131.017  1.00  0.00     0.113 C 
HETATM   12  N2  UNL     1      93.808  14.167 131.788  1.00  0.00    -0.420 N 
HETATM   13  C9  UNL     1      93.592  14.627 133.128  1.00  0.00     0.125 C 
ATOM     14  H2  UNL     1      94.741  13.991 131.415  1.00  0.00     0.153 HD
ENDBRANCH   3   7
TORSDOF 1
ENDMDL
MODEL 5
REMARK VINA RESULT: -6.090921897      2.411      3.624
REMARK  1 active torsions:
REMARK  status: ('A' for Active; 'I' for Inactive)
REMARK    1  A    between atoms: C3_3  and  C4_7 
ROOT
HETATM    1  C1  UNL     1      92.365  12.117 131.012  1.00  0.00     0.019 C 
HETATM    2  C2  UNL     1      92.634  13.264 130.750  1.00  0.00    -0.064 C 
HETATM    3  C3  UNL     1      92.941  14.644 130.418  1.00  0.00     0.062 C 
HETATM    4  N1  UNL     1      93.741  14.833 129.416  1.00  0.00    -0.395 N 
ATOM      5  H11 UNL     1      93.957  15.802 129.182  1.00  0.00     0.156 HD
ATOM      6  H12 UNL     1      94.145  14.067 128.877  1.00  0.00     0.156 HD
ENDROOT
BRANCH   3   7
HETATM    7  C4  UNL     1      92.353  15.761 131.203  1.00  0.00     0.061 C 
HETATM    8  C5  UNL     1      93.018  15.830 132.552  1.00  0.00     0.013 C 
HETATM    9  C6  UNL     1      92.467  16.932 133.395  1.00  0.00     0.002 C 
HETATM   10  C7  UNL     1      93.505  18.058 133.387  1.00  0.00     0.019 C 
HETATM   11  C8  UNL     1      93.794  18.342 131.925  1.00  0.00     0.113 C 
HETATM   12  N2  UNL     1      92.578  18.213 131.208  1.00  0.00    -0.420 N 
HETATM   13  C9  UNL     1      92.457  17.023 130.417  1.00  0.00     0.125 C 
ATOM     14  H2  UNL     1      91.841  18.916 131.252  1.00  0.00     0.153 HD
ENDBRANCH   3   7
TORSDOF 1
ENDMDL
