MODEL 1
REMARK VINA RESULT: -5.995522185      0.000      0.000
REMARK  5 active torsions:
REMARK  status: ('A' for Active; 'I' for Inactive)
REMARK    1  A    between atoms: O1_2  and  C2_3 
REMARK    2  A    between atoms: C6_7  and  N1_8 
REMARK    3  A    between atoms: N1_8  and  C7_10 
REMARK    4  A    between atoms: C7_10  and  C8_11 
REMARK       I    between atoms: C8_11  and  N2_13 
REMARK    5  A    between atoms: N2_13  and  C9_15 
ROOT
HETATM    1  C7  UNL     1      18.361  13.579  32.000  1.00  0.00     0.223 C 
ENDROOT
BRANCH   1   2
HETATM    2  N1  UNL     1      17.896  14.475  31.004  1.00  0.00    -0.381 N 
ATOM      3  H1  UNL     1      18.242  14.402  30.048  1.00  0.00     0.160 HD
BRANCH   2   4
HETATM    4  C6  UNL     1      16.939  15.483  31.346  1.00  0.00     0.030 A 
HETATM    5  C5  UNL     1      17.233  16.451  32.295  1.00  0.00     0.029 A 
HETATM    6  C4  UNL     1      16.315  17.431  32.635  1.00  0.00     0.005 A 
HETATM    7  C3  UNL     1      15.084  17.469  32.036  1.00  0.00     0.037 A 
HETATM    8  C2  UNL     1      14.774  16.524  31.097  1.00  0.00     0.070 A 
HETATM    9  C11 UNL     1      15.700  15.543  30.761  1.00  0.00     0.065 A 
BRANCH   8  10
HETATM   10  O1  UNL     1      13.528  16.541  30.473  1.00  0.00    -0.356 OA
HETATM   11  C1  UNL     1      12.508  17.420  30.874  1.00  0.00     0.210 C 
ENDBRANCH   8  10
ENDBRANCH   2   4
ENDBRANCH   1   2
BRANCH   1  12
HETATM   12  C8  UNL     1      19.792  13.610  32.301  1.00  0.00     0.240 C 
HETATM   13  O2  UNL     1      20.588  12.819  31.670  1.00  0.00    -0.271 OA
HETATM   14  N2  UNL     1      20.433  14.446  33.248  1.00  0.00    -0.309 N 
ATOM     15  H2  UNL     1      19.867  15.100  33.786  1.00  0.00     0.170 HD
BRANCH  14  16
HETATM   16  C9  UNL     1      21.841  14.408  33.476  1.00  0.00     0.139 A 
HETATM   17  C10 UNL     1      22.664  14.122  34.540  1.00  0.00     0.157 A 
HETATM   18  N3  UNL     1      23.775  14.352  33.804  1.00  0.00    -0.307 N 
HETATM   19  N4  UNL     1      22.969  14.626  32.781  1.00  0.00    -0.284 N 
ATOM     20  H3  UNL     1      24.782  14.326  33.962  1.00  0.00     0.186 HD
ATOM     21  H4  UNL     1      23.144  14.902  31.815  1.00  0.00     0.188 HD
ENDBRANCH  14  16
ENDBRANCH   1  12
TORSDOF 5
ENDMDL
MODEL 2
REMARK VINA RESULT: -5.907144539      3.711      7.580
REMARK  5 active torsions:
REMARK  status: ('A' for Active; 'I' for Inactive)
REMARK    1  A    between atoms: O1_2  and  C2_3 
REMARK    2  A    between atoms: C6_7  and  N1_8 
REMARK    3  A    between atoms: N1_8  and  C7_10 
REMARK    4  A    between atoms: C7_10  and  C8_11 
REMARK       I    between atoms: C8_11  and  N2_13 
REMARK    5  A    between atoms: N2_13  and  C9_15 
ROOT
HETATM    1  C7  UNL     1      15.206  16.619  32.535  1.00  0.00     0.223 C 
ENDROOT
BRANCH   1   2
HETATM    2  N1  UNL     1      16.391  17.398  32.515  1.00  0.00    -0.381 N 
ATOM      3  H1  UNL     1      16.379  18.337  32.119  1.00  0.00     0.160 HD
BRANCH   2   4
HETATM    4  C6  UNL     1      17.603  16.860  33.053  1.00  0.00     0.030 A 
HETATM    5  C5  UNL     1      17.864  15.499  32.998  1.00  0.00     0.029 A 
HETATM    6  C4  UNL     1      19.034  14.966  33.515  1.00  0.00     0.005 A 
HETATM    7  C3  UNL     1      19.970  15.779  34.097  1.00  0.00     0.037 A 
HETATM    8  C2  UNL     1      19.732  17.124  34.162  1.00  0.00     0.070 A 
HETATM    9  C11 UNL     1      18.556  17.652  33.641  1.00  0.00     0.065 A 
BRANCH   8  10
HETATM   10  O1  UNL     1      20.669  17.972  34.749  1.00  0.00    -0.356 OA
HETATM   11  C1  UNL     1      22.051  17.779  34.587  1.00  0.00     0.210 C 
ENDBRANCH   8  10
ENDBRANCH   2   4
ENDBRANCH   1   2
BRANCH   1  12
HETATM   12  C8  UNL     1      14.677  16.186  31.241  1.00  0.00     0.240 C 
HETATM   13  O2  UNL     1      15.494  15.840  30.308  1.00  0.00    -0.271 OA
HETATM   14  N2  UNL     1      13.310  16.098  30.879  1.00  0.00    -0.309 N 
ATOM     15  H2  UNL     1      12.604  16.356  31.568  1.00  0.00     0.170 HD
BRANCH  14  16
HETATM   16  C9  UNL     1      12.885  15.663  29.590  1.00  0.00     0.139 A 
HETATM   17  C10 UNL     1      11.928  16.048  28.680  1.00  0.00     0.157 A 
HETATM   18  N3  UNL     1      12.289  15.074  27.815  1.00  0.00    -0.307 N 
HETATM   19  N4  UNL     1      13.213  14.710  28.702  1.00  0.00    -0.284 N 
ATOM     20  H3  UNL     1      11.988  14.759  26.892  1.00  0.00     0.186 HD
ATOM     21  H4  UNL     1      13.916  13.972  28.706  1.00  0.00     0.188 HD
ENDBRANCH  14  16
ENDBRANCH   1  12
TORSDOF 5
ENDMDL
MODEL 3
REMARK VINA RESULT: -5.844130261      3.472      7.334
REMARK  5 active torsions:
REMARK  status: ('A' for Active; 'I' for Inactive)
REMARK    1  A    between atoms: O1_2  and  C2_3 
REMARK    2  A    between atoms: C6_7  and  N1_8 
REMARK    3  A    between atoms: N1_8  and  C7_10 
REMARK    4  A    between atoms: C7_10  and  C8_11 
REMARK       I    between atoms: C8_11  and  N2_13 
REMARK    5  A    between atoms: N2_13  and  C9_15 
ROOT
HETATM    1  C7  UNL     1      15.191  16.608  32.533  1.00  0.00     0.223 C 
ENDROOT
BRANCH   1   2
HETATM    2  N1  UNL     1      16.318  17.467  32.513  1.00  0.00    -0.381 N 
ATOM      3  H1  UNL     1      16.256  18.381  32.064  1.00  0.00     0.160 HD
BRANCH   2   4
HETATM    4  C6  UNL     1      17.542  17.048  33.124  1.00  0.00     0.030 A 
HETATM    5  C5  UNL     1      18.301  17.932  33.877  1.00  0.00     0.029 A 
HETATM    6  C4  UNL     1      19.488  17.539  34.473  1.00  0.00     0.005 A 
HETATM    7  C3  UNL     1      19.944  16.255  34.333  1.00  0.00     0.037 A 
HETATM    8  C2  UNL     1      19.211  15.367  33.595  1.00  0.00     0.070 A 
HETATM    9  C11 UNL     1      18.021  15.769  32.999  1.00  0.00     0.065 A 
BRANCH   8  10
HETATM   10  O1  UNL     1      19.653  14.055  33.438  1.00  0.00    -0.356 OA
HETATM   11  C1  UNL     1      20.044  13.547  32.188  1.00  0.00     0.210 C 
ENDBRANCH   8  10
ENDBRANCH   2   4
ENDBRANCH   1   2
BRANCH   1  12
HETATM   12  C8  UNL     1      14.664  16.176  31.239  1.00  0.00     0.240 C 
HETATM   13  O2  UNL     1      15.482  15.818  30.311  1.00  0.00    -0.271 OA
HETATM   14  N2  UNL     1      13.298  16.101  30.870  1.00  0.00    -0.309 N 
ATOM     15  H2  UNL     1      12.591  16.369  31.554  1.00  0.00     0.170 HD
BRANCH  14  16
HETATM   16  C9  UNL     1      12.875  15.667  29.579  1.00  0.00     0.139 A 
HETATM   17  C10 UNL     1      11.926  16.059  28.663  1.00  0.00     0.157 A 
HETATM   18  N3  UNL     1      12.282  15.079  27.803  1.00  0.00    -0.307 N 
HETATM   19  N4  UNL     1      13.197  14.708  28.696  1.00  0.00    -0.284 N 
ATOM     20  H3  UNL     1      11.983  14.764  26.880  1.00  0.00     0.186 HD
ATOM     21  H4  UNL     1      13.894  13.963  28.706  1.00  0.00     0.188 HD
ENDBRANCH  14  16
ENDBRANCH   1  12
TORSDOF 5
ENDMDL
MODEL 4
REMARK VINA RESULT: -5.799606318      2.013      2.374
REMARK  5 active torsions:
REMARK  status: ('A' for Active; 'I' for Inactive)
REMARK    1  A    between atoms: O1_2  and  C2_3 
REMARK    2  A    between atoms: C6_7  and  N1_8 
REMARK    3  A    between atoms: N1_8  and  C7_10 
REMARK    4  A    between atoms: C7_10  and  C8_11 
REMARK       I    between atoms: C8_11  and  N2_13 
REMARK    5  A    between atoms: N2_13  and  C9_15 
ROOT
HETATM    1  C7  UNL     1      20.340  14.228  33.488  1.00  0.00     0.223 C 
ENDROOT
BRANCH   1   2
HETATM    2  N1  UNL     1      19.297  14.247  32.528  1.00  0.00    -0.381 N 
ATOM      3  H1  UNL     1      19.232  13.508  31.828  1.00  0.00     0.160 HD
BRANCH   2   4
HETATM    4  C6  UNL     1      18.335  15.306  32.545  1.00  0.00     0.030 A 
HETATM    5  C5  UNL     1      18.515  16.420  33.351  1.00  0.00     0.029 A 
HETATM    6  C4  UNL     1      17.591  17.451  33.376  1.00  0.00     0.005 A 
HETATM    7  C3  UNL     1      16.466  17.396  32.597  1.00  0.00     0.037 A 
HETATM    8  C2  UNL     1      16.269  16.307  31.794  1.00  0.00     0.070 A 
HETATM    9  C11 UNL     1      17.200  15.275  31.774  1.00  0.00     0.065 A 
BRANCH   8  10
HETATM   10  O1  UNL     1      15.132  16.227  30.991  1.00  0.00    -0.356 OA
HETATM   11  C1  UNL     1      13.994  17.014  31.234  1.00  0.00     0.210 C 
ENDBRANCH   8  10
ENDBRANCH   2   4
ENDBRANCH   1   2
BRANCH   1  12
HETATM   12  C8  UNL     1      21.696  14.471  32.997  1.00  0.00     0.240 C 
HETATM   13  O2  UNL     1      22.437  15.340  33.592  1.00  0.00    -0.271 OA
HETATM   14  N2  UNL     1      22.317  13.834  31.895  1.00  0.00    -0.309 N 
ATOM     15  H2  UNL     1      21.791  13.132  31.374  1.00  0.00     0.170 HD
BRANCH  14  16
HETATM   16  C9  UNL     1      23.649  14.135  31.485  1.00  0.00     0.139 A 
HETATM   17  C10 UNL     1      24.855  13.474  31.472  1.00  0.00     0.157 A 
HETATM   18  N3  UNL     1      25.487  14.537  30.926  1.00  0.00    -0.307 N 
HETATM   19  N4  UNL     1      24.315  15.168  30.942  1.00  0.00    -0.284 N 
ATOM     20  H3  UNL     1      26.439  14.758  30.632  1.00  0.00     0.186 HD
ATOM     21  H4  UNL     1      24.025  16.100  30.648  1.00  0.00     0.188 HD
ENDBRANCH  14  16
ENDBRANCH   1  12
TORSDOF 5
ENDMDL
MODEL 5
REMARK VINA RESULT: -5.728269007      1.134      1.222
REMARK  5 active torsions:
REMARK  status: ('A' for Active; 'I' for Inactive)
REMARK    1  A    between atoms: O1_2  and  C2_3 
REMARK    2  A    between atoms: C6_7  and  N1_8 
REMARK    3  A    between atoms: N1_8  and  C7_10 
REMARK    4  A    between atoms: C7_10  and  C8_11 
REMARK       I    between atoms: C8_11  and  N2_13 
REMARK    5  A    between atoms: N2_13  and  C9_15 
ROOT
HETATM    1  C7  UNL     1      17.471  13.718  32.510  1.00  0.00     0.223 C 
ENDROOT
BRANCH   1   2
HETATM    2  N1  UNL     1      16.730  14.063  31.352  1.00  0.00    -0.381 N 
ATOM      3  H1  UNL     1      16.808  13.498  30.507  1.00  0.00     0.160 HD
BRANCH   2   4
HETATM    4  C6  UNL     1      15.872  15.209  31.373  1.00  0.00     0.030 A 
HETATM    5  C5  UNL     1      16.222  16.348  32.082  1.00  0.00     0.029 A 
HETATM    6  C4  UNL     1      15.400  17.462  32.109  1.00  0.00     0.005 A 
HETATM    7  C3  UNL     1      14.211  17.467  31.430  1.00  0.00     0.037 A 
HETATM    8  C2  UNL     1      13.846  16.353  30.725  1.00  0.00     0.070 A 
HETATM    9  C11 UNL     1      14.676  15.238  30.701  1.00  0.00     0.065 A 
BRANCH   8  10
HETATM   10  O1  UNL     1      12.642  16.332  30.025  1.00  0.00    -0.356 OA
HETATM   11  C1  UNL     1      12.429  15.471  28.936  1.00  0.00     0.210 C 
ENDBRANCH   8  10
ENDBRANCH   2   4
ENDBRANCH   1   2
BRANCH   1  12
HETATM   12  C8  UNL     1      18.927  13.832  32.423  1.00  0.00     0.240 C 
HETATM   13  O2  UNL     1      19.519  13.538  31.318  1.00  0.00    -0.271 OA
HETATM   14  N2  UNL     1      19.800  14.249  33.458  1.00  0.00    -0.309 N 
ATOM     15  H2  UNL     1      19.403  14.499  34.363  1.00  0.00     0.170 HD
BRANCH  14  16
HETATM   16  C9  UNL     1      21.213  14.331  33.282  1.00  0.00     0.139 A 
HETATM   17  C10 UNL     1      22.246  15.023  33.871  1.00  0.00     0.157 A 
HETATM   18  N3  UNL     1      23.158  14.454  33.051  1.00  0.00    -0.307 N 
HETATM   19  N4  UNL     1      22.151  13.789  32.489  1.00  0.00    -0.284 N 
ATOM     20  H3  UNL     1      24.168  14.510  32.922  1.00  0.00     0.186 HD
ATOM     21  H4  UNL     1      22.108  13.110  31.729  1.00  0.00     0.188 HD
ENDBRANCH  14  16
ENDBRANCH   1  12
TORSDOF 5
ENDMDL
