MODEL 1
REMARK VINA RESULT: -5.618628258      0.000      0.000
REMARK  4 active torsions:
REMARK  status: ('A' for Active; 'I' for Inactive)
REMARK    1  A    between atoms: C2_2  and  N1_3 
REMARK    2  A    between atoms: N1_3  and  C4_5 
REMARK    3  A    between atoms: C7_8  and  N2_9 
REMARK       I    between atoms: N2_9  and  C8_11 
REMARK    4  A    between atoms: C10_17  and  N5_18 
ROOT
HETATM    1  C4  UNL     1      15.271  15.584  31.567  1.00  0.00     0.056 A 
HETATM    2  C5  UNL     1      15.089  16.915  31.982  1.00  0.00     0.034 A 
HETATM    3  C6  UNL     1      16.085  17.646  32.575  1.00  0.00     0.032 A 
HETATM    4  C7  UNL     1      17.309  17.105  32.789  1.00  0.00     0.036 A 
HETATM    5  C9  UNL     1      17.511  15.798  32.389  1.00  0.00     0.061 A 
HETATM    6  C10 UNL     1      16.519  15.051  31.792  1.00  0.00     0.056 A 
ENDROOT
BRANCH   4   7
HETATM    7  N2  UNL     1      18.343  17.870  33.388  1.00  0.00    -0.331 N 
HETATM    8  C8  UNL     1      19.011  17.573  34.580  1.00  0.00     0.186 C 
HETATM    9  N3  UNL     1      18.399  17.339  35.706  1.00  0.00    -0.373 N 
HETATM   10  N4  UNL     1      20.421  17.525  34.586  1.00  0.00    -0.064 NA
ATOM     11  H32 UNL     1      17.380  17.375  35.702  1.00  0.00     0.158 HD
ATOM     12  H31 UNL     1      18.886  17.123  36.575  1.00  0.00     0.158 HD
ATOM     13  H2  UNL     1      18.628  18.721  32.901  1.00  0.00     0.168 HD
ENDBRANCH   4   7
BRANCH   6  14
HETATM   14  N5  UNL     1      16.808  13.717  31.424  1.00  0.00    -0.392 N 
HETATM   15  C11 UNL     1      17.017  12.693  32.436  1.00  0.00     0.146 C 
ATOM     16  H5  UNL     1      16.870  13.470  30.437  1.00  0.00     0.159 HD
ENDBRANCH   6  14
BRANCH   1  17
HETATM   17  N1  UNL     1      14.210  14.878  30.937  1.00  0.00    -0.384 N 
HETATM   18  C3  UNL     1      13.512  13.799  31.560  1.00  0.00     0.149 C 
BRANCH  17  19
HETATM   19  C2  UNL     1      13.834  15.288  29.605  1.00  0.00     0.118 C 
HETATM   20  C1  UNL     1      12.447  15.847  29.525  1.00  0.00     0.026 C 
ENDBRANCH  17  19
ENDBRANCH   1  17
TORSDOF 4
ENDMDL
MODEL 2
REMARK VINA RESULT: -5.490744831      1.559      5.670
REMARK  4 active torsions:
REMARK  status: ('A' for Active; 'I' for Inactive)
REMARK    1  A    between atoms: C2_2  and  N1_3 
REMARK    2  A    between atoms: N1_3  and  C4_5 
REMARK    3  A    between atoms: C7_8  and  N2_9 
REMARK       I    between atoms: N2_9  and  C8_11 
REMARK    4  A    between atoms: C10_17  and  N5_18 
ROOT
HETATM    1  C4  UNL     1      16.587  16.434  32.509  1.00  0.00     0.056 A 
HETATM    2  C5  UNL     1      15.426  17.226  32.551  1.00  0.00     0.034 A 
HETATM    3  C6  UNL     1      14.411  17.095  31.640  1.00  0.00     0.032 A 
HETATM    4  C7  UNL     1      14.486  16.180  30.643  1.00  0.00     0.036 A 
HETATM    5  C9  UNL     1      15.618  15.390  30.582  1.00  0.00     0.061 A 
HETATM    6  C10 UNL     1      16.647  15.510  31.491  1.00  0.00     0.056 A 
ENDROOT
BRANCH   4   7
HETATM    7  N2  UNL     1      13.425  16.036  29.712  1.00  0.00    -0.331 N 
HETATM    8  C8  UNL     1      12.481  15.004  29.682  1.00  0.00     0.186 C 
HETATM    9  N3  UNL     1      12.800  13.741  29.663  1.00  0.00    -0.373 N 
HETATM   10  N4  UNL     1      11.108  15.328  29.667  1.00  0.00    -0.064 NA
ATOM     11  H32 UNL     1      13.792  13.507  29.674  1.00  0.00     0.158 HD
ATOM     12  H31 UNL     1      12.111  12.989  29.641  1.00  0.00     0.158 HD
ATOM     13  H2  UNL     1      13.343  16.755  28.993  1.00  0.00     0.168 HD
ENDBRANCH   4   7
BRANCH   6  14
HETATM   14  N5  UNL     1      17.775  14.669  31.349  1.00  0.00    -0.392 N 
HETATM   15  C11 UNL     1      17.771  13.320  31.894  1.00  0.00     0.146 C 
ATOM     16  H5  UNL     1      18.600  15.013  30.860  1.00  0.00     0.159 HD
ENDBRANCH   6  14
BRANCH   1  17
HETATM   17  N1  UNL     1      17.601  16.596  33.493  1.00  0.00    -0.384 N 
HETATM   18  C3  UNL     1      17.670  15.807  34.682  1.00  0.00     0.149 C 
BRANCH  17  19
HETATM   19  C2  UNL     1      18.602  17.609  33.258  1.00  0.00     0.118 C 
HETATM   20  C1  UNL     1      19.635  17.686  34.339  1.00  0.00     0.026 C 
ENDBRANCH  17  19
ENDBRANCH   1  17
TORSDOF 4
ENDMDL
MODEL 3
REMARK VINA RESULT: -5.363353637      0.423      1.191
REMARK  4 active torsions:
REMARK  status: ('A' for Active; 'I' for Inactive)
REMARK    1  A    between atoms: C2_2  and  N1_3 
REMARK    2  A    between atoms: N1_3  and  C4_5 
REMARK    3  A    between atoms: C7_8  and  N2_9 
REMARK       I    between atoms: N2_9  and  C8_11 
REMARK    4  A    between atoms: C10_17  and  N5_18 
ROOT
HETATM    1  C4  UNL     1      15.285  15.653  31.570  1.00  0.00     0.056 A 
HETATM    2  C5  UNL     1      15.133  16.984  31.996  1.00  0.00     0.034 A 
HETATM    3  C6  UNL     1      16.145  17.687  32.595  1.00  0.00     0.032 A 
HETATM    4  C7  UNL     1      17.357  17.118  32.804  1.00  0.00     0.036 A 
HETATM    5  C9  UNL     1      17.530  15.810  32.393  1.00  0.00     0.061 A 
HETATM    6  C10 UNL     1      16.521  15.090  31.790  1.00  0.00     0.056 A 
ENDROOT
BRANCH   4   7
HETATM    7  N2  UNL     1      18.407  17.854  33.409  1.00  0.00    -0.331 N 
HETATM    8  C8  UNL     1      19.054  17.543  34.610  1.00  0.00     0.186 C 
HETATM    9  N3  UNL     1      18.425  17.333  35.730  1.00  0.00    -0.373 N 
HETATM   10  N4  UNL     1      20.463  17.452  34.629  1.00  0.00    -0.064 NA
ATOM     11  H32 UNL     1      17.407  17.399  35.717  1.00  0.00     0.158 HD
ATOM     12  H31 UNL     1      18.897  17.107  36.605  1.00  0.00     0.158 HD
ATOM     13  H2  UNL     1      18.722  18.693  32.922  1.00  0.00     0.168 HD
ENDBRANCH   4   7
BRANCH   6  14
HETATM   14  N5  UNL     1      16.780  13.753  31.410  1.00  0.00    -0.392 N 
HETATM   15  C11 UNL     1      16.972  12.717  32.414  1.00  0.00     0.146 C 
ATOM     16  H5  UNL     1      16.832  13.512  30.421  1.00  0.00     0.159 HD
ENDBRANCH   6  14
BRANCH   1  17
HETATM   17  N1  UNL     1      14.208  14.976  30.933  1.00  0.00    -0.384 N 
HETATM   18  C3  UNL     1      13.810  15.235  29.586  1.00  0.00     0.149 C 
BRANCH  17  19
HETATM   19  C2  UNL     1      13.499  13.982  31.702  1.00  0.00     0.118 C 
HETATM   20  C1  UNL     1      12.337  14.538  32.466  1.00  0.00     0.026 C 
ENDBRANCH  17  19
ENDBRANCH   1  17
TORSDOF 4
ENDMDL
MODEL 4
REMARK VINA RESULT: -5.351588743      1.586      5.711
REMARK  4 active torsions:
REMARK  status: ('A' for Active; 'I' for Inactive)
REMARK    1  A    between atoms: C2_2  and  N1_3 
REMARK    2  A    between atoms: N1_3  and  C4_5 
REMARK    3  A    between atoms: C7_8  and  N2_9 
REMARK       I    between atoms: N2_9  and  C8_11 
REMARK    4  A    between atoms: C10_17  and  N5_18 
ROOT
HETATM    1  C4  UNL     1      16.594  16.526  32.441  1.00  0.00     0.056 A 
HETATM    2  C5  UNL     1      15.437  17.324  32.469  1.00  0.00     0.034 A 
HETATM    3  C6  UNL     1      14.401  17.151  31.590  1.00  0.00     0.032 A 
HETATM    4  C7  UNL     1      14.450  16.186  30.640  1.00  0.00     0.036 A 
HETATM    5  C9  UNL     1      15.578  15.390  30.593  1.00  0.00     0.061 A 
HETATM    6  C10 UNL     1      16.628  15.552  31.470  1.00  0.00     0.056 A 
ENDROOT
BRANCH   4   7
HETATM    7  N2  UNL     1      13.367  15.999  29.742  1.00  0.00    -0.331 N 
HETATM    8  C8  UNL     1      12.455  14.938  29.751  1.00  0.00     0.186 C 
HETATM    9  N3  UNL     1      12.812  13.686  29.735  1.00  0.00    -0.373 N 
HETATM   10  N4  UNL     1      11.073  15.220  29.773  1.00  0.00    -0.064 NA
ATOM     11  H32 UNL     1      13.811  13.482  29.719  1.00  0.00     0.158 HD
ATOM     12  H31 UNL     1      12.147  12.913  29.742  1.00  0.00     0.158 HD
ATOM     13  H2  UNL     1      13.242  16.707  29.018  1.00  0.00     0.168 HD
ENDBRANCH   4   7
BRANCH   6  14
HETATM   14  N5  UNL     1      17.750  14.700  31.345  1.00  0.00    -0.392 N 
HETATM   15  C11 UNL     1      17.742  13.367  31.930  1.00  0.00     0.146 C 
ATOM     16  H5  UNL     1      18.574  15.024  30.840  1.00  0.00     0.159 HD
ENDBRANCH   6  14
BRANCH   1  17
HETATM   17  N1  UNL     1      17.632  16.734  33.391  1.00  0.00    -0.384 N 
HETATM   18  C3  UNL     1      18.725  17.627  33.172  1.00  0.00     0.149 C 
BRANCH  17  19
HETATM   19  C2  UNL     1      17.557  15.999  34.632  1.00  0.00     0.118 C 
HETATM   20  C1  UNL     1      18.277  16.667  35.762  1.00  0.00     0.026 C 
ENDBRANCH  17  19
ENDBRANCH   1  17
TORSDOF 4
ENDMDL
MODEL 5
REMARK VINA RESULT: -5.279063992      1.573      1.902
REMARK  4 active torsions:
REMARK  status: ('A' for Active; 'I' for Inactive)
REMARK    1  A    between atoms: C2_2  and  N1_3 
REMARK    2  A    between atoms: N1_3  and  C4_5 
REMARK    3  A    between atoms: C7_8  and  N2_9 
REMARK       I    between atoms: N2_9  and  C8_11 
REMARK    4  A    between atoms: C10_17  and  N5_18 
ROOT
HETATM    1  C4  UNL     1      14.958  16.229  32.173  1.00  0.00     0.056 A 
HETATM    2  C5  UNL     1      15.768  17.377  32.108  1.00  0.00     0.034 A 
HETATM    3  C6  UNL     1      16.828  17.579  32.953  1.00  0.00     0.032 A 
HETATM    4  C7  UNL     1      17.144  16.664  33.902  1.00  0.00     0.036 A 
HETATM    5  C9  UNL     1      16.361  15.529  33.984  1.00  0.00     0.061 A 
HETATM    6  C10 UNL     1      15.292  15.312  33.142  1.00  0.00     0.056 A 
ENDROOT
BRANCH   4   7
HETATM    7  N2  UNL     1      18.253  16.870  34.763  1.00  0.00    -0.331 N 
HETATM    8  C8  UNL     1      19.600  16.666  34.445  1.00  0.00     0.186 C 
HETATM    9  N3  UNL     1      20.061  15.549  33.959  1.00  0.00    -0.373 N 
HETATM   10  N4  UNL     1      20.523  17.711  34.661  1.00  0.00    -0.064 NA
ATOM     11  H32 UNL     1      19.393  14.794  33.803  1.00  0.00     0.158 HD
ATOM     12  H31 UNL     1      21.042  15.401  33.727  1.00  0.00     0.158 HD
ATOM     13  H2  UNL     1      18.048  17.198  35.707  1.00  0.00     0.168 HD
ENDBRANCH   4   7
BRANCH   6  14
HETATM   14  N5  UNL     1      14.537  14.128  33.302  1.00  0.00    -0.392 N 
HETATM   15  C11 UNL     1      14.966  12.881  32.685  1.00  0.00     0.146 C 
ATOM     16  H5  UNL     1      13.681  14.147  33.856  1.00  0.00     0.159 HD
ENDBRANCH   6  14
BRANCH   1  17
HETATM   17  N1  UNL     1      13.883  16.059  31.258  1.00  0.00    -0.384 N 
HETATM   18  C3  UNL     1      14.037  15.445  29.977  1.00  0.00     0.149 C 
BRANCH  17  19
HETATM   19  C2  UNL     1      12.581  16.533  31.663  1.00  0.00     0.118 C 
HETATM   20  C1  UNL     1      12.177  17.810  30.992  1.00  0.00     0.026 C 
ENDBRANCH  17  19
ENDBRANCH   1  17
TORSDOF 4
ENDMDL
