MODEL 1
REMARK VINA RESULT: -6.279936980      0.000      0.000
REMARK  4 active torsions:
REMARK  status: ('A' for Active; 'I' for Inactive)
REMARK    1  A    between atoms: C1_4  and  C2_6 
REMARK    2  A    between atoms: C4_8  and  C5_9 
REMARK    3  A    between atoms: C5_9  and  N3_10 
REMARK    4  A    between atoms: N3_10  and  C6_12 
ROOT
HETATM    1  C2  UNL     1      13.519  15.795  29.956  1.00  0.00     0.090 A 
HETATM    2  C3  UNL     1      13.787  16.714  30.938  1.00  0.00     0.062 A 
HETATM    3  C4  UNL     1      15.095  16.559  31.323  1.00  0.00     0.045 A 
HETATM    4  N4  UNL     1      15.605  15.569  30.590  1.00  0.00    -0.303 N 
ATOM      5  H4  UNL     1      16.561  15.217  30.646  1.00  0.00     0.186 HD
HETATM    6  N5  UNL     1      14.668  15.122  29.784  1.00  0.00    -0.297 N 
ATOM      7  H5  UNL     1      14.797  14.364  29.115  1.00  0.00     0.187 HD
ENDROOT
BRANCH   3   8
HETATM    8  C5  UNL     1      15.754  17.381  32.382  1.00  0.00     0.178 C 
BRANCH   8   9
HETATM    9  N3  UNL     1      16.361  16.555  33.380  1.00  0.00    -0.384 N 
ATOM     10  H3  UNL     1      15.756  15.904  33.879  1.00  0.00     0.160 HD
BRANCH   9  11
HETATM   11  C6  UNL     1      17.721  16.566  33.729  1.00  0.00     0.028 A 
HETATM   12  C7  UNL     1      18.441  15.399  33.735  1.00  0.00     0.029 A 
HETATM   13  C8  UNL     1      19.795  15.379  34.085  1.00  0.00     0.002 A 
HETATM   14  C9  UNL     1      20.440  16.531  34.433  1.00  0.00     0.000 A 
HETATM   15  C10 UNL     1      19.729  17.705  34.432  1.00  0.00     0.002 A 
HETATM   16  C11 UNL     1      18.396  17.708  34.084  1.00  0.00     0.029 A 
ENDBRANCH   9  11
ENDBRANCH   8   9
ENDBRANCH   3   8
BRANCH   1  17
HETATM   17  C1  UNL     1      12.261  15.587  29.246  1.00  0.00     0.138 C 
HETATM   18  N1  UNL     1      12.234  15.440  27.982  1.00  0.00    -0.386 N 
ATOM     19  H12 UNL     1      11.355  15.295  27.485  1.00  0.00     0.157 HD
ATOM     20  H11 UNL     1      13.106  15.467  27.453  1.00  0.00     0.157 HD
HETATM   21  N2  UNL     1      11.046  15.549  29.982  1.00  0.00    -0.081 NA
ENDBRANCH   1  17
TORSDOF 4
ENDMDL
MODEL 2
REMARK VINA RESULT: -6.244701230      0.064      1.173
REMARK  4 active torsions:
REMARK  status: ('A' for Active; 'I' for Inactive)
REMARK    1  A    between atoms: C1_4  and  C2_6 
REMARK    2  A    between atoms: C4_8  and  C5_9 
REMARK    3  A    between atoms: C5_9  and  N3_10 
REMARK    4  A    between atoms: N3_10  and  C6_12 
ROOT
HETATM    1  C2  UNL     1      13.554  15.799  29.979  1.00  0.00     0.090 A 
HETATM    2  C3  UNL     1      13.835  16.722  30.954  1.00  0.00     0.062 A 
HETATM    3  C4  UNL     1      15.139  16.546  31.344  1.00  0.00     0.045 A 
HETATM    4  N4  UNL     1      15.634  15.541  30.621  1.00  0.00    -0.303 N 
ATOM      5  H4  UNL     1      16.584  15.173  30.682  1.00  0.00     0.186 HD
HETATM    6  N5  UNL     1      14.691  15.104  29.816  1.00  0.00    -0.297 N 
ATOM      7  H5  UNL     1      14.808  14.338  29.154  1.00  0.00     0.187 HD
ENDROOT
BRANCH   3   8
HETATM    8  C5  UNL     1      15.810  17.365  32.397  1.00  0.00     0.178 C 
BRANCH   8   9
HETATM    9  N3  UNL     1      16.388  16.539  33.411  1.00  0.00    -0.384 N 
ATOM     10  H3  UNL     1      15.762  15.908  33.913  1.00  0.00     0.160 HD
BRANCH   9  11
HETATM   11  C6  UNL     1      17.744  16.522  33.775  1.00  0.00     0.028 A 
HETATM   12  C7  UNL     1      18.394  17.693  34.069  1.00  0.00     0.029 A 
HETATM   13  C8  UNL     1      19.745  17.706  34.427  1.00  0.00     0.002 A 
HETATM   14  C9  UNL     1      20.459  16.544  34.494  1.00  0.00     0.000 A 
HETATM   15  C10 UNL     1      19.819  15.365  34.201  1.00  0.00     0.002 A 
HETATM   16  C11 UNL     1      18.487  15.369  33.850  1.00  0.00     0.029 A 
ENDBRANCH   9  11
ENDBRANCH   8   9
ENDBRANCH   3   8
BRANCH   1  17
HETATM   17  C1  UNL     1      12.294  15.607  29.267  1.00  0.00     0.138 C 
HETATM   18  N1  UNL     1      12.269  15.438  28.006  1.00  0.00    -0.386 N 
ATOM     19  H12 UNL     1      11.389  15.304  27.508  1.00  0.00     0.157 HD
ATOM     20  H11 UNL     1      13.143  15.436  27.480  1.00  0.00     0.157 HD
HETATM   21  N2  UNL     1      11.076  15.609  29.998  1.00  0.00    -0.081 NA
ENDBRANCH   1  17
TORSDOF 4
ENDMDL
MODEL 3
REMARK VINA RESULT: -6.102503278      2.183      6.838
REMARK  4 active torsions:
REMARK  status: ('A' for Active; 'I' for Inactive)
REMARK    1  A    between atoms: C1_4  and  C2_6 
REMARK    2  A    between atoms: C4_8  and  C5_9 
REMARK    3  A    between atoms: C5_9  and  N3_10 
REMARK    4  A    between atoms: N3_10  and  C6_12 
ROOT
HETATM    1  C2  UNL     1      19.047  16.261  33.772  1.00  0.00     0.090 A 
HETATM    2  C3  UNL     1      17.831  16.134  33.149  1.00  0.00     0.062 A 
HETATM    3  C4  UNL     1      17.781  14.896  32.560  1.00  0.00     0.045 A 
HETATM    4  N4  UNL     1      18.939  14.289  32.821  1.00  0.00    -0.303 N 
ATOM      5  H4  UNL     1      19.204  13.352  32.516  1.00  0.00     0.186 HD
HETATM    6  N5  UNL     1      19.683  15.102  33.538  1.00  0.00    -0.297 N 
ATOM      7  H5  UNL     1      20.620  14.881  33.873  1.00  0.00     0.187 HD
ENDROOT
BRANCH   3   8
HETATM    8  C5  UNL     1      16.611  14.392  31.780  1.00  0.00     0.178 C 
BRANCH   8   9
HETATM    9  N3  UNL     1      16.200  15.339  30.790  1.00  0.00    -0.384 N 
ATOM     10  H3  UNL     1      16.903  15.650  30.120  1.00  0.00     0.160 HD
BRANCH   9  11
HETATM   11  C6  UNL     1      14.908  15.875  30.662  1.00  0.00     0.028 A 
HETATM   12  C7  UNL     1      14.544  16.978  31.390  1.00  0.00     0.029 A 
HETATM   13  C8  UNL     1      13.263  17.529  31.288  1.00  0.00     0.002 A 
HETATM   14  C9  UNL     1      12.333  16.978  30.453  1.00  0.00     0.000 A 
HETATM   15  C10 UNL     1      12.686  15.872  29.720  1.00  0.00     0.002 A 
HETATM   16  C11 UNL     1      13.952  15.341  29.832  1.00  0.00     0.029 A 
ENDBRANCH   9  11
ENDBRANCH   8   9
ENDBRANCH   3   8
BRANCH   1  17
HETATM   17  C1  UNL     1      19.549  17.405  34.528  1.00  0.00     0.138 C 
HETATM   18  N1  UNL     1      20.769  17.762  34.451  1.00  0.00    -0.386 N 
ATOM     19  H12 UNL     1      21.119  18.560  34.979  1.00  0.00     0.157 HD
ATOM     20  H11 UNL     1      21.409  17.241  33.852  1.00  0.00     0.157 HD
HETATM   21  N2  UNL     1      18.657  18.131  35.362  1.00  0.00    -0.081 NA
ENDBRANCH   1  17
TORSDOF 4
ENDMDL
MODEL 4
REMARK VINA RESULT: -6.071879239      2.180      6.739
REMARK  4 active torsions:
REMARK  status: ('A' for Active; 'I' for Inactive)
REMARK    1  A    between atoms: C1_4  and  C2_6 
REMARK    2  A    between atoms: C4_8  and  C5_9 
REMARK    3  A    between atoms: C5_9  and  N3_10 
REMARK    4  A    between atoms: N3_10  and  C6_12 
ROOT
HETATM    1  C2  UNL     1      19.028  16.221  33.792  1.00  0.00     0.090 A 
HETATM    2  C3  UNL     1      17.845  16.110  33.106  1.00  0.00     0.062 A 
HETATM    3  C4  UNL     1      17.768  14.840  32.592  1.00  0.00     0.045 A 
HETATM    4  N4  UNL     1      18.878  14.199  32.959  1.00  0.00    -0.303 N 
ATOM      5  H4  UNL     1      19.113  13.234  32.728  1.00  0.00     0.186 HD
HETATM    6  N5  UNL     1      19.618  15.022  33.668  1.00  0.00    -0.297 N 
ATOM      7  H5  UNL     1      20.523  14.780  34.072  1.00  0.00     0.187 HD
ENDROOT
BRANCH   3   8
HETATM    8  C5  UNL     1      16.621  14.341  31.775  1.00  0.00     0.178 C 
BRANCH   8   9
HETATM    9  N3  UNL     1      16.218  15.306  30.800  1.00  0.00    -0.384 N 
ATOM     10  H3  UNL     1      16.916  15.601  30.117  1.00  0.00     0.160 HD
BRANCH   9  11
HETATM   11  C6  UNL     1      14.941  15.882  30.703  1.00  0.00     0.028 A 
HETATM   12  C7  UNL     1      13.999  15.335  29.870  1.00  0.00     0.029 A 
HETATM   13  C8  UNL     1      12.722  15.892  29.749  1.00  0.00     0.002 A 
HETATM   14  C9  UNL     1      12.377  17.004  30.462  1.00  0.00     0.000 A 
HETATM   15  C10 UNL     1      13.312  17.561  31.299  1.00  0.00     0.002 A 
HETATM   16  C11 UNL     1      14.566  17.000  31.407  1.00  0.00     0.029 A 
ENDBRANCH   9  11
ENDBRANCH   8   9
ENDBRANCH   3   8
BRANCH   1  17
HETATM   17  C1  UNL     1      19.541  17.387  34.505  1.00  0.00     0.138 C 
HETATM   18  N1  UNL     1      20.762  17.735  34.407  1.00  0.00    -0.386 N 
ATOM     19  H12 UNL     1      21.120  18.549  34.906  1.00  0.00     0.157 HD
ATOM     20  H11 UNL     1      21.395  17.191  33.821  1.00  0.00     0.157 HD
HETATM   21  N2  UNL     1      18.659  18.145  35.321  1.00  0.00    -0.081 NA
ENDBRANCH   1  17
TORSDOF 4
ENDMDL
MODEL 5
REMARK VINA RESULT: -5.995603130      2.945      7.606
REMARK  4 active torsions:
REMARK  status: ('A' for Active; 'I' for Inactive)
REMARK    1  A    between atoms: C1_4  and  C2_6 
REMARK    2  A    between atoms: C4_8  and  C5_9 
REMARK    3  A    between atoms: C5_9  and  N3_10 
REMARK    4  A    between atoms: N3_10  and  C6_12 
ROOT
HETATM    1  C2  UNL     1      20.887  16.611  34.756  1.00  0.00     0.090 A 
HETATM    2  C3  UNL     1      19.841  17.427  34.407  1.00  0.00     0.062 A 
HETATM    3  C4  UNL     1      18.890  16.659  33.782  1.00  0.00     0.045 A 
HETATM    4  N4  UNL     1      19.351  15.408  33.755  1.00  0.00    -0.303 N 
ATOM      5  H4  UNL     1      18.869  14.604  33.354  1.00  0.00     0.186 HD
HETATM    6  N5  UNL     1      20.532  15.387  34.332  1.00  0.00    -0.297 N 
ATOM      7  H5  UNL     1      21.104  14.551  34.444  1.00  0.00     0.187 HD
ENDROOT
BRANCH   3   8
HETATM    8  C5  UNL     1      17.602  17.198  33.251  1.00  0.00     0.178 C 
BRANCH   8   9
HETATM    9  N3  UNL     1      17.152  16.450  32.119  1.00  0.00    -0.384 N 
ATOM     10  H3  UNL     1      17.832  15.846  31.657  1.00  0.00     0.160 HD
BRANCH   9  11
HETATM   11  C6  UNL     1      15.852  16.476  31.590  1.00  0.00     0.028 A 
HETATM   12  C7  UNL     1      15.445  15.505  30.712  1.00  0.00     0.029 A 
HETATM   13  C8  UNL     1      14.158  15.510  30.165  1.00  0.00     0.002 A 
HETATM   14  C9  UNL     1      13.266  16.491  30.493  1.00  0.00     0.000 A 
HETATM   15  C10 UNL     1      13.663  17.469  31.370  1.00  0.00     0.002 A 
HETATM   16  C11 UNL     1      14.934  17.450  31.901  1.00  0.00     0.029 A 
ENDBRANCH   9  11
ENDBRANCH   8   9
ENDBRANCH   3   8
BRANCH   1  17
HETATM   17  C1  UNL     1      22.121  16.984  35.440  1.00  0.00     0.138 C 
HETATM   18  N1  UNL     1      22.326  16.660  36.654  1.00  0.00    -0.386 N 
ATOM     19  H12 UNL     1      23.188  16.921  37.132  1.00  0.00     0.157 HD
ATOM     20  H11 UNL     1      21.616  16.131  37.161  1.00  0.00     0.157 HD
HETATM   21  N2  UNL     1      23.111  17.720  34.734  1.00  0.00    -0.081 NA
ENDBRANCH   1  17
TORSDOF 4
ENDMDL
