MODEL 1
REMARK VINA RESULT: -8.258711630      0.000      0.000
REMARK  14 active torsions:
REMARK  status: ('A' for Active; 'I' for Inactive)
REMARK    1  A    between atoms: C5_7  and  C6_8 
REMARK    2  A    between atoms: C6_8  and  N2_9 
REMARK    3  A    between atoms: C6_8  and  N3_13 
REMARK    4  A    between atoms: N3_13  and  C7_15 
REMARK    5  A    between atoms: C7_15  and  C8_16 
REMARK    6  A    between atoms: C8_16  and  C9_17 
REMARK    7  A    between atoms: C9_17  and  C10_18 
REMARK    8  A    between atoms: C10_18  and  N4_19 
REMARK       I    between atoms: C11_21  and  N6_23 
REMARK    9  A    between atoms: N6_23  and  C12_25 
REMARK   10  A    between atoms: C12_25  and  C13_26 
REMARK   11  A    between atoms: C13_26  and  C14_27 
REMARK   12  A    between atoms: C14_27  and  C15_28 
REMARK   13  A    between atoms: C17_31  and  C18_32 
REMARK   14  A    between atoms: C19_33  and  C20_34 
ROOT
HETATM    1  C6  UNL     1    -143.763-172.121 360.592  1.00  0.00     0.313 C 
ENDROOT
BRANCH   1   2
HETATM    2  C5  UNL     1    -142.389-171.503 360.458  1.00  0.00    -0.007 C 
HETATM    3  C3  UNL     1    -141.957-171.403 359.223  1.00  0.00     0.011 C 
HETATM    4  N1  UNL     1    -140.701-170.847 358.930  1.00  0.00    -0.366 N 
HETATM    5  C4  UNL     1    -142.838-171.873 358.073  1.00  0.00     0.068 C 
HETATM    6  C2  UNL     1    -139.945-170.416 359.856  1.00  0.00    -0.001 C 
ATOM      7  H1  UNL     1    -140.390-170.790 357.960  1.00  0.00     0.165 HD
HETATM    8  C1  UNL     1    -138.589-169.822 359.570  1.00  0.00     0.064 C 
HETATM    9  C17 UNL     1    -140.340-170.393 361.282  1.00  0.00     0.114 C 
HETATM   10  C16 UNL     1    -141.618-171.074 361.612  1.00  0.00     0.063 C 
BRANCH   9  11
HETATM   11  C18 UNL     1    -139.187-170.918 362.059  1.00  0.00    -0.095 C 
HETATM   12  C19 UNL     1    -138.232-171.321 362.670  1.00  0.00    -0.097 C 
BRANCH  12  13
HETATM   13  C20 UNL     1    -137.049-171.789 363.393  1.00  0.00     0.013 C 
HETATM   14  C21 UNL     1    -136.508-170.708 364.319  1.00  0.00     0.028 C 
HETATM   15  C22 UNL     1    -135.899-172.107 362.430  1.00  0.00     0.028 C 
HETATM   16  C23 UNL     1    -137.365-173.012 364.195  1.00  0.00     0.028 C 
ENDBRANCH  12  13
ENDBRANCH   9  11
ENDBRANCH   1   2
BRANCH   1  17
HETATM   17  N2  UNL     1    -143.565-173.319 361.457  1.00  0.00    -0.054 N 
ATOM     18  H23 UNL     1    -142.588-173.583 361.578  1.00  0.00     0.277 HD
ATOM     19  H22 UNL     1    -143.766-173.154 362.443  1.00  0.00     0.277 HD
ATOM     20  H21 UNL     1    -144.140-174.047 361.034  1.00  0.00     0.277 HD
ENDBRANCH   1  17
BRANCH   1  21
HETATM   21  N3  UNL     1    -144.686-171.296 361.215  1.00  0.00    -0.372 N 
ATOM     22  H3  UNL     1    -144.425-170.869 362.103  1.00  0.00     0.161 HD
BRANCH  21  23
HETATM   23  C7  UNL     1    -145.957-171.013 360.694  1.00  0.00     0.058 C 
BRANCH  23  24
HETATM   24  C8  UNL     1    -146.607-172.164 359.981  1.00  0.00     0.046 C 
BRANCH  24  25
HETATM   25  C9  UNL     1    -147.904-172.525 360.664  1.00  0.00     0.025 C 
BRANCH  25  26
HETATM   26  C10 UNL     1    -148.020-174.061 360.751  1.00  0.00     0.122 C 
BRANCH  26  27
HETATM   27  N4  UNL     1    -148.841-174.407 361.878  1.00  0.00    -0.365 N 
HETATM   28  C11 UNL     1    -149.591-175.431 361.861  1.00  0.00     0.183 C 
HETATM   29  N5  UNL     1    -149.656-176.286 360.727  1.00  0.00    -0.064 NA
HETATM   30  N6  UNL     1    -150.390-175.691 363.035  1.00  0.00    -0.365 N 
ATOM     31  H6  UNL     1    -151.243-175.158 363.205  1.00  0.00     0.162 HD
ATOM     32  H4  UNL     1    -148.819-173.817 362.711  1.00  0.00     0.162 HD
BRANCH  30  33
HETATM   33  C12 UNL     1    -149.971-176.710 363.964  1.00  0.00     0.122 C 
BRANCH  33  34
HETATM   34  C13 UNL     1    -150.709-178.005 363.719  1.00  0.00     0.020 C 
BRANCH  34  35
HETATM   35  C14 UNL     1    -150.388-179.061 364.734  1.00  0.00     0.012 C 
BRANCH  35  36
HETATM   36  C15 UNL     1    -149.917-180.303 363.988  1.00  0.00     0.085 C 
HETATM   37 BR1  UNL     1    -150.134-180.097 362.072  1.00  0.00    -0.097 Br
ENDBRANCH  35  36
ENDBRANCH  34  35
ENDBRANCH  33  34
ENDBRANCH  30  33
ENDBRANCH  26  27
ENDBRANCH  25  26
ENDBRANCH  24  25
ENDBRANCH  23  24
ENDBRANCH  21  23
ENDBRANCH   1  21
TORSDOF 14
ENDMDL
MODEL 2
REMARK VINA RESULT: -8.183969961      0.878      1.107
REMARK  14 active torsions:
REMARK  status: ('A' for Active; 'I' for Inactive)
REMARK    1  A    between atoms: C5_7  and  C6_8 
REMARK    2  A    between atoms: C6_8  and  N2_9 
REMARK    3  A    between atoms: C6_8  and  N3_13 
REMARK    4  A    between atoms: N3_13  and  C7_15 
REMARK    5  A    between atoms: C7_15  and  C8_16 
REMARK    6  A    between atoms: C8_16  and  C9_17 
REMARK    7  A    between atoms: C9_17  and  C10_18 
REMARK    8  A    between atoms: C10_18  and  N4_19 
REMARK       I    between atoms: C11_21  and  N6_23 
REMARK    9  A    between atoms: N6_23  and  C12_25 
REMARK   10  A    between atoms: C12_25  and  C13_26 
REMARK   11  A    between atoms: C13_26  and  C14_27 
REMARK   12  A    between atoms: C14_27  and  C15_28 
REMARK   13  A    between atoms: C17_31  and  C18_32 
REMARK   14  A    between atoms: C19_33  and  C20_34 
ROOT
HETATM    1  C6  UNL     1    -143.734-172.051 360.597  1.00  0.00     0.313 C 
ENDROOT
BRANCH   1   2
HETATM    2  C5  UNL     1    -142.352-171.457 360.429  1.00  0.00    -0.007 C 
HETATM    3  C3  UNL     1    -141.944-171.374 359.185  1.00  0.00     0.011 C 
HETATM    4  N1  UNL     1    -140.685-170.841 358.862  1.00  0.00    -0.366 N 
HETATM    5  C4  UNL     1    -142.856-171.838 358.057  1.00  0.00     0.068 C 
HETATM    6  C2  UNL     1    -139.904-170.414 359.769  1.00  0.00    -0.001 C 
ATOM      7  H1  UNL     1    -140.394-170.796 357.886  1.00  0.00     0.165 HD
HETATM    8  C1  UNL     1    -138.544-169.845 359.450  1.00  0.00     0.064 C 
HETATM    9  C17 UNL     1    -140.269-170.373 361.203  1.00  0.00     0.114 C 
HETATM   10  C16 UNL     1    -141.551-171.031 361.564  1.00  0.00     0.063 C 
BRANCH   9  11
HETATM   11  C18 UNL     1    -139.109-170.911 361.960  1.00  0.00    -0.095 C 
HETATM   12  C19 UNL     1    -138.172-171.318 362.596  1.00  0.00    -0.097 C 
BRANCH  12  13
HETATM   13  C20 UNL     1    -137.035-171.784 363.390  1.00  0.00     0.013 C 
HETATM   14  C21 UNL     1    -136.543-170.696 364.335  1.00  0.00     0.028 C 
HETATM   15  C22 UNL     1    -135.833-172.114 362.497  1.00  0.00     0.028 C 
HETATM   16  C23 UNL     1    -137.401-172.998 364.184  1.00  0.00     0.028 C 
ENDBRANCH  12  13
ENDBRANCH   9  11
ENDBRANCH   1   2
BRANCH   1  17
HETATM   17  N2  UNL     1    -143.521-173.314 361.360  1.00  0.00    -0.054 N 
ATOM     18  H23 UNL     1    -144.329-173.935 361.364  1.00  0.00     0.277 HD
ATOM     19  H22 UNL     1    -142.875-173.964 360.911  1.00  0.00     0.277 HD
ATOM     20  H21 UNL     1    -143.225-173.014 362.289  1.00  0.00     0.277 HD
ENDBRANCH   1  17
BRANCH   1  21
HETATM   21  N3  UNL     1    -144.597-171.253 361.329  1.00  0.00    -0.372 N 
ATOM     22  H3  UNL     1    -144.359-171.052 362.299  1.00  0.00     0.161 HD
BRANCH  21  23
HETATM   23  C7  UNL     1    -145.781-170.705 360.812  1.00  0.00     0.058 C 
BRANCH  23  24
HETATM   24  C8  UNL     1    -146.284-171.375 359.565  1.00  0.00     0.046 C 
BRANCH  24  25
HETATM   25  C9  UNL     1    -147.560-172.124 359.863  1.00  0.00     0.025 C 
BRANCH  25  26
HETATM   26  C10 UNL     1    -147.211-173.517 360.426  1.00  0.00     0.122 C 
BRANCH  26  27
HETATM   27  N4  UNL     1    -148.416-174.157 360.875  1.00  0.00    -0.365 N 
HETATM   28  C11 UNL     1    -148.796-175.268 360.390  1.00  0.00     0.183 C 
HETATM   29  N5  UNL     1    -148.047-175.932 359.381  1.00  0.00    -0.064 NA
HETATM   30  N6  UNL     1    -150.027-175.828 360.895  1.00  0.00    -0.365 N 
ATOM     31  H6  UNL     1    -150.926-175.465 360.578  1.00  0.00     0.162 HD
ATOM     32  H4  UNL     1    -148.978-173.710 361.600  1.00  0.00     0.162 HD
BRANCH  30  33
HETATM   33  C12 UNL     1    -149.974-176.906 361.851  1.00  0.00     0.122 C 
BRANCH  33  34
HETATM   34  C13 UNL     1    -150.573-176.490 363.172  1.00  0.00     0.020 C 
BRANCH  34  35
HETATM   35  C14 UNL     1    -149.913-177.148 364.346  1.00  0.00     0.012 C 
BRANCH  35  36
HETATM   36  C15 UNL     1    -150.758-178.349 364.751  1.00  0.00     0.085 C 
HETATM   37 BR1  UNL     1    -150.002-180.001 364.074  1.00  0.00    -0.097 Br
ENDBRANCH  35  36
ENDBRANCH  34  35
ENDBRANCH  33  34
ENDBRANCH  30  33
ENDBRANCH  26  27
ENDBRANCH  25  26
ENDBRANCH  24  25
ENDBRANCH  23  24
ENDBRANCH  21  23
ENDBRANCH   1  21
TORSDOF 14
ENDMDL
MODEL 3
REMARK VINA RESULT: -8.030846320      1.171      1.744
REMARK  14 active torsions:
REMARK  status: ('A' for Active; 'I' for Inactive)
REMARK    1  A    between atoms: C5_7  and  C6_8 
REMARK    2  A    between atoms: C6_8  and  N2_9 
REMARK    3  A    between atoms: C6_8  and  N3_13 
REMARK    4  A    between atoms: N3_13  and  C7_15 
REMARK    5  A    between atoms: C7_15  and  C8_16 
REMARK    6  A    between atoms: C8_16  and  C9_17 
REMARK    7  A    between atoms: C9_17  and  C10_18 
REMARK    8  A    between atoms: C10_18  and  N4_19 
REMARK       I    between atoms: C11_21  and  N6_23 
REMARK    9  A    between atoms: N6_23  and  C12_25 
REMARK   10  A    between atoms: C12_25  and  C13_26 
REMARK   11  A    between atoms: C13_26  and  C14_27 
REMARK   12  A    between atoms: C14_27  and  C15_28 
REMARK   13  A    between atoms: C17_31  and  C18_32 
REMARK   14  A    between atoms: C19_33  and  C20_34 
ROOT
HETATM    1  C6  UNL     1    -143.747-172.030 360.660  1.00  0.00     0.313 C 
ENDROOT
BRANCH   1   2
HETATM    2  C5  UNL     1    -142.364-171.433 360.520  1.00  0.00    -0.007 C 
HETATM    3  C3  UNL     1    -141.936-171.339 359.283  1.00  0.00     0.011 C 
HETATM    4  N1  UNL     1    -140.673-170.802 358.985  1.00  0.00    -0.366 N 
HETATM    5  C4  UNL     1    -142.829-171.795 358.137  1.00  0.00     0.068 C 
HETATM    6  C2  UNL     1    -139.907-170.382 359.908  1.00  0.00    -0.001 C 
ATOM      7  H1  UNL     1    -140.366-170.749 358.014  1.00  0.00     0.165 HD
HETATM    8  C1  UNL     1    -138.543-169.808 359.616  1.00  0.00     0.064 C 
HETATM    9  C17 UNL     1    -140.295-170.354 361.336  1.00  0.00     0.114 C 
HETATM   10  C16 UNL     1    -141.582-171.016 361.671  1.00  0.00     0.063 C 
BRANCH   9  11
HETATM   11  C18 UNL     1    -139.146-170.897 362.107  1.00  0.00    -0.095 C 
HETATM   12  C19 UNL     1    -138.194-171.315 362.713  1.00  0.00    -0.097 C 
BRANCH  12  13
HETATM   13  C20 UNL     1    -137.016-171.803 363.429  1.00  0.00     0.013 C 
HETATM   14  C21 UNL     1    -136.432-170.721 364.328  1.00  0.00     0.028 C 
HETATM   15  C22 UNL     1    -135.888-172.168 362.456  1.00  0.00     0.028 C 
HETATM   16  C23 UNL     1    -137.354-173.002 364.256  1.00  0.00     0.028 C 
ENDBRANCH  12  13
ENDBRANCH   9  11
ENDBRANCH   1   2
BRANCH   1  17
HETATM   17  N2  UNL     1    -143.536-173.334 361.352  1.00  0.00    -0.054 N 
ATOM     18  H23 UNL     1    -142.850-173.936 360.897  1.00  0.00     0.277 HD
ATOM     19  H22 UNL     1    -143.048-173.254 362.244  1.00  0.00     0.277 HD
ATOM     20  H21 UNL     1    -144.465-173.747 361.425  1.00  0.00     0.277 HD
ENDBRANCH   1  17
BRANCH   1  21
HETATM   21  N3  UNL     1    -144.604-171.270 361.439  1.00  0.00    -0.372 N 
ATOM     22  H3  UNL     1    -144.905-171.653 362.335  1.00  0.00     0.161 HD
BRANCH  21  23
HETATM   23  C7  UNL     1    -145.082-170.005 361.066  1.00  0.00     0.058 C 
BRANCH  23  24
HETATM   24  C8  UNL     1    -146.065-170.021 359.931  1.00  0.00     0.046 C 
BRANCH  24  25
HETATM   25  C9  UNL     1    -147.270-170.850 360.304  1.00  0.00     0.025 C 
BRANCH  25  26
HETATM   26  C10 UNL     1    -147.305-172.118 359.427  1.00  0.00     0.122 C 
BRANCH  26  27
HETATM   27  N4  UNL     1    -148.259-173.042 359.975  1.00  0.00    -0.365 N 
HETATM   28  C11 UNL     1    -147.935-173.864 360.888  1.00  0.00     0.183 C 
HETATM   29  N5  UNL     1    -146.614-173.908 361.413  1.00  0.00    -0.064 NA
HETATM   30  N6  UNL     1    -148.957-174.763 361.367  1.00  0.00    -0.365 N 
ATOM     31  H6  UNL     1    -149.217-175.584 360.821  1.00  0.00     0.162 HD
ATOM     32  H4  UNL     1    -149.216-173.038 359.624  1.00  0.00     0.162 HD
BRANCH  30  33
HETATM   33  C12 UNL     1    -149.606-174.490 362.625  1.00  0.00     0.122 C 
BRANCH  33  34
HETATM   34  C13 UNL     1    -150.375-175.694 363.112  1.00  0.00     0.020 C 
BRANCH  34  35
HETATM   35  C14 UNL     1    -150.191-176.898 362.238  1.00  0.00     0.012 C 
BRANCH  35  36
HETATM   36  C15 UNL     1    -150.980-178.049 362.848  1.00  0.00     0.085 C 
HETATM   37 BR1  UNL     1    -150.581-178.253 364.735  1.00  0.00    -0.097 Br
ENDBRANCH  35  36
ENDBRANCH  34  35
ENDBRANCH  33  34
ENDBRANCH  30  33
ENDBRANCH  26  27
ENDBRANCH  25  26
ENDBRANCH  24  25
ENDBRANCH  23  24
ENDBRANCH  21  23
ENDBRANCH   1  21
TORSDOF 14
ENDMDL
MODEL 4
REMARK VINA RESULT: -8.025097618      1.017      1.347
REMARK  14 active torsions:
REMARK  status: ('A' for Active; 'I' for Inactive)
REMARK    1  A    between atoms: C5_7  and  C6_8 
REMARK    2  A    between atoms: C6_8  and  N2_9 
REMARK    3  A    between atoms: C6_8  and  N3_13 
REMARK    4  A    between atoms: N3_13  and  C7_15 
REMARK    5  A    between atoms: C7_15  and  C8_16 
REMARK    6  A    between atoms: C8_16  and  C9_17 
REMARK    7  A    between atoms: C9_17  and  C10_18 
REMARK    8  A    between atoms: C10_18  and  N4_19 
REMARK       I    between atoms: C11_21  and  N6_23 
REMARK    9  A    between atoms: N6_23  and  C12_25 
REMARK   10  A    between atoms: C12_25  and  C13_26 
REMARK   11  A    between atoms: C13_26  and  C14_27 
REMARK   12  A    between atoms: C14_27  and  C15_28 
REMARK   13  A    between atoms: C17_31  and  C18_32 
REMARK   14  A    between atoms: C19_33  and  C20_34 
ROOT
HETATM    1  C6  UNL     1    -142.941-171.789 360.235  1.00  0.00     0.313 C 
ENDROOT
BRANCH   1   2
HETATM    2  C5  UNL     1    -141.566-171.177 360.073  1.00  0.00    -0.007 C 
HETATM    3  C3  UNL     1    -141.127-171.146 358.837  1.00  0.00     0.011 C 
HETATM    4  N1  UNL     1    -139.870-170.606 358.521  1.00  0.00    -0.366 N 
HETATM    5  C4  UNL     1    -142.001-171.680 357.710  1.00  0.00     0.068 C 
HETATM    6  C2  UNL     1    -139.120-170.122 359.426  1.00  0.00    -0.001 C 
ATOM      7  H1  UNL     1    -139.554-170.603 357.551  1.00  0.00     0.165 HD
HETATM    8  C1  UNL     1    -137.762-169.544 359.114  1.00  0.00     0.064 C 
HETATM    9  C17 UNL     1    -139.523-170.020 360.846  1.00  0.00     0.114 C 
HETATM   10  C16 UNL     1    -140.803-170.684 361.206  1.00  0.00     0.063 C 
BRANCH   9  11
HETATM   11  C18 UNL     1    -138.374-170.500 361.658  1.00  0.00    -0.095 C 
HETATM   12  C19 UNL     1    -137.453-170.922 362.306  1.00  0.00    -0.097 C 
BRANCH  12  13
HETATM   13  C20 UNL     1    -136.343-171.470 363.087  1.00  0.00     0.013 C 
HETATM   14  C21 UNL     1    -136.833-172.510 364.085  1.00  0.00     0.028 C 
HETATM   15  C22 UNL     1    -135.672-170.383 363.936  1.00  0.00     0.028 C 
HETATM   16  C23 UNL     1    -135.318-172.091 362.191  1.00  0.00     0.028 C 
ENDBRANCH  12  13
ENDBRANCH   9  11
ENDBRANCH   1   2
BRANCH   1  17
HETATM   17  N2  UNL     1    -142.859-172.601 361.481  1.00  0.00    -0.054 N 
ATOM     18  H23 UNL     1    -143.094-173.584 361.350  1.00  0.00     0.277 HD
ATOM     19  H22 UNL     1    -141.906-172.752 361.814  1.00  0.00     0.277 HD
ATOM     20  H21 UNL     1    -143.458-172.119 362.151  1.00  0.00     0.277 HD
ENDBRANCH   1  17
BRANCH   1  21
HETATM   21  N3  UNL     1    -143.949-170.853 360.402  1.00  0.00    -0.372 N 
ATOM     22  H3  UNL     1    -143.762-169.891 360.122  1.00  0.00     0.161 HD
BRANCH  21  23
HETATM   23  C7  UNL     1    -145.211-171.153 360.936  1.00  0.00     0.058 C 
BRANCH  23  24
HETATM   24  C8  UNL     1    -146.060-172.035 360.066  1.00  0.00     0.046 C 
BRANCH  24  25
HETATM   25  C9  UNL     1    -146.246-173.381 360.724  1.00  0.00     0.025 C 
BRANCH  25  26
HETATM   26  C10 UNL     1    -147.550-174.023 360.206  1.00  0.00     0.122 C 
BRANCH  26  27
HETATM   27  N4  UNL     1    -148.378-174.373 361.325  1.00  0.00    -0.365 N 
HETATM   28  C11 UNL     1    -149.489-174.968 361.166  1.00  0.00     0.183 C 
HETATM   29  N5  UNL     1    -149.966-175.318 359.873  1.00  0.00    -0.064 NA
HETATM   30  N6  UNL     1    -150.260-175.267 362.349  1.00  0.00    -0.365 N 
ATOM     31  H6  UNL     1    -150.801-174.535 362.810  1.00  0.00     0.162 HD
ATOM     32  H4  UNL     1    -148.068-174.139 362.269  1.00  0.00     0.162 HD
BRANCH  30  33
HETATM   33  C12 UNL     1    -150.259-176.610 362.874  1.00  0.00     0.122 C 
BRANCH  33  34
HETATM   34  C13 UNL     1    -149.663-176.650 364.260  1.00  0.00     0.020 C 
BRANCH  34  35
HETATM   35  C14 UNL     1    -150.345-177.636 365.161  1.00  0.00     0.012 C 
BRANCH  35  36
HETATM   36  C15 UNL     1    -151.017-178.688 364.286  1.00  0.00     0.085 C 
HETATM   37 BR1  UNL     1    -149.881-180.244 364.060  1.00  0.00    -0.097 Br
ENDBRANCH  35  36
ENDBRANCH  34  35
ENDBRANCH  33  34
ENDBRANCH  30  33
ENDBRANCH  26  27
ENDBRANCH  25  26
ENDBRANCH  24  25
ENDBRANCH  23  24
ENDBRANCH  21  23
ENDBRANCH   1  21
TORSDOF 14
ENDMDL
MODEL 5
REMARK VINA RESULT: -7.957896468      4.295     11.267
REMARK  14 active torsions:
REMARK  status: ('A' for Active; 'I' for Inactive)
REMARK    1  A    between atoms: C5_7  and  C6_8 
REMARK    2  A    between atoms: C6_8  and  N2_9 
REMARK    3  A    between atoms: C6_8  and  N3_13 
REMARK    4  A    between atoms: N3_13  and  C7_15 
REMARK    5  A    between atoms: C7_15  and  C8_16 
REMARK    6  A    between atoms: C8_16  and  C9_17 
REMARK    7  A    between atoms: C9_17  and  C10_18 
REMARK    8  A    between atoms: C10_18  and  N4_19 
REMARK       I    between atoms: C11_21  and  N6_23 
REMARK    9  A    between atoms: N6_23  and  C12_25 
REMARK   10  A    between atoms: C12_25  and  C13_26 
REMARK   11  A    between atoms: C13_26  and  C14_27 
REMARK   12  A    between atoms: C14_27  and  C15_28 
REMARK   13  A    between atoms: C17_31  and  C18_32 
REMARK   14  A    between atoms: C19_33  and  C20_34 
ROOT
HETATM    1  C6  UNL     1    -143.624-171.326 361.507  1.00  0.00     0.313 C 
ENDROOT
BRANCH   1   2
HETATM    2  C5  UNL     1    -145.063-171.519 361.081  1.00  0.00    -0.007 C 
HETATM    3  C3  UNL     1    -145.727-170.404 360.888  1.00  0.00     0.011 C 
HETATM    4  N1  UNL     1    -147.072-170.414 360.486  1.00  0.00    -0.366 N 
HETATM    5  C4  UNL     1    -145.027-169.065 361.076  1.00  0.00     0.068 C 
HETATM    6  C2  UNL     1    -147.688-171.508 360.289  1.00  0.00    -0.001 C 
ATOM      7  H1  UNL     1    -147.563-169.530 360.351  1.00  0.00     0.165 HD
HETATM    8  C1  UNL     1    -149.135-171.547 359.865  1.00  0.00     0.064 C 
HETATM    9  C17 UNL     1    -147.040-172.834 360.391  1.00  0.00     0.114 C 
HETATM   10  C16 UNL     1    -145.650-172.838 360.918  1.00  0.00     0.063 C 
BRANCH   9  11
HETATM   11  C18 UNL     1    -147.957-173.706 361.171  1.00  0.00    -0.095 C 
HETATM   12  C19 UNL     1    -148.689-174.393 361.833  1.00  0.00    -0.097 C 
BRANCH  12  13
HETATM   13  C20 UNL     1    -149.570-175.211 362.667  1.00  0.00     0.013 C 
HETATM   14  C21 UNL     1    -150.790-174.420 363.119  1.00  0.00     0.028 C 
HETATM   15  C22 UNL     1    -148.868-175.641 363.961  1.00  0.00     0.028 C 
HETATM   16  C23 UNL     1    -150.020-176.432 361.929  1.00  0.00     0.028 C 
ENDBRANCH  12  13
ENDBRANCH   9  11
ENDBRANCH   1   2
BRANCH   1  17
HETATM   17  N2  UNL     1    -143.557-171.864 362.895  1.00  0.00    -0.054 N 
ATOM     18  H23 UNL     1    -144.167-171.382 363.555  1.00  0.00     0.277 HD
ATOM     19  H22 UNL     1    -143.977-172.788 363.001  1.00  0.00     0.277 HD
ATOM     20  H21 UNL     1    -142.569-171.828 363.145  1.00  0.00     0.277 HD
ENDBRANCH   1  17
BRANCH   1  21
HETATM   21  N3  UNL     1    -142.716-172.031 360.734  1.00  0.00    -0.372 N 
ATOM     22  H3  UNL     1    -142.500-172.990 361.003  1.00  0.00     0.161 HD
BRANCH  21  23
HETATM   23  C7  UNL     1    -142.078-171.502 359.603  1.00  0.00     0.058 C 
BRANCH  23  24
HETATM   24  C8  UNL     1    -140.637-171.133 359.817  1.00  0.00     0.046 C 
BRANCH  24  25
HETATM   25  C9  UNL     1    -140.378-170.903 361.285  1.00  0.00     0.025 C 
BRANCH  25  26
HETATM   26  C10 UNL     1    -139.038-170.156 361.453  1.00  0.00     0.122 C 
BRANCH  26  27
HETATM   27  N4  UNL     1    -138.083-171.037 362.064  1.00  0.00    -0.365 N 
HETATM   28  C11 UNL     1    -136.914-170.641 362.363  1.00  0.00     0.183 C 
HETATM   29  N5  UNL     1    -136.495-169.306 362.109  1.00  0.00    -0.064 NA
HETATM   30  N6  UNL     1    -136.018-171.601 362.962  1.00  0.00    -0.365 N 
ATOM     31  H6  UNL     1    -135.554-172.302 362.384  1.00  0.00     0.162 HD
ATOM     32  H4  UNL     1    -138.349-172.002 362.263  1.00  0.00     0.162 HD
BRANCH  30  33
HETATM   33  C12 UNL     1    -135.785-171.561 364.384  1.00  0.00     0.122 C 
BRANCH  33  34
HETATM   34  C13 UNL     1    -134.315-171.399 364.689  1.00  0.00     0.020 C 
BRANCH  34  35
HETATM   35  C14 UNL     1    -133.903-172.086 365.956  1.00  0.00     0.012 C 
BRANCH  35  36
HETATM   36  C15 UNL     1    -133.457-173.500 365.603  1.00  0.00     0.085 C 
HETATM   37 BR1  UNL     1    -132.505-173.535 363.914  1.00  0.00    -0.097 Br
ENDBRANCH  35  36
ENDBRANCH  34  35
ENDBRANCH  33  34
ENDBRANCH  30  33
ENDBRANCH  26  27
ENDBRANCH  25  26
ENDBRANCH  24  25
ENDBRANCH  23  24
ENDBRANCH  21  23
ENDBRANCH   1  21
TORSDOF 14
ENDMDL
