MODEL 1
REMARK VINA RESULT: -9.508008510      0.000      0.000
REMARK  11 active torsions:
REMARK  status: ('A' for Active; 'I' for Inactive)
REMARK       I    between atoms: C2_4  and  N2_5 
REMARK       I    between atoms: C2_4  and  N3_15 
REMARK    1  A    between atoms: N2_5  and  C3_7 
REMARK    2  A    between atoms: C3_7  and  C4_8 
REMARK    3  A    between atoms: C4_8  and  C5_9 
REMARK    4  A    between atoms: C5_9  and  C6_10 
REMARK    5  A    between atoms: N3_15  and  C11_17 
REMARK    6  A    between atoms: C17_23  and  N4_24 
REMARK       I    between atoms: N4_24  and  C18_26 
REMARK    7  A    between atoms: C18_26  and  C19_28 
REMARK    8  A    between atoms: C19_28  and  C20_29 
REMARK    9  A    between atoms: C20_29  and  C21_30 
REMARK   10  A    between atoms: C21_30  and  C22_31 
REMARK   11  A    between atoms: C22_31  and  N5_32 
ROOT
HETATM    1  C11 UNL     1    -148.708-175.427 359.982  1.00  0.00     0.105 C 
HETATM    2  C12 UNL     1    -150.191-175.267 360.055  1.00  0.00     0.026 C 
HETATM    3  C13 UNL     1    -150.531-174.254 358.986  1.00  0.00     0.007 C 
HETATM    4  C14 UNL     1    -149.322-173.359 358.889  1.00  0.00    -0.006 C 
HETATM    5  C15 UNL     1    -149.607-172.117 359.685  1.00  0.00     0.007 C 
HETATM    6  C16 UNL     1    -148.896-172.297 361.000  1.00  0.00     0.026 C 
HETATM    7  C17 UNL     1    -147.743-173.230 360.715  1.00  0.00     0.090 C 
HETATM    8  C26 UNL     1    -148.188-174.080 359.542  1.00  0.00     0.036 C 
ENDROOT
BRANCH   1   9
HETATM    9  N3  UNL     1    -148.348-176.431 359.005  1.00  0.00    -0.222 N 
HETATM   10  C2  UNL     1    -149.046-177.663 358.899  1.00  0.00     0.669 C 
HETATM   11  N1  UNL     1    -149.585-177.960 357.788  1.00  0.00    -0.231 N 
HETATM   12  N2  UNL     1    -149.118-178.508 360.027  1.00  0.00    -0.227 N 
HETATM   13  C1  UNL     1    -149.554-177.157 356.603  1.00  0.00     0.165 C 
ATOM     14  H1  UNL     1    -150.084-178.848 357.735  1.00  0.00     0.177 HD
ATOM     15  H2  UNL     1    -148.567-178.260 360.849  1.00  0.00     0.177 HD
ATOM     16  H3  UNL     1    -147.570-176.248 358.372  1.00  0.00     0.178 HD
BRANCH  12  17
HETATM   17  C3  UNL     1    -149.925-179.700 360.082  1.00  0.00     0.138 C 
BRANCH  17  18
HETATM   18  C4  UNL     1    -149.988-180.160 361.518  1.00  0.00     0.020 C 
BRANCH  18  19
HETATM   19  C5  UNL     1    -149.550-179.108 362.485  1.00  0.00     0.006 C 
BRANCH  19  20
HETATM   20  C6  UNL     1    -150.710-178.453 363.202  1.00  0.00    -0.014 C 
HETATM   21  C7  UNL     1    -150.679-176.956 363.094  1.00  0.00     0.004 C 
HETATM   22  C8  UNL     1    -149.901-176.483 364.306  1.00  0.00     0.000 C 
HETATM   23  C9  UNL     1    -150.217-177.500 365.388  1.00  0.00     0.000 C 
HETATM   24  C10 UNL     1    -150.675-178.738 364.675  1.00  0.00     0.004 C 
ENDBRANCH  19  20
ENDBRANCH  18  19
ENDBRANCH  17  18
ENDBRANCH  12  17
ENDBRANCH   1   9
BRANCH   7  25
HETATM   25  N4  UNL     1    -146.583-172.428 360.398  1.00  0.00    -0.356 N 
HETATM   26  C18 UNL     1    -145.295-172.739 360.941  1.00  0.00     0.217 C 
HETATM   27  O1  UNL     1    -145.201-173.733 361.705  1.00  0.00    -0.274 OA
ATOM     28  H4  UNL     1    -146.683-171.626 359.776  1.00  0.00     0.162 HD
BRANCH  26  29
HETATM   29  C19 UNL     1    -144.096-171.923 360.622  1.00  0.00     0.103 C 
BRANCH  29  30
HETATM   30  C20 UNL     1    -144.235-170.593 361.280  1.00  0.00     0.011 C 
BRANCH  30  31
HETATM   31  C21 UNL     1    -143.050-170.181 362.123  1.00  0.00     0.020 C 
BRANCH  31  32
HETATM   32  C22 UNL     1    -142.173-171.358 362.397  1.00  0.00     0.127 C 
BRANCH  32  33
HETATM   33  N5  UNL     1    -140.818-171.178 361.941  1.00  0.00    -0.333 N 
HETATM   34  C23 UNL     1    -140.252-170.706 360.715  1.00  0.00     0.147 C 
HETATM   35  C24 UNL     1    -138.990-170.000 361.200  1.00  0.00     0.144 C 
HETATM   36  N6  UNL     1    -138.520-170.926 362.212  1.00  0.00    -0.341 N 
HETATM   37  C25 UNL     1    -139.691-171.495 362.785  1.00  0.00     0.318 C 
ATOM     38  H6  UNL     1    -137.552-171.128 362.462  1.00  0.00     0.164 HD
HETATM   39  O2  UNL     1    -139.701-172.164 363.859  1.00  0.00    -0.247 OA
ENDBRANCH  32  33
ENDBRANCH  31  32
ENDBRANCH  30  31
ENDBRANCH  29  30
ENDBRANCH  26  29
ENDBRANCH   7  25
TORSDOF 11
ENDMDL
MODEL 2
REMARK VINA RESULT: -9.420266503      1.999      3.654
REMARK  11 active torsions:
REMARK  status: ('A' for Active; 'I' for Inactive)
REMARK       I    between atoms: C2_4  and  N2_5 
REMARK       I    between atoms: C2_4  and  N3_15 
REMARK    1  A    between atoms: N2_5  and  C3_7 
REMARK    2  A    between atoms: C3_7  and  C4_8 
REMARK    3  A    between atoms: C4_8  and  C5_9 
REMARK    4  A    between atoms: C5_9  and  C6_10 
REMARK    5  A    between atoms: N3_15  and  C11_17 
REMARK    6  A    between atoms: C17_23  and  N4_24 
REMARK       I    between atoms: N4_24  and  C18_26 
REMARK    7  A    between atoms: C18_26  and  C19_28 
REMARK    8  A    between atoms: C19_28  and  C20_29 
REMARK    9  A    between atoms: C20_29  and  C21_30 
REMARK   10  A    between atoms: C21_30  and  C22_31 
REMARK   11  A    between atoms: C22_31  and  N5_32 
ROOT
HETATM    1  C11 UNL     1    -147.198-172.193 360.590  1.00  0.00     0.105 C 
HETATM    2  C12 UNL     1    -148.140-171.178 360.031  1.00  0.00     0.026 C 
HETATM    3  C13 UNL     1    -147.571-170.816 358.679  1.00  0.00     0.007 C 
HETATM    4  C14 UNL     1    -146.080-170.989 358.816  1.00  0.00    -0.006 C 
HETATM    5  C15 UNL     1    -145.481-169.632 359.058  1.00  0.00     0.007 C 
HETATM    6  C16 UNL     1    -145.226-169.553 360.541  1.00  0.00     0.026 C 
HETATM    7  C17 UNL     1    -145.042-170.980 360.998  1.00  0.00     0.090 C 
HETATM    8  C26 UNL     1    -145.845-171.826 360.032  1.00  0.00     0.036 C 
ENDROOT
BRANCH   1   9
HETATM    9  N3  UNL     1    -147.561-173.523 360.151  1.00  0.00    -0.222 N 
HETATM   10  C2  UNL     1    -148.705-174.197 360.655  1.00  0.00     0.669 C 
HETATM   11  N1  UNL     1    -149.594-174.578 359.831  1.00  0.00    -0.231 N 
HETATM   12  N2  UNL     1    -148.815-174.415 362.045  1.00  0.00    -0.227 N 
HETATM   13  C1  UNL     1    -149.552-174.394 358.413  1.00  0.00     0.165 C 
ATOM     14  H1  UNL     1    -150.409-175.057 360.214  1.00  0.00     0.177 HD
ATOM     15  H2  UNL     1    -148.013-174.185 362.632  1.00  0.00     0.177 HD
ATOM     16  H3  UNL     1    -146.976-173.992 359.459  1.00  0.00     0.178 HD
BRANCH  12  17
HETATM   17  C3  UNL     1    -149.995-174.944 362.680  1.00  0.00     0.138 C 
BRANCH  17  18
HETATM   18  C4  UNL     1    -149.930-176.450 362.614  1.00  0.00     0.020 C 
BRANCH  18  19
HETATM   19  C5  UNL     1    -149.908-177.091 363.964  1.00  0.00     0.006 C 
BRANCH  19  20
HETATM   20  C6  UNL     1    -150.902-178.225 364.090  1.00  0.00    -0.014 C 
HETATM   21  C7  UNL     1    -150.286-179.464 364.673  1.00  0.00     0.004 C 
HETATM   22  C8  UNL     1    -149.799-180.267 363.483  1.00  0.00     0.000 C 
HETATM   23  C9  UNL     1    -150.784-179.948 362.373  1.00  0.00     0.000 C 
HETATM   24  C10 UNL     1    -151.426-178.645 362.748  1.00  0.00     0.004 C 
ENDBRANCH  19  20
ENDBRANCH  18  19
ENDBRANCH  17  18
ENDBRANCH  12  17
ENDBRANCH   1   9
BRANCH   7  25
HETATM   25  N4  UNL     1    -143.630-171.289 360.950  1.00  0.00    -0.356 N 
HETATM   26  C18 UNL     1    -142.777-171.044 362.074  1.00  0.00     0.217 C 
HETATM   27  O1  UNL     1    -143.293-170.550 363.109  1.00  0.00    -0.274 OA
ATOM     28  H4  UNL     1    -143.234-171.689 360.099  1.00  0.00     0.162 HD
BRANCH  26  29
HETATM   29  C19 UNL     1    -141.327-171.359 362.036  1.00  0.00     0.103 C 
BRANCH  29  30
HETATM   30  C20 UNL     1    -140.808-171.054 360.673  1.00  0.00     0.011 C 
BRANCH  30  31
HETATM   31  C21 UNL     1    -139.445-170.401 360.650  1.00  0.00     0.020 C 
BRANCH  31  32
HETATM   32  C22 UNL     1    -139.000-170.079 362.037  1.00  0.00     0.127 C 
BRANCH  32  33
HETATM   33  N5  UNL     1    -137.693-170.600 362.354  1.00  0.00    -0.333 N 
HETATM   34  C23 UNL     1    -136.375-170.049 362.279  1.00  0.00     0.147 C 
HETATM   35  C24 UNL     1    -135.689-170.706 363.472  1.00  0.00     0.144 C 
HETATM   36  N6  UNL     1    -136.200-172.060 363.380  1.00  0.00    -0.341 N 
HETATM   37  C25 UNL     1    -137.520-171.938 362.864  1.00  0.00     0.318 C 
ATOM     38  H6  UNL     1    -135.715-172.921 363.633  1.00  0.00     0.164 HD
HETATM   39  O2  UNL     1    -138.371-172.875 362.868  1.00  0.00    -0.247 OA
ENDBRANCH  32  33
ENDBRANCH  31  32
ENDBRANCH  30  31
ENDBRANCH  29  30
ENDBRANCH  26  29
ENDBRANCH   7  25
TORSDOF 11
ENDMDL
MODEL 3
REMARK VINA RESULT: -9.376484845      2.224      3.833
REMARK  11 active torsions:
REMARK  status: ('A' for Active; 'I' for Inactive)
REMARK       I    between atoms: C2_4  and  N2_5 
REMARK       I    between atoms: C2_4  and  N3_15 
REMARK    1  A    between atoms: N2_5  and  C3_7 
REMARK    2  A    between atoms: C3_7  and  C4_8 
REMARK    3  A    between atoms: C4_8  and  C5_9 
REMARK    4  A    between atoms: C5_9  and  C6_10 
REMARK    5  A    between atoms: N3_15  and  C11_17 
REMARK    6  A    between atoms: C17_23  and  N4_24 
REMARK       I    between atoms: N4_24  and  C18_26 
REMARK    7  A    between atoms: C18_26  and  C19_28 
REMARK    8  A    between atoms: C19_28  and  C20_29 
REMARK    9  A    between atoms: C20_29  and  C21_30 
REMARK   10  A    between atoms: C21_30  and  C22_31 
REMARK   11  A    between atoms: C22_31  and  N5_32 
ROOT
HETATM    1  C11 UNL     1    -147.174-172.215 360.612  1.00  0.00     0.105 C 
HETATM    2  C12 UNL     1    -148.202-171.205 360.218  1.00  0.00     0.026 C 
HETATM    3  C13 UNL     1    -147.796-170.746 358.837  1.00  0.00     0.007 C 
HETATM    4  C14 UNL     1    -146.294-170.871 358.804  1.00  0.00    -0.006 C 
HETATM    5  C15 UNL     1    -145.715-169.509 359.062  1.00  0.00     0.007 C 
HETATM    6  C16 UNL     1    -145.302-169.503 360.511  1.00  0.00     0.026 C 
HETATM    7  C17 UNL     1    -145.025-170.946 360.860  1.00  0.00     0.090 C 
HETATM    8  C26 UNL     1    -145.902-171.766 359.936  1.00  0.00     0.036 C 
ENDROOT
BRANCH   1   9
HETATM    9  N3  UNL     1    -147.541-173.530 360.135  1.00  0.00    -0.222 N 
HETATM   10  C2  UNL     1    -148.691-174.212 360.614  1.00  0.00     0.669 C 
HETATM   11  N1  UNL     1    -149.577-174.566 359.775  1.00  0.00    -0.231 N 
HETATM   12  N2  UNL     1    -148.810-174.467 361.996  1.00  0.00    -0.227 N 
HETATM   13  C1  UNL     1    -149.526-174.344 358.362  1.00  0.00     0.165 C 
ATOM     14  H1  UNL     1    -150.397-175.051 360.140  1.00  0.00     0.177 HD
ATOM     15  H2  UNL     1    -148.011-174.257 362.594  1.00  0.00     0.177 HD
ATOM     16  H3  UNL     1    -146.955-173.983 359.433  1.00  0.00     0.178 HD
BRANCH  12  17
HETATM   17  C3  UNL     1    -149.996-175.008 362.610  1.00  0.00     0.138 C 
BRANCH  17  18
HETATM   18  C4  UNL     1    -149.916-176.513 362.544  1.00  0.00     0.020 C 
BRANCH  18  19
HETATM   19  C5  UNL     1    -149.905-177.155 363.893  1.00  0.00     0.006 C 
BRANCH  19  20
HETATM   20  C6  UNL     1    -150.898-178.291 364.010  1.00  0.00    -0.014 C 
HETATM   21  C7  UNL     1    -150.281-179.534 364.581  1.00  0.00     0.004 C 
HETATM   22  C8  UNL     1    -149.794-180.326 363.384  1.00  0.00     0.000 C 
HETATM   23  C9  UNL     1    -150.780-179.998 362.278  1.00  0.00     0.000 C 
HETATM   24  C10 UNL     1    -151.423-178.699 362.665  1.00  0.00     0.004 C 
ENDBRANCH  19  20
ENDBRANCH  18  19
ENDBRANCH  17  18
ENDBRANCH  12  17
ENDBRANCH   1   9
BRANCH   7  25
HETATM   25  N4  UNL     1    -143.618-171.199 360.643  1.00  0.00    -0.356 N 
HETATM   26  C18 UNL     1    -142.658-170.995 361.685  1.00  0.00     0.217 C 
HETATM   27  O1  UNL     1    -143.073-170.588 362.799  1.00  0.00    -0.274 OA
ATOM     28  H4  UNL     1    -143.304-171.529 359.730  1.00  0.00     0.162 HD
BRANCH  26  29
HETATM   29  C19 UNL     1    -141.210-171.253 361.473  1.00  0.00     0.103 C 
BRANCH  29  30
HETATM   30  C20 UNL     1    -140.557-171.418 362.802  1.00  0.00     0.011 C 
BRANCH  30  31
HETATM   31  C21 UNL     1    -139.198-172.078 362.757  1.00  0.00     0.020 C 
BRANCH  31  32
HETATM   32  C22 UNL     1    -138.191-171.245 363.479  1.00  0.00     0.127 C 
BRANCH  32  33
HETATM   33  N5  UNL     1    -136.968-171.059 362.739  1.00  0.00    -0.333 N 
HETATM   34  C23 UNL     1    -135.693-171.705 362.778  1.00  0.00     0.147 C 
HETATM   35  C24 UNL     1    -135.265-171.650 361.315  1.00  0.00     0.144 C 
HETATM   36  N6  UNL     1    -135.682-170.309 360.951  1.00  0.00    -0.341 N 
HETATM   37  C25 UNL     1    -136.855-170.052 361.712  1.00  0.00     0.318 C 
ATOM     38  H6  UNL     1    -135.228-169.681 360.287  1.00  0.00     0.164 HD
HETATM   39  O2  UNL     1    -137.644-169.087 361.493  1.00  0.00    -0.247 OA
ENDBRANCH  32  33
ENDBRANCH  31  32
ENDBRANCH  30  31
ENDBRANCH  29  30
ENDBRANCH  26  29
ENDBRANCH   7  25
TORSDOF 11
ENDMDL
MODEL 4
REMARK VINA RESULT: -9.336562110      2.320      3.920
REMARK  11 active torsions:
REMARK  status: ('A' for Active; 'I' for Inactive)
REMARK       I    between atoms: C2_4  and  N2_5 
REMARK       I    between atoms: C2_4  and  N3_15 
REMARK    1  A    between atoms: N2_5  and  C3_7 
REMARK    2  A    between atoms: C3_7  and  C4_8 
REMARK    3  A    between atoms: C4_8  and  C5_9 
REMARK    4  A    between atoms: C5_9  and  C6_10 
REMARK    5  A    between atoms: N3_15  and  C11_17 
REMARK    6  A    between atoms: C17_23  and  N4_24 
REMARK       I    between atoms: N4_24  and  C18_26 
REMARK    7  A    between atoms: C18_26  and  C19_28 
REMARK    8  A    between atoms: C19_28  and  C20_29 
REMARK    9  A    between atoms: C20_29  and  C21_30 
REMARK   10  A    between atoms: C21_30  and  C22_31 
REMARK   11  A    between atoms: C22_31  and  N5_32 
ROOT
HETATM    1  C11 UNL     1    -147.086-172.179 360.614  1.00  0.00     0.105 C 
HETATM    2  C12 UNL     1    -148.173-171.161 360.498  1.00  0.00     0.026 C 
HETATM    3  C13 UNL     1    -147.990-170.544 359.131  1.00  0.00     0.007 C 
HETATM    4  C14 UNL     1    -146.511-170.623 358.855  1.00  0.00    -0.006 C 
HETATM    5  C15 UNL     1    -145.912-169.282 359.171  1.00  0.00     0.007 C 
HETATM    6  C16 UNL     1    -145.280-169.423 360.531  1.00  0.00     0.026 C 
HETATM    7  C17 UNL     1    -144.937-170.887 360.670  1.00  0.00     0.090 C 
HETATM    8  C26 UNL     1    -145.939-171.625 359.806  1.00  0.00     0.036 C 
ENDROOT
BRANCH   1   9
HETATM    9  N3  UNL     1    -147.508-173.445 360.055  1.00  0.00    -0.222 N 
HETATM   10  C2  UNL     1    -148.680-174.112 360.501  1.00  0.00     0.669 C 
HETATM   11  N1  UNL     1    -149.587-174.374 359.652  1.00  0.00    -0.231 N 
HETATM   12  N2  UNL     1    -148.795-174.454 361.865  1.00  0.00    -0.227 N 
HETATM   13  C1  UNL     1    -149.541-174.060 358.256  1.00  0.00     0.165 C 
ATOM     14  H1  UNL     1    -150.422-174.851 359.994  1.00  0.00     0.177 HD
ATOM     15  H2  UNL     1    -147.983-174.316 362.466  1.00  0.00     0.177 HD
ATOM     16  H3  UNL     1    -146.947-173.871 359.318  1.00  0.00     0.178 HD
BRANCH  12  17
HETATM   17  C3  UNL     1    -149.996-174.989 362.456  1.00  0.00     0.138 C 
BRANCH  17  18
HETATM   18  C4  UNL     1    -149.887-176.494 362.465  1.00  0.00     0.020 C 
BRANCH  18  19
HETATM   19  C5  UNL     1    -149.911-177.071 363.843  1.00  0.00     0.006 C 
BRANCH  19  20
HETATM   20  C6  UNL     1    -150.913-178.195 363.990  1.00  0.00    -0.014 C 
HETATM   21  C7  UNL     1    -150.310-179.421 364.612  1.00  0.00     0.004 C 
HETATM   22  C8  UNL     1    -149.817-180.259 363.449  1.00  0.00     0.000 C 
HETATM   23  C9  UNL     1    -150.790-179.964 362.321  1.00  0.00     0.000 C 
HETATM   24  C10 UNL     1    -151.428-178.648 362.655  1.00  0.00     0.004 C 
ENDBRANCH  19  20
ENDBRANCH  18  19
ENDBRANCH  17  18
ENDBRANCH  12  17
ENDBRANCH   1   9
BRANCH   7  25
HETATM   25  N4  UNL     1    -143.579-171.076 360.213  1.00  0.00    -0.356 N 
HETATM   26  C18 UNL     1    -142.475-171.024 361.124  1.00  0.00     0.217 C 
HETATM   27  O1  UNL     1    -142.722-170.809 362.338  1.00  0.00    -0.274 OA
ATOM     28  H4  UNL     1    -143.403-171.249 359.223  1.00  0.00     0.162 HD
BRANCH  26  29
HETATM   29  C19 UNL     1    -141.076-171.218 360.666  1.00  0.00     0.103 C 
BRANCH  29  30
HETATM   30  C20 UNL     1    -140.163-171.020 361.827  1.00  0.00     0.011 C 
BRANCH  30  31
HETATM   31  C21 UNL     1    -139.160-169.903 361.655  1.00  0.00     0.020 C 
BRANCH  31  32
HETATM   32  C22 UNL     1    -137.850-170.448 361.190  1.00  0.00     0.127 C 
BRANCH  32  33
HETATM   33  N5  UNL     1    -136.926-170.709 362.266  1.00  0.00    -0.333 N 
HETATM   34  C23 UNL     1    -136.989-170.511 363.681  1.00  0.00     0.147 C 
HETATM   35  C24 UNL     1    -136.184-171.696 364.203  1.00  0.00     0.144 C 
HETATM   36  N6  UNL     1    -135.084-171.726 363.259  1.00  0.00    -0.341 N 
HETATM   37  C25 UNL     1    -135.630-171.292 362.019  1.00  0.00     0.318 C 
ATOM     38  H6  UNL     1    -134.119-172.002 363.444  1.00  0.00     0.164 HD
HETATM   39  O2  UNL     1    -135.042-171.415 360.905  1.00  0.00    -0.247 OA
ENDBRANCH  32  33
ENDBRANCH  31  32
ENDBRANCH  30  31
ENDBRANCH  29  30
ENDBRANCH  26  29
ENDBRANCH   7  25
TORSDOF 11
ENDMDL
MODEL 5
REMARK VINA RESULT: -9.250223795      1.327      1.514
REMARK  11 active torsions:
REMARK  status: ('A' for Active; 'I' for Inactive)
REMARK       I    between atoms: C2_4  and  N2_5 
REMARK       I    between atoms: C2_4  and  N3_15 
REMARK    1  A    between atoms: N2_5  and  C3_7 
REMARK    2  A    between atoms: C3_7  and  C4_8 
REMARK    3  A    between atoms: C4_8  and  C5_9 
REMARK    4  A    between atoms: C5_9  and  C6_10 
REMARK    5  A    between atoms: N3_15  and  C11_17 
REMARK    6  A    between atoms: C17_23  and  N4_24 
REMARK       I    between atoms: N4_24  and  C18_26 
REMARK    7  A    between atoms: C18_26  and  C19_28 
REMARK    8  A    between atoms: C19_28  and  C20_29 
REMARK    9  A    between atoms: C20_29  and  C21_30 
REMARK   10  A    between atoms: C21_30  and  C22_31 
REMARK   11  A    between atoms: C22_31  and  N5_32 
ROOT
HETATM    1  C11 UNL     1    -148.573-175.507 360.016  1.00  0.00     0.105 C 
HETATM    2  C12 UNL     1    -150.046-175.278 360.109  1.00  0.00     0.026 C 
HETATM    3  C13 UNL     1    -150.367-174.313 358.991  1.00  0.00     0.007 C 
HETATM    4  C14 UNL     1    -149.123-173.480 358.819  1.00  0.00    -0.006 C 
HETATM    5  C15 UNL     1    -149.336-172.182 359.547  1.00  0.00     0.007 C 
HETATM    6  C16 UNL     1    -148.604-172.320 360.856  1.00  0.00     0.026 C 
HETATM    7  C17 UNL     1    -147.499-173.317 360.601  1.00  0.00     0.090 C 
HETATM    8  C26 UNL     1    -148.006-174.212 359.489  1.00  0.00     0.036 C 
ENDROOT
BRANCH   1   9
HETATM    9  N3  UNL     1    -148.280-176.580 359.091  1.00  0.00    -0.222 N 
HETATM   10  C2  UNL     1    -148.950-177.831 359.151  1.00  0.00     0.669 C 
HETATM   11  N1  UNL     1    -149.583-178.228 358.124  1.00  0.00    -0.231 N 
HETATM   12  N2  UNL     1    -148.890-178.582 360.344  1.00  0.00    -0.227 N 
HETATM   13  C1  UNL     1    -149.686-177.523 356.882  1.00  0.00     0.165 C 
ATOM     14  H1  UNL     1    -150.059-179.127 358.190  1.00  0.00     0.177 HD
ATOM     15  H2  UNL     1    -148.272-178.257 361.086  1.00  0.00     0.177 HD
ATOM     16  H3  UNL     1    -147.570-176.433 358.373  1.00  0.00     0.178 HD
BRANCH  12  17
HETATM   17  C3  UNL     1    -149.655-179.782 360.571  1.00  0.00     0.138 C 
BRANCH  17  18
HETATM   18  C4  UNL     1    -150.816-179.437 361.471  1.00  0.00     0.020 C 
BRANCH  18  19
HETATM   19  C5  UNL     1    -150.442-179.406 362.917  1.00  0.00     0.006 C 
BRANCH  19  20
HETATM   20  C6  UNL     1    -151.169-178.326 363.687  1.00  0.00    -0.014 C 
HETATM   21  C7  UNL     1    -150.795-176.946 363.230  1.00  0.00     0.004 C 
HETATM   22  C8  UNL     1    -149.632-176.534 364.109  1.00  0.00     0.000 C 
HETATM   23  C9  UNL     1    -149.893-177.217 365.440  1.00  0.00     0.000 C 
HETATM   24  C10 UNL     1    -150.817-178.362 365.146  1.00  0.00     0.004 C 
ENDBRANCH  19  20
ENDBRANCH  18  19
ENDBRANCH  17  18
ENDBRANCH  12  17
ENDBRANCH   1   9
BRANCH   7  25
HETATM   25  N4  UNL     1    -146.313-172.587 360.215  1.00  0.00    -0.356 N 
HETATM   26  C18 UNL     1    -145.052-172.830 360.849  1.00  0.00     0.217 C 
HETATM   27  O1  UNL     1    -145.006-173.700 361.755  1.00  0.00    -0.274 OA
ATOM     28  H4  UNL     1    -146.375-171.884 359.478  1.00  0.00     0.162 HD
BRANCH  26  29
HETATM   29  C19 UNL     1    -143.827-172.086 360.461  1.00  0.00     0.103 C 
BRANCH  29  30
HETATM   30  C20 UNL     1    -143.428-171.200 361.590  1.00  0.00     0.011 C 
BRANCH  30  31
HETATM   31  C21 UNL     1    -141.940-171.138 361.847  1.00  0.00     0.020 C 
BRANCH  31  32
HETATM   32  C22 UNL     1    -141.189-171.160 360.557  1.00  0.00     0.127 C 
BRANCH  32  33
HETATM   33  N5  UNL     1    -139.940-170.443 360.611  1.00  0.00    -0.333 N 
HETATM   34  C23 UNL     1    -139.146-169.940 361.690  1.00  0.00     0.147 C 
HETATM   35  C24 UNL     1    -137.731-170.112 361.147  1.00  0.00     0.144 C 
HETATM   36  N6  UNL     1    -137.904-169.692 359.770  1.00  0.00    -0.341 N 
HETATM   37  C25 UNL     1    -139.221-170.090 359.411  1.00  0.00     0.318 C 
ATOM     38  H6  UNL     1    -137.223-169.212 359.181  1.00  0.00     0.164 HD
HETATM   39  O2  UNL     1    -139.654-170.115 358.222  1.00  0.00    -0.247 OA
ENDBRANCH  32  33
ENDBRANCH  31  32
ENDBRANCH  30  31
ENDBRANCH  29  30
ENDBRANCH  26  29
ENDBRANCH   7  25
TORSDOF 11
ENDMDL
