MODEL 1
REMARK VINA RESULT: -8.114785860      0.000      0.000
REMARK  12 active torsions:
REMARK  status: ('A' for Active; 'I' for Inactive)
REMARK    1  A    between atoms: C3_3  and  C4_4 
REMARK    2  A    between atoms: C9_9  and  C10_10 
REMARK       I    between atoms: C10_10  and  N1_12 
REMARK    3  A    between atoms: N1_12  and  C11_14 
REMARK    4  A    between atoms: C11_14  and  C12_15 
REMARK    5  A    between atoms: C12_15  and  C13_16 
REMARK    6  A    between atoms: C13_16  and  N2_17 
REMARK       I    between atoms: N2_17  and  C14_19 
REMARK       I    between atoms: C14_19  and  N3_21 
REMARK    7  A    between atoms: N3_21  and  C15_23 
REMARK    8  A    between atoms: C15_23  and  C16_24 
REMARK    9  A    between atoms: C15_23  and  C20_28 
REMARK   10  A    between atoms: C16_24  and  C17_25 
REMARK   11  A    between atoms: C17_25  and  C18_26 
REMARK   12  A    between atoms: C21_31  and  C22_33 
ROOT
HETATM    1  C10 UNL     1    -148.224-173.060 360.968  1.00  0.00     0.223 C 
HETATM    2  O1  UNL     1    -149.123-172.264 361.301  1.00  0.00    -0.273 OA
HETATM    3  N1  UNL     1    -147.218-172.559 360.106  1.00  0.00    -0.361 N 
ATOM      4  H1  UNL     1    -146.475-173.199 359.823  1.00  0.00     0.162 HD
ENDROOT
BRANCH   3   5
HETATM    5  C11 UNL     1    -147.169-171.225 359.605  1.00  0.00     0.124 C 
BRANCH   5   6
HETATM    6  C12 UNL     1    -145.940-170.439 360.020  1.00  0.00     0.039 C 
BRANCH   6   7
HETATM    7  C13 UNL     1    -144.691-171.249 359.766  1.00  0.00     0.126 C 
BRANCH   7   8
HETATM    8  N2  UNL     1    -143.758-171.038 360.848  1.00  0.00    -0.343 N 
HETATM    9  C14 UNL     1    -142.361-171.220 360.719  1.00  0.00     0.316 C 
HETATM   10  O2  UNL     1    -141.804-171.575 359.657  1.00  0.00    -0.247 OA
HETATM   11  N3  UNL     1    -141.510-170.993 361.835  1.00  0.00    -0.330 N 
ATOM     12  H3  UNL     1    -141.926-170.709 362.723  1.00  0.00     0.165 HD
ATOM     13  H2  UNL     1    -144.126-170.742 361.752  1.00  0.00     0.164 HD
BRANCH  11  14
HETATM   14  C15 UNL     1    -140.070-171.154 361.753  1.00  0.00     0.175 C 
BRANCH  14  15
HETATM   15  C16 UNL     1    -139.358-169.835 361.643  1.00  0.00     0.034 C 
BRANCH  15  16
HETATM   16  C17 UNL     1    -138.323-169.835 360.544  1.00  0.00     0.002 C 
BRANCH  16  17
HETATM   17  C18 UNL     1    -136.961-169.737 361.232  1.00  0.00    -0.004 C 
HETATM   18  C19 UNL     1    -135.995-170.706 360.564  1.00  0.00     0.005 C 
ENDBRANCH  16  17
ENDBRANCH  15  16
ENDBRANCH  14  15
BRANCH  14  19
HETATM   19  C20 UNL     1    -139.607-171.897 362.943  1.00  0.00     0.254 C 
HETATM   20  N4  UNL     1    -138.439-172.681 362.825  1.00  0.00    -0.060 NA
HETATM   21  O3  UNL     1    -140.214-171.845 364.024  1.00  0.00    -0.275 OA
ENDBRANCH  14  19
ENDBRANCH  11  14
ENDBRANCH   7   8
ENDBRANCH   6   7
ENDBRANCH   5   6
ENDBRANCH   3   5
BRANCH   1  22
HETATM   22  C9  UNL     1    -148.198-174.453 361.441  1.00  0.00     0.103 C 
HETATM   23  C8  UNL     1    -148.269-174.516 362.950  1.00  0.00     0.025 C 
HETATM   24  C5  UNL     1    -149.503-175.294 363.284  1.00  0.00    -0.038 C 
HETATM   25  C4  UNL     1    -149.619-176.207 362.081  1.00  0.00     0.041 C 
HETATM   26  C6  UNL     1    -149.269-176.190 364.505  1.00  0.00     0.015 C 
HETATM   27  C7  UNL     1    -150.713-174.470 363.555  1.00  0.00     0.015 C 
HETATM   28  C21 UNL     1    -149.318-175.324 360.932  1.00  0.00     0.063 C 
HETATM   29 CL1  UNL     1    -150.714-174.313 360.471  1.00  0.00    -0.117 Cl
BRANCH  25  30
HETATM   30  C3  UNL     1    -150.852-176.975 362.063  1.00  0.00    -0.024 C 
HETATM   31  C2  UNL     1    -150.885-178.246 362.450  1.00  0.00    -0.034 C 
HETATM   32  C1  UNL     1    -152.126-179.071 362.448  1.00  0.00     0.036 C 
ENDBRANCH  25  30
BRANCH  28  33
HETATM   33  C22 UNL     1    -148.910-176.061 359.670  1.00  0.00    -0.029 C 
HETATM   34  C23 UNL     1    -149.206-177.525 359.695  1.00  0.00     0.016 C 
HETATM   35  C24 UNL     1    -149.508-175.394 358.477  1.00  0.00     0.016 C 
HETATM   36  C25 UNL     1    -147.392-175.938 359.521  1.00  0.00     0.016 C 
ENDBRANCH  28  33
ENDBRANCH   1  22
TORSDOF 12
ENDMDL
MODEL 2
REMARK VINA RESULT: -8.004284447      1.389      1.782
REMARK  12 active torsions:
REMARK  status: ('A' for Active; 'I' for Inactive)
REMARK    1  A    between atoms: C3_3  and  C4_4 
REMARK    2  A    between atoms: C9_9  and  C10_10 
REMARK       I    between atoms: C10_10  and  N1_12 
REMARK    3  A    between atoms: N1_12  and  C11_14 
REMARK    4  A    between atoms: C11_14  and  C12_15 
REMARK    5  A    between atoms: C12_15  and  C13_16 
REMARK    6  A    between atoms: C13_16  and  N2_17 
REMARK       I    between atoms: N2_17  and  C14_19 
REMARK       I    between atoms: C14_19  and  N3_21 
REMARK    7  A    between atoms: N3_21  and  C15_23 
REMARK    8  A    between atoms: C15_23  and  C16_24 
REMARK    9  A    between atoms: C15_23  and  C20_28 
REMARK   10  A    between atoms: C16_24  and  C17_25 
REMARK   11  A    between atoms: C17_25  and  C18_26 
REMARK   12  A    between atoms: C21_31  and  C22_33 
ROOT
HETATM    1  C10 UNL     1    -148.155-173.063 360.812  1.00  0.00     0.223 C 
HETATM    2  O1  UNL     1    -148.948-172.205 361.246  1.00  0.00    -0.273 OA
HETATM    3  N1  UNL     1    -147.266-172.650 359.789  1.00  0.00    -0.361 N 
ATOM      4  H1  UNL     1    -146.611-173.342 359.423  1.00  0.00     0.162 HD
ENDROOT
BRANCH   3   5
HETATM    5  C11 UNL     1    -147.222-171.337 359.234  1.00  0.00     0.124 C 
BRANCH   5   6
HETATM    6  C12 UNL     1    -145.974-170.547 359.579  1.00  0.00     0.039 C 
BRANCH   6   7
HETATM    7  C13 UNL     1    -145.452-170.960 360.935  1.00  0.00     0.126 C 
BRANCH   7   8
HETATM    8  N2  UNL     1    -144.128-171.515 360.786  1.00  0.00    -0.343 N 
HETATM    9  C14 UNL     1    -142.981-170.973 361.414  1.00  0.00     0.316 C 
HETATM   10  O2  UNL     1    -143.009-169.968 362.157  1.00  0.00    -0.247 OA
HETATM   11  N3  UNL     1    -141.710-171.578 361.214  1.00  0.00    -0.330 N 
ATOM     12  H3  UNL     1    -141.643-172.397 360.608  1.00  0.00     0.165 HD
ATOM     13  H2  UNL     1    -144.013-172.340 360.199  1.00  0.00     0.164 HD
BRANCH  11  14
HETATM   14  C15 UNL     1    -140.506-171.069 361.844  1.00  0.00     0.175 C 
BRANCH  14  15
HETATM   15  C16 UNL     1    -139.688-172.162 362.472  1.00  0.00     0.034 C 
BRANCH  15  16
HETATM   16  C17 UNL     1    -139.226-171.803 363.863  1.00  0.00     0.002 C 
BRANCH  16  17
HETATM   17  C18 UNL     1    -137.701-171.923 363.856  1.00  0.00    -0.004 C 
HETATM   18  C19 UNL     1    -137.093-170.550 364.105  1.00  0.00     0.005 C 
ENDBRANCH  16  17
ENDBRANCH  15  16
ENDBRANCH  14  15
BRANCH  14  19
HETATM   19  C20 UNL     1    -139.711-170.344 360.830  1.00  0.00     0.254 C 
HETATM   20  N4  UNL     1    -138.781-169.381 361.278  1.00  0.00    -0.060 NA
HETATM   21  O3  UNL     1    -139.844-170.562 359.615  1.00  0.00    -0.275 OA
ENDBRANCH  14  19
ENDBRANCH  11  14
ENDBRANCH   7   8
ENDBRANCH   6   7
ENDBRANCH   5   6
ENDBRANCH   3   5
BRANCH   1  22
HETATM   22  C9  UNL     1    -148.133-174.440 361.330  1.00  0.00     0.103 C 
HETATM   23  C8  UNL     1    -148.175-174.453 362.841  1.00  0.00     0.025 C 
HETATM   24  C5  UNL     1    -149.409-175.207 363.224  1.00  0.00    -0.038 C 
HETATM   25  C4  UNL     1    -149.557-176.158 362.055  1.00  0.00     0.041 C 
HETATM   26  C6  UNL     1    -149.161-176.065 364.470  1.00  0.00     0.015 C 
HETATM   27  C7  UNL     1    -150.606-174.362 363.491  1.00  0.00     0.015 C 
HETATM   28  C21 UNL     1    -149.270-175.316 360.872  1.00  0.00     0.063 C 
HETATM   29 CL1  UNL     1    -150.666-174.307 360.404  1.00  0.00    -0.117 Cl
BRANCH  25  30
HETATM   30  C3  UNL     1    -150.797-176.914 362.086  1.00  0.00    -0.024 C 
HETATM   31  C2  UNL     1    -150.849-178.144 362.586  1.00  0.00    -0.034 C 
HETATM   32  C1  UNL     1    -152.098-178.955 362.638  1.00  0.00     0.036 C 
ENDBRANCH  25  30
BRANCH  28  33
HETATM   33  C22 UNL     1    -148.893-176.098 359.627  1.00  0.00    -0.029 C 
HETATM   34  C23 UNL     1    -149.255-177.546 359.683  1.00  0.00     0.016 C 
HETATM   35  C24 UNL     1    -149.458-175.432 358.418  1.00  0.00     0.016 C 
HETATM   36  C25 UNL     1    -147.371-176.047 359.479  1.00  0.00     0.016 C 
ENDBRANCH  28  33
ENDBRANCH   1  22
TORSDOF 12
ENDMDL
MODEL 3
REMARK VINA RESULT: -7.773534976      2.046      2.347
REMARK  12 active torsions:
REMARK  status: ('A' for Active; 'I' for Inactive)
REMARK    1  A    between atoms: C3_3  and  C4_4 
REMARK    2  A    between atoms: C9_9  and  C10_10 
REMARK       I    between atoms: C10_10  and  N1_12 
REMARK    3  A    between atoms: N1_12  and  C11_14 
REMARK    4  A    between atoms: C11_14  and  C12_15 
REMARK    5  A    between atoms: C12_15  and  C13_16 
REMARK    6  A    between atoms: C13_16  and  N2_17 
REMARK       I    between atoms: N2_17  and  C14_19 
REMARK       I    between atoms: C14_19  and  N3_21 
REMARK    7  A    between atoms: N3_21  and  C15_23 
REMARK    8  A    between atoms: C15_23  and  C16_24 
REMARK    9  A    between atoms: C15_23  and  C20_28 
REMARK   10  A    between atoms: C16_24  and  C17_25 
REMARK   11  A    between atoms: C17_25  and  C18_26 
REMARK   12  A    between atoms: C21_31  and  C22_33 
ROOT
HETATM    1  C10 UNL     1    -148.826-172.804 360.749  1.00  0.00     0.223 C 
HETATM    2  O1  UNL     1    -149.594-172.045 361.372  1.00  0.00    -0.273 OA
HETATM    3  N1  UNL     1    -148.255-172.294 359.557  1.00  0.00    -0.361 N 
ATOM      4  H1  UNL     1    -147.625-172.904 359.035  1.00  0.00     0.162 HD
ENDROOT
BRANCH   3   5
HETATM    5  C11 UNL     1    -148.498-170.989 359.034  1.00  0.00     0.124 C 
BRANCH   5   6
HETATM    6  C12 UNL     1    -147.330-170.030 359.161  1.00  0.00     0.039 C 
BRANCH   6   7
HETATM    7  C13 UNL     1    -147.184-169.571 360.592  1.00  0.00     0.126 C 
BRANCH   7   8
HETATM    8  N2  UNL     1    -145.782-169.421 360.903  1.00  0.00    -0.343 N 
HETATM    9  C14 UNL     1    -144.896-170.515 361.055  1.00  0.00     0.316 C 
HETATM   10  O2  UNL     1    -145.243-171.710 360.930  1.00  0.00    -0.247 OA
HETATM   11  N3  UNL     1    -143.529-170.281 361.365  1.00  0.00    -0.330 N 
ATOM     12  H3  UNL     1    -143.206-169.320 361.482  1.00  0.00     0.165 HD
ATOM     13  H2  UNL     1    -145.411-168.479 361.019  1.00  0.00     0.164 HD
BRANCH  11  14
HETATM   14  C15 UNL     1    -142.577-171.366 361.519  1.00  0.00     0.175 C 
BRANCH  14  15
HETATM   15  C16 UNL     1    -141.490-171.319 360.482  1.00  0.00     0.034 C 
BRANCH  15  16
HETATM   16  C17 UNL     1    -142.026-171.511 359.084  1.00  0.00     0.002 C 
BRANCH  16  17
HETATM   17  C18 UNL     1    -140.872-171.194 358.131  1.00  0.00    -0.004 C 
HETATM   18  C19 UNL     1    -140.927-172.152 356.949  1.00  0.00     0.005 C 
ENDBRANCH  16  17
ENDBRANCH  15  16
ENDBRANCH  14  15
BRANCH  14  19
HETATM   19  C20 UNL     1    -142.001-171.301 362.878  1.00  0.00     0.254 C 
HETATM   20  N4  UNL     1    -142.876-171.078 363.962  1.00  0.00    -0.060 NA
HETATM   21  O3  UNL     1    -140.783-171.437 363.080  1.00  0.00    -0.275 OA
ENDBRANCH  14  19
ENDBRANCH  11  14
ENDBRANCH   7   8
ENDBRANCH   6   7
ENDBRANCH   5   6
ENDBRANCH   3   5
BRANCH   1  22
HETATM   22  C9  UNL     1    -148.519-174.164 361.219  1.00  0.00     0.103 C 
HETATM   23  C8  UNL     1    -148.518-174.230 362.729  1.00  0.00     0.025 C 
HETATM   24  C5  UNL     1    -149.569-175.224 363.111  1.00  0.00    -0.038 C 
HETATM   25  C4  UNL     1    -149.557-176.150 361.913  1.00  0.00     0.041 C 
HETATM   26  C6  UNL     1    -149.123-176.053 364.321  1.00  0.00     0.015 C 
HETATM   27  C7  UNL     1    -150.901-174.641 363.431  1.00  0.00     0.015 C 
HETATM   28  C21 UNL     1    -149.474-175.234 360.754  1.00  0.00     0.063 C 
HETATM   29 CL1  UNL     1    -151.053-174.507 360.349  1.00  0.00    -0.117 Cl
BRANCH  25  30
HETATM   30  C3  UNL     1    -150.623-177.137 361.943  1.00  0.00    -0.024 C 
HETATM   31  C2  UNL     1    -150.396-178.394 362.309  1.00  0.00    -0.034 C 
HETATM   32  C1  UNL     1    -151.458-179.439 362.355  1.00  0.00     0.036 C 
ENDBRANCH  25  30
BRANCH  28  33
HETATM   33  C22 UNL     1    -148.983-175.889 359.476  1.00  0.00    -0.029 C 
HETATM   34  C23 UNL     1    -149.262-177.354 359.395  1.00  0.00     0.016 C 
HETATM   35  C24 UNL     1    -149.520-175.156 358.292  1.00  0.00     0.016 C 
HETATM   36  C25 UNL     1    -147.461-175.742 359.423  1.00  0.00     0.016 C 
ENDBRANCH  28  33
ENDBRANCH   1  22
TORSDOF 12
ENDMDL
MODEL 4
REMARK VINA RESULT: -7.742328727      1.568      2.063
REMARK  12 active torsions:
REMARK  status: ('A' for Active; 'I' for Inactive)
REMARK    1  A    between atoms: C3_3  and  C4_4 
REMARK    2  A    between atoms: C9_9  and  C10_10 
REMARK       I    between atoms: C10_10  and  N1_12 
REMARK    3  A    between atoms: N1_12  and  C11_14 
REMARK    4  A    between atoms: C11_14  and  C12_15 
REMARK    5  A    between atoms: C12_15  and  C13_16 
REMARK    6  A    between atoms: C13_16  and  N2_17 
REMARK       I    between atoms: N2_17  and  C14_19 
REMARK       I    between atoms: C14_19  and  N3_21 
REMARK    7  A    between atoms: N3_21  and  C15_23 
REMARK    8  A    between atoms: C15_23  and  C16_24 
REMARK    9  A    between atoms: C15_23  and  C20_28 
REMARK   10  A    between atoms: C16_24  and  C17_25 
REMARK   11  A    between atoms: C17_25  and  C18_26 
REMARK   12  A    between atoms: C21_31  and  C22_33 
ROOT
HETATM    1  C10 UNL     1    -148.561-172.845 360.622  1.00  0.00     0.223 C 
HETATM    2  O1  UNL     1    -149.193-171.992 361.273  1.00  0.00    -0.273 OA
HETATM    3  N1  UNL     1    -148.065-172.443 359.357  1.00  0.00    -0.361 N 
ATOM      4  H1  UNL     1    -147.545-173.131 358.812  1.00  0.00     0.162 HD
ENDROOT
BRANCH   3   5
HETATM    5  C11 UNL     1    -148.240-171.145 358.792  1.00  0.00     0.124 C 
BRANCH   5   6
HETATM    6  C12 UNL     1    -146.983-170.296 358.759  1.00  0.00     0.039 C 
BRANCH   6   7
HETATM    7  C13 UNL     1    -145.859-171.054 358.094  1.00  0.00     0.126 C 
BRANCH   7   8
HETATM    8  N2  UNL     1    -144.614-170.732 358.751  1.00  0.00    -0.343 N 
HETATM    9  C14 UNL     1    -144.224-171.284 359.994  1.00  0.00     0.316 C 
HETATM   10  O2  UNL     1    -144.917-172.104 360.636  1.00  0.00    -0.247 OA
HETATM   11  N3  UNL     1    -142.981-170.913 360.576  1.00  0.00    -0.330 N 
ATOM     12  H3  UNL     1    -142.388-170.241 360.087  1.00  0.00     0.165 HD
ATOM     13  H2  UNL     1    -143.983-170.073 358.295  1.00  0.00     0.164 HD
BRANCH  11  14
HETATM   14  C15 UNL     1    -142.529-171.459 361.843  1.00  0.00     0.175 C 
BRANCH  14  15
HETATM   15  C16 UNL     1    -141.030-171.480 361.948  1.00  0.00     0.034 C 
BRANCH  15  16
HETATM   16  C17 UNL     1    -140.366-170.759 360.800  1.00  0.00     0.002 C 
BRANCH  16  17
HETATM   17  C18 UNL     1    -139.247-169.914 361.409  1.00  0.00    -0.004 C 
HETATM   18  C19 UNL     1    -138.187-169.653 360.348  1.00  0.00     0.005 C 
ENDBRANCH  16  17
ENDBRANCH  15  16
ENDBRANCH  14  15
BRANCH  14  19
HETATM   19  C20 UNL     1    -143.116-170.661 362.939  1.00  0.00     0.254 C 
HETATM   20  N4  UNL     1    -142.896-171.090 364.266  1.00  0.00    -0.060 NA
HETATM   21  O3  UNL     1    -143.785-169.639 362.719  1.00  0.00    -0.275 OA
ENDBRANCH  14  19
ENDBRANCH  11  14
ENDBRANCH   7   8
ENDBRANCH   6   7
ENDBRANCH   5   6
ENDBRANCH   3   5
BRANCH   1  22
HETATM   22  C9  UNL     1    -148.333-174.206 361.132  1.00  0.00     0.103 C 
HETATM   23  C8  UNL     1    -148.316-174.225 362.643  1.00  0.00     0.025 C 
HETATM   24  C5  UNL     1    -149.422-175.140 363.068  1.00  0.00    -0.038 C 
HETATM   25  C4  UNL     1    -149.484-176.101 361.899  1.00  0.00     0.041 C 
HETATM   26  C6  UNL     1    -149.013-175.957 364.299  1.00  0.00     0.015 C 
HETATM   27  C7  UNL     1    -150.711-174.465 363.384  1.00  0.00     0.015 C 
HETATM   28  C21 UNL     1    -149.359-175.228 360.711  1.00  0.00     0.063 C 
HETATM   29 CL1  UNL     1    -150.894-174.417 360.301  1.00  0.00    -0.117 Cl
BRANCH  25  30
HETATM   30  C3  UNL     1    -150.609-177.018 361.973  1.00  0.00    -0.024 C 
HETATM   31  C2  UNL     1    -150.462-178.265 362.410  1.00  0.00    -0.034 C 
HETATM   32  C1  UNL     1    -151.586-179.239 362.502  1.00  0.00     0.036 C 
ENDBRANCH  25  30
BRANCH  28  33
HETATM   33  C22 UNL     1    -148.926-175.952 359.449  1.00  0.00    -0.029 C 
HETATM   34  C23 UNL     1    -149.475-175.364 358.190  1.00  0.00     0.016 C 
HETATM   35  C24 UNL     1    -147.439-176.057 359.409  1.00  0.00     0.016 C 
HETATM   36  C25 UNL     1    -149.461-177.383 359.518  1.00  0.00     0.016 C 
ENDBRANCH  28  33
ENDBRANCH   1  22
TORSDOF 12
ENDMDL
MODEL 5
REMARK VINA RESULT: -7.578601490      4.814     10.278
REMARK  12 active torsions:
REMARK  status: ('A' for Active; 'I' for Inactive)
REMARK    1  A    between atoms: C3_3  and  C4_4 
REMARK    2  A    between atoms: C9_9  and  C10_10 
REMARK       I    between atoms: C10_10  and  N1_12 
REMARK    3  A    between atoms: N1_12  and  C11_14 
REMARK    4  A    between atoms: C11_14  and  C12_15 
REMARK    5  A    between atoms: C12_15  and  C13_16 
REMARK    6  A    between atoms: C13_16  and  N2_17 
REMARK       I    between atoms: N2_17  and  C14_19 
REMARK       I    between atoms: C14_19  and  N3_21 
REMARK    7  A    between atoms: N3_21  and  C15_23 
REMARK    8  A    between atoms: C15_23  and  C16_24 
REMARK    9  A    between atoms: C15_23  and  C20_28 
REMARK   10  A    between atoms: C16_24  and  C17_25 
REMARK   11  A    between atoms: C17_25  and  C18_26 
REMARK   12  A    between atoms: C21_31  and  C22_33 
ROOT
HETATM    1  C10 UNL     1    -147.862-171.551 358.492  1.00  0.00     0.223 C 
HETATM    2  O1  UNL     1    -147.179-172.528 358.857  1.00  0.00    -0.273 OA
HETATM    3  N1  UNL     1    -149.248-171.777 358.306  1.00  0.00    -0.361 N 
ATOM      4  H1  UNL     1    -149.820-170.987 358.006  1.00  0.00     0.162 HD
ENDROOT
BRANCH   3   5
HETATM    5  C11 UNL     1    -149.901-173.029 358.507  1.00  0.00     0.124 C 
BRANCH   5   6
HETATM    6  C12 UNL     1    -150.603-173.168 359.844  1.00  0.00     0.039 C 
BRANCH   6   7
HETATM    7  C13 UNL     1    -149.776-174.014 360.783  1.00  0.00     0.126 C 
BRANCH   7   8
HETATM    8  N2  UNL     1    -150.110-175.405 360.591  1.00  0.00    -0.343 N 
HETATM    9  C14 UNL     1    -149.866-176.407 361.560  1.00  0.00     0.316 C 
HETATM   10  O2  UNL     1    -149.343-176.180 362.674  1.00  0.00    -0.247 OA
HETATM   11  N3  UNL     1    -150.223-177.756 361.291  1.00  0.00    -0.330 N 
ATOM     12  H3  UNL     1    -150.646-177.985 360.391  1.00  0.00     0.165 HD
ATOM     13  H2  UNL     1    -150.545-175.680 359.710  1.00  0.00     0.164 HD
BRANCH  11  14
HETATM   14  C15 UNL     1    -150.005-178.819 362.256  1.00  0.00     0.175 C 
BRANCH  14  15
HETATM   15  C16 UNL     1    -151.108-178.895 363.274  1.00  0.00     0.034 C 
BRANCH  15  16
HETATM   16  C17 UNL     1    -150.579-178.944 364.687  1.00  0.00     0.002 C 
BRANCH  16  17
HETATM   17  C18 UNL     1    -150.534-177.497 365.182  1.00  0.00    -0.004 C 
HETATM   18  C19 UNL     1    -151.361-177.381 366.455  1.00  0.00     0.005 C 
ENDBRANCH  16  17
ENDBRANCH  15  16
ENDBRANCH  14  15
BRANCH  14  19
HETATM   19  C20 UNL     1    -149.879-180.100 361.530  1.00  0.00     0.254 C 
HETATM   20  N4  UNL     1    -149.791-180.061 360.122  1.00  0.00    -0.060 NA
HETATM   21  O3  UNL     1    -149.849-181.189 362.125  1.00  0.00    -0.275 OA
ENDBRANCH  14  19
ENDBRANCH  11  14
ENDBRANCH   7   8
ENDBRANCH   6   7
ENDBRANCH   5   6
ENDBRANCH   3   5
BRANCH   1  22
HETATM   22  C9  UNL     1    -147.269-170.224 358.265  1.00  0.00     0.103 C 
HETATM   23  C8  UNL     1    -148.147-169.383 357.367  1.00  0.00     0.025 C 
HETATM   24  C5  UNL     1    -148.521-168.169 358.158  1.00  0.00    -0.038 C 
HETATM   25  C4  UNL     1    -147.321-168.021 359.070  1.00  0.00     0.041 C 
HETATM   26  C6  UNL     1    -148.559-166.925 357.264  1.00  0.00     0.015 C 
HETATM   27  C7  UNL     1    -149.829-168.256 358.864  1.00  0.00     0.015 C 
HETATM   28  C21 UNL     1    -147.033-169.405 359.508  1.00  0.00     0.063 C 
HETATM   29 CL1  UNL     1    -148.128-169.946 360.810  1.00  0.00    -0.117 Cl
BRANCH  25  30
HETATM   30  C3  UNL     1    -147.496-166.994 360.083  1.00  0.00    -0.024 C 
HETATM   31  C2  UNL     1    -147.036-165.760 359.907  1.00  0.00    -0.034 C 
HETATM   32  C1  UNL     1    -147.192-164.675 360.918  1.00  0.00     0.036 C 
ENDBRANCH  25  30
BRANCH  28  33
HETATM   33  C22 UNL     1    -145.628-169.610 360.042  1.00  0.00    -0.029 C 
HETATM   34  C23 UNL     1    -144.611-169.902 358.987  1.00  0.00     0.016 C 
HETATM   35  C24 UNL     1    -145.231-168.446 360.886  1.00  0.00     0.016 C 
HETATM   36  C25 UNL     1    -145.645-170.830 360.965  1.00  0.00     0.016 C 
ENDBRANCH  28  33
ENDBRANCH   1  22
TORSDOF 12
ENDMDL
