MODEL 1
REMARK VINA RESULT: -8.182937358      0.000      0.000
REMARK  13 active torsions:
REMARK  status: ('A' for Active; 'I' for Inactive)
REMARK       I    between atoms: C2_4  and  N2_5 
REMARK       I    between atoms: C2_4  and  N6_31 
REMARK    1  A    between atoms: C3_7  and  C4_8 
REMARK    2  A    between atoms: C3_7  and  N5_22 
REMARK    3  A    between atoms: C4_8  and  C5_9 
REMARK    4  A    between atoms: C5_9  and  C6_10 
REMARK    5  A    between atoms: C6_10  and  N3_11 
REMARK       I    between atoms: N3_11  and  C7_13 
REMARK    6  A    between atoms: C7_13  and  C8_15 
REMARK    7  A    between atoms: N5_22  and  C13_24 
REMARK    8  A    between atoms: C13_24  and  C14_25 
REMARK    9  A    between atoms: C14_25  and  C15_26 
REMARK   10  A    between atoms: C15_26  and  C16_27 
REMARK   11  A    between atoms: C16_27  and  C17_28 
REMARK   12  A    between atoms: C17_28  and  C18_29 
REMARK   13  A    between atoms: N6_31  and  C19_33 
ROOT
HETATM    1  C1  UNL     1    -134.145-172.005 360.866  1.00  0.00     0.165 C 
HETATM    2  N1  UNL     1    -134.224-172.539 362.187  1.00  0.00    -0.231 N 
ATOM      3  H1  UNL     1    -133.661-173.357 362.419  1.00  0.00     0.177 HD
HETATM    4  C2  UNL     1    -134.994-172.017 363.119  1.00  0.00     0.675 C 
HETATM    5  N2  UNL     1    -135.729-170.910 362.714  1.00  0.00    -0.178 N 
ATOM      6  H2  UNL     1    -135.272-170.001 362.632  1.00  0.00     0.185 HD
HETATM    7  C3  UNL     1    -137.035-171.025 362.431  1.00  0.00     0.113 C 
HETATM    8  N6  UNL     1    -134.993-172.549 364.421  1.00  0.00    -0.218 N 
ATOM      9  H6  UNL     1    -135.875-172.619 364.927  1.00  0.00     0.178 HD
ENDROOT
BRANCH   7  10
HETATM   10  C4  UNL     1    -137.603-172.350 362.576  1.00  0.00     0.024 C 
BRANCH  10  11
HETATM   11  C5  UNL     1    -138.577-172.730 363.603  1.00  0.00     0.050 C 
BRANCH  11  12
HETATM   12  C6  UNL     1    -139.843-171.903 363.675  1.00  0.00     0.127 C 
BRANCH  12  13
HETATM   13  N3  UNL     1    -140.650-172.219 362.452  1.00  0.00    -0.356 N 
HETATM   14  C7  UNL     1    -140.953-171.164 361.552  1.00  0.00     0.263 C 
HETATM   15  O1  UNL     1    -140.500-170.018 361.927  1.00  0.00    -0.266 OA
ATOM     16  H3  UNL     1    -140.974-173.169 362.271  1.00  0.00     0.162 HD
BRANCH  14  17
HETATM   17  C8  UNL     1    -141.707-171.286 360.340  1.00  0.00     0.073 C 
HETATM   18  C9  UNL     1    -141.103-171.391 359.025  1.00  0.00     0.062 C 
HETATM   19  C10 UNL     1    -142.116-171.036 357.920  1.00  0.00     0.008 C 
HETATM   20  C11 UNL     1    -143.469-171.605 358.156  1.00  0.00     0.020 C 
HETATM   21  C12 UNL     1    -143.872-171.943 359.539  1.00  0.00     0.119 C 
HETATM   22  N4  UNL     1    -142.871-172.158 360.506  1.00  0.00    -0.389 N 
ATOM     23  H4  UNL     1    -142.950-172.853 361.249  1.00  0.00     0.159 HD
ENDBRANCH  14  17
ENDBRANCH  12  13
ENDBRANCH  11  12
ENDBRANCH  10  11
ENDBRANCH   7  10
BRANCH   7  24
HETATM   24  N5  UNL     1    -137.669-169.887 361.955  1.00  0.00    -0.376 N 
ATOM     25  H5  UNL     1    -138.449-169.476 362.468  1.00  0.00     0.161 HD
BRANCH  24  26
HETATM   26  C13 UNL     1    -137.199-169.276 360.692  1.00  0.00     0.121 C 
BRANCH  26  27
HETATM   27  C14 UNL     1    -137.838-169.988 359.511  1.00  0.00     0.020 C 
BRANCH  27  28
HETATM   28  C15 UNL     1    -138.305-168.974 358.523  1.00  0.00     0.002 C 
BRANCH  28  29
HETATM   29  C16 UNL     1    -137.971-169.393 357.093  1.00  0.00     0.001 C 
BRANCH  29  30
HETATM   30  C17 UNL     1    -136.750-170.261 357.079  1.00  0.00     0.011 C 
BRANCH  30  31
HETATM   31  C18 UNL     1    -137.000-171.501 356.220  1.00  0.00     0.085 C 
HETATM   32 BR1  UNL     1    -138.846-171.890 355.949  1.00  0.00    -0.097 Br
ENDBRANCH  30  31
ENDBRANCH  29  30
ENDBRANCH  28  29
ENDBRANCH  27  28
ENDBRANCH  26  27
ENDBRANCH  24  26
ENDBRANCH   7  24
BRANCH   8  33
HETATM   33  C19 UNL     1    -133.774-172.999 365.065  1.00  0.00     0.036 C 
HETATM   34  C20 UNL     1    -134.092-173.904 366.255  1.00  0.00     0.038 C 
HETATM   35  C21 UNL     1    -133.009-171.803 365.564  1.00  0.00     0.038 C 
HETATM   36  C22 UNL     1    -132.949-173.791 364.092  1.00  0.00     0.038 C 
ENDBRANCH   8  33
TORSDOF 13
ENDMDL
MODEL 2
REMARK VINA RESULT: -8.163861224      1.139      1.634
REMARK  13 active torsions:
REMARK  status: ('A' for Active; 'I' for Inactive)
REMARK       I    between atoms: C2_4  and  N2_5 
REMARK       I    between atoms: C2_4  and  N6_31 
REMARK    1  A    between atoms: C3_7  and  C4_8 
REMARK    2  A    between atoms: C3_7  and  N5_22 
REMARK    3  A    between atoms: C4_8  and  C5_9 
REMARK    4  A    between atoms: C5_9  and  C6_10 
REMARK    5  A    between atoms: C6_10  and  N3_11 
REMARK       I    between atoms: N3_11  and  C7_13 
REMARK    6  A    between atoms: C7_13  and  C8_15 
REMARK    7  A    between atoms: N5_22  and  C13_24 
REMARK    8  A    between atoms: C13_24  and  C14_25 
REMARK    9  A    between atoms: C14_25  and  C15_26 
REMARK   10  A    between atoms: C15_26  and  C16_27 
REMARK   11  A    between atoms: C16_27  and  C17_28 
REMARK   12  A    between atoms: C17_28  and  C18_29 
REMARK   13  A    between atoms: N6_31  and  C19_33 
ROOT
HETATM    1  C1  UNL     1    -134.131-172.109 361.112  1.00  0.00     0.165 C 
HETATM    2  N1  UNL     1    -134.241-172.564 362.461  1.00  0.00    -0.231 N 
ATOM      3  H1  UNL     1    -133.669-173.354 362.759  1.00  0.00     0.177 HD
HETATM    4  C2  UNL     1    -135.053-172.005 363.334  1.00  0.00     0.675 C 
HETATM    5  N2  UNL     1    -135.798-170.942 362.840  1.00  0.00    -0.178 N 
ATOM      6  H2  UNL     1    -135.358-170.030 362.717  1.00  0.00     0.185 HD
HETATM    7  C3  UNL     1    -137.091-171.105 362.523  1.00  0.00     0.113 C 
HETATM    8  N6  UNL     1    -135.083-172.458 364.666  1.00  0.00    -0.218 N 
ATOM      9  H6  UNL     1    -135.980-172.518 365.147  1.00  0.00     0.178 HD
ENDROOT
BRANCH   7  10
HETATM   10  C4  UNL     1    -137.635-172.431 362.731  1.00  0.00     0.024 C 
BRANCH  10  11
HETATM   11  C5  UNL     1    -138.679-172.760 363.706  1.00  0.00     0.050 C 
BRANCH  11  12
HETATM   12  C6  UNL     1    -139.924-171.901 363.681  1.00  0.00     0.127 C 
BRANCH  12  13
HETATM   13  N3  UNL     1    -140.650-172.208 362.405  1.00  0.00    -0.356 N 
HETATM   14  C7  UNL     1    -140.951-171.136 361.525  1.00  0.00     0.263 C 
HETATM   15  O1  UNL     1    -140.571-169.986 361.961  1.00  0.00    -0.266 OA
ATOM     16  H3  UNL     1    -140.921-173.165 362.176  1.00  0.00     0.162 HD
BRANCH  14  17
HETATM   17  C8  UNL     1    -141.633-171.248 360.270  1.00  0.00     0.073 C 
HETATM   18  C9  UNL     1    -140.953-171.363 358.993  1.00  0.00     0.062 C 
HETATM   19  C10 UNL     1    -141.893-170.995 357.830  1.00  0.00     0.008 C 
HETATM   20  C11 UNL     1    -143.266-171.544 357.985  1.00  0.00     0.020 C 
HETATM   21  C12 UNL     1    -143.756-171.876 359.341  1.00  0.00     0.119 C 
HETATM   22  N4  UNL     1    -142.818-172.104 360.366  1.00  0.00    -0.389 N 
ATOM     23  H4  UNL     1    -142.951-172.797 361.103  1.00  0.00     0.159 HD
ENDBRANCH  14  17
ENDBRANCH  12  13
ENDBRANCH  11  12
ENDBRANCH  10  11
ENDBRANCH   7  10
BRANCH   7  24
HETATM   24  N5  UNL     1    -137.733-170.012 361.959  1.00  0.00    -0.376 N 
ATOM     25  H5  UNL     1    -138.607-169.665 362.355  1.00  0.00     0.161 HD
BRANCH  24  26
HETATM   26  C13 UNL     1    -137.134-169.357 360.776  1.00  0.00     0.121 C 
BRANCH  26  27
HETATM   27  C14 UNL     1    -137.748-169.930 359.508  1.00  0.00     0.020 C 
BRANCH  27  28
HETATM   28  C15 UNL     1    -136.659-170.281 358.552  1.00  0.00     0.002 C 
BRANCH  28  29
HETATM   29  C16 UNL     1    -136.877-169.620 357.193  1.00  0.00     0.001 C 
BRANCH  29  30
HETATM   30  C17 UNL     1    -138.058-168.700 357.246  1.00  0.00     0.011 C 
BRANCH  30  31
HETATM   31  C18 UNL     1    -137.639-167.287 356.838  1.00  0.00     0.085 C 
HETATM   32 BR1  UNL     1    -136.087-167.235 355.734  1.00  0.00    -0.097 Br
ENDBRANCH  30  31
ENDBRANCH  29  30
ENDBRANCH  28  29
ENDBRANCH  27  28
ENDBRANCH  26  27
ENDBRANCH  24  26
ENDBRANCH   7  24
BRANCH   8  33
HETATM   33  C19 UNL     1    -133.877-172.839 365.374  1.00  0.00     0.036 C 
HETATM   34  C20 UNL     1    -132.766-173.210 364.392  1.00  0.00     0.038 C 
HETATM   35  C21 UNL     1    -134.171-174.035 366.239  1.00  0.00     0.038 C 
HETATM   36  C22 UNL     1    -133.390-171.687 366.205  1.00  0.00     0.038 C 
ENDBRANCH   8  33
TORSDOF 13
ENDMDL
MODEL 3
REMARK VINA RESULT: -7.913143873      1.963      2.133
REMARK  13 active torsions:
REMARK  status: ('A' for Active; 'I' for Inactive)
REMARK       I    between atoms: C2_4  and  N2_5 
REMARK       I    between atoms: C2_4  and  N6_31 
REMARK    1  A    between atoms: C3_7  and  C4_8 
REMARK    2  A    between atoms: C3_7  and  N5_22 
REMARK    3  A    between atoms: C4_8  and  C5_9 
REMARK    4  A    between atoms: C5_9  and  C6_10 
REMARK    5  A    between atoms: C6_10  and  N3_11 
REMARK       I    between atoms: N3_11  and  C7_13 
REMARK    6  A    between atoms: C7_13  and  C8_15 
REMARK    7  A    between atoms: N5_22  and  C13_24 
REMARK    8  A    between atoms: C13_24  and  C14_25 
REMARK    9  A    between atoms: C14_25  and  C15_26 
REMARK   10  A    between atoms: C15_26  and  C16_27 
REMARK   11  A    between atoms: C16_27  and  C17_28 
REMARK   12  A    between atoms: C17_28  and  C18_29 
REMARK   13  A    between atoms: N6_31  and  C19_33 
ROOT
HETATM    1  C1  UNL     1    -134.509-171.739 360.854  1.00  0.00     0.165 C 
HETATM    2  N1  UNL     1    -134.524-172.321 362.157  1.00  0.00    -0.231 N 
ATOM      3  H1  UNL     1    -133.907-173.110 362.348  1.00  0.00     0.177 HD
HETATM    4  C2  UNL     1    -135.303-171.880 363.123  1.00  0.00     0.675 C 
HETATM    5  N2  UNL     1    -136.114-170.807 362.773  1.00  0.00    -0.178 N 
ATOM      6  H2  UNL     1    -135.715-169.870 362.713  1.00  0.00     0.185 HD
HETATM    7  C3  UNL     1    -137.417-170.994 362.513  1.00  0.00     0.113 C 
HETATM    8  N6  UNL     1    -135.239-172.454 364.405  1.00  0.00    -0.218 N 
ATOM      9  H6  UNL     1    -136.103-172.597 364.927  1.00  0.00     0.178 HD
ENDROOT
BRANCH   7  10
HETATM   10  C4  UNL     1    -137.899-172.356 362.624  1.00  0.00     0.024 C 
BRANCH  10  11
HETATM   11  C5  UNL     1    -138.863-172.819 363.626  1.00  0.00     0.050 C 
BRANCH  11  12
HETATM   12  C6  UNL     1    -139.979-171.862 363.985  1.00  0.00     0.127 C 
BRANCH  12  13
HETATM   13  N3  UNL     1    -140.956-171.873 362.848  1.00  0.00    -0.356 N 
HETATM   14  C7  UNL     1    -142.283-171.434 363.094  1.00  0.00     0.263 C 
HETATM   15  O1  UNL     1    -142.497-171.093 364.317  1.00  0.00    -0.266 OA
ATOM     16  H3  UNL     1    -140.673-172.188 361.919  1.00  0.00     0.162 HD
BRANCH  14  17
HETATM   17  C8  UNL     1    -143.340-171.376 362.128  1.00  0.00     0.073 C 
HETATM   18  C9  UNL     1    -143.859-170.138 361.578  1.00  0.00     0.062 C 
HETATM   19  C10 UNL     1    -145.253-170.350 360.958  1.00  0.00     0.008 C 
HETATM   20  C11 UNL     1    -145.366-171.607 360.173  1.00  0.00     0.020 C 
HETATM   21  C12 UNL     1    -144.441-172.723 360.474  1.00  0.00     0.119 C 
HETATM   22  N4  UNL     1    -143.227-172.443 361.130  1.00  0.00    -0.389 N 
ATOM     23  H4  UNL     1    -142.356-172.935 360.931  1.00  0.00     0.159 HD
ENDBRANCH  14  17
ENDBRANCH  12  13
ENDBRANCH  11  12
ENDBRANCH  10  11
ENDBRANCH   7  10
BRANCH   7  24
HETATM   24  N5  UNL     1    -138.131-169.882 362.091  1.00  0.00    -0.376 N 
ATOM     25  H5  UNL     1    -138.208-169.059 362.690  1.00  0.00     0.161 HD
BRANCH  24  26
HETATM   26  C13 UNL     1    -138.778-169.905 360.762  1.00  0.00     0.121 C 
BRANCH  26  27
HETATM   27  C14 UNL     1    -137.728-169.718 359.678  1.00  0.00     0.020 C 
BRANCH  27  28
HETATM   28  C15 UNL     1    -138.408-169.522 358.366  1.00  0.00     0.002 C 
BRANCH  28  29
HETATM   29  C16 UNL     1    -137.974-168.218 357.701  1.00  0.00     0.001 C 
BRANCH  29  30
HETATM   30  C17 UNL     1    -136.858-168.474 356.735  1.00  0.00     0.011 C 
BRANCH  30  31
HETATM   31  C18 UNL     1    -136.440-167.167 356.061  1.00  0.00     0.085 C 
HETATM   32 BR1  UNL     1    -137.523-165.674 356.540  1.00  0.00    -0.097 Br
ENDBRANCH  30  31
ENDBRANCH  29  30
ENDBRANCH  28  29
ENDBRANCH  27  28
ENDBRANCH  26  27
ENDBRANCH  24  26
ENDBRANCH   7  24
BRANCH   8  33
HETATM   33  C19 UNL     1    -133.980-172.849 365.007  1.00  0.00     0.036 C 
HETATM   34  C20 UNL     1    -134.217-173.768 366.204  1.00  0.00     0.038 C 
HETATM   35  C21 UNL     1    -133.254-171.619 365.482  1.00  0.00     0.038 C 
HETATM   36  C22 UNL     1    -133.153-173.602 364.005  1.00  0.00     0.038 C 
ENDBRANCH   8  33
TORSDOF 13
ENDMDL
MODEL 4
REMARK VINA RESULT: -7.892444264      0.728      1.190
REMARK  13 active torsions:
REMARK  status: ('A' for Active; 'I' for Inactive)
REMARK       I    between atoms: C2_4  and  N2_5 
REMARK       I    between atoms: C2_4  and  N6_31 
REMARK    1  A    between atoms: C3_7  and  C4_8 
REMARK    2  A    between atoms: C3_7  and  N5_22 
REMARK    3  A    between atoms: C4_8  and  C5_9 
REMARK    4  A    between atoms: C5_9  and  C6_10 
REMARK    5  A    between atoms: C6_10  and  N3_11 
REMARK       I    between atoms: N3_11  and  C7_13 
REMARK    6  A    between atoms: C7_13  and  C8_15 
REMARK    7  A    between atoms: N5_22  and  C13_24 
REMARK    8  A    between atoms: C13_24  and  C14_25 
REMARK    9  A    between atoms: C14_25  and  C15_26 
REMARK   10  A    between atoms: C15_26  and  C16_27 
REMARK   11  A    between atoms: C16_27  and  C17_28 
REMARK   12  A    between atoms: C17_28  and  C18_29 
REMARK   13  A    between atoms: N6_31  and  C19_33 
ROOT
HETATM    1  C1  UNL     1    -134.121-172.127 361.300  1.00  0.00     0.165 C 
HETATM    2  N1  UNL     1    -134.254-172.559 362.654  1.00  0.00    -0.231 N 
ATOM      3  H1  UNL     1    -133.685-173.341 362.977  1.00  0.00     0.177 HD
HETATM    4  C2  UNL     1    -135.083-171.988 363.503  1.00  0.00     0.675 C 
HETATM    5  N2  UNL     1    -135.822-170.936 362.977  1.00  0.00    -0.178 N 
ATOM      6  H2  UNL     1    -135.383-170.024 362.846  1.00  0.00     0.185 HD
HETATM    7  C3  UNL     1    -137.109-171.109 362.641  1.00  0.00     0.113 C 
HETATM    8  N6  UNL     1    -135.136-172.417 364.842  1.00  0.00    -0.218 N 
ATOM      9  H6  UNL     1    -136.041-172.473 365.308  1.00  0.00     0.178 HD
ENDROOT
BRANCH   7  10
HETATM   10  C4  UNL     1    -137.652-172.434 362.862  1.00  0.00     0.024 C 
BRANCH  10  11
HETATM   11  C5  UNL     1    -138.760-172.738 363.772  1.00  0.00     0.050 C 
BRANCH  11  12
HETATM   12  C6  UNL     1    -139.981-171.850 363.673  1.00  0.00     0.127 C 
BRANCH  12  13
HETATM   13  N3  UNL     1    -140.664-172.176 362.379  1.00  0.00    -0.356 N 
HETATM   14  C7  UNL     1    -140.993-171.109 361.502  1.00  0.00     0.263 C 
HETATM   15  O1  UNL     1    -140.674-169.948 361.958  1.00  0.00    -0.266 OA
ATOM     16  H3  UNL     1    -140.887-173.141 362.134  1.00  0.00     0.162 HD
BRANCH  14  17
HETATM   17  C8  UNL     1    -141.641-171.237 360.231  1.00  0.00     0.073 C 
HETATM   18  C9  UNL     1    -140.928-171.409 358.979  1.00  0.00     0.062 C 
HETATM   19  C10 UNL     1    -141.822-171.047 357.779  1.00  0.00     0.008 C 
HETATM   20  C11 UNL     1    -143.215-171.552 357.907  1.00  0.00     0.020 C 
HETATM   21  C12 UNL     1    -143.753-171.830 359.257  1.00  0.00     0.119 C 
HETATM   22  N4  UNL     1    -142.853-172.056 360.316  1.00  0.00    -0.389 N 
ATOM     23  H4  UNL     1    -143.028-172.723 361.067  1.00  0.00     0.159 HD
ENDBRANCH  14  17
ENDBRANCH  12  13
ENDBRANCH  11  12
ENDBRANCH  10  11
ENDBRANCH   7  10
BRANCH   7  24
HETATM   24  N5  UNL     1    -137.745-170.028 362.046  1.00  0.00    -0.376 N 
ATOM     25  H5  UNL     1    -138.628-169.679 362.418  1.00  0.00     0.161 HD
BRANCH  24  26
HETATM   26  C13 UNL     1    -137.126-169.391 360.864  1.00  0.00     0.121 C 
BRANCH  26  27
HETATM   27  C14 UNL     1    -137.682-170.015 359.595  1.00  0.00     0.020 C 
BRANCH  27  28
HETATM   28  C15 UNL     1    -136.550-170.427 358.715  1.00  0.00     0.002 C 
BRANCH  28  29
HETATM   29  C16 UNL     1    -136.779-169.988 357.271  1.00  0.00     0.001 C 
BRANCH  29  30
HETATM   30  C17 UNL     1    -136.916-171.184 356.380  1.00  0.00     0.011 C 
BRANCH  30  31
HETATM   31  C18 UNL     1    -138.280-171.169 355.689  1.00  0.00     0.085 C 
HETATM   32 BR1  UNL     1    -139.078-169.440 355.601  1.00  0.00    -0.097 Br
ENDBRANCH  30  31
ENDBRANCH  29  30
ENDBRANCH  28  29
ENDBRANCH  27  28
ENDBRANCH  26  27
ENDBRANCH  24  26
ENDBRANCH   7  24
BRANCH   8  33
HETATM   33  C19 UNL     1    -133.941-172.782 365.578  1.00  0.00     0.036 C 
HETATM   34  C20 UNL     1    -132.728-172.837 364.650  1.00  0.00     0.038 C 
HETATM   35  C21 UNL     1    -134.137-174.142 366.192  1.00  0.00     0.038 C 
HETATM   36  C22 UNL     1    -133.664-171.754 366.637  1.00  0.00     0.038 C 
ENDBRANCH   8  33
TORSDOF 13
ENDMDL
MODEL 5
REMARK VINA RESULT: -7.771057549      1.462      1.758
REMARK  13 active torsions:
REMARK  status: ('A' for Active; 'I' for Inactive)
REMARK       I    between atoms: C2_4  and  N2_5 
REMARK       I    between atoms: C2_4  and  N6_31 
REMARK    1  A    between atoms: C3_7  and  C4_8 
REMARK    2  A    between atoms: C3_7  and  N5_22 
REMARK    3  A    between atoms: C4_8  and  C5_9 
REMARK    4  A    between atoms: C5_9  and  C6_10 
REMARK    5  A    between atoms: C6_10  and  N3_11 
REMARK       I    between atoms: N3_11  and  C7_13 
REMARK    6  A    between atoms: C7_13  and  C8_15 
REMARK    7  A    between atoms: N5_22  and  C13_24 
REMARK    8  A    between atoms: C13_24  and  C14_25 
REMARK    9  A    between atoms: C14_25  and  C15_26 
REMARK   10  A    between atoms: C15_26  and  C16_27 
REMARK   11  A    between atoms: C16_27  and  C17_28 
REMARK   12  A    between atoms: C17_28  and  C18_29 
REMARK   13  A    between atoms: N6_31  and  C19_33 
ROOT
HETATM    1  C1  UNL     1    -134.306-171.809 360.900  1.00  0.00     0.165 C 
HETATM    2  N1  UNL     1    -134.371-172.396 362.200  1.00  0.00    -0.231 N 
ATOM      3  H1  UNL     1    -133.771-173.195 362.406  1.00  0.00     0.177 HD
HETATM    4  C2  UNL     1    -135.174-171.947 363.142  1.00  0.00     0.675 C 
HETATM    5  N2  UNL     1    -135.957-170.861 362.772  1.00  0.00    -0.178 N 
ATOM      6  H2  UNL     1    -135.543-169.930 362.729  1.00  0.00     0.185 HD
HETATM    7  C3  UNL     1    -137.253-171.027 362.471  1.00  0.00     0.113 C 
HETATM    8  N6  UNL     1    -135.158-172.527 364.423  1.00  0.00    -0.218 N 
ATOM      9  H6  UNL     1    -136.041-172.659 364.917  1.00  0.00     0.178 HD
ENDROOT
BRANCH   7  10
HETATM   10  C4  UNL     1    -137.758-172.383 362.560  1.00  0.00     0.024 C 
BRANCH  10  11
HETATM   11  C5  UNL     1    -138.706-172.852 363.574  1.00  0.00     0.050 C 
BRANCH  11  12
HETATM   12  C6  UNL     1    -139.814-171.897 363.960  1.00  0.00     0.127 C 
BRANCH  12  13
HETATM   13  N3  UNL     1    -140.807-171.891 362.837  1.00  0.00    -0.356 N 
HETATM   14  C7  UNL     1    -142.129-171.449 363.106  1.00  0.00     0.263 C 
HETATM   15  O1  UNL     1    -142.324-171.120 364.336  1.00  0.00    -0.266 OA
ATOM     16  H3  UNL     1    -140.539-172.197 361.901  1.00  0.00     0.162 HD
BRANCH  14  17
HETATM   17  C8  UNL     1    -143.199-171.376 362.156  1.00  0.00     0.073 C 
HETATM   18  C9  UNL     1    -143.733-170.129 361.641  1.00  0.00     0.062 C 
HETATM   19  C10 UNL     1    -145.134-170.335 361.035  1.00  0.00     0.008 C 
HETATM   20  C11 UNL     1    -145.250-171.576 360.225  1.00  0.00     0.020 C 
HETATM   21  C12 UNL     1    -144.315-172.692 360.488  1.00  0.00     0.119 C 
HETATM   22  N4  UNL     1    -143.094-172.420 361.134  1.00  0.00    -0.389 N 
ATOM     23  H4  UNL     1    -142.223-172.901 360.912  1.00  0.00     0.159 HD
ENDBRANCH  14  17
ENDBRANCH  12  13
ENDBRANCH  11  12
ENDBRANCH  10  11
ENDBRANCH   7  10
BRANCH   7  24
HETATM   24  N5  UNL     1    -137.937-169.903 362.031  1.00  0.00    -0.376 N 
ATOM     25  H5  UNL     1    -138.013-169.078 362.627  1.00  0.00     0.161 HD
BRANCH  24  26
HETATM   26  C13 UNL     1    -138.554-169.916 360.687  1.00  0.00     0.121 C 
BRANCH  26  27
HETATM   27  C14 UNL     1    -137.613-169.266 359.685  1.00  0.00     0.020 C 
BRANCH  27  28
HETATM   28  C15 UNL     1    -137.235-170.268 358.647  1.00  0.00     0.002 C 
BRANCH  28  29
HETATM   29  C16 UNL     1    -137.442-169.716 357.239  1.00  0.00     0.001 C 
BRANCH  29  30
HETATM   30  C17 UNL     1    -138.904-169.572 356.947  1.00  0.00     0.011 C 
BRANCH  30  31
HETATM   31  C18 UNL     1    -139.551-170.952 356.823  1.00  0.00     0.085 C 
HETATM   32 BR1  UNL     1    -140.958-171.257 358.071  1.00  0.00    -0.097 Br
ENDBRANCH  30  31
ENDBRANCH  29  30
ENDBRANCH  28  29
ENDBRANCH  27  28
ENDBRANCH  26  27
ENDBRANCH  24  26
ENDBRANCH   7  24
BRANCH   8  33
HETATM   33  C19 UNL     1    -133.925-172.943 365.063  1.00  0.00     0.036 C 
HETATM   34  C20 UNL     1    -134.215-173.813 366.285  1.00  0.00     0.038 C 
HETATM   35  C21 UNL     1    -133.167-171.723 365.511  1.00  0.00     0.038 C 
HETATM   36  C22 UNL     1    -133.105-173.757 364.103  1.00  0.00     0.038 C 
ENDBRANCH   8  33
TORSDOF 13
ENDMDL
