MODEL 1
REMARK VINA RESULT: -7.853647631      0.000      0.000
REMARK  6 active torsions:
REMARK  status: ('A' for Active; 'I' for Inactive)
REMARK    1  A    between atoms: C5_5  and  O1_6 
REMARK    2  A    between atoms: C8_10  and  C9_11 
REMARK    3  A    between atoms: C10_12  and  O2_13 
REMARK    4  A    between atoms: C12_16  and  O3_17 
REMARK    5  A    between atoms: C13_19  and  C14_20 
REMARK    6  A    between atoms: C22_29  and  O5_30 
ROOT
HETATM    1  C9  UNL     1       3.534  -5.897   5.117  1.00  0.00     0.034 A 
HETATM    2  C10 UNL     1       4.007  -7.156   4.804  1.00  0.00     0.081 A 
HETATM    3  C11 UNL     1       5.256  -7.409   4.197  1.00  0.00     0.074 A 
HETATM    4  C12 UNL     1       6.049  -6.332   3.903  1.00  0.00     0.080 A 
HETATM    5  C13 UNL     1       5.651  -5.006   4.184  1.00  0.00     0.038 A 
HETATM    6  C22 UNL     1       4.407  -4.815   4.785  1.00  0.00     0.090 A 
ENDROOT
BRANCH   1   7
HETATM    7  C8  UNL     1       2.306  -5.791   5.894  1.00  0.00    -0.054 C 
HETATM    8  C2  UNL     1       2.439  -5.771   7.406  1.00  0.00     0.012 C 
HETATM    9  C1  UNL     1       3.777  -6.282   7.843  1.00  0.00     0.015 C 
HETATM   10  C3  UNL     1       2.277  -4.323   7.907  1.00  0.00     0.011 C 
HETATM   11  C4  UNL     1       1.080  -3.659   7.400  1.00  0.00     0.033 C 
HETATM   12  C5  UNL     1       0.414  -4.118   6.191  1.00  0.00     0.126 C 
HETATM   13  C6  UNL     1       1.084  -5.159   5.350  1.00  0.00     0.041 C 
HETATM   14  C7  UNL     1      -0.047  -6.201   5.084  1.00  0.00     0.017 C 
BRANCH  12  15
HETATM   15  O1  UNL     1       0.079  -3.042   5.367  1.00  0.00    -0.395 OA
ATOM     16  H1  UNL     1      -0.586  -2.499   5.773  1.00  0.00     0.210 HD
ENDBRANCH  12  15
ENDBRANCH   1   7
BRANCH   2  17
HETATM   17  O2  UNL     1       3.251  -8.248   5.075  1.00  0.00    -0.360 OA
ATOM     18  H2  UNL     1       3.610  -8.953   5.600  1.00  0.00     0.217 HD
ENDBRANCH   2  17
BRANCH   6  19
HETATM   19  O5  UNL     1       3.940  -3.591   5.097  1.00  0.00    -0.359 OA
ATOM     20  H5  UNL     1       4.561  -2.882   4.980  1.00  0.00     0.217 HD
ENDBRANCH   6  19
BRANCH   5  21
HETATM   21  C14 UNL     1       6.709  -4.003   3.976  1.00  0.00     0.165 C 
HETATM   22  O4  UNL     1       6.680  -3.233   5.153  1.00  0.00    -0.381 OA
HETATM   23  C15 UNL     1       6.964  -1.965   5.238  1.00  0.00     0.169 C 
HETATM   24  C16 UNL     1       7.340  -1.148   4.006  1.00  0.00     0.032 C 
HETATM   25  C17 UNL     1       7.956  -2.177   3.150  1.00  0.00     0.003 A 
HETATM   26  C18 UNL     1       6.676  -3.047   2.865  1.00  0.00     0.032 A 
HETATM   27  C19 UNL     1       7.692  -2.759   1.881  1.00  0.00    -0.037 A 
HETATM   28  C20 UNL     1       7.449  -1.859   0.721  1.00  0.00     0.015 C 
HETATM   29  C21 UNL     1       8.788  -3.782   1.455  1.00  0.00     0.015 C 
ENDBRANCH   5  21
BRANCH   4  30
HETATM   30  O3  UNL     1       7.286  -6.504   3.309  1.00  0.00    -0.360 OA
ATOM     31  H3  UNL     1       7.892  -5.778   3.229  1.00  0.00     0.217 HD
ENDBRANCH   4  30
TORSDOF 6
ENDMDL
MODEL 2
REMARK VINA RESULT: -7.674389510      7.792     11.407
REMARK  6 active torsions:
REMARK  status: ('A' for Active; 'I' for Inactive)
REMARK    1  A    between atoms: C5_5  and  O1_6 
REMARK    2  A    between atoms: C8_10  and  C9_11 
REMARK    3  A    between atoms: C10_12  and  O2_13 
REMARK    4  A    between atoms: C12_16  and  O3_17 
REMARK    5  A    between atoms: C13_19  and  C14_20 
REMARK    6  A    between atoms: C22_29  and  O5_30 
ROOT
HETATM    1  C9  UNL     1       0.284  -6.365  11.587  1.00  0.00     0.034 A 
HETATM    2  C10 UNL     1       1.311  -6.862  10.810  1.00  0.00     0.081 A 
HETATM    3  C11 UNL     1       1.414  -8.205  10.389  1.00  0.00     0.074 A 
HETATM    4  C12 UNL     1       0.426  -9.070  10.779  1.00  0.00     0.080 A 
HETATM    5  C13 UNL     1      -0.664  -8.657  11.576  1.00  0.00     0.038 A 
HETATM    6  C22 UNL     1      -0.715  -7.317  11.962  1.00  0.00     0.090 A 
ENDROOT
BRANCH   1   7
HETATM    7  C8  UNL     1       0.212  -4.926  11.806  1.00  0.00    -0.054 C 
HETATM    8  C2  UNL     1      -0.585  -4.110  10.804  1.00  0.00     0.012 C 
HETATM    9  C1  UNL     1      -0.812  -4.873   9.536  1.00  0.00     0.015 C 
HETATM   10  C3  UNL     1      -1.954  -3.756  11.418  1.00  0.00     0.011 C 
HETATM   11  C4  UNL     1      -1.862  -3.156  12.745  1.00  0.00     0.033 C 
HETATM   12  C5  UNL     1      -0.685  -3.341  13.581  1.00  0.00     0.126 C 
HETATM   13  C6  UNL     1       0.356  -4.327  13.151  1.00  0.00     0.041 C 
HETATM   14  C7  UNL     1       1.693  -3.538  13.301  1.00  0.00     0.017 C 
BRANCH  12  15
HETATM   15  O1  UNL     1      -1.050  -3.639  14.895  1.00  0.00    -0.395 OA
ATOM     16  H1  UNL     1      -0.801  -2.936  15.483  1.00  0.00     0.210 HD
ENDBRANCH  12  15
ENDBRANCH   1   7
BRANCH   2  17
HETATM   17  O2  UNL     1       2.310  -6.039  10.406  1.00  0.00    -0.360 OA
ATOM     18  H2  UNL     1       3.215  -6.292  10.546  1.00  0.00     0.217 HD
ENDBRANCH   2  17
BRANCH   6  19
HETATM   19  O5  UNL     1      -1.715  -6.824  12.717  1.00  0.00    -0.359 OA
ATOM     20  H5  UNL     1      -2.023  -7.404  13.404  1.00  0.00     0.217 HD
ENDBRANCH   6  19
BRANCH   5  21
HETATM   21  C14 UNL     1      -1.717  -9.673  11.731  1.00  0.00     0.165 C 
HETATM   22  O4  UNL     1      -2.861  -9.060  11.188  1.00  0.00    -0.381 OA
HETATM   23  C15 UNL     1      -4.088  -9.259  11.578  1.00  0.00     0.169 C 
HETATM   24  C16 UNL     1      -4.413 -10.194  12.738  1.00  0.00     0.032 C 
HETATM   25  C17 UNL     1      -3.302 -11.159  12.656  1.00  0.00     0.003 A 
HETATM   26  C18 UNL     1      -2.120 -10.193  13.041  1.00  0.00     0.032 A 
HETATM   27  C19 UNL     1      -2.221 -11.563  13.486  1.00  0.00    -0.037 A 
HETATM   28  C20 UNL     1      -2.506 -11.925  14.901  1.00  0.00     0.015 C 
HETATM   29  C21 UNL     1      -1.396 -12.730  12.864  1.00  0.00     0.015 C 
ENDBRANCH   5  21
BRANCH   4  30
HETATM   30  O3  UNL     1       0.460 -10.400  10.404  1.00  0.00    -0.360 OA
ATOM     31  H3  UNL     1      -0.332 -10.924  10.396  1.00  0.00     0.217 HD
ENDBRANCH   4  30
TORSDOF 6
ENDMDL
MODEL 3
REMARK VINA RESULT: -7.590630891      3.626      8.039
REMARK  6 active torsions:
REMARK  status: ('A' for Active; 'I' for Inactive)
REMARK    1  A    between atoms: C5_5  and  O1_6 
REMARK    2  A    between atoms: C8_10  and  C9_11 
REMARK    3  A    between atoms: C10_12  and  O2_13 
REMARK    4  A    between atoms: C12_16  and  O3_17 
REMARK    5  A    between atoms: C13_19  and  C14_20 
REMARK    6  A    between atoms: C22_29  and  O5_30 
ROOT
HETATM    1  C9  UNL     1       2.994  -5.170   7.584  1.00  0.00     0.034 A 
HETATM    2  C10 UNL     1       3.314  -6.473   7.909  1.00  0.00     0.081 A 
HETATM    3  C11 UNL     1       2.867  -7.137   9.070  1.00  0.00     0.074 A 
HETATM    4  C12 UNL     1       2.060  -6.440   9.930  1.00  0.00     0.080 A 
HETATM    5  C13 UNL     1       1.679  -5.102   9.686  1.00  0.00     0.038 A 
HETATM    6  C22 UNL     1       2.149  -4.496   8.521  1.00  0.00     0.090 A 
ENDROOT
BRANCH   1   7
HETATM    7  C8  UNL     1       3.382  -4.665   6.274  1.00  0.00    -0.054 C 
HETATM    8  C2  UNL     1       2.325  -4.672   5.184  1.00  0.00     0.012 C 
HETATM    9  C1  UNL     1       1.188  -5.581   5.533  1.00  0.00     0.015 C 
HETATM   10  C3  UNL     1       1.777  -3.243   5.006  1.00  0.00     0.011 C 
HETATM   11  C4  UNL     1       2.817  -2.235   4.828  1.00  0.00     0.033 C 
HETATM   12  C5  UNL     1       4.183  -2.469   5.272  1.00  0.00     0.126 C 
HETATM   13  C6  UNL     1       4.473  -3.680   6.103  1.00  0.00     0.041 C 
HETATM   14  C7  UNL     1       5.726  -4.305   5.416  1.00  0.00     0.017 C 
BRANCH  12  15
HETATM   15  O1  UNL     1       4.688  -1.351   5.939  1.00  0.00    -0.395 OA
ATOM     16  H1  UNL     1       5.631  -1.299   5.846  1.00  0.00     0.210 HD
ENDBRANCH  12  15
ENDBRANCH   1   7
BRANCH   2  17
HETATM   17  O2  UNL     1       4.113  -7.196   7.086  1.00  0.00    -0.360 OA
ATOM     18  H2  UNL     1       4.568  -7.960   7.421  1.00  0.00     0.217 HD
ENDBRANCH   2  17
BRANCH   6  19
HETATM   19  O5  UNL     1       1.839  -3.226   8.196  1.00  0.00    -0.359 OA
ATOM     20  H5  UNL     1       2.303  -2.560   8.689  1.00  0.00     0.217 HD
ENDBRANCH   6  19
BRANCH   5  21
HETATM   21  C14 UNL     1       0.660  -4.587  10.614  1.00  0.00     0.165 C 
HETATM   22  O4  UNL     1       1.389  -4.266  11.774  1.00  0.00    -0.381 OA
HETATM   23  C15 UNL     1       0.943  -4.334  12.995  1.00  0.00     0.169 C 
HETATM   24  C16 UNL     1      -0.469  -4.822  13.302  1.00  0.00     0.032 C 
HETATM   25  C17 UNL     1      -1.187  -4.428  12.077  1.00  0.00     0.003 A 
HETATM   26  C18 UNL     1      -0.475  -5.399  11.062  1.00  0.00     0.032 A 
HETATM   27  C19 UNL     1      -1.886  -5.090  11.030  1.00  0.00    -0.037 A 
HETATM   28  C20 UNL     1      -2.931  -6.086  11.391  1.00  0.00     0.015 C 
HETATM   29  C21 UNL     1      -2.523  -4.093  10.016  1.00  0.00     0.015 C 
ENDBRANCH   5  21
BRANCH   4  30
HETATM   30  O3  UNL     1       1.583  -7.027  11.088  1.00  0.00    -0.360 OA
ATOM     31  H3  UNL     1       0.650  -7.094  11.251  1.00  0.00     0.217 HD
ENDBRANCH   4  30
TORSDOF 6
ENDMDL
MODEL 4
REMARK VINA RESULT: -7.579230523      1.976      4.327
REMARK  6 active torsions:
REMARK  status: ('A' for Active; 'I' for Inactive)
REMARK    1  A    between atoms: C5_5  and  O1_6 
REMARK    2  A    between atoms: C8_10  and  C9_11 
REMARK    3  A    between atoms: C10_12  and  O2_13 
REMARK    4  A    between atoms: C12_16  and  O3_17 
REMARK    5  A    between atoms: C13_19  and  C14_20 
REMARK    6  A    between atoms: C22_29  and  O5_30 
ROOT
HETATM    1  C9  UNL     1       1.916  -5.392   6.569  1.00  0.00     0.034 A 
HETATM    2  C10 UNL     1       1.077  -4.299   6.652  1.00  0.00     0.081 A 
HETATM    3  C11 UNL     1       1.343  -3.044   6.064  1.00  0.00     0.074 A 
HETATM    4  C12 UNL     1       2.512  -2.906   5.364  1.00  0.00     0.080 A 
HETATM    5  C13 UNL     1       3.435  -3.965   5.225  1.00  0.00     0.038 A 
HETATM    6  C22 UNL     1       3.120  -5.185   5.826  1.00  0.00     0.090 A 
ENDROOT
BRANCH   1   7
HETATM    7  C8  UNL     1       1.441  -6.673   7.077  1.00  0.00    -0.054 C 
HETATM    8  C2  UNL     1       0.773  -7.609   6.086  1.00  0.00     0.012 C 
HETATM    9  C1  UNL     1       0.348  -6.880   4.849  1.00  0.00     0.015 C 
HETATM   10  C3  UNL     1       1.769  -8.715   5.688  1.00  0.00     0.011 C 
HETATM   11  C4  UNL     1       2.383  -9.387   6.829  1.00  0.00     0.033 C 
HETATM   12  C5  UNL     1       2.439  -8.756   8.139  1.00  0.00     0.126 C 
HETATM   13  C6  UNL     1       2.040  -7.319   8.265  1.00  0.00     0.041 C 
HETATM   14  C7  UNL     1       1.072  -7.312   9.488  1.00  0.00     0.017 C 
BRANCH  12  15
HETATM   15  O1  UNL     1       3.703  -8.910   8.711  1.00  0.00    -0.395 OA
ATOM     16  H1  UNL     1       3.640  -9.317   9.567  1.00  0.00     0.210 HD
ENDBRANCH  12  15
ENDBRANCH   1   7
BRANCH   2  17
HETATM   17  O2  UNL     1      -0.088  -4.394   7.339  1.00  0.00    -0.360 OA
ATOM     18  H2  UNL     1      -0.822  -3.839   7.104  1.00  0.00     0.217 HD
ENDBRANCH   2  17
BRANCH   6  19
HETATM   19  O5  UNL     1       3.932  -6.256   5.747  1.00  0.00    -0.359 OA
ATOM     20  H5  UNL     1       4.255  -6.452   4.876  1.00  0.00     0.217 HD
ENDBRANCH   6  19
BRANCH   5  21
HETATM   21  C14 UNL     1       4.532  -3.689   4.283  1.00  0.00     0.165 C 
HETATM   22  O4  UNL     1       4.367  -4.659   3.277  1.00  0.00    -0.381 OA
HETATM   23  C15 UNL     1       5.323  -5.203   2.582  1.00  0.00     0.169 C 
HETATM   24  C16 UNL     1       6.787  -4.850   2.826  1.00  0.00     0.032 C 
HETATM   25  C17 UNL     1       6.674  -3.465   3.317  1.00  0.00     0.003 A 
HETATM   26  C18 UNL     1       5.941  -3.754   4.680  1.00  0.00     0.032 A 
HETATM   27  C19 UNL     1       6.981  -2.765   4.516  1.00  0.00    -0.037 A 
HETATM   28  C20 UNL     1       8.337  -2.925   5.107  1.00  0.00     0.015 C 
HETATM   29  C21 UNL     1       6.700  -1.236   4.402  1.00  0.00     0.015 C 
ENDBRANCH   5  21
BRANCH   4  30
HETATM   30  O3  UNL     1       2.838  -1.705   4.761  1.00  0.00    -0.360 OA
ATOM     31  H3  UNL     1       2.974  -0.921   5.279  1.00  0.00     0.217 HD
ENDBRANCH   4  30
TORSDOF 6
ENDMDL
MODEL 5
REMARK VINA RESULT: -7.569174248      1.467      2.621
REMARK  6 active torsions:
REMARK  status: ('A' for Active; 'I' for Inactive)
REMARK    1  A    between atoms: C5_5  and  O1_6 
REMARK    2  A    between atoms: C8_10  and  C9_11 
REMARK    3  A    between atoms: C10_12  and  O2_13 
REMARK    4  A    between atoms: C12_16  and  O3_17 
REMARK    5  A    between atoms: C13_19  and  C14_20 
REMARK    6  A    between atoms: C22_29  and  O5_30 
ROOT
HETATM    1  C9  UNL     1       4.407  -6.168   5.469  1.00  0.00     0.034 A 
HETATM    2  C10 UNL     1       4.909  -7.371   5.015  1.00  0.00     0.081 A 
HETATM    3  C11 UNL     1       6.030  -7.496   4.167  1.00  0.00     0.074 A 
HETATM    4  C12 UNL     1       6.660  -6.346   3.771  1.00  0.00     0.080 A 
HETATM    5  C13 UNL     1       6.220  -5.069   4.182  1.00  0.00     0.038 A 
HETATM    6  C22 UNL     1       5.107  -5.004   5.022  1.00  0.00     0.090 A 
ENDROOT
BRANCH   1   7
HETATM    7  C8  UNL     1       3.352  -6.191   6.473  1.00  0.00    -0.054 C 
HETATM    8  C2  UNL     1       1.925  -6.351   5.979  1.00  0.00     0.012 C 
HETATM    9  C1  UNL     1       1.816  -6.040   4.519  1.00  0.00     0.015 C 
HETATM   10  C3  UNL     1       1.473  -7.806   6.208  1.00  0.00     0.011 C 
HETATM   11  C4  UNL     1       1.693  -8.279   7.571  1.00  0.00     0.033 C 
HETATM   12  C5  UNL     1       2.670  -7.646   8.444  1.00  0.00     0.126 C 
HETATM   13  C6  UNL     1       3.600  -6.627   7.865  1.00  0.00     0.041 C 
HETATM   14  C7  UNL     1       3.519  -5.440   8.875  1.00  0.00     0.017 C 
BRANCH  12  15
HETATM   15  O1  UNL     1       3.435  -8.604   9.112  1.00  0.00    -0.395 OA
ATOM     16  H1  UNL     1       4.356  -8.374   9.096  1.00  0.00     0.210 HD
ENDBRANCH  12  15
ENDBRANCH   1   7
BRANCH   2  17
HETATM   17  O2  UNL     1       4.312  -8.532   5.379  1.00  0.00    -0.360 OA
ATOM     18  H2  UNL     1       3.654  -8.530   6.064  1.00  0.00     0.217 HD
ENDBRANCH   2  17
BRANCH   6  19
HETATM   19  O5  UNL     1       4.613  -3.835   5.472  1.00  0.00    -0.359 OA
ATOM     20  H5  UNL     1       3.740  -3.883   5.842  1.00  0.00     0.217 HD
ENDBRANCH   6  19
BRANCH   5  21
HETATM   21  C14 UNL     1       7.131  -3.971   3.818  1.00  0.00     0.165 C 
HETATM   22  O4  UNL     1       7.134  -3.142   4.954  1.00  0.00    -0.381 OA
HETATM   23  C15 UNL     1       7.280  -1.848   4.951  1.00  0.00     0.169 C 
HETATM   24  C16 UNL     1       7.435  -1.067   3.650  1.00  0.00     0.032 C 
HETATM   25  C17 UNL     1       8.074  -2.071   2.781  1.00  0.00     0.003 A 
HETATM   26  C18 UNL     1       6.878  -3.089   2.674  1.00  0.00     0.032 A 
HETATM   27  C19 UNL     1       7.750  -2.750   1.575  1.00  0.00    -0.037 A 
HETATM   28  C20 UNL     1       7.291  -1.949   0.407  1.00  0.00     0.015 C 
HETATM   29  C21 UNL     1       8.906  -3.671   1.081  1.00  0.00     0.015 C 
ENDBRANCH   5  21
BRANCH   4  30
HETATM   30  O3  UNL     1       7.765  -6.392   2.942  1.00  0.00    -0.360 OA
ATOM     31  H3  UNL     1       7.706  -6.114   2.036  1.00  0.00     0.217 HD
ENDBRANCH   4  30
TORSDOF 6
ENDMDL
