MODEL 1
REMARK VINA RESULT: -7.843933660      0.000      0.000
REMARK  5 active torsions:
REMARK  status: ('A' for Active; 'I' for Inactive)
REMARK    1  A    between atoms: C5_5  and  C6_6 
REMARK    2  A    between atoms: C9_9  and  O1_10 
REMARK    3  A    between atoms: C10_12  and  C11_13 
REMARK    4  A    between atoms: C18_24  and  O3_25 
REMARK    5  A    between atoms: C19_27  and  O4_28 
ROOT
HETATM    1  C1  UNL     1       0.626  -8.455   9.123  1.00  0.00     0.050 C 
HETATM    2  C2  UNL     1       0.529  -7.364  10.121  1.00  0.00    -0.037 A 
HETATM    3  C3  UNL     1      -0.013  -7.606  11.371  1.00  0.00    -0.018 A 
HETATM    4  C4  UNL     1      -0.255  -6.576  12.306  1.00  0.00    -0.003 A 
HETATM    5  C5  UNL     1       0.083  -5.253  11.979  1.00  0.00     0.009 A 
HETATM    6  C9  UNL     1       0.632  -5.015  10.718  1.00  0.00     0.087 A 
HETATM    7  C10 UNL     1       0.847  -6.070   9.803  1.00  0.00     0.038 A 
HETATM    8  C18 UNL     1      -1.012  -6.773  13.563  1.00  0.00     0.182 C 
HETATM    9  C19 UNL     1      -1.180  -8.220  13.976  1.00  0.00     0.155 C 
HETATM   10  C20 UNL     1      -1.431  -9.052  12.684  1.00  0.00     0.069 C 
HETATM   11  C21 UNL     1      -0.153  -8.953  11.931  1.00  0.00    -0.070 C 
HETATM   12  C22 UNL     1       0.374 -10.172  11.331  1.00  0.00     0.044 C 
ENDROOT
BRANCH   7  13
HETATM   13  C11 UNL     1       1.441  -5.705   8.513  1.00  0.00     0.360 C 
HETATM   14  N1  UNL     1       0.623  -4.783   7.754  1.00  0.00    -0.037 N 
HETATM   15  C12 UNL     1       1.544  -3.823   7.267  1.00  0.00     0.223 C 
ATOM     16  H12 UNL     1       0.057  -5.224   7.030  1.00  0.00     0.281 HD
ATOM     17  H11 UNL     1      -0.157  -4.386   8.278  1.00  0.00     0.281 HD
HETATM   18  C13 UNL     1       1.615  -3.526   5.817  1.00  0.00     0.036 C 
HETATM   19  C16 UNL     1       2.840  -4.612   7.384  1.00  0.00     0.088 C 
HETATM   20  C14 UNL     1       3.076  -3.043   5.722  1.00  0.00     0.005 C 
HETATM   21  C15 UNL     1       3.755  -3.506   7.026  1.00  0.00     0.040 C 
HETATM   22  C17 UNL     1       2.964  -5.734   6.421  1.00  0.00     0.048 C 
HETATM   23  O2  UNL     1       2.666  -4.968   8.693  1.00  0.00    -0.342 OA
ENDBRANCH   7  13
BRANCH   6  24
HETATM   24  O1  UNL     1       0.981  -3.757  10.331  1.00  0.00    -0.359 OA
ATOM     25  H1  UNL     1       0.390  -3.024  10.458  1.00  0.00     0.217 HD
ENDBRANCH   6  24
BRANCH   5  26
HETATM   26  C6  UNL     1      -0.139  -4.201  12.961  1.00  0.00    -0.074 C 
HETATM   27  C7  UNL     1      -1.360  -3.332  12.600  1.00  0.00     0.044 C 
HETATM   28  C8  UNL     1       0.863  -3.575  13.809  1.00  0.00     0.044 C 
ENDBRANCH   5  26
BRANCH   8  29
HETATM   29  O3  UNL     1      -2.411  -6.471  13.258  1.00  0.00    -0.388 OA
ATOM     30  H3  UNL     1      -2.881  -6.504  14.083  1.00  0.00     0.210 HD
ENDBRANCH   8  29
BRANCH   9  31
HETATM   31  O4  UNL     1      -0.103  -8.745  14.621  1.00  0.00    -0.392 OA
ATOM     32  H4  UNL     1      -0.250  -9.610  14.984  1.00  0.00     0.210 HD
ENDBRANCH   9  31
TORSDOF 5
ENDMDL
MODEL 2
REMARK VINA RESULT: -7.650083540      2.044      6.416
REMARK  5 active torsions:
REMARK  status: ('A' for Active; 'I' for Inactive)
REMARK    1  A    between atoms: C5_5  and  C6_6 
REMARK    2  A    between atoms: C9_9  and  O1_10 
REMARK    3  A    between atoms: C10_12  and  C11_13 
REMARK    4  A    between atoms: C18_24  and  O3_25 
REMARK    5  A    between atoms: C19_27  and  O4_28 
ROOT
HETATM    1  C1  UNL     1       1.458  -8.494   9.862  1.00  0.00     0.050 C 
HETATM    2  C2  UNL     1       1.578  -7.299   8.995  1.00  0.00    -0.037 A 
HETATM    3  C3  UNL     1       2.000  -7.427   7.683  1.00  0.00    -0.018 A 
HETATM    4  C4  UNL     1       2.263  -6.312   6.858  1.00  0.00    -0.003 A 
HETATM    5  C5  UNL     1       2.073  -5.016   7.366  1.00  0.00     0.009 A 
HETATM    6  C9  UNL     1       1.645  -4.893   8.688  1.00  0.00     0.087 A 
HETATM    7  C10 UNL     1       1.405  -6.033   9.488  1.00  0.00     0.038 A 
HETATM    8  C18 UNL     1       2.902  -6.412   5.527  1.00  0.00     0.182 C 
HETATM    9  C19 UNL     1       2.906  -7.805   4.934  1.00  0.00     0.155 C 
HETATM   10  C20 UNL     1       3.176  -8.809   6.093  1.00  0.00     0.069 C 
HETATM   11  C21 UNL     1       1.974  -8.701   6.960  1.00  0.00    -0.070 C 
HETATM   12  C22 UNL     1       1.384  -9.938   7.456  1.00  0.00     0.044 C 
ENDROOT
BRANCH   7  13
HETATM   13  C11 UNL     1       0.945  -5.783  10.859  1.00  0.00     0.360 C 
HETATM   14  N1  UNL     1       1.903  -5.039  11.650  1.00  0.00    -0.037 N 
HETATM   15  C12 UNL     1       1.116  -4.072  12.324  1.00  0.00     0.223 C 
ATOM     16  H12 UNL     1       2.476  -5.616  12.265  1.00  0.00     0.281 HD
ATOM     17  H11 UNL     1       2.676  -4.648  11.112  1.00  0.00     0.281 HD
HETATM   18  C13 UNL     1       1.182  -3.957  13.800  1.00  0.00     0.036 C 
HETATM   19  C16 UNL     1      -0.255  -4.726  12.225  1.00  0.00     0.088 C 
HETATM   20  C14 UNL     1      -0.214  -3.365  14.076  1.00  0.00     0.005 C 
HETATM   21  C15 UNL     1      -1.029  -3.598  12.789  1.00  0.00     0.040 C 
HETATM   22  C17 UNL     1      -0.415  -5.945  13.055  1.00  0.00     0.048 C 
HETATM   23  O2  UNL     1      -0.213  -4.927  10.873  1.00  0.00    -0.342 OA
ENDBRANCH   7  13
BRANCH   6  24
HETATM   24  O1  UNL     1       1.442  -3.669   9.249  1.00  0.00    -0.359 OA
ATOM     25  H1  UNL     1       0.632  -3.466   9.702  1.00  0.00     0.217 HD
ENDBRANCH   6  24
BRANCH   5  26
HETATM   26  C6  UNL     1       2.315  -3.873   6.499  1.00  0.00    -0.074 C 
HETATM   27  C7  UNL     1       3.651  -3.178   6.829  1.00  0.00     0.044 C 
HETATM   28  C8  UNL     1       1.312  -3.049   5.842  1.00  0.00     0.044 C 
ENDBRANCH   5  26
BRANCH   8  29
HETATM   29  O3  UNL     1       4.342  -6.266   5.743  1.00  0.00    -0.388 OA
ATOM     30  H3  UNL     1       4.760  -6.974   5.268  1.00  0.00     0.210 HD
ENDBRANCH   8  29
BRANCH   9  31
HETATM   31  O4  UNL     1       1.740  -8.157   4.326  1.00  0.00    -0.392 OA
ATOM     32  H4  UNL     1       1.733  -9.040   3.977  1.00  0.00     0.210 HD
ENDBRANCH   9  31
TORSDOF 5
ENDMDL
MODEL 3
REMARK VINA RESULT: -7.365244963      4.658     10.018
REMARK  5 active torsions:
REMARK  status: ('A' for Active; 'I' for Inactive)
REMARK    1  A    between atoms: C5_5  and  C6_6 
REMARK    2  A    between atoms: C9_9  and  O1_10 
REMARK    3  A    between atoms: C10_12  and  C11_13 
REMARK    4  A    between atoms: C18_24  and  O3_25 
REMARK    5  A    between atoms: C19_27  and  O4_28 
ROOT
HETATM    1  C1  UNL     1       4.340  -2.702   6.583  1.00  0.00     0.050 C 
HETATM    2  C2  UNL     1       5.116  -3.595   5.691  1.00  0.00    -0.037 A 
HETATM    3  C3  UNL     1       6.068  -3.072   4.834  1.00  0.00    -0.018 A 
HETATM    4  C4  UNL     1       6.736  -3.857   3.870  1.00  0.00    -0.003 A 
HETATM    5  C5  UNL     1       6.451  -5.230   3.780  1.00  0.00     0.009 A 
HETATM    6  C9  UNL     1       5.492  -5.753   4.648  1.00  0.00     0.087 A 
HETATM    7  C10 UNL     1       4.834  -4.932   5.591  1.00  0.00     0.038 A 
HETATM    8  C18 UNL     1       7.605  -3.294   2.813  1.00  0.00     0.182 C 
HETATM    9  C19 UNL     1       8.047  -1.866   3.058  1.00  0.00     0.155 C 
HETATM   10  C20 UNL     1       6.841  -1.100   3.678  1.00  0.00     0.069 C 
HETATM   11  C21 UNL     1       6.646  -1.736   5.007  1.00  0.00    -0.070 C 
HETATM   12  C22 UNL     1       6.415  -0.861   6.149  1.00  0.00     0.044 C 
ENDROOT
BRANCH   7  13
HETATM   13  C11 UNL     1       3.855  -5.592   6.461  1.00  0.00     0.360 C 
HETATM   14  N1  UNL     1       2.725  -6.132   5.734  1.00  0.00    -0.037 N 
HETATM   15  C12 UNL     1       2.534  -7.418   6.298  1.00  0.00     0.223 C 
ATOM     16  H12 UNL     1       1.895  -5.540   5.750  1.00  0.00     0.281 HD
ATOM     17  H11 UNL     1       2.842  -6.133   4.721  1.00  0.00     0.281 HD
HETATM   18  C13 UNL     1       1.208  -7.806   6.834  1.00  0.00     0.036 C 
HETATM   19  C16 UNL     1       3.255  -7.237   7.626  1.00  0.00     0.088 C 
HETATM   20  C14 UNL     1       1.647  -8.861   7.870  1.00  0.00     0.005 C 
HETATM   21  C15 UNL     1       3.159  -8.645   8.072  1.00  0.00     0.040 C 
HETATM   22  C17 UNL     1       2.566  -6.333   8.580  1.00  0.00     0.048 C 
HETATM   23  O2  UNL     1       4.417  -6.761   7.088  1.00  0.00    -0.342 OA
ENDBRANCH   7  13
BRANCH   6  24
HETATM   24  O1  UNL     1       5.162  -7.074   4.616  1.00  0.00    -0.359 OA
ATOM     25  H1  UNL     1       4.721  -7.486   5.350  1.00  0.00     0.217 HD
ENDBRANCH   6  24
BRANCH   5  26
HETATM   26  C6  UNL     1       7.167  -6.040   2.805  1.00  0.00    -0.074 C 
HETATM   27  C7  UNL     1       6.252  -6.481   1.645  1.00  0.00     0.044 C 
HETATM   28  C8  UNL     1       8.331  -6.877   3.054  1.00  0.00     0.044 C 
ENDBRANCH   5  26
BRANCH   8  29
HETATM   29  O3  UNL     1       6.748  -3.057   1.650  1.00  0.00    -0.388 OA
ATOM     30  H3  UNL     1       7.149  -3.517   0.922  1.00  0.00     0.210 HD
ENDBRANCH   8  29
BRANCH   9  31
HETATM   31  O4  UNL     1       9.109  -1.747   3.902  1.00  0.00    -0.392 OA
ATOM     32  H4  UNL     1       9.851  -1.286   3.531  1.00  0.00     0.210 HD
ENDBRANCH   9  31
TORSDOF 5
ENDMDL
MODEL 4
REMARK VINA RESULT: -7.364889023      2.500      7.178
REMARK  5 active torsions:
REMARK  status: ('A' for Active; 'I' for Inactive)
REMARK    1  A    between atoms: C5_5  and  C6_6 
REMARK    2  A    between atoms: C9_9  and  O1_10 
REMARK    3  A    between atoms: C10_12  and  C11_13 
REMARK    4  A    between atoms: C18_24  and  O3_25 
REMARK    5  A    between atoms: C19_27  and  O4_28 
ROOT
HETATM    1  C1  UNL     1       2.155  -8.122   7.983  1.00  0.00     0.050 C 
HETATM    2  C2  UNL     1       2.348  -6.810   7.323  1.00  0.00    -0.037 A 
HETATM    3  C3  UNL     1       2.996  -6.731   6.103  1.00  0.00    -0.018 A 
HETATM    4  C4  UNL     1       3.328  -5.499   5.498  1.00  0.00    -0.003 A 
HETATM    5  C5  UNL     1       2.972  -4.298   6.135  1.00  0.00     0.009 A 
HETATM    6  C9  UNL     1       2.316  -4.384   7.364  1.00  0.00     0.087 A 
HETATM    7  C10 UNL     1       2.014  -5.636   7.945  1.00  0.00     0.038 A 
HETATM    8  C18 UNL     1       4.191  -5.380   4.301  1.00  0.00     0.182 C 
HETATM    9  C19 UNL     1       4.384  -6.672   3.535  1.00  0.00     0.155 C 
HETATM   10  C20 UNL     1       4.513  -7.822   4.576  1.00  0.00     0.069 C 
HETATM   11  C21 UNL     1       3.175  -7.886   5.219  1.00  0.00    -0.070 C 
HETATM   12  C22 UNL     1       2.587  -9.203   5.428  1.00  0.00     0.044 C 
ENDROOT
BRANCH   7  13
HETATM   13  C11 UNL     1       1.311  -5.606   9.232  1.00  0.00     0.360 C 
HETATM   14  N1  UNL     1       2.033  -4.879  10.254  1.00  0.00    -0.037 N 
HETATM   15  C12 UNL     1       1.041  -4.084  10.880  1.00  0.00     0.223 C 
ATOM     16  H12 UNL     1       2.560  -5.471  10.895  1.00  0.00     0.281 HD
ATOM     17  H11 UNL     1       2.834  -4.352   9.906  1.00  0.00     0.281 HD
HETATM   18  C13 UNL     1       0.851  -4.149  12.348  1.00  0.00     0.036 C 
HETATM   19  C16 UNL     1      -0.211  -4.847  10.471  1.00  0.00     0.088 C 
HETATM   20  C14 UNL     1      -0.631  -3.732  12.435  1.00  0.00     0.005 C 
HETATM   21  C15 UNL     1      -1.192  -3.878  11.008  1.00  0.00     0.040 C 
HETATM   22  C17 UNL     1      -0.363  -6.171  11.124  1.00  0.00     0.048 C 
HETATM   23  O2  UNL     1       0.075  -4.872   9.134  1.00  0.00    -0.342 OA
ENDBRANCH   7  13
BRANCH   6  24
HETATM   24  O1  UNL     1       1.944  -3.263   8.040  1.00  0.00    -0.359 OA
ATOM     25  H1  UNL     1       2.491  -2.903   8.729  1.00  0.00     0.217 HD
ENDBRANCH   6  24
BRANCH   5  26
HETATM   26  C6  UNL     1       3.288  -3.033   5.489  1.00  0.00    -0.074 C 
HETATM   27  C7  UNL     1       4.519  -2.357   6.127  1.00  0.00     0.044 C 
HETATM   28  C8  UNL     1       2.360  -2.149   4.802  1.00  0.00     0.044 C 
ENDBRANCH   5  26
BRANCH   8  29
HETATM   29  O3  UNL     1       5.561  -5.213   4.791  1.00  0.00    -0.388 OA
ATOM     30  H3  UNL     1       5.810  -6.042   5.182  1.00  0.00     0.210 HD
ENDBRANCH   8  29
BRANCH   9  31
HETATM   31  O4  UNL     1       3.364  -6.974   2.686  1.00  0.00    -0.392 OA
ATOM     32  H4  UNL     1       2.861  -6.222   2.398  1.00  0.00     0.210 HD
ENDBRANCH   9  31
TORSDOF 5
ENDMDL
MODEL 5
REMARK VINA RESULT: -7.286973714      1.152      1.413
REMARK  5 active torsions:
REMARK  status: ('A' for Active; 'I' for Inactive)
REMARK    1  A    between atoms: C5_5  and  C6_6 
REMARK    2  A    between atoms: C9_9  and  O1_10 
REMARK    3  A    between atoms: C10_12  and  C11_13 
REMARK    4  A    between atoms: C18_24  and  O3_25 
REMARK    5  A    between atoms: C19_27  and  O4_28 
ROOT
HETATM    1  C1  UNL     1       1.672  -8.310   7.819  1.00  0.00     0.050 C 
HETATM    2  C2  UNL     1       1.382  -7.327   8.889  1.00  0.00    -0.037 A 
HETATM    3  C3  UNL     1       0.721  -7.721  10.039  1.00  0.00    -0.018 A 
HETATM    4  C4  UNL     1       0.299  -6.803  11.025  1.00  0.00    -0.003 A 
HETATM    5  C5  UNL     1       0.574  -5.435  10.858  1.00  0.00     0.009 A 
HETATM    6  C9  UNL     1       1.243  -5.044   9.698  1.00  0.00     0.087 A 
HETATM    7  C10 UNL     1       1.637  -5.991   8.726  1.00  0.00     0.038 A 
HETATM    8  C18 UNL     1      -0.578  -7.165  12.160  1.00  0.00     0.182 C 
HETATM    9  C19 UNL     1      -0.685  -8.653  12.422  1.00  0.00     0.155 C 
HETATM   10  C20 UNL     1      -0.725  -9.372  11.041  1.00  0.00     0.069 C 
HETATM   11  C21 UNL     1       0.618  -9.121  10.458  1.00  0.00    -0.070 C 
HETATM   12  C22 UNL     1       1.299 -10.242   9.821  1.00  0.00     0.044 C 
ENDROOT
BRANCH   7  13
HETATM   13  C11 UNL     1       2.346  -5.467   7.553  1.00  0.00     0.360 C 
HETATM   14  N1  UNL     1       1.571  -4.493   6.814  1.00  0.00    -0.037 N 
HETATM   15  C12 UNL     1       2.497  -3.457   6.533  1.00  0.00     0.223 C 
ATOM     16  H12 UNL     1       1.102  -4.869   5.990  1.00  0.00     0.281 HD
ATOM     17  H11 UNL     1       0.726  -4.181   7.291  1.00  0.00     0.281 HD
HETATM   18  C13 UNL     1       2.704  -3.001   5.139  1.00  0.00     0.036 C 
HETATM   19  C16 UNL     1       3.806  -4.215   6.703  1.00  0.00     0.088 C 
HETATM   20  C14 UNL     1       4.146  -2.465   5.253  1.00  0.00     0.005 C 
HETATM   21  C15 UNL     1       4.705  -3.048   6.565  1.00  0.00     0.040 C 
HETATM   22  C17 UNL     1       4.076  -5.219   5.645  1.00  0.00     0.048 C 
HETATM   23  O2  UNL     1       3.513  -4.718   7.941  1.00  0.00    -0.342 OA
ENDBRANCH   7  13
BRANCH   6  24
HETATM   24  O1  UNL     1       1.540  -3.736   9.466  1.00  0.00    -0.359 OA
ATOM     25  H1  UNL     1       1.338  -3.066  10.110  1.00  0.00     0.217 HD
ENDBRANCH   6  24
BRANCH   5  26
HETATM   26  C6  UNL     1       0.165  -4.499  11.894  1.00  0.00    -0.074 C 
HETATM   27  C7  UNL     1      -1.053  -3.659  11.458  1.00  0.00     0.044 C 
HETATM   28  C8  UNL     1       1.011  -3.910  12.921  1.00  0.00     0.044 C 
ENDBRANCH   5  26
BRANCH   8  29
HETATM   29  O3  UNL     1      -1.953  -6.925  11.717  1.00  0.00    -0.388 OA
ATOM     30  H3  UNL     1      -1.914  -6.211  11.092  1.00  0.00     0.210 HD
ENDBRANCH   8  29
BRANCH   9  31
HETATM   31  O4  UNL     1       0.348  -9.169  13.143  1.00  0.00    -0.392 OA
ATOM     32  H4  UNL     1       0.475 -10.103  13.028  1.00  0.00     0.210 HD
ENDBRANCH   9  31
TORSDOF 5
ENDMDL
