MODEL 1
REMARK VINA RESULT: -8.511905513      0.000      0.000
REMARK  5 active torsions:
REMARK  status: ('A' for Active; 'I' for Inactive)
REMARK    1  A    between atoms: C7_7  and  O1_9 
REMARK    2  A    between atoms: C17_19  and  O2_20 
REMARK    3  A    between atoms: C18_22  and  C19_23 
REMARK    4  A    between atoms: N1_24  and  O3_26 
REMARK    5  A    between atoms: C20_28  and  O4_29 
ROOT
HETATM    1  C1  UNL     1       3.090  -6.109   4.317  1.00  0.00     0.011 C 
HETATM    2  C2  UNL     1       4.566  -5.824   4.313  1.00  0.00    -0.009 C 
HETATM    3  C3  UNL     1       4.978  -5.151   3.012  1.00  0.00     0.014 C 
HETATM    4  C4  UNL     1       6.213  -4.299   3.213  1.00  0.00    -0.037 C 
HETATM    5  C5  UNL     1       7.339  -5.183   3.636  1.00  0.00     0.015 C 
HETATM    6  C6  UNL     1       6.575  -3.747   1.849  1.00  0.00     0.046 C 
HETATM    7  C7  UNL     1       7.591  -2.643   1.923  1.00  0.00     0.055 C 
HETATM    8  C8  UNL     1       7.538  -1.940   0.557  1.00  0.00     0.045 C 
HETATM    9  C9  UNL     1       7.218  -1.602   2.942  1.00  0.00     0.038 C 
HETATM   10  C10 UNL     1       7.093  -2.329   4.290  1.00  0.00     0.009 C 
HETATM   11  C11 UNL     1       5.876  -3.185   4.173  1.00  0.00    -0.001 C 
HETATM   12  C12 UNL     1       5.284  -3.672   5.432  1.00  0.00    -0.000 C 
HETATM   13  C13 UNL     1       3.964  -2.936   5.651  1.00  0.00     0.010 C 
HETATM   14  C14 UNL     1       3.518  -3.075   7.069  1.00  0.00     0.040 C 
HETATM   15  C15 UNL     1       3.428  -4.551   7.377  1.00  0.00    -0.046 A 
HETATM   16  C16 UNL     1       2.600  -4.959   8.402  1.00  0.00     0.045 A 
HETATM   17  C17 UNL     1       2.499  -6.271   8.736  1.00  0.00     0.080 A 
HETATM   18  C18 UNL     1       3.247  -7.221   8.028  1.00  0.00     0.048 A 
HETATM   19  C20 UNL     1       4.079  -6.827   7.001  1.00  0.00     0.087 A 
HETATM   20  C21 UNL     1       4.152  -5.477   6.690  1.00  0.00    -0.013 A 
HETATM   21  C22 UNL     1       5.084  -5.159   5.544  1.00  0.00     0.030 C 
ENDROOT
BRANCH  18  22
HETATM   22  C19 UNL     1       3.098  -8.599   8.429  1.00  0.00     0.130 C 
HETATM   23  N1  UNL     1       2.518  -9.446   7.664  1.00  0.00    -0.280 N 
ATOM     24  H1  UNL     1       2.170  -9.110   6.766  1.00  0.00     0.193 HD
BRANCH  23  25
HETATM   25  O3  UNL     1       2.333 -10.756   7.956  1.00  0.00    -0.290 OA
ATOM     26  H3  UNL     1       1.554 -11.256   7.745  1.00  0.00     0.244 HD
ENDBRANCH  23  25
ENDBRANCH  18  22
BRANCH  17  27
HETATM   27  O2  UNL     1       1.659  -6.698   9.778  1.00  0.00    -0.360 OA
ATOM     28  H2  UNL     1       0.730  -6.839   9.639  1.00  0.00     0.217 HD
ENDBRANCH  17  27
BRANCH  19  29
HETATM   29  O4  UNL     1       4.785  -7.793   6.347  1.00  0.00    -0.359 OA
ATOM     30  H4  UNL     1       5.454  -7.514   5.733  1.00  0.00     0.217 HD
ENDBRANCH  19  29
BRANCH   7  31
HETATM   31  O1  UNL     1       8.878  -3.055   2.173  1.00  0.00    -0.390 OA
ATOM     32  H1  UNL     1       9.555  -2.493   1.815  1.00  0.00     0.210 HD
ENDBRANCH   7  31
TORSDOF 5
ENDMDL
MODEL 2
REMARK VINA RESULT: -8.348675073      8.084     12.341
REMARK  5 active torsions:
REMARK  status: ('A' for Active; 'I' for Inactive)
REMARK    1  A    between atoms: C7_7  and  O1_9 
REMARK    2  A    between atoms: C17_19  and  O2_20 
REMARK    3  A    between atoms: C18_22  and  C19_23 
REMARK    4  A    between atoms: N1_24  and  O3_26 
REMARK    5  A    between atoms: C20_28  and  O4_29 
ROOT
HETATM    1  C1  UNL     1      -3.283  -6.884  12.041  1.00  0.00     0.011 C 
HETATM    2  C2  UNL     1      -2.812  -7.893  13.051  1.00  0.00    -0.009 C 
HETATM    3  C3  UNL     1      -3.682  -9.141  13.006  1.00  0.00     0.014 C 
HETATM    4  C4  UNL     1      -2.909 -10.354  13.480  1.00  0.00    -0.037 C 
HETATM    5  C5  UNL     1      -2.508 -10.139  14.901  1.00  0.00     0.015 C 
HETATM    6  C6  UNL     1      -3.888 -11.511  13.468  1.00  0.00     0.046 C 
HETATM    7  C7  UNL     1      -3.208 -12.843  13.618  1.00  0.00     0.055 C 
HETATM    8  C8  UNL     1      -4.249 -13.888  13.185  1.00  0.00     0.045 C 
HETATM    9  C9  UNL     1      -2.048 -12.993  12.674  1.00  0.00     0.038 C 
HETATM   10  C10 UNL     1      -1.079 -11.841  12.980  1.00  0.00     0.009 C 
HETATM   11  C11 UNL     1      -1.770 -10.601  12.521  1.00  0.00    -0.001 C 
HETATM   12  C12 UNL     1      -0.928  -9.410  12.312  1.00  0.00    -0.000 C 
HETATM   13  C13 UNL     1      -0.841  -9.149  10.810  1.00  0.00     0.010 C 
HETATM   14  C14 UNL     1       0.295  -8.228  10.505  1.00  0.00     0.040 C 
HETATM   15  C15 UNL     1       0.088  -6.968  11.311  1.00  0.00    -0.046 A 
HETATM   16  C16 UNL     1       0.681  -5.802  10.871  1.00  0.00     0.045 A 
HETATM   17  C17 UNL     1       0.547  -4.645  11.569  1.00  0.00     0.080 A 
HETATM   18  C18 UNL     1      -0.203  -4.638  12.752  1.00  0.00     0.048 A 
HETATM   19  C20 UNL     1      -0.801  -5.796  13.204  1.00  0.00     0.087 A 
HETATM   20  C21 UNL     1      -0.641  -6.956  12.460  1.00  0.00    -0.013 A 
HETATM   21  C22 UNL     1      -1.345  -8.161  13.041  1.00  0.00     0.030 C 
ENDROOT
BRANCH  18  22
HETATM   22  C19 UNL     1      -0.309  -3.380  13.449  1.00  0.00     0.130 C 
HETATM   23  N1  UNL     1       0.739  -2.759  13.845  1.00  0.00    -0.280 N 
ATOM     24  H1  UNL     1       1.644  -3.187  13.647  1.00  0.00     0.193 HD
BRANCH  23  25
HETATM   25  O3  UNL     1       0.738  -1.576  14.505  1.00  0.00    -0.290 OA
ATOM     26  H3  UNL     1       1.511  -1.139  14.841  1.00  0.00     0.244 HD
ENDBRANCH  23  25
ENDBRANCH  18  22
BRANCH  17  27
HETATM   27  O2  UNL     1       1.146  -3.453  11.130  1.00  0.00    -0.360 OA
ATOM     28  H2  UNL     1       1.906  -3.090  11.570  1.00  0.00     0.217 HD
ENDBRANCH  17  27
BRANCH  19  29
HETATM   29  O4  UNL     1      -1.518  -5.733  14.362  1.00  0.00    -0.359 OA
ATOM     30  H4  UNL     1      -2.111  -6.449  14.557  1.00  0.00     0.217 HD
ENDBRANCH  19  29
BRANCH   7  31
HETATM   31  O1  UNL     1      -2.775 -13.133  14.889  1.00  0.00    -0.390 OA
ATOM     32  H1  UNL     1      -2.047 -12.606  15.195  1.00  0.00     0.210 HD
ENDBRANCH   7  31
TORSDOF 5
ENDMDL
MODEL 3
REMARK VINA RESULT: -8.344377891      3.720      8.825
REMARK  5 active torsions:
REMARK  status: ('A' for Active; 'I' for Inactive)
REMARK    1  A    between atoms: C7_7  and  O1_9 
REMARK    2  A    between atoms: C17_19  and  O2_20 
REMARK    3  A    between atoms: C18_22  and  C19_23 
REMARK    4  A    between atoms: N1_24  and  O3_26 
REMARK    5  A    between atoms: C20_28  and  O4_29 
ROOT
HETATM    1  C1  UNL     1       0.270  -4.676   6.587  1.00  0.00     0.011 C 
HETATM    2  C2  UNL     1       0.261  -4.490   8.080  1.00  0.00    -0.009 C 
HETATM    3  C3  UNL     1      -1.045  -4.995   8.674  1.00  0.00     0.014 C 
HETATM    4  C4  UNL     1      -0.852  -5.424  10.114  1.00  0.00    -0.037 C 
HETATM    5  C5  UNL     1      -0.427  -4.237  10.912  1.00  0.00     0.015 C 
HETATM    6  C6  UNL     1      -2.221  -5.830  10.622  1.00  0.00     0.046 C 
HETATM    7  C7  UNL     1      -2.155  -6.566  11.931  1.00  0.00     0.055 C 
HETATM    8  C8  UNL     1      -3.526  -7.243  12.093  1.00  0.00     0.045 C 
HETATM    9  C9  UNL     1      -1.142  -7.675  11.903  1.00  0.00     0.038 C 
HETATM   10  C10 UNL     1       0.211  -7.029  11.564  1.00  0.00     0.009 C 
HETATM   11  C11 UNL     1       0.103  -6.592  10.142  1.00  0.00    -0.001 C 
HETATM   12  C12 UNL     1       1.366  -6.319   9.434  1.00  0.00    -0.000 C 
HETATM   13  C13 UNL     1       1.583  -7.428   8.407  1.00  0.00     0.010 C 
HETATM   14  C14 UNL     1       3.004  -7.441   7.946  1.00  0.00     0.040 C 
HETATM   15  C15 UNL     1       3.320  -6.067   7.405  1.00  0.00    -0.046 A 
HETATM   16  C16 UNL     1       4.350  -5.940   6.496  1.00  0.00     0.045 A 
HETATM   17  C17 UNL     1       4.692  -4.725   5.994  1.00  0.00     0.080 A 
HETATM   18  C18 UNL     1       3.987  -3.587   6.408  1.00  0.00     0.048 A 
HETATM   19  C20 UNL     1       2.956  -3.699   7.317  1.00  0.00     0.087 A 
HETATM   20  C21 UNL     1       2.637  -4.959   7.803  1.00  0.00    -0.013 A 
HETATM   21  C22 UNL     1       1.487  -4.967   8.783  1.00  0.00     0.030 C 
ENDROOT
BRANCH  18  22
HETATM   22  C19 UNL     1       4.397  -2.326   5.841  1.00  0.00     0.130 C 
HETATM   23  N1  UNL     1       5.601  -1.909   5.969  1.00  0.00    -0.280 N 
ATOM     24  H1  UNL     1       6.253  -2.501   6.484  1.00  0.00     0.193 HD
BRANCH  23  25
HETATM   25  O3  UNL     1       6.074  -0.741   5.472  1.00  0.00    -0.290 OA
ATOM     26  H3  UNL     1       6.956  -0.412   5.601  1.00  0.00     0.244 HD
ENDBRANCH  23  25
ENDBRANCH  18  22
BRANCH  17  27
HETATM   27  O2  UNL     1       5.739  -4.585   5.068  1.00  0.00    -0.360 OA
ATOM     28  H2  UNL     1       6.203  -3.762   4.967  1.00  0.00     0.217 HD
ENDBRANCH  17  27
BRANCH  19  29
HETATM   29  O4  UNL     1       2.306  -2.559   7.686  1.00  0.00    -0.359 OA
ATOM     30  H4  UNL     1       1.467  -2.648   8.123  1.00  0.00     0.217 HD
ENDBRANCH  19  29
BRANCH   7  31
HETATM   31  O1  UNL     1      -1.906  -5.777  13.028  1.00  0.00    -0.390 OA
ATOM     32  H1  UNL     1      -2.637  -5.682  13.627  1.00  0.00     0.210 HD
ENDBRANCH   7  31
TORSDOF 5
ENDMDL
MODEL 4
REMARK VINA RESULT: -8.285301635      3.870      6.307
REMARK  5 active torsions:
REMARK  status: ('A' for Active; 'I' for Inactive)
REMARK    1  A    between atoms: C7_7  and  O1_9 
REMARK    2  A    between atoms: C17_19  and  O2_20 
REMARK    3  A    between atoms: C18_22  and  C19_23 
REMARK    4  A    between atoms: N1_24  and  O3_26 
REMARK    5  A    between atoms: C20_28  and  O4_29 
ROOT
HETATM    1  C1  UNL     1       1.428  -6.583  10.432  1.00  0.00     0.011 C 
HETATM    2  C2  UNL     1       2.072  -5.695   9.403  1.00  0.00    -0.009 C 
HETATM    3  C3  UNL     1       3.125  -6.462   8.617  1.00  0.00     0.014 C 
HETATM    4  C4  UNL     1       3.308  -5.866   7.237  1.00  0.00    -0.037 C 
HETATM    5  C5  UNL     1       3.793  -4.462   7.384  1.00  0.00     0.015 C 
HETATM    6  C6  UNL     1       4.425  -6.652   6.580  1.00  0.00     0.046 C 
HETATM    7  C7  UNL     1       4.524  -6.390   5.104  1.00  0.00     0.055 C 
HETATM    8  C8  UNL     1       5.392  -7.527   4.541  1.00  0.00     0.045 C 
HETATM    9  C9  UNL     1       3.191  -6.504   4.420  1.00  0.00     0.038 C 
HETATM   10  C10 UNL     1       2.258  -5.489   5.100  1.00  0.00     0.009 C 
HETATM   11  C11 UNL     1       2.016  -6.022   6.473  1.00  0.00    -0.001 C 
HETATM   12  C12 UNL     1       0.851  -5.484   7.197  1.00  0.00    -0.000 C 
HETATM   13  C13 UNL     1      -0.205  -6.583   7.279  1.00  0.00     0.010 C 
HETATM   14  C14 UNL     1      -1.536  -6.003   7.631  1.00  0.00     0.040 C 
HETATM   15  C15 UNL     1      -1.374  -5.245   8.927  1.00  0.00    -0.046 A 
HETATM   16  C16 UNL     1      -2.489  -5.039   9.712  1.00  0.00     0.045 A 
HETATM   17  C17 UNL     1      -2.405  -4.344  10.875  1.00  0.00     0.080 A 
HETATM   18  C18 UNL     1      -1.166  -3.831  11.282  1.00  0.00     0.048 A 
HETATM   19  C20 UNL     1      -0.043  -4.028  10.507  1.00  0.00     0.087 A 
HETATM   20  C21 UNL     1      -0.172  -4.745   9.326  1.00  0.00    -0.013 A 
HETATM   21  C22 UNL     1       1.122  -4.911   8.563  1.00  0.00     0.030 C 
ENDROOT
BRANCH  18  22
HETATM   22  C19 UNL     1      -1.140  -3.102  12.526  1.00  0.00     0.130 C 
HETATM   23  N1  UNL     1      -0.089  -3.088  13.257  1.00  0.00    -0.280 N 
ATOM     24  H1  UNL     1       0.723  -3.610  12.926  1.00  0.00     0.193 HD
BRANCH  23  25
HETATM   25  O3  UNL     1       0.027  -2.433  14.437  1.00  0.00    -0.290 OA
ATOM     26  H3  UNL     1      -0.151  -1.509  14.567  1.00  0.00     0.244 HD
ENDBRANCH  23  25
ENDBRANCH  18  22
BRANCH  17  27
HETATM   27  O2  UNL     1      -3.535  -4.129  11.682  1.00  0.00    -0.360 OA
ATOM     28  H2  UNL     1      -3.784  -4.747  12.360  1.00  0.00     0.217 HD
ENDBRANCH  17  27
BRANCH  19  29
HETATM   29  O4  UNL     1       1.136  -3.505  10.949  1.00  0.00    -0.359 OA
ATOM     30  H4  UNL     1       1.176  -3.201  11.849  1.00  0.00     0.217 HD
ENDBRANCH  19  29
BRANCH   7  31
HETATM   31  O1  UNL     1       5.084  -5.181   4.766  1.00  0.00    -0.390 OA
ATOM     32  H1  UNL     1       4.576  -4.420   5.018  1.00  0.00     0.210 HD
ENDBRANCH   7  31
TORSDOF 5
ENDMDL
MODEL 5
REMARK VINA RESULT: -8.253585297      2.193      3.011
REMARK  5 active torsions:
REMARK  status: ('A' for Active; 'I' for Inactive)
REMARK    1  A    between atoms: C7_7  and  O1_9 
REMARK    2  A    between atoms: C17_19  and  O2_20 
REMARK    3  A    between atoms: C18_22  and  C19_23 
REMARK    4  A    between atoms: N1_24  and  O3_26 
REMARK    5  A    between atoms: C20_28  and  O4_29 
ROOT
HETATM    1  C1  UNL     1       3.077  -6.608   4.136  1.00  0.00     0.011 C 
HETATM    2  C2  UNL     1       4.549  -6.907   4.223  1.00  0.00    -0.009 C 
HETATM    3  C3  UNL     1       5.102  -7.272   2.854  1.00  0.00     0.014 C 
HETATM    4  C4  UNL     1       6.579  -6.946   2.765  1.00  0.00    -0.037 C 
HETATM    5  C5  UNL     1       7.310  -7.766   3.776  1.00  0.00     0.015 C 
HETATM    6  C6  UNL     1       7.036  -7.420   1.400  1.00  0.00     0.046 C 
HETATM    7  C7  UNL     1       8.398  -6.899   1.035  1.00  0.00     0.055 C 
HETATM    8  C8  UNL     1       8.530  -7.117  -0.481  1.00  0.00     0.045 C 
HETATM    9  C9  UNL     1       8.512  -5.417   1.255  1.00  0.00     0.038 C 
HETATM   10  C10 UNL     1       8.204  -5.166   2.740  1.00  0.00     0.009 C 
HETATM   11  C11 UNL     1       6.749  -5.453   2.903  1.00  0.00    -0.001 C 
HETATM   12  C12 UNL     1       6.097  -4.910   4.108  1.00  0.00    -0.000 C 
HETATM   13  C13 UNL     1       5.171  -3.776   3.675  1.00  0.00     0.010 C 
HETATM   14  C14 UNL     1       4.795  -2.932   4.848  1.00  0.00     0.040 C 
HETATM   15  C15 UNL     1       4.172  -3.840   5.882  1.00  0.00    -0.046 A 
HETATM   16  C16 UNL     1       3.317  -3.287   6.812  1.00  0.00     0.045 A 
HETATM   17  C17 UNL     1       2.747  -4.052   7.778  1.00  0.00     0.080 A 
HETATM   18  C18 UNL     1       3.033  -5.423   7.827  1.00  0.00     0.048 A 
HETATM   19  C20 UNL     1       3.886  -5.990   6.904  1.00  0.00     0.087 A 
HETATM   20  C21 UNL     1       4.446  -5.172   5.932  1.00  0.00    -0.013 A 
HETATM   21  C22 UNL     1       5.356  -5.898   4.968  1.00  0.00     0.030 C 
ENDROOT
BRANCH  18  22
HETATM   22  C19 UNL     1       2.398  -6.183   8.876  1.00  0.00     0.130 C 
HETATM   23  N1  UNL     1       2.538  -5.850  10.104  1.00  0.00    -0.280 N 
ATOM     24  H1  UNL     1       3.111  -5.032  10.309  1.00  0.00     0.193 HD
BRANCH  23  25
HETATM   25  O3  UNL     1       1.981  -6.503  11.153  1.00  0.00    -0.290 OA
ATOM     26  H3  UNL     1       1.476  -6.091  11.844  1.00  0.00     0.244 HD
ENDBRANCH  23  25
ENDBRANCH  18  22
BRANCH  17  27
HETATM   27  O2  UNL     1       1.875  -3.499   8.730  1.00  0.00    -0.360 OA
ATOM     28  H2  UNL     1       2.161  -3.319   9.618  1.00  0.00     0.217 HD
ENDBRANCH  17  27
BRANCH  19  29
HETATM   29  O4  UNL     1       4.131  -7.327   7.000  1.00  0.00    -0.359 OA
ATOM     30  H4  UNL     1       3.910  -7.873   6.254  1.00  0.00     0.217 HD
ENDBRANCH  19  29
BRANCH   7  31
HETATM   31  O1  UNL     1       9.445  -7.516   1.675  1.00  0.00    -0.390 OA
ATOM     32  H1  UNL     1      10.024  -6.932   2.151  1.00  0.00     0.210 HD
ENDBRANCH   7  31
TORSDOF 5
ENDMDL
