MODEL 1
REMARK VINA RESULT: -7.800458778      0.000      0.000
REMARK  5 active torsions:
REMARK  status: ('A' for Active; 'I' for Inactive)
REMARK    1  A    between atoms: C8_8  and  C9_9 
REMARK    2  A    between atoms: C18_22  and  O2_23 
REMARK    3  A    between atoms: C18_22  and  C19_25 
REMARK    4  A    between atoms: C19_25  and  O3_26 
REMARK    5  A    between atoms: C20_28  and  O4_29 
ROOT
HETATM    1  C1  UNL     1       8.016  -3.295   4.876  1.00  0.00     0.018 C 
HETATM    2  C2  UNL     1       6.871  -2.755   4.060  1.00  0.00    -0.018 C 
HETATM    3  C3  UNL     1       7.407  -1.861   2.960  1.00  0.00     0.018 C 
HETATM    4  C4  UNL     1       5.898  -1.944   4.882  1.00  0.00     0.016 C 
HETATM    5  C5  UNL     1       5.165  -2.794   5.890  1.00  0.00     0.036 C 
HETATM    6  C6  UNL     1       5.093  -4.209   5.525  1.00  0.00    -0.069 C 
HETATM    7  C7  UNL     1       5.517  -4.740   4.375  1.00  0.00    -0.037 C 
HETATM    8  C8  UNL     1       5.326  -6.214   4.252  1.00  0.00     0.077 C 
HETATM    9  C12 UNL     1       3.936  -6.665   4.649  1.00  0.00     0.029 C 
HETATM   10  C13 UNL     1       3.376  -5.936   5.782  1.00  0.00    -0.003 C 
HETATM   11  C14 UNL     1       2.315  -4.943   5.299  1.00  0.00     0.019 C 
HETATM   12  C15 UNL     1       4.511  -5.171   6.478  1.00  0.00     0.026 C 
HETATM   13  C16 UNL     1       3.761  -4.570   7.613  1.00  0.00     0.013 C 
HETATM   14  C17 UNL     1       2.936  -5.745   8.101  1.00  0.00     0.041 C 
HETATM   15  C18 UNL     1       2.803  -6.696   6.905  1.00  0.00     0.087 C 
HETATM   16  C20 UNL     1       6.128  -3.891   3.343  1.00  0.00     0.156 C 
ENDROOT
BRANCH   8  17
HETATM   17  C9  UNL     1       5.525  -6.711   2.870  1.00  0.00     0.080 A 
HETATM   18  C10 UNL     1       6.396  -7.696   2.453  1.00  0.00     0.124 A 
HETATM   19  N1  UNL     1       6.247  -7.819   1.134  1.00  0.00    -0.335 N 
HETATM   20  C11 UNL     1       5.322  -6.951   0.736  1.00  0.00     0.219 A 
ATOM     21  H1  UNL     1       6.755  -8.468   0.533  1.00  0.00     0.168 HD
HETATM   22  S1  UNL     1       4.774  -6.711  -0.811  1.00  0.00    -0.033 SA
HETATM   23  O1  UNL     1       4.909  -6.303   1.788  1.00  0.00    -0.287 OA
ENDBRANCH   8  17
BRANCH  16  24
HETATM   24  O4  UNL     1       7.124  -4.533   2.608  1.00  0.00    -0.390 OA
ATOM     25  H4  UNL     1       7.414  -5.234   3.180  1.00  0.00     0.210 HD
ENDBRANCH  16  24
BRANCH  15  26
HETATM   26  O2  UNL     1       1.437  -6.906   6.676  1.00  0.00    -0.387 OA
ATOM     27  H2  UNL     1       1.019  -6.076   6.478  1.00  0.00     0.210 HD
ENDBRANCH  15  26
BRANCH  15  28
HETATM   28  C19 UNL     1       3.482  -7.996   7.218  1.00  0.00     0.202 C 
BRANCH  28  29
HETATM   29  O3  UNL     1       3.574  -8.161   8.593  1.00  0.00    -0.398 OA
ATOM     30  H3  UNL     1       3.839  -9.050   8.794  1.00  0.00     0.209 HD
ENDBRANCH  28  29
ENDBRANCH  15  28
TORSDOF 5
ENDMDL
MODEL 2
REMARK VINA RESULT: -7.708986741      2.510      4.339
REMARK  5 active torsions:
REMARK  status: ('A' for Active; 'I' for Inactive)
REMARK    1  A    between atoms: C8_8  and  C9_9 
REMARK    2  A    between atoms: C18_22  and  O2_23 
REMARK    3  A    between atoms: C18_22  and  C19_25 
REMARK    4  A    between atoms: C19_25  and  O3_26 
REMARK    5  A    between atoms: C20_28  and  O4_29 
ROOT
HETATM    1  C1  UNL     1       4.889  -7.805   2.571  1.00  0.00     0.018 C 
HETATM    2  C2  UNL     1       5.902  -7.532   3.653  1.00  0.00    -0.018 C 
HETATM    3  C3  UNL     1       7.227  -8.165   3.280  1.00  0.00     0.018 C 
HETATM    4  C4  UNL     1       5.487  -8.083   4.995  1.00  0.00     0.016 C 
HETATM    5  C5  UNL     1       4.273  -7.378   5.545  1.00  0.00     0.036 C 
HETATM    6  C6  UNL     1       4.091  -6.025   5.019  1.00  0.00    -0.069 C 
HETATM    7  C7  UNL     1       4.939  -5.380   4.215  1.00  0.00    -0.037 C 
HETATM    8  C8  UNL     1       4.517  -4.004   3.822  1.00  0.00     0.077 C 
HETATM    9  C12 UNL     1       4.049  -3.173   4.998  1.00  0.00     0.029 C 
HETATM   10  C13 UNL     1       3.295  -3.925   5.995  1.00  0.00    -0.003 C 
HETATM   11  C14 UNL     1       4.163  -4.179   7.232  1.00  0.00     0.019 C 
HETATM   12  C15 UNL     1       2.878  -5.268   5.380  1.00  0.00     0.026 C 
HETATM   13  C16 UNL     1       2.085  -5.832   6.503  1.00  0.00     0.013 C 
HETATM   14  C17 UNL     1       1.236  -4.645   6.917  1.00  0.00     0.041 C 
HETATM   15  C18 UNL     1       2.000  -3.398   6.455  1.00  0.00     0.087 C 
HETATM   16  C20 UNL     1       6.182  -6.027   3.771  1.00  0.00     0.156 C 
ENDROOT
BRANCH   8  17
HETATM   17  C9  UNL     1       5.605  -3.222   3.189  1.00  0.00     0.080 A 
HETATM   18  C10 UNL     1       6.562  -2.456   3.821  1.00  0.00     0.124 A 
HETATM   19  N1  UNL     1       7.335  -1.931   2.870  1.00  0.00    -0.335 N 
HETATM   20  C11 UNL     1       6.887  -2.349   1.691  1.00  0.00     0.219 A 
ATOM     21  H1  UNL     1       8.134  -1.315   3.022  1.00  0.00     0.168 HD
HETATM   22  S1  UNL     1       7.505  -1.977   0.196  1.00  0.00    -0.033 SA
HETATM   23  O1  UNL     1       5.856  -3.115   1.907  1.00  0.00    -0.287 OA
ENDBRANCH   8  17
BRANCH  16  24
HETATM   24  O4  UNL     1       6.577  -5.657   2.486  1.00  0.00    -0.390 OA
ATOM     25  H4  UNL     1       6.252  -4.769   2.393  1.00  0.00     0.210 HD
ENDBRANCH  16  24
BRANCH  15  26
HETATM   26  O2  UNL     1       2.201  -2.581   7.575  1.00  0.00    -0.387 OA
ATOM     27  H2  UNL     1       2.881  -1.946   7.385  1.00  0.00     0.210 HD
ENDBRANCH  15  26
BRANCH  15  28
HETATM   28  C19 UNL     1       1.194  -2.669   5.420  1.00  0.00     0.202 C 
BRANCH  28  29
HETATM   29  O3  UNL     1       0.411  -1.700   6.029  1.00  0.00    -0.398 OA
ATOM     30  H3  UNL     1       0.948  -0.954   6.266  1.00  0.00     0.209 HD
ENDBRANCH  28  29
ENDBRANCH  15  28
TORSDOF 5
ENDMDL
MODEL 3
REMARK VINA RESULT: -7.654179653      2.537      4.070
REMARK  5 active torsions:
REMARK  status: ('A' for Active; 'I' for Inactive)
REMARK    1  A    between atoms: C8_8  and  C9_9 
REMARK    2  A    between atoms: C18_22  and  O2_23 
REMARK    3  A    between atoms: C18_22  and  C19_25 
REMARK    4  A    between atoms: C19_25  and  O3_26 
REMARK    5  A    between atoms: C20_28  and  O4_29 
ROOT
HETATM    1  C1  UNL     1       8.272  -7.606   3.515  1.00  0.00     0.018 C 
HETATM    2  C2  UNL     1       7.694  -6.978   2.273  1.00  0.00    -0.018 C 
HETATM    3  C3  UNL     1       7.982  -7.861   1.076  1.00  0.00     0.018 C 
HETATM    4  C4  UNL     1       8.267  -5.611   1.989  1.00  0.00     0.016 C 
HETATM    5  C5  UNL     1       7.872  -4.603   3.039  1.00  0.00     0.036 C 
HETATM    6  C6  UNL     1       6.639  -4.945   3.748  1.00  0.00    -0.069 C 
HETATM    7  C7  UNL     1       5.838  -5.976   3.466  1.00  0.00    -0.037 C 
HETATM    8  C8  UNL     1       4.638  -6.103   4.343  1.00  0.00     0.077 C 
HETATM    9  C12 UNL     1       3.898  -4.794   4.525  1.00  0.00     0.029 C 
HETATM   10  C13 UNL     1       4.769  -3.627   4.621  1.00  0.00    -0.003 C 
HETATM   11  C14 UNL     1       4.730  -2.830   3.314  1.00  0.00     0.019 C 
HETATM   12  C15 UNL     1       6.203  -4.110   4.882  1.00  0.00     0.026 C 
HETATM   13  C16 UNL     1       6.896  -2.802   5.014  1.00  0.00     0.013 C 
HETATM   14  C17 UNL     1       5.949  -2.033   5.915  1.00  0.00     0.041 C 
HETATM   15  C18 UNL     1       4.571  -2.682   5.732  1.00  0.00     0.087 C 
HETATM   16  C20 UNL     1       6.164  -6.894   2.365  1.00  0.00     0.156 C 
ENDROOT
BRANCH   8  17
HETATM   17  C9  UNL     1       3.634  -7.059   3.819  1.00  0.00     0.080 A 
HETATM   18  C10 UNL     1       3.091  -8.144   4.474  1.00  0.00     0.124 A 
HETATM   19  N1  UNL     1       2.235  -8.722   3.631  1.00  0.00    -0.335 N 
HETATM   20  C11 UNL     1       2.236  -8.031   2.496  1.00  0.00     0.219 A 
ATOM     21  H1  UNL     1       1.674  -9.553   3.825  1.00  0.00     0.168 HD
HETATM   22  S1  UNL     1       1.342  -8.342   1.133  1.00  0.00    -0.033 SA
HETATM   23  O1  UNL     1       3.078  -7.047   2.633  1.00  0.00    -0.287 OA
ENDBRANCH   8  17
BRANCH  16  24
HETATM   24  O4  UNL     1       5.768  -8.210   2.599  1.00  0.00    -0.390 OA
ATOM     25  H4  UNL     1       6.279  -8.717   1.979  1.00  0.00     0.210 HD
ENDBRANCH  16  24
BRANCH  15  26
HETATM   26  O2  UNL     1       3.676  -1.679   5.336  1.00  0.00    -0.387 OA
ATOM     27  H2  UNL     1       3.986  -0.838   5.648  1.00  0.00     0.210 HD
ENDBRANCH  15  26
BRANCH  15  28
HETATM   28  C19 UNL     1       4.126  -3.291   7.028  1.00  0.00     0.202 C 
BRANCH  28  29
HETATM   29  O3  UNL     1       2.889  -2.779   7.389  1.00  0.00    -0.398 OA
ATOM     30  H3  UNL     1       2.879  -2.585   8.319  1.00  0.00     0.209 HD
ENDBRANCH  28  29
ENDBRANCH  15  28
TORSDOF 5
ENDMDL
MODEL 4
REMARK VINA RESULT: -7.429566913      4.546      7.387
REMARK  5 active torsions:
REMARK  status: ('A' for Active; 'I' for Inactive)
REMARK    1  A    between atoms: C8_8  and  C9_9 
REMARK    2  A    between atoms: C18_22  and  O2_23 
REMARK    3  A    between atoms: C18_22  and  C19_25 
REMARK    4  A    between atoms: C19_25  and  O3_26 
REMARK    5  A    between atoms: C20_28  and  O4_29 
ROOT
HETATM    1  C1  UNL     1       0.100  -8.596   7.075  1.00  0.00     0.018 C 
HETATM    2  C2  UNL     1       1.525  -8.336   7.488  1.00  0.00    -0.018 C 
HETATM    3  C3  UNL     1       2.469  -8.946   6.472  1.00  0.00     0.018 C 
HETATM    4  C4  UNL     1       1.858  -8.920   8.840  1.00  0.00     0.016 C 
HETATM    5  C5  UNL     1       1.100  -8.239   9.952  1.00  0.00     0.036 C 
HETATM    6  C6  UNL     1       0.676  -6.877   9.627  1.00  0.00    -0.069 C 
HETATM    7  C7  UNL     1       0.992  -6.207   8.516  1.00  0.00    -0.037 C 
HETATM    8  C8  UNL     1       0.431  -4.827   8.429  1.00  0.00     0.077 C 
HETATM    9  C12 UNL     1       0.635  -4.026   9.698  1.00  0.00     0.029 C 
HETATM   10  C13 UNL     1       0.500  -4.807  10.923  1.00  0.00    -0.003 C 
HETATM   11  C14 UNL     1       1.879  -5.078  11.531  1.00  0.00     0.019 C 
HETATM   12  C15 UNL     1      -0.177  -6.141  10.577  1.00  0.00     0.026 C 
HETATM   13  C16 UNL     1      -0.281  -6.738  11.935  1.00  0.00     0.013 C 
HETATM   14  C17 UNL     1      -0.794  -5.569  12.753  1.00  0.00     0.041 C 
HETATM   15  C18 UNL     1      -0.374  -4.304  11.995  1.00  0.00     0.087 C 
HETATM   16  C20 UNL     1       1.829  -6.831   7.481  1.00  0.00     0.156 C 
ENDROOT
BRANCH   8  17
HETATM   17  C9  UNL     1       1.041  -4.020   7.346  1.00  0.00     0.080 A 
HETATM   18  C10 UNL     1       0.386  -3.252   6.406  1.00  0.00     0.124 A 
HETATM   19  N1  UNL     1       1.320  -2.702   5.629  1.00  0.00    -0.335 N 
HETATM   20  C11 UNL     1       2.511  -3.106   6.060  1.00  0.00     0.219 A 
ATOM     21  H1  UNL     1       1.149  -2.080   4.839  1.00  0.00     0.168 HD
HETATM   22  S1  UNL     1       3.992  -2.703   5.431  1.00  0.00    -0.033 SA
HETATM   23  O1  UNL     1       2.317  -3.889   7.082  1.00  0.00    -0.287 OA
ENDBRANCH   8  17
BRANCH  16  24
HETATM   24  O4  UNL     1       1.508  -6.429   6.185  1.00  0.00    -0.390 OA
ATOM     25  H4  UNL     1       1.654  -7.207   5.661  1.00  0.00     0.210 HD
ENDBRANCH  16  24
BRANCH  15  26
HETATM   26  O2  UNL     1       0.376  -3.509  12.872  1.00  0.00    -0.387 OA
ATOM     27  H2  UNL     1      -0.082  -2.692  13.028  1.00  0.00     0.210 HD
ENDBRANCH  15  26
BRANCH  15  28
HETATM   28  C19 UNL     1      -1.595  -3.562  11.539  1.00  0.00     0.202 C 
BRANCH  28  29
HETATM   29  O3  UNL     1      -1.811  -2.462  12.356  1.00  0.00    -0.398 OA
ATOM     30  H3  UNL     1      -1.431  -2.618  13.213  1.00  0.00     0.209 HD
ENDBRANCH  28  29
ENDBRANCH  15  28
TORSDOF 5
ENDMDL
MODEL 5
REMARK VINA RESULT: -7.420142020      1.846      5.328
REMARK  5 active torsions:
REMARK  status: ('A' for Active; 'I' for Inactive)
REMARK    1  A    between atoms: C8_8  and  C9_9 
REMARK    2  A    between atoms: C18_22  and  O2_23 
REMARK    3  A    between atoms: C18_22  and  C19_25 
REMARK    4  A    between atoms: C19_25  and  O3_26 
REMARK    5  A    between atoms: C20_28  and  O4_29 
ROOT
HETATM    1  C1  UNL     1       2.424  -5.160   5.390  1.00  0.00     0.018 C 
HETATM    2  C2  UNL     1       3.565  -5.751   6.176  1.00  0.00    -0.018 C 
HETATM    3  C3  UNL     1       3.112  -7.032   6.846  1.00  0.00     0.018 C 
HETATM    4  C4  UNL     1       4.077  -4.822   7.251  1.00  0.00     0.016 C 
HETATM    5  C5  UNL     1       4.726  -3.590   6.671  1.00  0.00     0.036 C 
HETATM    6  C6  UNL     1       5.231  -3.776   5.311  1.00  0.00    -0.069 C 
HETATM    7  C7  UNL     1       5.245  -4.928   4.635  1.00  0.00    -0.037 C 
HETATM    8  C8  UNL     1       5.817  -4.847   3.260  1.00  0.00     0.077 C 
HETATM    9  C12 UNL     1       7.133  -4.101   3.211  1.00  0.00     0.029 C 
HETATM   10  C13 UNL     1       7.202  -2.956   4.112  1.00  0.00    -0.003 C 
HETATM   11  C14 UNL     1       8.072  -3.291   5.327  1.00  0.00     0.019 C 
HETATM   12  C15 UNL     1       5.779  -2.619   4.581  1.00  0.00     0.026 C 
HETATM   13  C16 UNL     1       6.057  -1.416   5.408  1.00  0.00     0.013 C 
HETATM   14  C17 UNL     1       7.000  -0.631   4.516  1.00  0.00     0.041 C 
HETATM   15  C18 UNL     1       7.651  -1.658   3.581  1.00  0.00     0.087 C 
HETATM   16  C20 UNL     1       4.716  -6.157   5.245  1.00  0.00     0.156 C 
ENDROOT
BRANCH   8  17
HETATM   17  C9  UNL     1       6.090  -6.177   2.666  1.00  0.00     0.080 A 
HETATM   18  C10 UNL     1       5.437  -6.770   1.605  1.00  0.00     0.124 A 
HETATM   19  N1  UNL     1       6.007  -7.959   1.409  1.00  0.00    -0.335 N 
HETATM   20  C11 UNL     1       6.976  -8.110   2.306  1.00  0.00     0.219 A 
ATOM     21  H1  UNL     1       5.743  -8.637   0.694  1.00  0.00     0.168 HD
HETATM   22  S1  UNL     1       7.983  -9.417   2.482  1.00  0.00    -0.033 SA
HETATM   23  O1  UNL     1       7.005  -7.036   3.042  1.00  0.00    -0.287 OA
ENDBRANCH   8  17
BRANCH  16  24
HETATM   24  O4  UNL     1       4.120  -7.023   4.330  1.00  0.00    -0.390 OA
ATOM     25  H4  UNL     1       4.595  -7.838   4.443  1.00  0.00     0.210 HD
ENDBRANCH  16  24
BRANCH  15  26
HETATM   26  O2  UNL     1       9.039  -1.550   3.729  1.00  0.00    -0.387 OA
ATOM     27  H2  UNL     1       9.328  -0.710   3.395  1.00  0.00     0.210 HD
ENDBRANCH  15  26
BRANCH  15  28
HETATM   28  C19 UNL     1       7.257  -1.369   2.163  1.00  0.00     0.202 C 
BRANCH  28  29
HETATM   29  O3  UNL     1       8.243  -1.821   1.299  1.00  0.00    -0.398 OA
ATOM     30  H3  UNL     1       8.195  -1.344   0.478  1.00  0.00     0.209 HD
ENDBRANCH  28  29
ENDBRANCH  15  28
TORSDOF 5
ENDMDL
