MODEL 1
REMARK VINA RESULT: -7.088925107      0.000      0.000
REMARK  5 active torsions:
REMARK  status: ('A' for Active; 'I' for Inactive)
REMARK    1  A    between atoms: C2_2  and  N1_3 
REMARK    2  A    between atoms: N1_3  and  C3_4 
REMARK    3  A    between atoms: N1_3  and  C5_6 
REMARK    4  A    between atoms: C6_9  and  C7_10 
REMARK    5  A    between atoms: C12_19  and  N5_20 
ROOT
HETATM    1  C5  UNL     1      50.766 -45.190  -2.571  1.00  0.00     0.150 A 
HETATM    2  N2  UNL     1      50.072 -45.121  -1.410  1.00  0.00    -0.328 N 
ATOM      3  H2  UNL     1      49.291 -45.758  -1.251  1.00  0.00     0.169 HD
HETATM    4  C6  UNL     1      50.395 -44.238  -0.479  1.00  0.00     0.101 A 
HETATM    5  N3  UNL     1      51.431 -43.418  -0.729  1.00  0.00    -0.287 N 
ATOM      6  H3  UNL     1      51.678 -42.738  -0.010  1.00  0.00     0.188 HD
HETATM    7  N4  UNL     1      52.147 -43.427  -1.826  1.00  0.00    -0.281 N 
ATOM      8  H4  UNL     1      52.923 -42.779  -1.962  1.00  0.00     0.188 HD
HETATM    9  C12 UNL     1      51.806 -44.338  -2.776  1.00  0.00     0.158 A 
ENDROOT
BRANCH   1  10
HETATM   10  N1  UNL     1      50.398 -46.143  -3.553  1.00  0.00    -0.365 N 
BRANCH  10  11
HETATM   11  C2  UNL     1      51.168 -47.354  -3.670  1.00  0.00     0.120 C 
HETATM   12  C1  UNL     1      50.341 -48.606  -3.764  1.00  0.00     0.026 C 
ENDBRANCH  10  11
BRANCH  10  13
HETATM   13  C3  UNL     1      49.283 -45.886  -4.398  1.00  0.00     0.120 C 
HETATM   14  C4  UNL     1      49.622 -45.403  -5.786  1.00  0.00     0.026 C 
ENDBRANCH  10  13
ENDBRANCH   1  10
BRANCH   9  15
HETATM   15  N5  UNL     1      52.527 -44.329  -3.847  1.00  0.00    -0.381 N 
ATOM     16  H52 UNL     1      52.114 -43.866  -4.656  1.00  0.00     0.157 HD
ATOM     17  H51 UNL     1      53.454 -44.751  -3.911  1.00  0.00     0.157 HD
ENDBRANCH   9  15
BRANCH   4  18
HETATM   18  C7  UNL     1      49.713 -44.076   0.817  1.00  0.00     0.055 C 
HETATM   19  C8  UNL     1      48.860 -45.296   1.164  1.00  0.00     0.012 C 
HETATM   20  C9  UNL     1      48.437 -44.884   2.582  1.00  0.00     0.001 C 
HETATM   21  C10 UNL     1      49.679 -44.197   3.150  1.00  0.00     0.001 C 
HETATM   22  C11 UNL     1      50.630 -44.004   1.986  1.00  0.00     0.012 C 
ENDBRANCH   4  18
TORSDOF 5
ENDMDL
MODEL 2
REMARK VINA RESULT: -7.080828563      0.023      1.582
REMARK  5 active torsions:
REMARK  status: ('A' for Active; 'I' for Inactive)
REMARK    1  A    between atoms: C2_2  and  N1_3 
REMARK    2  A    between atoms: N1_3  and  C3_4 
REMARK    3  A    between atoms: N1_3  and  C5_6 
REMARK    4  A    between atoms: C6_9  and  C7_10 
REMARK    5  A    between atoms: C12_19  and  N5_20 
ROOT
HETATM    1  C5  UNL     1      50.764 -45.196  -2.566  1.00  0.00     0.150 A 
HETATM    2  N2  UNL     1      50.072 -45.123  -1.404  1.00  0.00    -0.328 N 
ATOM      3  H2  UNL     1      49.290 -45.759  -1.243  1.00  0.00     0.169 HD
HETATM    4  C6  UNL     1      50.397 -44.238  -0.477  1.00  0.00     0.101 A 
HETATM    5  N3  UNL     1      51.433 -43.419  -0.730  1.00  0.00    -0.287 N 
ATOM      6  H3  UNL     1      51.682 -42.738  -0.014  1.00  0.00     0.188 HD
HETATM    7  N4  UNL     1      52.147 -43.432  -1.829  1.00  0.00    -0.281 N 
ATOM      8  H4  UNL     1      52.925 -42.786  -1.968  1.00  0.00     0.188 HD
HETATM    9  C12 UNL     1      51.804 -44.346  -2.775  1.00  0.00     0.158 A 
ENDROOT
BRANCH   1  10
HETATM   10  N1  UNL     1      50.392 -46.152  -3.545  1.00  0.00    -0.365 N 
BRANCH  10  11
HETATM   11  C2  UNL     1      49.252 -45.884  -4.381  1.00  0.00     0.120 C 
HETATM   12  C1  UNL     1      49.596 -45.344  -5.742  1.00  0.00     0.026 C 
ENDBRANCH  10  11
BRANCH  10  13
HETATM   13  C3  UNL     1      51.149 -47.349  -3.680  1.00  0.00     0.120 C 
HETATM   14  C4  UNL     1      50.339 -48.619  -3.757  1.00  0.00     0.026 C 
ENDBRANCH  10  13
ENDBRANCH   1  10
BRANCH   9  15
HETATM   15  N5  UNL     1      52.523 -44.342  -3.848  1.00  0.00    -0.381 N 
ATOM     16  H52 UNL     1      52.045 -44.619  -4.705  1.00  0.00     0.157 HD
ATOM     17  H51 UNL     1      53.509 -44.080  -3.870  1.00  0.00     0.157 HD
ENDBRANCH   9  15
BRANCH   4  18
HETATM   18  C7  UNL     1      49.718 -44.071   0.820  1.00  0.00     0.055 C 
HETATM   19  C8  UNL     1      48.857 -45.286   1.168  1.00  0.00     0.012 C 
HETATM   20  C9  UNL     1      48.438 -44.871   2.586  1.00  0.00     0.001 C 
HETATM   21  C10 UNL     1      49.685 -44.192   3.153  1.00  0.00     0.001 C 
HETATM   22  C11 UNL     1      50.636 -44.006   1.988  1.00  0.00     0.012 C 
ENDBRANCH   4  18
TORSDOF 5
ENDMDL
MODEL 3
REMARK VINA RESULT: -7.041935353      0.865      2.036
REMARK  5 active torsions:
REMARK  status: ('A' for Active; 'I' for Inactive)
REMARK    1  A    between atoms: C2_2  and  N1_3 
REMARK    2  A    between atoms: N1_3  and  C3_4 
REMARK    3  A    between atoms: N1_3  and  C5_6 
REMARK    4  A    between atoms: C6_9  and  C7_10 
REMARK    5  A    between atoms: C12_19  and  N5_20 
ROOT
HETATM    1  C5  UNL     1      50.770 -45.283  -3.404  1.00  0.00     0.150 A 
HETATM    2  N2  UNL     1      50.325 -45.560  -2.154  1.00  0.00    -0.328 N 
ATOM      3  H2  UNL     1      49.746 -46.385  -1.997  1.00  0.00     0.169 HD
HETATM    4  C6  UNL     1      50.632 -44.772  -1.137  1.00  0.00     0.101 A 
HETATM    5  N3  UNL     1      51.398 -43.695  -1.388  1.00  0.00    -0.287 N 
ATOM      6  H3  UNL     1      51.634 -43.090  -0.602  1.00  0.00     0.188 HD
HETATM    7  N4  UNL     1      51.863 -43.366  -2.568  1.00  0.00    -0.281 N 
ATOM      8  H4  UNL     1      52.440 -42.535  -2.701  1.00  0.00     0.188 HD
HETATM    9  C12 UNL     1      51.541 -44.182  -3.607  1.00  0.00     0.158 A 
ENDROOT
BRANCH   1  10
HETATM   10  N1  UNL     1      50.423 -46.141  -4.477  1.00  0.00    -0.365 N 
BRANCH  10  11
HETATM   11  C2  UNL     1      49.369 -45.743  -5.373  1.00  0.00     0.120 C 
HETATM   12  C1  UNL     1      49.696 -45.917  -6.830  1.00  0.00     0.026 C 
ENDBRANCH  10  11
BRANCH  10  13
HETATM   13  C3  UNL     1      51.119 -47.370  -4.647  1.00  0.00     0.120 C 
HETATM   14  C4  UNL     1      50.353 -48.606  -4.245  1.00  0.00     0.026 C 
ENDBRANCH  10  13
ENDBRANCH   1  10
BRANCH   9  15
HETATM   15  N5  UNL     1      52.013 -43.838  -4.759  1.00  0.00    -0.381 N 
ATOM     16  H52 UNL     1      52.243 -42.851  -4.868  1.00  0.00     0.157 HD
ATOM     17  H51 UNL     1      52.157 -44.490  -5.530  1.00  0.00     0.157 HD
ENDBRANCH   9  15
BRANCH   4  18
HETATM   18  C7  UNL     1      50.207 -44.976   0.259  1.00  0.00     0.055 C 
HETATM   19  C8  UNL     1      50.216 -43.668   1.051  1.00  0.00     0.012 C 
HETATM   20  C9  UNL     1      49.598 -44.186   2.358  1.00  0.00     0.001 C 
HETATM   21  C10 UNL     1      48.550 -45.197   1.891  1.00  0.00     0.001 C 
HETATM   22  C11 UNL     1      48.794 -45.413   0.411  1.00  0.00     0.012 C 
ENDBRANCH   4  18
TORSDOF 5
ENDMDL
MODEL 4
REMARK VINA RESULT: -7.040786432      0.866      1.316
REMARK  5 active torsions:
REMARK  status: ('A' for Active; 'I' for Inactive)
REMARK    1  A    between atoms: C2_2  and  N1_3 
REMARK    2  A    between atoms: N1_3  and  C3_4 
REMARK    3  A    between atoms: N1_3  and  C5_6 
REMARK    4  A    between atoms: C6_9  and  C7_10 
REMARK    5  A    between atoms: C12_19  and  N5_20 
ROOT
HETATM    1  C5  UNL     1      50.771 -45.280  -3.406  1.00  0.00     0.150 A 
HETATM    2  N2  UNL     1      50.324 -45.557  -2.158  1.00  0.00    -0.328 N 
ATOM      3  H2  UNL     1      49.745 -46.383  -2.002  1.00  0.00     0.169 HD
HETATM    4  C6  UNL     1      50.628 -44.770  -1.139  1.00  0.00     0.101 A 
HETATM    5  N3  UNL     1      51.393 -43.693  -1.388  1.00  0.00    -0.287 N 
ATOM      6  H3  UNL     1      51.627 -43.088  -0.601  1.00  0.00     0.188 HD
HETATM    7  N4  UNL     1      51.861 -43.363  -2.567  1.00  0.00    -0.281 N 
ATOM      8  H4  UNL     1      52.438 -42.532  -2.698  1.00  0.00     0.188 HD
HETATM    9  C12 UNL     1      51.542 -44.179  -3.607  1.00  0.00     0.158 A 
ENDROOT
BRANCH   1  10
HETATM   10  N1  UNL     1      50.428 -46.138  -4.481  1.00  0.00    -0.365 N 
BRANCH  10  11
HETATM   11  C2  UNL     1      51.145 -47.376  -4.638  1.00  0.00     0.120 C 
HETATM   12  C1  UNL     1      50.359 -48.599  -4.254  1.00  0.00     0.026 C 
ENDBRANCH  10  11
BRANCH  10  13
HETATM   13  C3  UNL     1      49.389 -45.761  -5.376  1.00  0.00     0.120 C 
HETATM   14  C4  UNL     1      49.713 -45.913  -6.841  1.00  0.00     0.026 C 
ENDBRANCH  10  13
ENDBRANCH   1  10
BRANCH   9  15
HETATM   15  N5  UNL     1      52.016 -43.834  -4.758  1.00  0.00    -0.381 N 
ATOM     16  H52 UNL     1      51.397 -43.980  -5.555  1.00  0.00     0.157 HD
ATOM     17  H51 UNL     1      52.947 -43.438  -4.893  1.00  0.00     0.157 HD
ENDBRANCH   9  15
BRANCH   4  18
HETATM   18  C7  UNL     1      50.200 -44.975   0.256  1.00  0.00     0.055 C 
HETATM   19  C8  UNL     1      50.211 -43.668   1.050  1.00  0.00     0.012 C 
HETATM   20  C9  UNL     1      49.589 -44.186   2.355  1.00  0.00     0.001 C 
HETATM   21  C10 UNL     1      48.539 -45.193   1.884  1.00  0.00     0.001 C 
HETATM   22  C11 UNL     1      48.785 -45.407   0.404  1.00  0.00     0.012 C 
ENDBRANCH   4  18
TORSDOF 5
ENDMDL
MODEL 5
REMARK VINA RESULT: -6.355790598      1.632      3.164
REMARK  5 active torsions:
REMARK  status: ('A' for Active; 'I' for Inactive)
REMARK    1  A    between atoms: C2_2  and  N1_3 
REMARK    2  A    between atoms: N1_3  and  C3_4 
REMARK    3  A    between atoms: N1_3  and  C5_6 
REMARK    4  A    between atoms: C6_9  and  C7_10 
REMARK    5  A    between atoms: C12_19  and  N5_20 
ROOT
HETATM    1  C5  UNL     1      49.619 -45.900  -3.341  1.00  0.00     0.150 A 
HETATM    2  N2  UNL     1      50.096 -45.617  -2.106  1.00  0.00    -0.328 N 
ATOM      3  H2  UNL     1      51.084 -45.392  -1.987  1.00  0.00     0.169 HD
HETATM    4  C6  UNL     1      49.296 -45.628  -1.052  1.00  0.00     0.101 A 
HETATM    5  N3  UNL     1      48.001 -45.929  -1.253  1.00  0.00    -0.287 N 
ATOM      6  H3  UNL     1      47.386 -45.936  -0.440  1.00  0.00     0.188 HD
HETATM    7  N4  UNL     1      47.469 -46.212  -2.417  1.00  0.00    -0.281 N 
ATOM      8  H4  UNL     1      46.478 -46.434  -2.512  1.00  0.00     0.188 HD
HETATM    9  C12 UNL     1      48.301 -46.198  -3.493  1.00  0.00     0.158 A 
ENDROOT
BRANCH   1  10
HETATM   10  N1  UNL     1      50.498 -45.885  -4.453  1.00  0.00    -0.365 N 
BRANCH  10  11
HETATM   11  C2  UNL     1      50.511 -44.730  -5.313  1.00  0.00     0.120 C 
HETATM   12  C1  UNL     1      51.515 -43.680  -4.923  1.00  0.00     0.026 C 
ENDBRANCH  10  11
BRANCH  10  13
HETATM   13  C3  UNL     1      51.342 -47.003  -4.696  1.00  0.00     0.120 C 
HETATM   14  C4  UNL     1      50.793 -48.031  -5.654  1.00  0.00     0.026 C 
ENDBRANCH  10  13
ENDBRANCH   1  10
BRANCH   9  15
HETATM   15  N5  UNL     1      47.754 -46.479  -4.629  1.00  0.00    -0.381 N 
ATOM     16  H52 UNL     1      46.902 -45.964  -4.852  1.00  0.00     0.157 HD
ATOM     17  H51 UNL     1      48.128 -47.166  -5.284  1.00  0.00     0.157 HD
ENDBRANCH   9  15
BRANCH   4  18
HETATM   18  C7  UNL     1      49.705 -45.335   0.333  1.00  0.00     0.055 C 
HETATM   19  C8  UNL     1      50.446 -44.002   0.434  1.00  0.00     0.012 C 
HETATM   20  C9  UNL     1      50.582 -43.931   1.962  1.00  0.00     0.001 C 
HETATM   21  C10 UNL     1      49.264 -44.512   2.475  1.00  0.00     0.001 C 
HETATM   22  C11 UNL     1      48.572 -45.124   1.274  1.00  0.00     0.012 C 
ENDBRANCH   4  18
TORSDOF 5
ENDMDL
