MODEL 1
REMARK VINA RESULT: -5.669786175      0.000      0.000
REMARK  6 active torsions:
REMARK  status: ('A' for Active; 'I' for Inactive)
REMARK    1  A    between atoms: C2_2  and  C3_3 
REMARK    2  A    between atoms: C3_3  and  N1_4 
REMARK    3  A    between atoms: C4_5  and  N2_6 
REMARK    4  A    between atoms: C5_11  and  C6_12 
REMARK    5  A    between atoms: C9_15  and  N4_16 
REMARK    6  A    between atoms: C12_19  and  N5_20 
ROOT
HETATM    1  N1  UNL     1      48.846 -41.155  -9.722  1.00  0.00    -0.167 N 
HETATM    2  C4  UNL     1      48.517 -41.685  -8.532  1.00  0.00     0.680 A 
HETATM    3  N3  UNL     1      49.355 -42.650  -8.044  1.00  0.00    -0.193 N 
ATOM      4  H3  UNL     1      49.132 -43.071  -7.142  1.00  0.00     0.184 HD
HETATM    5  C5  UNL     1      50.446 -43.069  -8.681  1.00  0.00     0.060 A 
HETATM    6  C9  UNL     1      50.794 -42.541  -9.894  1.00  0.00     0.098 A 
HETATM    7  C12 UNL     1      49.933 -41.543 -10.403  1.00  0.00     0.146 A 
ENDROOT
BRANCH   1   8
HETATM    8  C3  UNL     1      48.017 -40.125 -10.282  1.00  0.00     0.149 C 
BRANCH   8   9
HETATM    9  C2  UNL     1      46.984 -40.609 -11.241  1.00  0.00     0.016 C 
HETATM   10  C1  UNL     1      47.061 -39.712 -12.470  1.00  0.00     0.006 C 
ENDBRANCH   8   9
ENDBRANCH   1   8
BRANCH   2  11
HETATM   11  N2  UNL     1      47.478 -41.371  -7.836  1.00  0.00    -0.234 N 
ATOM     12  H22 UNL     1      47.294 -40.382  -7.664  1.00  0.00     0.174 HD
ATOM     13  H21 UNL     1      46.821 -42.032  -7.422  1.00  0.00     0.174 HD
ENDBRANCH   2  11
BRANCH   7  14
HETATM   14  N5  UNL     1      50.253 -41.077 -11.556  1.00  0.00    -0.383 N 
ATOM     15  H52 UNL     1      50.262 -40.059 -11.628  1.00  0.00     0.157 HD
ATOM     16  H51 UNL     1      50.509 -41.663 -12.350  1.00  0.00     0.157 HD
ENDBRANCH   7  14
BRANCH   6  17
HETATM   17  N4  UNL     1      51.927 -42.924 -10.650  1.00  0.00    -0.385 N 
HETATM   18  C10 UNL     1      53.166 -42.208 -10.456  1.00  0.00     0.149 C 
HETATM   19  C11 UNL     1      51.867 -43.991 -11.622  1.00  0.00     0.149 C 
ENDBRANCH   6  17
BRANCH   5  20
HETATM   20  C6  UNL     1      51.269 -44.135  -8.065  1.00  0.00     0.030 C 
HETATM   21  C7  UNL     1      51.220 -43.934  -6.555  1.00  0.00     0.016 C 
HETATM   22  C8  UNL     1      50.533 -45.468  -8.303  1.00  0.00     0.016 C 
ENDBRANCH   5  20
TORSDOF 6
ENDMDL
MODEL 2
REMARK VINA RESULT: -5.583556590      2.808      4.838
REMARK  6 active torsions:
REMARK  status: ('A' for Active; 'I' for Inactive)
REMARK    1  A    between atoms: C2_2  and  C3_3 
REMARK    2  A    between atoms: C3_3  and  N1_4 
REMARK    3  A    between atoms: C4_5  and  N2_6 
REMARK    4  A    between atoms: C5_11  and  C6_12 
REMARK    5  A    between atoms: C9_15  and  N4_16 
REMARK    6  A    between atoms: C12_19  and  N5_20 
ROOT
HETATM    1  N1  UNL     1      51.797 -44.346  -9.249  1.00  0.00    -0.167 N 
HETATM    2  C4  UNL     1      52.782 -44.393  -8.337  1.00  0.00     0.680 A 
HETATM    3  N3  UNL     1      52.402 -44.634  -7.044  1.00  0.00    -0.193 N 
ATOM      4  H3  UNL     1      53.127 -44.677  -6.328  1.00  0.00     0.184 HD
HETATM    5  C5  UNL     1      51.138 -44.817  -6.671  1.00  0.00     0.060 A 
HETATM    6  C9  UNL     1      50.124 -44.771  -7.587  1.00  0.00     0.098 A 
HETATM    7  C12 UNL     1      50.509 -44.522  -8.923  1.00  0.00     0.146 A 
ENDROOT
BRANCH   1   8
HETATM    8  C3  UNL     1      52.130 -44.113 -10.626  1.00  0.00     0.149 C 
BRANCH   8   9
HETATM    9  C2  UNL     1      52.530 -42.712 -10.942  1.00  0.00     0.016 C 
HETATM   10  C1  UNL     1      51.307 -42.022 -11.535  1.00  0.00     0.006 C 
ENDBRANCH   8   9
ENDBRANCH   1   8
BRANCH   2  11
HETATM   11  N2  UNL     1      54.035 -44.213  -8.580  1.00  0.00    -0.234 N 
ATOM     12  H22 UNL     1      54.324 -43.326  -8.995  1.00  0.00     0.174 HD
ATOM     13  H21 UNL     1      54.775 -44.893  -8.406  1.00  0.00     0.174 HD
ENDBRANCH   2  11
BRANCH   7  14
HETATM   14  N5  UNL     1      49.546 -44.451  -9.769  1.00  0.00    -0.383 N 
ATOM     15  H52 UNL     1      49.673 -44.994 -10.622  1.00  0.00     0.157 HD
ATOM     16  H51 UNL     1      48.693 -43.914  -9.608  1.00  0.00     0.157 HD
ENDBRANCH   7  14
BRANCH   6  17
HETATM   17  N4  UNL     1      48.751 -44.945  -7.287  1.00  0.00    -0.385 N 
HETATM   18  C10 UNL     1      48.194 -46.277  -7.335  1.00  0.00     0.149 C 
HETATM   19  C11 UNL     1      47.896 -43.828  -6.960  1.00  0.00     0.149 C 
ENDBRANCH   6  17
BRANCH   5  20
HETATM   20  C6  UNL     1      50.843 -45.053  -5.238  1.00  0.00     0.030 C 
HETATM   21  C7  UNL     1      51.556 -46.337  -4.830  1.00  0.00     0.016 C 
HETATM   22  C8  UNL     1      51.557 -43.943  -4.442  1.00  0.00     0.016 C 
ENDBRANCH   5  20
TORSDOF 6
ENDMDL
MODEL 3
REMARK VINA RESULT: -5.563469235      2.242      5.335
REMARK  6 active torsions:
REMARK  status: ('A' for Active; 'I' for Inactive)
REMARK    1  A    between atoms: C2_2  and  C3_3 
REMARK    2  A    between atoms: C3_3  and  N1_4 
REMARK    3  A    between atoms: C4_5  and  N2_6 
REMARK    4  A    between atoms: C5_11  and  C6_12 
REMARK    5  A    between atoms: C9_15  and  N4_16 
REMARK    6  A    between atoms: C12_19  and  N5_20 
ROOT
HETATM    1  N1  UNL     1      49.547 -45.100  -7.991  1.00  0.00    -0.167 N 
HETATM    2  C4  UNL     1      50.812 -45.289  -8.400  1.00  0.00     0.680 A 
HETATM    3  N3  UNL     1      51.211 -44.569  -9.494  1.00  0.00    -0.193 N 
ATOM      4  H3  UNL     1      52.167 -44.691  -9.829  1.00  0.00     0.184 HD
HETATM    5  C5  UNL     1      50.420 -43.720 -10.144  1.00  0.00     0.060 A 
HETATM    6  C9  UNL     1      49.129 -43.517  -9.741  1.00  0.00     0.098 A 
HETATM    7  C12 UNL     1      48.712 -44.256  -8.612  1.00  0.00     0.146 A 
ENDROOT
BRANCH   1   8
HETATM    8  C3  UNL     1      49.072 -45.812  -6.838  1.00  0.00     0.149 C 
BRANCH   8   9
HETATM    9  C2  UNL     1      48.618 -47.205  -7.110  1.00  0.00     0.016 C 
HETATM   10  C1  UNL     1      48.950 -48.032  -5.873  1.00  0.00     0.006 C 
ENDBRANCH   8   9
ENDBRANCH   1   8
BRANCH   2  11
HETATM   11  N2  UNL     1      51.660 -46.097  -7.860  1.00  0.00    -0.234 N 
ATOM     12  H22 UNL     1      51.323 -47.006  -7.541  1.00  0.00     0.174 HD
ATOM     13  H21 UNL     1      52.649 -45.902  -7.708  1.00  0.00     0.174 HD
ENDBRANCH   2  11
BRANCH   7  14
HETATM   14  N5  UNL     1      47.489 -44.080  -8.261  1.00  0.00    -0.383 N 
ATOM     15  H52 UNL     1      47.311 -43.249  -7.697  1.00  0.00     0.157 HD
ATOM     16  H51 UNL     1      46.728 -44.702  -8.537  1.00  0.00     0.157 HD
ENDBRANCH   7  14
BRANCH   6  17
HETATM   17  N4  UNL     1      48.211 -42.642 -10.370  1.00  0.00    -0.385 N 
HETATM   18  C10 UNL     1      47.405 -43.146 -11.458  1.00  0.00     0.149 C 
HETATM   19  C11 UNL     1      48.079 -41.261  -9.967  1.00  0.00     0.149 C 
ENDBRANCH   6  17
BRANCH   5  20
HETATM   20  C6  UNL     1      50.955 -43.009 -11.329  1.00  0.00     0.030 C 
HETATM   21  C7  UNL     1      51.638 -41.741 -10.831  1.00  0.00     0.016 C 
HETATM   22  C8  UNL     1      52.101 -43.872 -11.893  1.00  0.00     0.016 C 
ENDBRANCH   5  20
TORSDOF 6
ENDMDL
MODEL 4
REMARK VINA RESULT: -5.555893447      1.957      3.636
REMARK  6 active torsions:
REMARK  status: ('A' for Active; 'I' for Inactive)
REMARK    1  A    between atoms: C2_2  and  C3_3 
REMARK    2  A    between atoms: C3_3  and  N1_4 
REMARK    3  A    between atoms: C4_5  and  N2_6 
REMARK    4  A    between atoms: C5_11  and  C6_12 
REMARK    5  A    between atoms: C9_15  and  N4_16 
REMARK    6  A    between atoms: C12_19  and  N5_20 
ROOT
HETATM    1  N1  UNL     1      48.707 -43.224 -10.516  1.00  0.00    -0.167 N 
HETATM    2  C4  UNL     1      50.018 -43.028 -10.732  1.00  0.00     0.680 A 
HETATM    3  N3  UNL     1      50.876 -43.635  -9.855  1.00  0.00    -0.193 N 
ATOM      4  H3  UNL     1      51.878 -43.506  -9.994  1.00  0.00     0.184 HD
HETATM    5  C5  UNL     1      50.474 -44.385  -8.833  1.00  0.00     0.060 A 
HETATM    6  C9  UNL     1      49.143 -44.593  -8.598  1.00  0.00     0.098 A 
HETATM    7  C12 UNL     1      48.252 -43.970  -9.500  1.00  0.00     0.146 A 
ENDROOT
BRANCH   1   8
HETATM    8  C3  UNL     1      47.754 -42.628 -11.410  1.00  0.00     0.149 C 
BRANCH   8   9
HETATM    9  C2  UNL     1      47.240 -41.298 -10.977  1.00  0.00     0.016 C 
HETATM   10  C1  UNL     1      47.457 -40.336 -12.138  1.00  0.00     0.006 C 
ENDBRANCH   8   9
ENDBRANCH   1   8
BRANCH   2  11
HETATM   11  N2  UNL     1      50.521 -42.308 -11.677  1.00  0.00    -0.234 N 
ATOM     12  H22 UNL     1      50.309 -41.310 -11.687  1.00  0.00     0.174 HD
ATOM     13  H21 UNL     1      51.108 -42.654 -12.435  1.00  0.00     0.174 HD
ENDBRANCH   2  11
BRANCH   7  14
HETATM   14  N5  UNL     1      47.005 -44.148  -9.252  1.00  0.00    -0.383 N 
ATOM     15  H52 UNL     1      46.583 -44.964  -9.695  1.00  0.00     0.157 HD
ATOM     16  H51 UNL     1      46.460 -43.541  -8.638  1.00  0.00     0.157 HD
ENDBRANCH   7  14
BRANCH   6  17
HETATM   17  N4  UNL     1      48.618 -45.368  -7.536  1.00  0.00    -0.385 N 
HETATM   18  C10 UNL     1      48.286 -44.709  -6.294  1.00  0.00     0.149 C 
HETATM   19  C11 UNL     1      48.429 -46.795  -7.656  1.00  0.00     0.149 C 
ENDBRANCH   6  17
BRANCH   5  20
HETATM   20  C6  UNL     1      51.494 -44.978  -7.936  1.00  0.00     0.030 C 
HETATM   21  C7  UNL     1      52.748 -45.220  -8.768  1.00  0.00     0.016 C 
HETATM   22  C8  UNL     1      51.901 -43.883  -6.931  1.00  0.00     0.016 C 
ENDBRANCH   5  20
TORSDOF 6
ENDMDL
MODEL 5
REMARK VINA RESULT: -5.501176081      1.433      3.273
REMARK  6 active torsions:
REMARK  status: ('A' for Active; 'I' for Inactive)
REMARK    1  A    between atoms: C2_2  and  C3_3 
REMARK    2  A    between atoms: C3_3  and  N1_4 
REMARK    3  A    between atoms: C4_5  and  N2_6 
REMARK    4  A    between atoms: C5_11  and  C6_12 
REMARK    5  A    between atoms: C9_15  and  N4_16 
REMARK    6  A    between atoms: C12_19  and  N5_20 
ROOT
HETATM    1  N1  UNL     1      48.841 -41.368  -8.940  1.00  0.00    -0.167 N 
HETATM    2  C4  UNL     1      49.498 -41.092 -10.078  1.00  0.00     0.680 A 
HETATM    3  N3  UNL     1      50.514 -41.946 -10.415  1.00  0.00    -0.193 N 
ATOM      4  H3  UNL     1      51.032 -41.763 -11.275  1.00  0.00     0.184 HD
HETATM    5  C5  UNL     1      50.863 -43.000  -9.683  1.00  0.00     0.060 A 
HETATM    6  C9  UNL     1      50.205 -43.293  -8.520  1.00  0.00     0.098 A 
HETATM    7  C12 UNL     1      49.155 -42.417  -8.167  1.00  0.00     0.146 A 
ENDROOT
BRANCH   1   8
HETATM    8  C3  UNL     1      47.753 -40.521  -8.538  1.00  0.00     0.149 C 
BRANCH   8   9
HETATM    9  C2  UNL     1      46.440 -40.860  -9.155  1.00  0.00     0.016 C 
HETATM   10  C1  UNL     1      45.775 -39.543  -9.541  1.00  0.00     0.006 C 
ENDBRANCH   8   9
ENDBRANCH   1   8
BRANCH   2  11
HETATM   11  N2  UNL     1      49.260 -40.092 -10.856  1.00  0.00    -0.234 N 
ATOM     12  H22 UNL     1      49.108 -40.277 -11.848  1.00  0.00     0.174 HD
ATOM     13  H21 UNL     1      49.222 -39.114 -10.567  1.00  0.00     0.174 HD
ENDBRANCH   2  11
BRANCH   7  14
HETATM   14  N5  UNL     1      48.565 -42.684  -7.058  1.00  0.00    -0.383 N 
ATOM     15  H52 UNL     1      47.815 -43.373  -7.118  1.00  0.00     0.157 HD
ATOM     16  H51 UNL     1      48.827 -42.268  -6.165  1.00  0.00     0.157 HD
ENDBRANCH   7  14
BRANCH   6  17
HETATM   17  N4  UNL     1      50.506 -44.385  -7.670  1.00  0.00    -0.385 N 
HETATM   18  C10 UNL     1      51.438 -44.185  -6.586  1.00  0.00     0.149 C 
HETATM   19  C11 UNL     1      49.925 -45.691  -7.876  1.00  0.00     0.149 C 
ENDBRANCH   6  17
BRANCH   5  20
HETATM   20  C6  UNL     1      51.993 -43.844 -10.136  1.00  0.00     0.030 C 
HETATM   21  C7  UNL     1      52.037 -43.769 -11.658  1.00  0.00     0.016 C 
HETATM   22  C8  UNL     1      53.289 -43.146  -9.677  1.00  0.00     0.016 C 
ENDBRANCH   5  20
TORSDOF 6
ENDMDL
