MODEL 1
REMARK VINA RESULT: -6.560414029      0.000      0.000
REMARK  5 active torsions:
REMARK  status: ('A' for Active; 'I' for Inactive)
REMARK    1  A    between atoms: C2_2  and  C3_3 
REMARK    2  A    between atoms: C3_3  and  C4_4 
REMARK    3  A    between atoms: C4_4  and  C5_5 
REMARK    4  A    between atoms: C5_5  and  C6_6 
REMARK    5  A    between atoms: C6_6  and  O1_7 
ROOT
HETATM    1  C6  UNL     1      50.232 -45.765  -4.138  1.00  0.00     0.142 C 
HETATM    2  N1  UNL     1      50.365 -44.497  -4.848  1.00  0.00    -0.332 N 
ATOM      3  H1  UNL     1      49.745 -43.709  -4.657  1.00  0.00     0.165 HD
HETATM    4  C7  UNL     1      51.401 -44.415  -5.823  1.00  0.00     0.186 C 
HETATM    5  N2  UNL     1      52.110 -43.202  -6.014  1.00  0.00    -0.064 NA
HETATM    6  N3  UNL     1      51.638 -45.479  -6.502  1.00  0.00    -0.364 N 
ATOM      7  H3  UNL     1      52.378 -45.430  -7.201  1.00  0.00     0.162 HD
HETATM    8  C8  UNL     1      50.952 -46.728  -6.363  1.00  0.00     0.136 C 
HETATM    9  C9  UNL     1      50.325 -46.966  -5.007  1.00  0.00     0.026 C 
HETATM   10  C10 UNL     1      48.931 -47.542  -5.305  1.00  0.00     0.016 C 
HETATM   11  C11 UNL     1      48.821 -48.841  -4.578  1.00  0.00     0.001 C 
HETATM   12  C12 UNL     1      49.927 -48.772  -3.532  1.00  0.00     0.001 C 
HETATM   13  C13 UNL     1      51.020 -48.110  -4.297  1.00  0.00     0.016 C 
ENDROOT
BRANCH   1  14
HETATM   14  C5  UNL     1      51.268 -45.708  -3.026  1.00  0.00     0.062 C 
BRANCH  14  15
HETATM   15  C4  UNL     1      50.559 -45.172  -1.774  1.00  0.00     0.005 C 
BRANCH  15  16
HETATM   16  C3  UNL     1      51.503 -44.194  -1.061  1.00  0.00    -0.000 C 
BRANCH  16  17
HETATM   17  C2  UNL     1      50.832 -43.858   0.257  1.00  0.00    -0.005 C 
HETATM   18  C1  UNL     1      49.738 -44.824   0.602  1.00  0.00     0.005 C 
ENDBRANCH  16  17
ENDBRANCH  15  16
ENDBRANCH  14  15
ENDBRANCH   1  14
BRANCH   1  19
HETATM   19  O1  UNL     1      48.966 -45.735  -3.504  1.00  0.00    -0.370 OA
ATOM     20  H1  UNL     1      48.483 -45.022  -3.907  1.00  0.00     0.212 HD
ENDBRANCH   1  19
TORSDOF 5
ENDMDL
MODEL 2
REMARK VINA RESULT: -6.441127298      2.304      2.592
REMARK  5 active torsions:
REMARK  status: ('A' for Active; 'I' for Inactive)
REMARK    1  A    between atoms: C2_2  and  C3_3 
REMARK    2  A    between atoms: C3_3  and  C4_4 
REMARK    3  A    between atoms: C4_4  and  C5_5 
REMARK    4  A    between atoms: C5_5  and  C6_6 
REMARK    5  A    between atoms: C6_6  and  O1_7 
ROOT
HETATM    1  C6  UNL     1      48.273 -46.936  -3.736  1.00  0.00     0.142 C 
HETATM    2  N1  UNL     1      47.205 -46.077  -4.238  1.00  0.00    -0.332 N 
ATOM      3  H1  UNL     1      46.302 -46.015  -3.767  1.00  0.00     0.165 HD
HETATM    4  C7  UNL     1      47.487 -45.331  -5.419  1.00  0.00     0.186 C 
HETATM    5  N2  UNL     1      46.960 -44.025  -5.583  1.00  0.00    -0.064 NA
HETATM    6  N3  UNL     1      48.222 -45.906  -6.301  1.00  0.00    -0.364 N 
ATOM      7  H3  UNL     1      48.429 -45.379  -7.149  1.00  0.00     0.162 HD
HETATM    8  C8  UNL     1      48.775 -47.223  -6.198  1.00  0.00     0.136 C 
HETATM    9  C9  UNL     1      48.967 -47.726  -4.785  1.00  0.00     0.026 C 
HETATM   10  C10 UNL     1      48.467 -49.180  -4.805  1.00  0.00     0.016 C 
HETATM   11  C11 UNL     1      49.575 -50.040  -4.299  1.00  0.00     0.001 C 
HETATM   12  C12 UNL     1      50.496 -49.066  -3.575  1.00  0.00     0.001 C 
HETATM   13  C13 UNL     1      50.443 -47.880  -4.476  1.00  0.00     0.016 C 
ENDROOT
BRANCH   1  14
HETATM   14  C5  UNL     1      49.181 -46.017  -2.934  1.00  0.00     0.062 C 
BRANCH  14  15
HETATM   15  C4  UNL     1      48.716 -46.085  -1.472  1.00  0.00     0.005 C 
BRANCH  15  16
HETATM   16  C3  UNL     1      49.638 -45.196  -0.626  1.00  0.00    -0.000 C 
BRANCH  16  17
HETATM   17  C2  UNL     1      49.247 -45.452   0.818  1.00  0.00    -0.005 C 
HETATM   18  C1  UNL     1      49.703 -44.356   1.734  1.00  0.00     0.005 C 
ENDBRANCH  16  17
ENDBRANCH  15  16
ENDBRANCH  14  15
ENDBRANCH   1  14
BRANCH   1  19
HETATM   19  O1  UNL     1      47.670 -47.814  -2.802  1.00  0.00    -0.370 OA
ATOM     20  H1  UNL     1      48.056 -48.670  -2.953  1.00  0.00     0.212 HD
ENDBRANCH   1  19
TORSDOF 5
ENDMDL
MODEL 3
REMARK VINA RESULT: -6.301154377      2.162      3.652
REMARK  5 active torsions:
REMARK  status: ('A' for Active; 'I' for Inactive)
REMARK    1  A    between atoms: C2_2  and  C3_3 
REMARK    2  A    between atoms: C3_3  and  C4_4 
REMARK    3  A    between atoms: C4_4  and  C5_5 
REMARK    4  A    between atoms: C5_5  and  C6_6 
REMARK    5  A    between atoms: C6_6  and  O1_7 
ROOT
HETATM    1  C6  UNL     1      50.722 -46.567  -4.793  1.00  0.00     0.142 C 
HETATM    2  N1  UNL     1      50.335 -47.973  -4.747  1.00  0.00    -0.332 N 
ATOM      3  H1  UNL     1      50.977 -48.695  -4.421  1.00  0.00     0.165 HD
HETATM    4  C7  UNL     1      49.014 -48.287  -5.183  1.00  0.00     0.186 C 
HETATM    5  N2  UNL     1      48.278 -49.321  -4.549  1.00  0.00    -0.064 NA
HETATM    6  N3  UNL     1      48.552 -47.597  -6.163  1.00  0.00    -0.364 N 
ATOM      7  H3  UNL     1      47.608 -47.815  -6.481  1.00  0.00     0.162 HD
HETATM    8  C8  UNL     1      49.248 -46.550  -6.849  1.00  0.00     0.136 C 
HETATM    9  C9  UNL     1      50.326 -45.863  -6.040  1.00  0.00     0.026 C 
HETATM   10  C10 UNL     1      51.519 -45.723  -6.999  1.00  0.00     0.016 C 
HETATM   11  C11 UNL     1      51.892 -44.279  -7.039  1.00  0.00     0.001 C 
HETATM   12  C12 UNL     1      51.242 -43.696  -5.790  1.00  0.00     0.001 C 
HETATM   13  C13 UNL     1      49.942 -44.423  -5.764  1.00  0.00     0.016 C 
ENDROOT
BRANCH   1  14
HETATM   14  C5  UNL     1      50.161 -45.957  -3.518  1.00  0.00     0.062 C 
BRANCH  14  15
HETATM   15  C4  UNL     1      51.340 -45.754  -2.557  1.00  0.00     0.005 C 
BRANCH  15  16
HETATM   16  C3  UNL     1      51.201 -44.373  -1.900  1.00  0.00    -0.000 C 
BRANCH  16  17
HETATM   17  C2  UNL     1      50.318 -44.581  -0.685  1.00  0.00    -0.005 C 
HETATM   18  C1  UNL     1      50.796 -43.805   0.507  1.00  0.00     0.005 C 
ENDBRANCH  16  17
ENDBRANCH  15  16
ENDBRANCH  14  15
ENDBRANCH   1  14
BRANCH   1  19
HETATM   19  O1  UNL     1      52.132 -46.539  -4.661  1.00  0.00    -0.370 OA
ATOM     20  H1  UNL     1      52.472 -47.157  -5.298  1.00  0.00     0.212 HD
ENDBRANCH   1  19
TORSDOF 5
ENDMDL
MODEL 4
REMARK VINA RESULT: -6.220732163      5.215      7.639
REMARK  5 active torsions:
REMARK  status: ('A' for Active; 'I' for Inactive)
REMARK    1  A    between atoms: C2_2  and  C3_3 
REMARK    2  A    between atoms: C3_3  and  C4_4 
REMARK    3  A    between atoms: C4_4  and  C5_5 
REMARK    4  A    between atoms: C5_5  and  C6_6 
REMARK    5  A    between atoms: C6_6  and  O1_7 
ROOT
HETATM    1  C6  UNL     1      48.457 -44.068  -8.597  1.00  0.00     0.142 C 
HETATM    2  N1  UNL     1      47.916 -44.910  -7.535  1.00  0.00    -0.332 N 
ATOM      3  H1  UNL     1      47.897 -45.927  -7.615  1.00  0.00     0.165 HD
HETATM    4  C7  UNL     1      47.417 -44.241  -6.380  1.00  0.00     0.186 C 
HETATM    5  N2  UNL     1      47.573 -44.819  -5.094  1.00  0.00    -0.064 NA
HETATM    6  N3  UNL     1      46.826 -43.118  -6.576  1.00  0.00    -0.364 N 
ATOM      7  H3  UNL     1      46.466 -42.632  -5.755  1.00  0.00     0.162 HD
HETATM    8  C8  UNL     1      46.628 -42.489  -7.847  1.00  0.00     0.136 C 
HETATM    9  C9  UNL     1      47.629 -42.876  -8.914  1.00  0.00     0.026 C 
HETATM   10  C10 UNL     1      46.792 -43.106 -10.184  1.00  0.00     0.016 C 
HETATM   11  C11 UNL     1      47.354 -42.229 -11.252  1.00  0.00     0.001 C 
HETATM   12  C12 UNL     1      48.745 -41.873 -10.742  1.00  0.00     0.001 C 
HETATM   13  C13 UNL     1      48.490 -41.687  -9.286  1.00  0.00     0.016 C 
ENDROOT
BRANCH   1  14
HETATM   14  C5  UNL     1      49.881 -43.751  -8.169  1.00  0.00     0.062 C 
BRANCH  14  15
HETATM   15  C4  UNL     1      50.815 -44.604  -9.039  1.00  0.00     0.005 C 
BRANCH  15  16
HETATM   16  C3  UNL     1      51.928 -43.700  -9.588  1.00  0.00    -0.000 C 
BRANCH  16  17
HETATM   17  C2  UNL     1      51.880 -43.855 -11.096  1.00  0.00    -0.005 C 
HETATM   18  C1  UNL     1      52.224 -42.584 -11.812  1.00  0.00     0.005 C 
ENDBRANCH  16  17
ENDBRANCH  15  16
ENDBRANCH  14  15
ENDBRANCH   1  14
BRANCH   1  19
HETATM   19  O1  UNL     1      48.560 -44.892  -9.744  1.00  0.00    -0.370 OA
ATOM     20  H1  UNL     1      47.886 -44.598 -10.345  1.00  0.00     0.212 HD
ENDBRANCH   1  19
TORSDOF 5
ENDMDL
MODEL 5
REMARK VINA RESULT: -6.183873016      4.989      7.854
REMARK  5 active torsions:
REMARK  status: ('A' for Active; 'I' for Inactive)
REMARK    1  A    between atoms: C2_2  and  C3_3 
REMARK    2  A    between atoms: C3_3  and  C4_4 
REMARK    3  A    between atoms: C4_4  and  C5_5 
REMARK    4  A    between atoms: C5_5  and  C6_6 
REMARK    5  A    between atoms: C6_6  and  O1_7 
ROOT
HETATM    1  C6  UNL     1      50.420 -43.680  -9.059  1.00  0.00     0.142 C 
HETATM    2  N1  UNL     1      50.243 -44.314  -7.756  1.00  0.00    -0.332 N 
ATOM      3  H1  UNL     1      49.848 -43.808  -6.963  1.00  0.00     0.165 HD
HETATM    4  C7  UNL     1      50.650 -45.675  -7.648  1.00  0.00     0.186 C 
HETATM    5  N2  UNL     1      49.924 -46.576  -6.828  1.00  0.00    -0.064 NA
HETATM    6  N3  UNL     1      51.692 -46.019  -8.315  1.00  0.00    -0.364 N 
ATOM      7  H3  UNL     1      51.990 -46.992  -8.244  1.00  0.00     0.162 HD
HETATM    8  C8  UNL     1      52.472 -45.156  -9.151  1.00  0.00     0.136 C 
HETATM    9  C9  UNL     1      51.729 -43.960  -9.704  1.00  0.00     0.026 C 
HETATM   10  C10 UNL     1      52.694 -42.776  -9.536  1.00  0.00     0.016 C 
HETATM   11  C11 UNL     1      52.868 -42.149 -10.878  1.00  0.00     0.001 C 
HETATM   12  C12 UNL     1      51.681 -42.665 -11.683  1.00  0.00     0.001 C 
HETATM   13  C13 UNL     1      51.591 -44.074 -11.208  1.00  0.00     0.016 C 
ENDROOT
BRANCH   1  14
HETATM   14  C5  UNL     1      49.210 -44.103  -9.876  1.00  0.00     0.062 C 
BRANCH  14  15
HETATM   15  C4  UNL     1      48.230 -42.920  -9.880  1.00  0.00     0.005 C 
BRANCH  15  16
HETATM   16  C3  UNL     1      47.720 -42.716 -11.313  1.00  0.00    -0.000 C 
BRANCH  16  17
HETATM   17  C2  UNL     1      47.472 -41.226 -11.454  1.00  0.00    -0.005 C 
HETATM   18  C1  UNL     1      48.739 -40.428 -11.386  1.00  0.00     0.005 C 
ENDBRANCH  16  17
ENDBRANCH  15  16
ENDBRANCH  14  15
ENDBRANCH   1  14
BRANCH   1  19
HETATM   19  O1  UNL     1      50.288 -42.286  -8.843  1.00  0.00    -0.370 OA
ATOM     20  H1  UNL     1      49.543 -42.005  -9.362  1.00  0.00     0.212 HD
ENDBRANCH   1  19
TORSDOF 5
ENDMDL
