MODEL 1
REMARK VINA RESULT: -8.505745339      0.000      0.000
REMARK  21 active torsions:
REMARK  status: ('A' for Active; 'I' for Inactive)
REMARK    1  A    between atoms: O1_2  and  C2_3 
REMARK    2  A    between atoms: C4_5  and  C5_6 
REMARK    3  A    between atoms: C5_6  and  N1_7 
REMARK    4  A    between atoms: N1_7  and  C6_10 
REMARK    5  A    between atoms: C6_10  and  C7_11 
REMARK    6  A    between atoms: C7_11  and  C8_12 
REMARK    7  A    between atoms: C8_12  and  C9_13 
REMARK    8  A    between atoms: C9_13  and  C10_14 
REMARK    9  A    between atoms: C10_14  and  C11_15 
REMARK   10  A    between atoms: C11_15  and  C12_16 
REMARK   11  A    between atoms: C12_16  and  C13_17 
REMARK   12  A    between atoms: C13_17  and  N2_18 
REMARK   13  A    between atoms: N2_18  and  C14_20 
REMARK   14  A    between atoms: C17_25  and  N4_26 
REMARK   15  A    between atoms: N4_26  and  C18_28 
REMARK   16  A    between atoms: C18_28  and  C19_29 
REMARK   17  A    between atoms: C19_29  and  C20_30 
REMARK   18  A    between atoms: C20_30  and  N5_31 
REMARK   19  A    between atoms: N5_31  and  C21_33 
REMARK   20  A    between atoms: C24_40  and  C25_41 
REMARK   21  A    between atoms: C28_51  and  O2_52 
ROOT
HETATM    1  C14 UNL     1       1.146  23.422   5.877  1.00  0.00     0.679 A 
HETATM    2  N3  UNL     1       0.963  22.529   6.897  1.00  0.00    -0.202 N 
ATOM      3  H3  UNL     1       0.024  22.394   7.271  1.00  0.00     0.183 HD
HETATM    4  C15 UNL     1       1.969  21.826   7.421  1.00  0.00     0.110 A 
HETATM    5  C16 UNL     1       3.245  21.975   6.947  1.00  0.00     0.066 A 
HETATM    6  C17 UNL     1       3.445  22.876   5.915  1.00  0.00     0.118 A 
HETATM    7  N10 UNL     1       2.395  23.569   5.414  1.00  0.00    -0.177 N 
ATOM      8  H10 UNL     1       2.561  24.229   4.655  1.00  0.00     0.185 HD
ENDROOT
BRANCH   1   9
HETATM    9  N2  UNL     1       0.142  24.055   5.431  1.00  0.00    -0.226 N 
ATOM     10  H2  UNL     1       0.052  24.137   4.418  1.00  0.00     0.177 HD
BRANCH   9  11
HETATM   11  C13 UNL     1      -0.896  24.675   6.250  1.00  0.00     0.142 C 
BRANCH  11  12
HETATM   12  C12 UNL     1      -0.403  26.021   6.654  1.00  0.00     0.047 C 
BRANCH  12  13
HETATM   13  C11 UNL     1      -1.187  27.210   6.364  1.00  0.00    -0.025 C 
BRANCH  13  14
HETATM   14  C10 UNL     1      -1.094  28.482   7.045  1.00  0.00    -0.008 C 
BRANCH  14  15
HETATM   15  C9  UNL     1      -2.070  29.229   7.782  1.00  0.00    -0.027 C 
BRANCH  15  16
HETATM   16  C8  UNL     1      -3.482  29.356   7.423  1.00  0.00     0.028 C 
BRANCH  16  17
HETATM   17  C7  UNL     1      -4.510  28.743   8.323  1.00  0.00     0.031 C 
BRANCH  17  18
HETATM   18  C6  UNL     1      -3.992  27.984   9.492  1.00  0.00     0.233 C 
BRANCH  18  19
HETATM   19  N1  UNL     1      -4.385  26.613   9.564  1.00  0.00    -0.071 N 
ATOM     20  H12 UNL     1      -5.330  26.480   9.205  1.00  0.00     0.277 HD
ATOM     21  H11 UNL     1      -4.537  26.323  10.530  1.00  0.00     0.277 HD
BRANCH  19  22
HETATM   22  C5  UNL     1      -3.435  25.734   8.891  1.00  0.00     0.270 C 
BRANCH  22  23
HETATM   23  C4  UNL     1      -3.936  24.362   8.781  1.00  0.00    -0.029 A 
HETATM   24  C3  UNL     1      -5.122  23.914   9.332  1.00  0.00     0.048 A 
HETATM   25  C2  UNL     1      -5.497  22.600   9.170  1.00  0.00     0.103 A 
HETATM   26  C28 UNL     1      -4.722  21.679   8.463  1.00  0.00     0.118 A 
HETATM   27  C27 UNL     1      -3.533  22.134   7.913  1.00  0.00     0.047 A 
HETATM   28  C26 UNL     1      -3.179  23.439   8.085  1.00  0.00     0.030 A 
HETATM   29 BR1  UNL     1      -2.438  20.934   6.938  1.00  0.00    -0.048 Br
BRANCH  25  30
HETATM   30  O1  UNL     1      -6.679  22.135   9.713  1.00  0.00    -0.353 OA
HETATM   31  C1  UNL     1      -6.881  22.013  11.107  1.00  0.00     0.210 C 
ENDBRANCH  25  30
BRANCH  26  32
HETATM   32  O2  UNL     1      -5.149  20.368   8.332  1.00  0.00    -0.352 OA
HETATM   33  C29 UNL     1      -4.750  19.456   9.351  1.00  0.00     0.210 C 
ENDBRANCH  26  32
ENDBRANCH  22  23
ENDBRANCH  19  22
ENDBRANCH  18  19
ENDBRANCH  17  18
ENDBRANCH  16  17
ENDBRANCH  15  16
ENDBRANCH  14  15
ENDBRANCH  13  14
ENDBRANCH  12  13
ENDBRANCH  11  12
ENDBRANCH   9  11
ENDBRANCH   1   9
BRANCH   6  34
HETATM   34  N4  UNL     1       4.609  23.068   5.433  1.00  0.00    -0.376 N 
ATOM     35  H4  UNL     1       4.646  23.539   4.529  1.00  0.00     0.161 HD
BRANCH  34  36
HETATM   36  C18 UNL     1       5.863  22.707   5.999  1.00  0.00     0.126 C 
BRANCH  36  37
HETATM   37  C19 UNL     1       6.987  23.479   5.310  1.00  0.00     0.064 C 
BRANCH  37  38
HETATM   38  C20 UNL     1       6.322  24.492   4.399  1.00  0.00     0.064 C 
BRANCH  38  39
HETATM   39  N5  UNL     1       7.127  25.216   3.535  1.00  0.00    -0.355 N 
ATOM     40  H5  UNL     1       6.932  24.960   2.568  1.00  0.00     0.166 HD
BRANCH  39  41
HETATM   41  C21 UNL     1       8.015  26.084   3.584  1.00  0.00     0.120 A 
HETATM   42  N6  UNL     1       8.305  26.873   4.612  1.00  0.00    -0.338 N 
HETATM   43  C22 UNL     1       9.273  27.809   4.613  1.00  0.00     0.181 A 
ATOM     44  H6  UNL     1       7.754  26.762   5.463  1.00  0.00     0.168 HD
HETATM   45  N7  UNL     1      10.025  27.984   3.501  1.00  0.00    -0.361 N 
HETATM   46  C23 UNL     1       9.795  27.223   2.413  1.00  0.00     0.107 A 
ATOM     47  H7  UNL     1      10.763  28.688   3.487  1.00  0.00     0.166 HD
HETATM   48  C24 UNL     1       8.809  26.280   2.432  1.00  0.00     0.064 A 
BRANCH  48  49
HETATM   49  C25 UNL     1       8.578  25.444   1.259  1.00  0.00     0.125 C 
HETATM   50  N8  UNL     1       9.475  24.586   0.894  1.00  0.00    -0.387 N 
ATOM     51  H82 UNL     1      10.350  24.492   1.409  1.00  0.00     0.157 HD
ATOM     52  H81 UNL     1       9.313  24.002   0.073  1.00  0.00     0.157 HD
HETATM   53  N9  UNL     1       7.355  25.575   0.540  1.00  0.00    -0.082 NA
ENDBRANCH  48  49
ENDBRANCH  39  41
ENDBRANCH  38  39
ENDBRANCH  37  38
ENDBRANCH  36  37
ENDBRANCH  34  36
ENDBRANCH   6  34
TORSDOF 21
ENDMDL
MODEL 2
REMARK VINA RESULT: -8.450249845      1.431      2.561
REMARK  21 active torsions:
REMARK  status: ('A' for Active; 'I' for Inactive)
REMARK    1  A    between atoms: O1_2  and  C2_3 
REMARK    2  A    between atoms: C4_5  and  C5_6 
REMARK    3  A    between atoms: C5_6  and  N1_7 
REMARK    4  A    between atoms: N1_7  and  C6_10 
REMARK    5  A    between atoms: C6_10  and  C7_11 
REMARK    6  A    between atoms: C7_11  and  C8_12 
REMARK    7  A    between atoms: C8_12  and  C9_13 
REMARK    8  A    between atoms: C9_13  and  C10_14 
REMARK    9  A    between atoms: C10_14  and  C11_15 
REMARK   10  A    between atoms: C11_15  and  C12_16 
REMARK   11  A    between atoms: C12_16  and  C13_17 
REMARK   12  A    between atoms: C13_17  and  N2_18 
REMARK   13  A    between atoms: N2_18  and  C14_20 
REMARK   14  A    between atoms: C17_25  and  N4_26 
REMARK   15  A    between atoms: N4_26  and  C18_28 
REMARK   16  A    between atoms: C18_28  and  C19_29 
REMARK   17  A    between atoms: C19_29  and  C20_30 
REMARK   18  A    between atoms: C20_30  and  N5_31 
REMARK   19  A    between atoms: N5_31  and  C21_33 
REMARK   20  A    between atoms: C24_40  and  C25_41 
REMARK   21  A    between atoms: C28_51  and  O2_52 
ROOT
HETATM    1  C14 UNL     1       1.656  23.529   5.760  1.00  0.00     0.679 A 
HETATM    2  N3  UNL     1       1.582  22.544   6.706  1.00  0.00    -0.202 N 
ATOM      3  H3  UNL     1       0.670  22.299   7.090  1.00  0.00     0.183 HD
HETATM    4  C15 UNL     1       2.660  21.892   7.145  1.00  0.00     0.110 A 
HETATM    5  C16 UNL     1       3.903  22.189   6.653  1.00  0.00     0.066 A 
HETATM    6  C17 UNL     1       3.993  23.184   5.695  1.00  0.00     0.118 A 
HETATM    7  N10 UNL     1       2.873  23.821   5.280  1.00  0.00    -0.177 N 
ATOM      8  H10 UNL     1       2.958  24.552   4.574  1.00  0.00     0.185 HD
ENDROOT
BRANCH   1   9
HETATM    9  N2  UNL     1       0.589  24.106   5.392  1.00  0.00    -0.226 N 
ATOM     10  H2  UNL     1       0.477  24.295   4.396  1.00  0.00     0.177 HD
BRANCH   9  11
HETATM   11  C13 UNL     1      -0.494  24.522   6.280  1.00  0.00     0.142 C 
BRANCH  11  12
HETATM   12  C12 UNL     1      -0.860  25.919   5.916  1.00  0.00     0.047 C 
BRANCH  12  13
HETATM   13  C11 UNL     1      -0.987  26.938   6.944  1.00  0.00    -0.025 C 
BRANCH  13  14
HETATM   14  C10 UNL     1      -1.086  28.364   6.727  1.00  0.00    -0.008 C 
BRANCH  14  15
HETATM   15  C9  UNL     1      -2.225  29.207   6.515  1.00  0.00    -0.027 C 
BRANCH  15  16
HETATM   16  C8  UNL     1      -3.009  29.847   7.571  1.00  0.00     0.028 C 
BRANCH  16  17
HETATM   17  C7  UNL     1      -4.360  29.290   7.900  1.00  0.00     0.031 C 
BRANCH  17  18
HETATM   18  C6  UNL     1      -4.403  28.253   8.964  1.00  0.00     0.233 C 
BRANCH  18  19
HETATM   19  N1  UNL     1      -4.128  26.918   8.540  1.00  0.00    -0.071 N 
ATOM     20  H12 UNL     1      -3.281  26.877   7.973  1.00  0.00     0.277 HD
ATOM     21  H11 UNL     1      -4.804  26.606   7.842  1.00  0.00     0.277 HD
BRANCH  19  22
HETATM   22  C5  UNL     1      -4.059  25.989   9.662  1.00  0.00     0.270 C 
BRANCH  22  23
HETATM   23  C4  UNL     1      -4.251  24.599   9.240  1.00  0.00    -0.029 A 
HETATM   24  C3  UNL     1      -3.389  23.905   8.412  1.00  0.00     0.048 A 
HETATM   25  C2  UNL     1      -3.668  22.599   8.077  1.00  0.00     0.103 A 
HETATM   26  C28 UNL     1      -4.801  21.930   8.540  1.00  0.00     0.118 A 
HETATM   27  C27 UNL     1      -5.663  22.631   9.370  1.00  0.00     0.047 A 
HETATM   28  C26 UNL     1      -5.369  23.923   9.691  1.00  0.00     0.030 A 
HETATM   29 BR1  UNL     1      -7.217  21.777  10.036  1.00  0.00    -0.048 Br
BRANCH  25  30
HETATM   30  O1  UNL     1      -2.817  21.890   7.251  1.00  0.00    -0.353 OA
HETATM   31  C1  UNL     1      -1.634  21.276   7.722  1.00  0.00     0.210 C 
ENDBRANCH  25  30
BRANCH  26  32
HETATM   32  O2  UNL     1      -5.032  20.616   8.168  1.00  0.00    -0.352 OA
HETATM   33  C29 UNL     1      -4.617  19.605   9.082  1.00  0.00     0.210 C 
ENDBRANCH  26  32
ENDBRANCH  22  23
ENDBRANCH  19  22
ENDBRANCH  18  19
ENDBRANCH  17  18
ENDBRANCH  16  17
ENDBRANCH  15  16
ENDBRANCH  14  15
ENDBRANCH  13  14
ENDBRANCH  12  13
ENDBRANCH  11  12
ENDBRANCH   9  11
ENDBRANCH   1   9
BRANCH   6  34
HETATM   34  N4  UNL     1       5.121  23.515   5.203  1.00  0.00    -0.376 N 
ATOM     35  H4  UNL     1       5.897  22.882   5.401  1.00  0.00     0.161 HD
BRANCH  34  36
HETATM   36  C18 UNL     1       5.434  24.655   4.414  1.00  0.00     0.126 C 
BRANCH  36  37
HETATM   37  C19 UNL     1       6.902  25.034   4.604  1.00  0.00     0.064 C 
BRANCH  37  38
HETATM   38  C20 UNL     1       7.707  24.104   3.717  1.00  0.00     0.064 C 
BRANCH  38  39
HETATM   39  N5  UNL     1       8.793  24.633   3.038  1.00  0.00    -0.355 N 
ATOM     40  H5  UNL     1       9.594  24.726   3.663  1.00  0.00     0.166 HD
BRANCH  39  41
HETATM   41  C21 UNL     1       9.085  25.029   1.897  1.00  0.00     0.120 A 
HETATM   42  N6  UNL     1       9.240  24.283   0.809  1.00  0.00    -0.338 N 
HETATM   43  C22 UNL     1       9.568  24.758  -0.408  1.00  0.00     0.181 A 
ATOM     44  H6  UNL     1       9.100  23.277   0.901  1.00  0.00     0.168 HD
HETATM   45  N7  UNL     1       9.761  26.089  -0.568  1.00  0.00    -0.361 N 
HETATM   46  C23 UNL     1       9.623  26.915   0.487  1.00  0.00     0.107 A 
ATOM     47  H7  UNL     1      10.009  26.464  -1.484  1.00  0.00     0.166 HD
HETATM   48  C24 UNL     1       9.290  26.414   1.712  1.00  0.00     0.064 A 
BRANCH  48  49
HETATM   49  C25 UNL     1       9.120  27.315   2.846  1.00  0.00     0.125 C 
HETATM   50  N8  UNL     1       8.174  28.198   2.831  1.00  0.00    -0.387 N 
ATOM     51  H82 UNL     1       7.548  28.281   2.029  1.00  0.00     0.157 HD
ATOM     52  H81 UNL     1       8.055  28.829   3.624  1.00  0.00     0.157 HD
HETATM   53  N9  UNL     1       9.993  27.199   3.965  1.00  0.00    -0.082 NA
ENDBRANCH  48  49
ENDBRANCH  39  41
ENDBRANCH  38  39
ENDBRANCH  37  38
ENDBRANCH  36  37
ENDBRANCH  34  36
ENDBRANCH   6  34
TORSDOF 21
ENDMDL
MODEL 3
REMARK VINA RESULT: -8.440553599      2.793      4.854
REMARK  21 active torsions:
REMARK  status: ('A' for Active; 'I' for Inactive)
REMARK    1  A    between atoms: O1_2  and  C2_3 
REMARK    2  A    between atoms: C4_5  and  C5_6 
REMARK    3  A    between atoms: C5_6  and  N1_7 
REMARK    4  A    between atoms: N1_7  and  C6_10 
REMARK    5  A    between atoms: C6_10  and  C7_11 
REMARK    6  A    between atoms: C7_11  and  C8_12 
REMARK    7  A    between atoms: C8_12  and  C9_13 
REMARK    8  A    between atoms: C9_13  and  C10_14 
REMARK    9  A    between atoms: C10_14  and  C11_15 
REMARK   10  A    between atoms: C11_15  and  C12_16 
REMARK   11  A    between atoms: C12_16  and  C13_17 
REMARK   12  A    between atoms: C13_17  and  N2_18 
REMARK   13  A    between atoms: N2_18  and  C14_20 
REMARK   14  A    between atoms: C17_25  and  N4_26 
REMARK   15  A    between atoms: N4_26  and  C18_28 
REMARK   16  A    between atoms: C18_28  and  C19_29 
REMARK   17  A    between atoms: C19_29  and  C20_30 
REMARK   18  A    between atoms: C20_30  and  N5_31 
REMARK   19  A    between atoms: N5_31  and  C21_33 
REMARK   20  A    between atoms: C24_40  and  C25_41 
REMARK   21  A    between atoms: C28_51  and  O2_52 
ROOT
HETATM    1  C14 UNL     1       0.451  23.068   6.491  1.00  0.00     0.679 A 
HETATM    2  N3  UNL     1       0.589  22.277   7.598  1.00  0.00    -0.202 N 
ATOM      3  H3  UNL     1      -0.215  22.144   8.210  1.00  0.00     0.183 HD
HETATM    4  C15 UNL     1       1.738  21.673   7.906  1.00  0.00     0.110 A 
HETATM    5  C16 UNL     1       2.842  21.824   7.109  1.00  0.00     0.066 A 
HETATM    6  C17 UNL     1       2.716  22.622   5.985  1.00  0.00     0.118 A 
HETATM    7  N10 UNL     1       1.531  23.217   5.711  1.00  0.00    -0.177 N 
ATOM      8  H10 UNL     1       1.458  23.803   4.879  1.00  0.00     0.185 HD
ENDROOT
BRANCH   1   9
HETATM    9  N2  UNL     1      -0.671  23.611   6.263  1.00  0.00    -0.226 N 
ATOM     10  H2  UNL     1      -0.977  23.666   5.291  1.00  0.00     0.177 HD
BRANCH   9  11
HETATM   11  C13 UNL     1      -1.562  24.164   7.279  1.00  0.00     0.142 C 
BRANCH  11  12
HETATM   12  C12 UNL     1      -2.781  23.309   7.319  1.00  0.00     0.047 C 
BRANCH  12  13
HETATM   13  C11 UNL     1      -3.947  23.724   8.081  1.00  0.00    -0.025 C 
BRANCH  13  14
HETATM   14  C10 UNL     1      -4.876  22.853   8.766  1.00  0.00    -0.008 C 
BRANCH  14  15
HETATM   15  C9  UNL     1      -5.355  21.543   8.438  1.00  0.00    -0.027 C 
BRANCH  15  16
HETATM   16  C8  UNL     1      -4.543  20.326   8.429  1.00  0.00     0.028 C 
BRANCH  16  17
HETATM   17  C7  UNL     1      -4.660  19.376   9.581  1.00  0.00     0.031 C 
BRANCH  17  18
HETATM   18  C6  UNL     1      -6.040  18.988   9.975  1.00  0.00     0.233 C 
BRANCH  18  19
HETATM   19  N1  UNL     1      -6.218  18.638  11.348  1.00  0.00    -0.071 N 
ATOM     20  H12 UNL     1      -5.330  18.652  11.850  1.00  0.00     0.277 HD
ATOM     21  H11 UNL     1      -6.445  17.649  11.450  1.00  0.00     0.277 HD
BRANCH  19  22
HETATM   22  C5  UNL     1      -7.210  19.480  12.005  1.00  0.00     0.270 C 
BRANCH  22  23
HETATM   23  C4  UNL     1      -6.605  20.652  12.643  1.00  0.00    -0.029 A 
HETATM   24  C3  UNL     1      -5.910  20.622  13.837  1.00  0.00     0.048 A 
HETATM   25  C2  UNL     1      -5.383  21.786  14.349  1.00  0.00     0.103 A 
HETATM   26  C28 UNL     1      -5.520  23.019  13.709  1.00  0.00     0.118 A 
HETATM   27  C27 UNL     1      -6.219  23.043  12.511  1.00  0.00     0.047 A 
HETATM   28  C26 UNL     1      -6.733  21.879  12.021  1.00  0.00     0.030 A 
HETATM   29 BR1  UNL     1      -6.436  24.684  11.592  1.00  0.00    -0.048 Br
BRANCH  25  30
HETATM   30  O1  UNL     1      -4.684  21.775  15.541  1.00  0.00    -0.353 OA
HETATM   31  C1  UNL     1      -5.325  21.706  16.799  1.00  0.00     0.210 C 
ENDBRANCH  25  30
BRANCH  26  32
HETATM   32  O2  UNL     1      -4.969  24.158  14.271  1.00  0.00    -0.352 OA
HETATM   33  C29 UNL     1      -5.818  24.940  15.107  1.00  0.00     0.210 C 
ENDBRANCH  26  32
ENDBRANCH  22  23
ENDBRANCH  19  22
ENDBRANCH  18  19
ENDBRANCH  17  18
ENDBRANCH  16  17
ENDBRANCH  15  16
ENDBRANCH  14  15
ENDBRANCH  13  14
ENDBRANCH  12  13
ENDBRANCH  11  12
ENDBRANCH   9  11
ENDBRANCH   1   9
BRANCH   6  34
HETATM   34  N4  UNL     1       3.707  22.811   5.206  1.00  0.00    -0.376 N 
ATOM     35  H4  UNL     1       3.858  22.096   4.494  1.00  0.00     0.161 HD
BRANCH  34  36
HETATM   36  C18 UNL     1       4.629  23.893   5.205  1.00  0.00     0.126 C 
BRANCH  36  37
HETATM   37  C19 UNL     1       6.001  23.410   5.673  1.00  0.00     0.064 C 
BRANCH  37  38
HETATM   38  C20 UNL     1       6.933  23.533   4.483  1.00  0.00     0.064 C 
BRANCH  38  39
HETATM   39  N5  UNL     1       7.018  24.762   3.850  1.00  0.00    -0.355 N 
ATOM     40  H5  UNL     1       6.367  24.804   3.065  1.00  0.00     0.166 HD
BRANCH  39  41
HETATM   41  C21 UNL     1       7.646  25.829   3.950  1.00  0.00     0.120 A 
HETATM   42  N6  UNL     1       7.678  26.641   5.000  1.00  0.00    -0.338 N 
HETATM   43  C22 UNL     1       8.369  27.796   5.058  1.00  0.00     0.181 A 
ATOM     44  H6  UNL     1       7.141  26.371   5.824  1.00  0.00     0.168 HD
HETATM   45  N7  UNL     1       9.095  28.187   3.983  1.00  0.00    -0.361 N 
HETATM   46  C23 UNL     1       9.115  27.419   2.876  1.00  0.00     0.107 A 
ATOM     47  H7  UNL     1       9.623  29.059   4.011  1.00  0.00     0.166 HD
HETATM   48  C24 UNL     1       8.408  26.252   2.838  1.00  0.00     0.064 A 
BRANCH  48  49
HETATM   49  C25 UNL     1       8.451  25.413   1.646  1.00  0.00     0.125 C 
HETATM   50  N8  UNL     1       9.473  24.648   1.434  1.00  0.00    -0.387 N 
ATOM     51  H82 UNL     1      10.257  24.630   2.085  1.00  0.00     0.157 HD
ATOM     52  H81 UNL     1       9.503  24.061   0.599  1.00  0.00     0.157 HD
HETATM   53  N9  UNL     1       7.355  25.438   0.737  1.00  0.00    -0.082 NA
ENDBRANCH  48  49
ENDBRANCH  39  41
ENDBRANCH  38  39
ENDBRANCH  37  38
ENDBRANCH  36  37
ENDBRANCH  34  36
ENDBRANCH   6  34
TORSDOF 21
ENDMDL
MODEL 4
REMARK VINA RESULT: -8.417200682      5.452     11.436
REMARK  21 active torsions:
REMARK  status: ('A' for Active; 'I' for Inactive)
REMARK    1  A    between atoms: O1_2  and  C2_3 
REMARK    2  A    between atoms: C4_5  and  C5_6 
REMARK    3  A    between atoms: C5_6  and  N1_7 
REMARK    4  A    between atoms: N1_7  and  C6_10 
REMARK    5  A    between atoms: C6_10  and  C7_11 
REMARK    6  A    between atoms: C7_11  and  C8_12 
REMARK    7  A    between atoms: C8_12  and  C9_13 
REMARK    8  A    between atoms: C9_13  and  C10_14 
REMARK    9  A    between atoms: C10_14  and  C11_15 
REMARK   10  A    between atoms: C11_15  and  C12_16 
REMARK   11  A    between atoms: C12_16  and  C13_17 
REMARK   12  A    between atoms: C13_17  and  N2_18 
REMARK   13  A    between atoms: N2_18  and  C14_20 
REMARK   14  A    between atoms: C17_25  and  N4_26 
REMARK   15  A    between atoms: N4_26  and  C18_28 
REMARK   16  A    between atoms: C18_28  and  C19_29 
REMARK   17  A    between atoms: C19_29  and  C20_30 
REMARK   18  A    between atoms: C20_30  and  N5_31 
REMARK   19  A    between atoms: N5_31  and  C21_33 
REMARK   20  A    between atoms: C24_40  and  C25_41 
REMARK   21  A    between atoms: C28_51  and  O2_52 
ROOT
HETATM    1  C14 UNL     1       7.343  25.042   3.154  1.00  0.00     0.679 A 
HETATM    2  N3  UNL     1       8.535  24.631   3.682  1.00  0.00    -0.202 N 
ATOM      3  H3  UNL     1       9.400  24.905   3.216  1.00  0.00     0.183 HD
HETATM    4  C15 UNL     1       8.609  23.884   4.785  1.00  0.00     0.110 A 
HETATM    5  C16 UNL     1       7.472  23.495   5.442  1.00  0.00     0.066 A 
HETATM    6  C17 UNL     1       6.258  23.904   4.918  1.00  0.00     0.118 A 
HETATM    7  N10 UNL     1       6.229  24.660   3.796  1.00  0.00    -0.177 N 
ATOM      8  H10 UNL     1       5.326  24.951   3.424  1.00  0.00     0.185 HD
ENDROOT
BRANCH   1   9
HETATM    9  N2  UNL     1       7.350  25.749   2.102  1.00  0.00    -0.226 N 
ATOM     10  H2  UNL     1       6.642  26.479   2.022  1.00  0.00     0.177 HD
BRANCH   9  11
HETATM   11  C13 UNL     1       8.291  25.603   0.995  1.00  0.00     0.142 C 
BRANCH  11  12
HETATM   12  C12 UNL     1       8.991  26.907   0.827  1.00  0.00     0.047 C 
BRANCH  12  13
HETATM   13  C11 UNL     1      10.170  27.217   1.618  1.00  0.00    -0.025 C 
BRANCH  13  14
HETATM   14  C10 UNL     1      10.331  28.347   2.506  1.00  0.00    -0.008 C 
BRANCH  14  15
HETATM   15  C9  UNL     1       9.570  28.764   3.647  1.00  0.00    -0.027 C 
BRANCH  15  16
HETATM   16  C8  UNL     1       9.136  27.889   4.736  1.00  0.00     0.028 C 
BRANCH  16  17
HETATM   17  C7  UNL     1       7.733  28.018   5.244  1.00  0.00     0.031 C 
BRANCH  17  18
HETATM   18  C6  UNL     1       7.384  29.311   5.890  1.00  0.00     0.233 C 
BRANCH  18  19
HETATM   19  N1  UNL     1       7.166  29.260   7.300  1.00  0.00    -0.071 N 
ATOM     20  H12 UNL     1       6.709  28.390   7.573  1.00  0.00     0.277 HD
ATOM     21  H11 UNL     1       6.441  29.919   7.586  1.00  0.00     0.277 HD
BRANCH  19  22
HETATM   22  C5  UNL     1       8.397  29.469   8.053  1.00  0.00     0.270 C 
BRANCH  22  23
HETATM   23  C4  UNL     1       8.192  29.326   9.497  1.00  0.00    -0.029 A 
HETATM   24  C3  UNL     1       9.200  29.072  10.409  1.00  0.00     0.048 A 
HETATM   25  C2  UNL     1       8.895  28.953  11.747  1.00  0.00     0.103 A 
HETATM   26  C28 UNL     1       7.593  29.078  12.235  1.00  0.00     0.118 A 
HETATM   27  C27 UNL     1       6.587  29.332  11.315  1.00  0.00     0.047 A 
HETATM   28  C26 UNL     1       6.909  29.446   9.995  1.00  0.00     0.030 A 
HETATM   29 BR1  UNL     1       4.801  29.517  11.915  1.00  0.00    -0.048 Br
BRANCH  25  30
HETATM   30  O1  UNL     1       9.888  28.700  12.673  1.00  0.00    -0.353 OA
HETATM   31  C1  UNL     1      11.145  29.348  12.638  1.00  0.00     0.210 C 
ENDBRANCH  25  30
BRANCH  26  32
HETATM   32  O2  UNL     1       7.346  28.948  13.591  1.00  0.00    -0.352 OA
HETATM   33  C29 UNL     1       7.039  27.642  14.068  1.00  0.00     0.210 C 
ENDBRANCH  26  32
ENDBRANCH  22  23
ENDBRANCH  19  22
ENDBRANCH  18  19
ENDBRANCH  17  18
ENDBRANCH  16  17
ENDBRANCH  15  16
ENDBRANCH  14  15
ENDBRANCH  13  14
ENDBRANCH  12  13
ENDBRANCH  11  12
ENDBRANCH   9  11
ENDBRANCH   1   9
BRANCH   6  34
HETATM   34  N4  UNL     1       5.162  23.569   5.477  1.00  0.00    -0.376 N 
ATOM     35  H4  UNL     1       4.376  24.203   5.332  1.00  0.00     0.161 HD
BRANCH  34  36
HETATM   36  C18 UNL     1       4.898  22.423   6.275  1.00  0.00     0.126 C 
BRANCH  36  37
HETATM   37  C19 UNL     1       3.475  22.489   6.828  1.00  0.00     0.064 C 
BRANCH  37  38
HETATM   38  C20 UNL     1       2.604  23.042   5.717  1.00  0.00     0.064 C 
BRANCH  38  39
HETATM   39  N5  UNL     1       1.231  23.033   5.903  1.00  0.00    -0.355 N 
ATOM     40  H5  UNL     1       0.856  22.097   5.745  1.00  0.00     0.166 HD
BRANCH  39  41
HETATM   41  C21 UNL     1       0.319  23.820   6.204  1.00  0.00     0.120 A 
HETATM   42  N6  UNL     1       0.107  25.029   5.696  1.00  0.00    -0.338 N 
HETATM   43  C22 UNL     1      -0.893  25.853   6.063  1.00  0.00     0.181 A 
ATOM     44  H6  UNL     1       0.749  25.358   4.975  1.00  0.00     0.168 HD
HETATM   45  N7  UNL     1      -1.766  25.449   7.017  1.00  0.00    -0.361 N 
HETATM   46  C23 UNL     1      -1.620  24.235   7.584  1.00  0.00     0.107 A 
ATOM     47  H7  UNL     1      -2.529  26.061   7.306  1.00  0.00     0.166 HD
HETATM   48  C24 UNL     1      -0.600  23.415   7.198  1.00  0.00     0.064 A 
BRANCH  48  49
HETATM   49  C25 UNL     1      -0.461  22.094   7.798  1.00  0.00     0.125 C 
HETATM   50  N8  UNL     1       0.123  21.967   8.946  1.00  0.00    -0.387 N 
ATOM     51  H82 UNL     1       0.498  22.780   9.436  1.00  0.00     0.157 HD
ATOM     52  H81 UNL     1       0.221  21.042   9.366  1.00  0.00     0.157 HD
HETATM   53  N9  UNL     1      -0.985  20.959   7.115  1.00  0.00    -0.082 NA
ENDBRANCH  48  49
ENDBRANCH  39  41
ENDBRANCH  38  39
ENDBRANCH  37  38
ENDBRANCH  36  37
ENDBRANCH  34  36
ENDBRANCH   6  34
TORSDOF 21
ENDMDL
MODEL 5
REMARK VINA RESULT: -8.331171217      3.012      5.416
REMARK  21 active torsions:
REMARK  status: ('A' for Active; 'I' for Inactive)
REMARK    1  A    between atoms: O1_2  and  C2_3 
REMARK    2  A    between atoms: C4_5  and  C5_6 
REMARK    3  A    between atoms: C5_6  and  N1_7 
REMARK    4  A    between atoms: N1_7  and  C6_10 
REMARK    5  A    between atoms: C6_10  and  C7_11 
REMARK    6  A    between atoms: C7_11  and  C8_12 
REMARK    7  A    between atoms: C8_12  and  C9_13 
REMARK    8  A    between atoms: C9_13  and  C10_14 
REMARK    9  A    between atoms: C10_14  and  C11_15 
REMARK   10  A    between atoms: C11_15  and  C12_16 
REMARK   11  A    between atoms: C12_16  and  C13_17 
REMARK   12  A    between atoms: C13_17  and  N2_18 
REMARK   13  A    between atoms: N2_18  and  C14_20 
REMARK   14  A    between atoms: C17_25  and  N4_26 
REMARK   15  A    between atoms: N4_26  and  C18_28 
REMARK   16  A    between atoms: C18_28  and  C19_29 
REMARK   17  A    between atoms: C19_29  and  C20_30 
REMARK   18  A    between atoms: C20_30  and  N5_31 
REMARK   19  A    between atoms: N5_31  and  C21_33 
REMARK   20  A    between atoms: C24_40  and  C25_41 
REMARK   21  A    between atoms: C28_51  and  O2_52 
ROOT
HETATM    1  C14 UNL     1       4.023  23.986   4.889  1.00  0.00     0.679 A 
HETATM    2  N3  UNL     1       4.561  23.029   5.704  1.00  0.00    -0.202 N 
ATOM      3  H3  UNL     1       3.934  22.409   6.215  1.00  0.00     0.183 HD
HETATM    4  C15 UNL     1       5.878  22.877   5.855  1.00  0.00     0.110 A 
HETATM    5  C16 UNL     1       6.756  23.687   5.185  1.00  0.00     0.066 A 
HETATM    6  C17 UNL     1       6.224  24.661   4.356  1.00  0.00     0.118 A 
HETATM    7  N10 UNL     1       4.881  24.781   4.234  1.00  0.00    -0.177 N 
ATOM      8  H10 UNL     1       4.508  25.504   3.620  1.00  0.00     0.185 HD
ENDROOT
BRANCH   1   9
HETATM    9  N2  UNL     1       2.762  24.073   4.797  1.00  0.00    -0.226 N 
ATOM     10  H2  UNL     1       2.356  24.026   3.862  1.00  0.00     0.177 HD
BRANCH   9  11
HETATM   11  C13 UNL     1       1.843  24.234   5.921  1.00  0.00     0.142 C 
BRANCH  11  12
HETATM   12  C12 UNL     1       1.058  22.974   6.041  1.00  0.00     0.047 C 
BRANCH  12  13
HETATM   13  C11 UNL     1       1.466  21.938   6.975  1.00  0.00    -0.025 C 
BRANCH  13  14
HETATM   14  C10 UNL     1       0.643  21.340   8.002  1.00  0.00    -0.008 C 
BRANCH  14  15
HETATM   15  C9  UNL     1      -0.642  21.714   8.516  1.00  0.00    -0.027 C 
BRANCH  15  16
HETATM   16  C8  UNL     1      -1.927  21.294   7.959  1.00  0.00     0.028 C 
BRANCH  16  17
HETATM   17  C7  UNL     1      -2.946  22.344   7.635  1.00  0.00     0.031 C 
BRANCH  17  18
HETATM   18  C6  UNL     1      -2.464  23.508   6.845  1.00  0.00     0.233 C 
BRANCH  18  19
HETATM   19  N1  UNL     1      -2.607  24.783   7.471  1.00  0.00    -0.071 N 
ATOM     20  H12 UNL     1      -2.810  25.510   6.786  1.00  0.00     0.277 HD
ATOM     21  H11 UNL     1      -1.710  25.129   7.813  1.00  0.00     0.277 HD
BRANCH  19  22
HETATM   22  C5  UNL     1      -3.606  24.764   8.533  1.00  0.00     0.270 C 
BRANCH  22  23
HETATM   23  C4  UNL     1      -3.557  25.972   9.359  1.00  0.00    -0.029 A 
HETATM   24  C3  UNL     1      -3.230  27.230   8.888  1.00  0.00     0.048 A 
HETATM   25  C2  UNL     1      -3.212  28.300   9.755  1.00  0.00     0.103 A 
HETATM   26  C28 UNL     1      -3.513  28.173  11.112  1.00  0.00     0.118 A 
HETATM   27  C27 UNL     1      -3.840  26.909  11.579  1.00  0.00     0.047 A 
HETATM   28  C26 UNL     1      -3.852  25.863  10.705  1.00  0.00     0.030 A 
HETATM   29 BR1  UNL     1      -4.262  26.672  13.409  1.00  0.00    -0.048 Br
BRANCH  25  30
HETATM   30  O1  UNL     1      -2.888  29.564   9.302  1.00  0.00    -0.353 OA
HETATM   31  C1  UNL     1      -1.654  29.856   8.676  1.00  0.00     0.210 C 
ENDBRANCH  25  30
BRANCH  26  32
HETATM   32  O2  UNL     1      -3.478  29.285  11.937  1.00  0.00    -0.352 OA
HETATM   33  C29 UNL     1      -2.230  29.594  12.550  1.00  0.00     0.210 C 
ENDBRANCH  26  32
ENDBRANCH  22  23
ENDBRANCH  19  22
ENDBRANCH  18  19
ENDBRANCH  17  18
ENDBRANCH  16  17
ENDBRANCH  15  16
ENDBRANCH  14  15
ENDBRANCH  13  14
ENDBRANCH  12  13
ENDBRANCH  11  12
ENDBRANCH   9  11
ENDBRANCH   1   9
BRANCH   6  34
HETATM   34  N4  UNL     1       6.986  25.453   3.711  1.00  0.00    -0.376 N 
ATOM     35  H4  UNL     1       6.586  25.872   2.871  1.00  0.00     0.161 HD
BRANCH  34  36
HETATM   36  C18 UNL     1       8.324  25.827   4.015  1.00  0.00     0.126 C 
BRANCH  36  37
HETATM   37  C19 UNL     1       8.405  27.335   4.246  1.00  0.00     0.064 C 
BRANCH  37  38
HETATM   38  C20 UNL     1       9.551  27.843   3.393  1.00  0.00     0.064 C 
BRANCH  38  39
HETATM   39  N5  UNL     1       9.911  27.099   2.280  1.00  0.00    -0.355 N 
ATOM     40  H5  UNL     1       9.736  26.107   2.443  1.00  0.00     0.166 HD
BRANCH  39  41
HETATM   41  C21 UNL     1      10.382  27.276   1.144  1.00  0.00     0.120 A 
HETATM   42  N6  UNL     1      11.278  28.188   0.785  1.00  0.00    -0.338 N 
HETATM   43  C22 UNL     1      11.753  28.349  -0.465  1.00  0.00     0.181 A 
ATOM     44  H6  UNL     1      11.632  28.814   1.508  1.00  0.00     0.168 HD
HETATM   45  N7  UNL     1      11.305  27.535  -1.452  1.00  0.00    -0.361 N 
HETATM   46  C23 UNL     1      10.395  26.583  -1.169  1.00  0.00     0.107 A 
ATOM     47  H7  UNL     1      11.656  27.644  -2.403  1.00  0.00     0.166 HD
HETATM   48  C24 UNL     1       9.927  26.437   0.104  1.00  0.00     0.064 A 
BRANCH  48  49
HETATM   49  C25 UNL     1       8.958  25.390   0.408  1.00  0.00     0.125 C 
HETATM   50  N8  UNL     1       9.361  24.173   0.590  1.00  0.00    -0.387 N 
ATOM     51  H82 UNL     1      10.349  23.932   0.514  1.00  0.00     0.157 HD
ATOM     52  H81 UNL     1       8.683  23.441   0.803  1.00  0.00     0.157 HD
HETATM   53  N9  UNL     1       7.578  25.727   0.515  1.00  0.00    -0.082 NA
ENDBRANCH  48  49
ENDBRANCH  39  41
ENDBRANCH  38  39
ENDBRANCH  37  38
ENDBRANCH  36  37
ENDBRANCH  34  36
ENDBRANCH   6  34
TORSDOF 21
ENDMDL
