MODEL 1
REMARK VINA RESULT: -10.196961277      0.000      0.000
REMARK  19 active torsions:
REMARK  status: ('A' for Active; 'I' for Inactive)
REMARK    1  A    between atoms: C3_5  and  N2_6 
REMARK    2  A    between atoms: C4_11  and  N4_12 
REMARK    3  A    between atoms: C5_15  and  C6_16 
REMARK    4  A    between atoms: C6_16  and  C7_17 
REMARK    5  A    between atoms: C7_17  and  C8_18 
REMARK    6  A    between atoms: C9_19  and  C10_20 
REMARK    7  A    between atoms: C10_20  and  C11_21 
REMARK    8  A    between atoms: C11_21  and  C12_22 
REMARK    9  A    between atoms: C12_22  and  C13_23 
REMARK   10  A    between atoms: C16_26  and  S1_27 
REMARK   11  A    between atoms: S1_27  and  N5_30 
REMARK   12  A    between atoms: N5_30  and  C17_32 
REMARK   13  A    between atoms: C17_32  and  C18_34 
REMARK   14  A    between atoms: C18_34  and  C19_35 
REMARK   15  A    between atoms: C19_35  and  C20_36 
REMARK   16  A    between atoms: C20_36  and  N6_37 
REMARK       I    between atoms: C21_39  and  N8_41 
REMARK   17  A    between atoms: N11_49  and  C24_50 
REMARK   18  A    between atoms: C24_50  and  C25_51 
REMARK   19  A    between atoms: C25_51  and  C26_52 
ROOT
HETATM    1  C8  UNL     1       0.353  24.008   6.623  1.00  0.00     0.081 A 
HETATM    2  C9  UNL     1       1.360  23.343   5.964  1.00  0.00     0.056 A 
HETATM    3  N9  UNL     1       1.540  24.058   4.794  1.00  0.00    -0.288 N 
ATOM      4  H9  UNL     1       2.216  23.833   4.065  1.00  0.00     0.188 HD
HETATM    5  N10 UNL     1       0.721  25.052   4.766  1.00  0.00    -0.236 N 
ATOM      6  H10 UNL     1       0.663  25.730   4.005  1.00  0.00     0.209 HD
HETATM    7  N11 UNL     1      -0.040  25.082   5.861  1.00  0.00    -0.255 N 
ENDROOT
BRANCH   2   8
HETATM    8  C10 UNL     1       2.225  22.201   6.294  1.00  0.00     0.061 C 
BRANCH   8   9
HETATM    9  C11 UNL     1       3.465  22.613   6.998  1.00  0.00     0.013 C 
BRANCH   9  10
HETATM   10  C12 UNL     1       4.770  22.215   6.433  1.00  0.00     0.065 C 
BRANCH  10  11
HETATM   11  C13 UNL     1       5.409  23.223   5.549  1.00  0.00     0.054 A 
HETATM   12  C14 UNL     1       4.867  24.236   4.793  1.00  0.00     0.036 A 
HETATM   13  C15 UNL     1       5.913  24.874   4.169  1.00  0.00     0.054 A 
HETATM   14  C16 UNL     1       7.079  24.215   4.572  1.00  0.00     0.190 A 
HETATM   15  O3  UNL     1       6.698  23.268   5.373  1.00  0.00    -0.302 OA
BRANCH  14  16
HETATM   16  S1  UNL     1       8.648  24.681   4.032  1.00  0.00     0.282 S 
HETATM   17  O1  UNL     1       8.631  24.646   2.502  1.00  0.00    -0.198 OA
HETATM   18  O2  UNL     1       9.707  23.685   4.429  1.00  0.00    -0.198 OA
BRANCH  16  19
HETATM   19  N5  UNL     1       9.037  26.268   4.475  1.00  0.00    -0.296 N 
ATOM     20  H5  UNL     1       9.601  26.472   5.300  1.00  0.00     0.174 HD
BRANCH  19  21
HETATM   21  C17 UNL     1       8.538  27.292   3.643  1.00  0.00     0.190 C 
HETATM   22 CL1  UNL     1       7.764  28.576   4.720  1.00  0.00    -0.102 Cl
BRANCH  21  23
HETATM   23  C18 UNL     1       9.580  28.029   2.893  1.00  0.00     0.043 C 
BRANCH  23  24
HETATM   24  C19 UNL     1      10.762  27.328   2.370  1.00  0.00     0.023 C 
BRANCH  24  25
HETATM   25  C20 UNL     1      10.928  27.270   0.885  1.00  0.00     0.122 C 
BRANCH  25  26
HETATM   26  N6  UNL     1      10.163  26.146   0.332  1.00  0.00    -0.365 N 
HETATM   27  C21 UNL     1       9.211  26.258  -0.505  1.00  0.00     0.185 C 
HETATM   28  N7  UNL     1       8.563  25.085  -0.955  1.00  0.00    -0.064 NA
HETATM   29  N8  UNL     1       8.812  27.525  -0.973  1.00  0.00    -0.364 N 
HETATM   30  C22 UNL     1       9.374  28.049  -2.188  1.00  0.00     0.151 C 
HETATM   31  C23 UNL     1       7.840  28.315  -0.253  1.00  0.00     0.151 C 
ATOM     32  H6  UNL     1      10.413  25.207   0.641  1.00  0.00     0.162 HD
ENDBRANCH  25  26
ENDBRANCH  24  25
ENDBRANCH  23  24
ENDBRANCH  21  23
ENDBRANCH  19  21
ENDBRANCH  16  19
ENDBRANCH  14  16
ENDBRANCH  10  11
ENDBRANCH   9  10
ENDBRANCH   8   9
ENDBRANCH   2   8
BRANCH   1  33
HETATM   33  C7  UNL     1      -0.206  23.690   7.921  1.00  0.00     0.034 C 
BRANCH  33  34
HETATM   34  C6  UNL     1      -1.625  23.829   8.254  1.00  0.00     0.020 C 
BRANCH  34  35
HETATM   35  C5  UNL     1      -2.583  22.761   8.122  1.00  0.00     0.031 A 
HETATM   36  C2  UNL     1      -2.316  21.434   7.959  1.00  0.00     0.036 A 
HETATM   37  C1  UNL     1      -0.909  20.891   8.011  1.00  0.00     0.070 C 
HETATM   38  N1  UNL     1      -3.326  20.542   7.804  1.00  0.00    -0.195 N 
HETATM   39  C3  UNL     1      -4.597  20.919   7.809  1.00  0.00     0.677 A 
ATOM     40  H1  UNL     1      -3.101  19.555   7.682  1.00  0.00     0.184 HD
HETATM   41  N3  UNL     1      -4.883  22.218   7.971  1.00  0.00    -0.176 N 
HETATM   42  C4  UNL     1      -3.937  23.145   8.126  1.00  0.00     0.127 A 
ATOM     43  H3  UNL     1      -5.861  22.508   7.978  1.00  0.00     0.186 HD
BRANCH  39  44
HETATM   44  N2  UNL     1      -5.568  20.058   7.659  1.00  0.00    -0.234 N 
ATOM     45  H22 UNL     1      -5.420  19.082   7.915  1.00  0.00     0.174 HD
ATOM     46  H21 UNL     1      -6.478  20.335   7.290  1.00  0.00     0.174 HD
ENDBRANCH  39  44
BRANCH  42  47
HETATM   47  N4  UNL     1      -4.259  24.404   8.284  1.00  0.00    -0.384 N 
ATOM     48  H42 UNL     1      -5.192  24.653   8.614  1.00  0.00     0.157 HD
ATOM     49  H41 UNL     1      -3.585  25.141   8.078  1.00  0.00     0.157 HD
ENDBRANCH  42  47
ENDBRANCH  34  35
ENDBRANCH  33  34
ENDBRANCH   1  33
BRANCH   7  50
HETATM   50  C24 UNL     1      -1.005  26.045   6.176  1.00  0.00     0.091 C 
BRANCH  50  51
HETATM   51  C25 UNL     1      -0.697  27.385   6.664  1.00  0.00     0.050 C 
BRANCH  51  52
HETATM   52  C26 UNL     1      -1.781  28.387   6.841  1.00  0.00    -0.018 C 
HETATM   53  C27 UNL     1      -1.102  29.780   6.977  1.00  0.00     0.010 C 
HETATM   54  C28 UNL     1      -2.522  28.218   8.140  1.00  0.00     0.010 C 
ENDBRANCH  51  52
ENDBRANCH  50  51
ENDBRANCH   7  50
TORSDOF 19
ENDMDL
MODEL 2
REMARK VINA RESULT: -10.018968847      1.815      2.546
REMARK  19 active torsions:
REMARK  status: ('A' for Active; 'I' for Inactive)
REMARK    1  A    between atoms: C3_5  and  N2_6 
REMARK    2  A    between atoms: C4_11  and  N4_12 
REMARK    3  A    between atoms: C5_15  and  C6_16 
REMARK    4  A    between atoms: C6_16  and  C7_17 
REMARK    5  A    between atoms: C7_17  and  C8_18 
REMARK    6  A    between atoms: C9_19  and  C10_20 
REMARK    7  A    between atoms: C10_20  and  C11_21 
REMARK    8  A    between atoms: C11_21  and  C12_22 
REMARK    9  A    between atoms: C12_22  and  C13_23 
REMARK   10  A    between atoms: C16_26  and  S1_27 
REMARK   11  A    between atoms: S1_27  and  N5_30 
REMARK   12  A    between atoms: N5_30  and  C17_32 
REMARK   13  A    between atoms: C17_32  and  C18_34 
REMARK   14  A    between atoms: C18_34  and  C19_35 
REMARK   15  A    between atoms: C19_35  and  C20_36 
REMARK   16  A    between atoms: C20_36  and  N6_37 
REMARK       I    between atoms: C21_39  and  N8_41 
REMARK   17  A    between atoms: N11_49  and  C24_50 
REMARK   18  A    between atoms: C24_50  and  C25_51 
REMARK   19  A    between atoms: C25_51  and  C26_52 
ROOT
HETATM    1  C8  UNL     1       0.438  23.987   6.557  1.00  0.00     0.081 A 
HETATM    2  C9  UNL     1       1.474  23.321   5.948  1.00  0.00     0.056 A 
HETATM    3  N9  UNL     1       1.679  24.007   4.764  1.00  0.00    -0.288 N 
ATOM      4  H9  UNL     1       2.381  23.773   4.063  1.00  0.00     0.188 HD
HETATM    5  N10 UNL     1       0.847  24.987   4.684  1.00  0.00    -0.236 N 
ATOM      6  H10 UNL     1       0.802  25.643   3.904  1.00  0.00     0.209 HD
HETATM    7  N11 UNL     1       0.052  25.034   5.754  1.00  0.00    -0.255 N 
ENDROOT
BRANCH   2   8
HETATM    8  C10 UNL     1       2.345  22.202   6.334  1.00  0.00     0.061 C 
BRANCH   8   9
HETATM    9  C11 UNL     1       3.595  22.657   6.993  1.00  0.00     0.013 C 
BRANCH   9  10
HETATM   10  C12 UNL     1       4.892  22.284   6.395  1.00  0.00     0.065 C 
BRANCH  10  11
HETATM   11  C13 UNL     1       5.474  23.290   5.470  1.00  0.00     0.054 A 
HETATM   12  C14 UNL     1       4.889  24.320   4.772  1.00  0.00     0.036 A 
HETATM   13  C15 UNL     1       5.891  24.947   4.068  1.00  0.00     0.054 A 
HETATM   14  C16 UNL     1       7.074  24.263   4.366  1.00  0.00     0.190 A 
HETATM   15  O3  UNL     1       6.744  23.315   5.187  1.00  0.00    -0.302 OA
BRANCH  14  16
HETATM   16  S1  UNL     1       8.600  24.707   3.701  1.00  0.00     0.282 S 
HETATM   17  O1  UNL     1       9.665  23.857   4.397  1.00  0.00    -0.198 OA
HETATM   18  O2  UNL     1       8.972  26.132   4.026  1.00  0.00    -0.198 OA
BRANCH  16  19
HETATM   19  N5  UNL     1       8.708  24.360   2.048  1.00  0.00    -0.296 N 
ATOM     20  H5  UNL     1       8.522  23.426   1.682  1.00  0.00     0.174 HD
BRANCH  19  21
HETATM   21  C17 UNL     1       9.068  25.430   1.203  1.00  0.00     0.190 C 
HETATM   22 CL1  UNL     1       9.790  24.721  -0.340  1.00  0.00    -0.102 Cl
BRANCH  21  23
HETATM   23  C18 UNL     1       7.926  26.243   0.729  1.00  0.00     0.043 C 
BRANCH  23  24
HETATM   24  C19 UNL     1       8.121  27.646   0.334  1.00  0.00     0.023 C 
BRANCH  24  25
HETATM   25  C20 UNL     1       8.872  28.530   1.278  1.00  0.00     0.122 C 
BRANCH  25  26
HETATM   26  N6  UNL     1       8.195  28.574   2.580  1.00  0.00    -0.365 N 
HETATM   27  C21 UNL     1       8.176  29.584   3.354  1.00  0.00     0.185 C 
HETATM   28  N7  UNL     1       7.481  29.484   4.581  1.00  0.00    -0.064 NA
HETATM   29  N8  UNL     1       8.835  30.775   2.996  1.00  0.00    -0.364 N 
HETATM   30  C22 UNL     1       8.111  31.818   2.319  1.00  0.00     0.151 C 
HETATM   31  C23 UNL     1      10.233  30.977   3.299  1.00  0.00     0.151 C 
ATOM     32  H6  UNL     1       7.704  27.734   2.886  1.00  0.00     0.162 HD
ENDBRANCH  25  26
ENDBRANCH  24  25
ENDBRANCH  23  24
ENDBRANCH  21  23
ENDBRANCH  19  21
ENDBRANCH  16  19
ENDBRANCH  14  16
ENDBRANCH  10  11
ENDBRANCH   9  10
ENDBRANCH   8   9
ENDBRANCH   2   8
BRANCH   1  33
HETATM   33  C7  UNL     1      -0.156  23.695   7.846  1.00  0.00     0.034 C 
BRANCH  33  34
HETATM   34  C6  UNL     1      -1.580  23.864   8.145  1.00  0.00     0.020 C 
BRANCH  34  35
HETATM   35  C5  UNL     1      -2.535  22.786   8.107  1.00  0.00     0.031 A 
HETATM   36  C2  UNL     1      -2.266  21.453   8.009  1.00  0.00     0.036 A 
HETATM   37  C1  UNL     1      -0.854  20.920   8.041  1.00  0.00     0.070 C 
HETATM   38  N1  UNL     1      -3.274  20.550   7.941  1.00  0.00    -0.195 N 
HETATM   39  C3  UNL     1      -4.547  20.921   7.970  1.00  0.00     0.677 A 
ATOM     40  H1  UNL     1      -3.048  19.558   7.866  1.00  0.00     0.184 HD
HETATM   41  N3  UNL     1      -4.836  22.225   8.070  1.00  0.00    -0.176 N 
HETATM   42  C4  UNL     1      -3.891  23.163   8.138  1.00  0.00     0.127 A 
ATOM     43  H3  UNL     1      -5.814  22.511   8.095  1.00  0.00     0.186 HD
BRANCH  39  44
HETATM   44  N2  UNL     1      -5.518  20.048   7.903  1.00  0.00    -0.234 N 
ATOM     45  H22 UNL     1      -6.086  19.862   8.730  1.00  0.00     0.174 HD
ATOM     46  H21 UNL     1      -5.726  19.543   7.042  1.00  0.00     0.174 HD
ENDBRANCH  39  44
BRANCH  42  47
HETATM   47  N4  UNL     1      -4.215  24.428   8.237  1.00  0.00    -0.384 N 
ATOM     48  H42 UNL     1      -4.210  24.885   9.149  1.00  0.00     0.157 HD
ATOM     49  H41 UNL     1      -4.476  24.962   7.408  1.00  0.00     0.157 HD
ENDBRANCH  42  47
ENDBRANCH  34  35
ENDBRANCH  33  34
ENDBRANCH   1  33
BRANCH   7  50
HETATM   50  C24 UNL     1      -0.937  25.990   6.013  1.00  0.00     0.091 C 
BRANCH  50  51
HETATM   51  C25 UNL     1      -0.684  27.280   6.647  1.00  0.00     0.050 C 
BRANCH  51  52
HETATM   52  C26 UNL     1      -1.791  28.253   6.837  1.00  0.00    -0.018 C 
HETATM   53  C27 UNL     1      -1.145  29.657   7.012  1.00  0.00     0.010 C 
HETATM   54  C28 UNL     1      -2.541  28.037   8.123  1.00  0.00     0.010 C 
ENDBRANCH  51  52
ENDBRANCH  50  51
ENDBRANCH   7  50
TORSDOF 19
ENDMDL
MODEL 3
REMARK VINA RESULT: -9.730455827      1.345      1.751
REMARK  19 active torsions:
REMARK  status: ('A' for Active; 'I' for Inactive)
REMARK    1  A    between atoms: C3_5  and  N2_6 
REMARK    2  A    between atoms: C4_11  and  N4_12 
REMARK    3  A    between atoms: C5_15  and  C6_16 
REMARK    4  A    between atoms: C6_16  and  C7_17 
REMARK    5  A    between atoms: C7_17  and  C8_18 
REMARK    6  A    between atoms: C9_19  and  C10_20 
REMARK    7  A    between atoms: C10_20  and  C11_21 
REMARK    8  A    between atoms: C11_21  and  C12_22 
REMARK    9  A    between atoms: C12_22  and  C13_23 
REMARK   10  A    between atoms: C16_26  and  S1_27 
REMARK   11  A    between atoms: S1_27  and  N5_30 
REMARK   12  A    between atoms: N5_30  and  C17_32 
REMARK   13  A    between atoms: C17_32  and  C18_34 
REMARK   14  A    between atoms: C18_34  and  C19_35 
REMARK   15  A    between atoms: C19_35  and  C20_36 
REMARK   16  A    between atoms: C20_36  and  N6_37 
REMARK       I    between atoms: C21_39  and  N8_41 
REMARK   17  A    between atoms: N11_49  and  C24_50 
REMARK   18  A    between atoms: C24_50  and  C25_51 
REMARK   19  A    between atoms: C25_51  and  C26_52 
ROOT
HETATM    1  C8  UNL     1      -1.144  24.521   7.408  1.00  0.00     0.081 A 
HETATM    2  C9  UNL     1       0.001  23.998   6.858  1.00  0.00     0.056 A 
HETATM    3  N9  UNL     1       0.566  25.053   6.165  1.00  0.00    -0.288 N 
ATOM      4  H9  UNL     1       1.434  25.009   5.632  1.00  0.00     0.188 HD
HETATM    5  N10 UNL     1      -0.171  26.101   6.299  1.00  0.00    -0.236 N 
ATOM      6  H10 UNL     1       0.036  27.008   5.882  1.00  0.00     0.209 HD
HETATM    7  N11 UNL     1      -1.242  25.844   7.052  1.00  0.00    -0.255 N 
ENDROOT
BRANCH   2   8
HETATM    8  C10 UNL     1       0.683  22.697   6.943  1.00  0.00     0.061 C 
BRANCH   8   9
HETATM    9  C11 UNL     1       2.160  22.826   6.874  1.00  0.00     0.013 C 
BRANCH   9  10
HETATM   10  C12 UNL     1       2.815  22.805   5.551  1.00  0.00     0.065 C 
BRANCH  10  11
HETATM   11  C13 UNL     1       4.283  23.028   5.571  1.00  0.00     0.054 A 
HETATM   12  C14 UNL     1       5.279  22.431   6.308  1.00  0.00     0.036 A 
HETATM   13  C15 UNL     1       6.465  23.013   5.927  1.00  0.00     0.054 A 
HETATM   14  C16 UNL     1       6.146  23.965   4.952  1.00  0.00     0.190 A 
HETATM   15  O3  UNL     1       4.858  23.910   4.805  1.00  0.00    -0.302 OA
BRANCH  14  16
HETATM   16  S1  UNL     1       7.335  24.945   4.183  1.00  0.00     0.282 S 
HETATM   17  O1  UNL     1       6.918  25.100   2.718  1.00  0.00    -0.198 OA
HETATM   18  O2  UNL     1       8.683  24.272   4.130  1.00  0.00    -0.198 OA
BRANCH  16  19
HETATM   19  N5  UNL     1       7.403  26.506   4.834  1.00  0.00    -0.296 N 
ATOM     20  H5  UNL     1       7.019  26.721   5.754  1.00  0.00     0.174 HD
BRANCH  19  21
HETATM   21  C17 UNL     1       8.017  27.493   4.036  1.00  0.00     0.190 C 
HETATM   22 CL1  UNL     1       7.520  29.146   4.690  1.00  0.00    -0.102 Cl
BRANCH  21  23
HETATM   23  C18 UNL     1       9.495  27.504   4.111  1.00  0.00     0.043 C 
BRANCH  23  24
HETATM   24  C19 UNL     1      10.304  27.056   2.968  1.00  0.00     0.023 C 
BRANCH  24  25
HETATM   25  C20 UNL     1       9.683  27.135   1.610  1.00  0.00     0.122 C 
BRANCH  25  26
HETATM   26  N6  UNL     1       9.193  25.814   1.198  1.00  0.00    -0.365 N 
HETATM   27  C21 UNL     1       9.297  25.335   0.024  1.00  0.00     0.185 C 
HETATM   28  N7  UNL     1       8.780  24.045  -0.230  1.00  0.00    -0.064 NA
HETATM   29  N8  UNL     1       9.916  26.076  -1.001  1.00  0.00    -0.364 N 
HETATM   30  C22 UNL     1      11.319  25.900  -1.266  1.00  0.00     0.151 C 
HETATM   31  C23 UNL     1       9.165  27.016  -1.802  1.00  0.00     0.151 C 
ATOM     32  H6  UNL     1       8.735  25.239   1.905  1.00  0.00     0.162 HD
ENDBRANCH  25  26
ENDBRANCH  24  25
ENDBRANCH  23  24
ENDBRANCH  21  23
ENDBRANCH  19  21
ENDBRANCH  16  19
ENDBRANCH  14  16
ENDBRANCH  10  11
ENDBRANCH   9  10
ENDBRANCH   8   9
ENDBRANCH   2   8
BRANCH   1  33
HETATM   33  C7  UNL     1      -2.098  23.841   8.261  1.00  0.00     0.034 C 
BRANCH  33  34
HETATM   34  C6  UNL     1      -3.424  23.406   7.817  1.00  0.00     0.020 C 
BRANCH  34  35
HETATM   35  C5  UNL     1      -4.013  22.143   8.182  1.00  0.00     0.031 A 
HETATM   36  C2  UNL     1      -3.657  20.908   7.725  1.00  0.00     0.036 A 
HETATM   37  C1  UNL     1      -2.469  20.706   6.816  1.00  0.00     0.070 C 
HETATM   38  N1  UNL     1      -4.333  19.804   8.128  1.00  0.00    -0.195 N 
HETATM   39  C3  UNL     1      -5.351  19.878   8.973  1.00  0.00     0.677 A 
ATOM     40  H1  UNL     1      -4.050  18.891   7.770  1.00  0.00     0.184 HD
HETATM   41  N3  UNL     1      -5.716  21.080   9.439  1.00  0.00    -0.176 N 
HETATM   42  C4  UNL     1      -5.094  22.204   9.081  1.00  0.00     0.127 A 
ATOM     43  H3  UNL     1      -6.497  21.138  10.092  1.00  0.00     0.186 HD
BRANCH  39  44
HETATM   44  N2  UNL     1      -6.002  18.812   9.359  1.00  0.00    -0.234 N 
ATOM     45  H22 UNL     1      -6.357  18.158   8.662  1.00  0.00     0.174 HD
ATOM     46  H21 UNL     1      -6.166  18.613  10.346  1.00  0.00     0.174 HD
ENDBRANCH  39  44
BRANCH  42  47
HETATM   47  N4  UNL     1      -5.480  23.360   9.561  1.00  0.00    -0.384 N 
ATOM     48  H42 UNL     1      -6.166  23.394  10.315  1.00  0.00     0.157 HD
ATOM     49  H41 UNL     1      -5.101  24.229   9.185  1.00  0.00     0.157 HD
ENDBRANCH  42  47
ENDBRANCH  34  35
ENDBRANCH  33  34
ENDBRANCH   1  33
BRANCH   7  50
HETATM   50  C24 UNL     1      -2.230  26.760   7.431  1.00  0.00     0.091 C 
BRANCH  50  51
HETATM   51  C25 UNL     1      -1.968  28.157   7.762  1.00  0.00     0.050 C 
BRANCH  51  52
HETATM   52  C26 UNL     1      -1.833  29.171   6.684  1.00  0.00    -0.018 C 
HETATM   53  C27 UNL     1      -0.632  30.085   7.061  1.00  0.00     0.010 C 
HETATM   54  C28 UNL     1      -3.002  30.117   6.625  1.00  0.00     0.010 C 
ENDBRANCH  51  52
ENDBRANCH  50  51
ENDBRANCH   7  50
TORSDOF 19
ENDMDL
MODEL 4
REMARK VINA RESULT: -9.667422285      1.485      2.236
REMARK  19 active torsions:
REMARK  status: ('A' for Active; 'I' for Inactive)
REMARK    1  A    between atoms: C3_5  and  N2_6 
REMARK    2  A    between atoms: C4_11  and  N4_12 
REMARK    3  A    between atoms: C5_15  and  C6_16 
REMARK    4  A    between atoms: C6_16  and  C7_17 
REMARK    5  A    between atoms: C7_17  and  C8_18 
REMARK    6  A    between atoms: C9_19  and  C10_20 
REMARK    7  A    between atoms: C10_20  and  C11_21 
REMARK    8  A    between atoms: C11_21  and  C12_22 
REMARK    9  A    between atoms: C12_22  and  C13_23 
REMARK   10  A    between atoms: C16_26  and  S1_27 
REMARK   11  A    between atoms: S1_27  and  N5_30 
REMARK   12  A    between atoms: N5_30  and  C17_32 
REMARK   13  A    between atoms: C17_32  and  C18_34 
REMARK   14  A    between atoms: C18_34  and  C19_35 
REMARK   15  A    between atoms: C19_35  and  C20_36 
REMARK   16  A    between atoms: C20_36  and  N6_37 
REMARK       I    between atoms: C21_39  and  N8_41 
REMARK   17  A    between atoms: N11_49  and  C24_50 
REMARK   18  A    between atoms: C24_50  and  C25_51 
REMARK   19  A    between atoms: C25_51  and  C26_52 
ROOT
HETATM    1  C8  UNL     1      -1.427  24.726   7.494  1.00  0.00     0.081 A 
HETATM    2  C9  UNL     1      -0.305  24.243   6.866  1.00  0.00     0.056 A 
HETATM    3  N9  UNL     1       0.263  25.354   6.268  1.00  0.00    -0.288 N 
ATOM      4  H9  UNL     1       1.117  25.349   5.711  1.00  0.00     0.188 HD
HETATM    5  N10 UNL     1      -0.453  26.394   6.522  1.00  0.00    -0.236 N 
ATOM      6  H10 UNL     1      -0.240  27.335   6.192  1.00  0.00     0.209 HD
HETATM    7  N11 UNL     1      -1.510  26.080   7.273  1.00  0.00    -0.255 N 
ENDROOT
BRANCH   2   8
HETATM    8  C10 UNL     1       0.355  22.931   6.805  1.00  0.00     0.061 C 
BRANCH   8   9
HETATM    9  C11 UNL     1       1.835  23.041   6.791  1.00  0.00     0.013 C 
BRANCH   9  10
HETATM   10  C12 UNL     1       2.542  22.971   5.496  1.00  0.00     0.065 C 
BRANCH  10  11
HETATM   11  C13 UNL     1       4.022  23.066   5.579  1.00  0.00     0.054 A 
HETATM   12  C14 UNL     1       4.932  22.364   6.333  1.00  0.00     0.036 A 
HETATM   13  C15 UNL     1       6.178  22.853   6.018  1.00  0.00     0.054 A 
HETATM   14  C16 UNL     1       5.981  23.857   5.063  1.00  0.00     0.190 A 
HETATM   15  O3  UNL     1       4.700  23.917   4.865  1.00  0.00    -0.302 OA
BRANCH  14  16
HETATM   16  S1  UNL     1       7.279  24.754   4.372  1.00  0.00     0.282 S 
HETATM   17  O1  UNL     1       6.948  24.967   2.893  1.00  0.00    -0.198 OA
HETATM   18  O2  UNL     1       8.571  23.978   4.369  1.00  0.00    -0.198 OA
BRANCH  16  19
HETATM   19  N5  UNL     1       7.436  26.293   5.059  1.00  0.00    -0.296 N 
ATOM     20  H5  UNL     1       7.144  26.486   6.016  1.00  0.00     0.174 HD
BRANCH  19  21
HETATM   21  C17 UNL     1       7.993  27.294   4.236  1.00  0.00     0.190 C 
HETATM   22 CL1  UNL     1       7.520  28.936   4.935  1.00  0.00    -0.102 Cl
BRANCH  21  23
HETATM   23  C18 UNL     1       9.473  27.318   4.222  1.00  0.00     0.043 C 
BRANCH  23  24
HETATM   24  C19 UNL     1      10.214  27.003   2.992  1.00  0.00     0.023 C 
BRANCH  24  25
HETATM   25  C20 UNL     1       9.488  27.149   1.693  1.00  0.00     0.122 C 
BRANCH  25  26
HETATM   26  N6  UNL     1       9.027  25.838   1.219  1.00  0.00    -0.365 N 
HETATM   27  C21 UNL     1       9.221  25.382   0.047  1.00  0.00     0.185 C 
HETATM   28  N7  UNL     1       8.721  24.098  -0.271  1.00  0.00    -0.064 NA
HETATM   29  N8  UNL     1       9.919  26.139  -0.912  1.00  0.00    -0.364 N 
HETATM   30  C22 UNL     1      11.338  25.962  -1.071  1.00  0.00     0.151 C 
HETATM   31  C23 UNL     1       9.235  27.098  -1.750  1.00  0.00     0.151 C 
ATOM     32  H6  UNL     1       8.515  25.252   1.877  1.00  0.00     0.162 HD
ENDBRANCH  25  26
ENDBRANCH  24  25
ENDBRANCH  23  24
ENDBRANCH  21  23
ENDBRANCH  19  21
ENDBRANCH  16  19
ENDBRANCH  14  16
ENDBRANCH  10  11
ENDBRANCH   9  10
ENDBRANCH   8   9
ENDBRANCH   2   8
BRANCH   1  33
HETATM   33  C7  UNL     1      -2.374  23.980   8.298  1.00  0.00     0.034 C 
BRANCH  33  34
HETATM   34  C6  UNL     1      -3.618  23.412   7.777  1.00  0.00     0.020 C 
BRANCH  34  35
HETATM   35  C5  UNL     1      -4.231  22.218   8.300  1.00  0.00     0.031 A 
HETATM   36  C2  UNL     1      -5.168  22.142   9.289  1.00  0.00     0.036 A 
HETATM   37  C1  UNL     1      -5.780  23.376   9.904  1.00  0.00     0.070 C 
HETATM   38  N1  UNL     1      -5.627  20.938   9.710  1.00  0.00    -0.195 N 
HETATM   39  C3  UNL     1      -5.192  19.802   9.184  1.00  0.00     0.677 A 
ATOM     40  H1  UNL     1      -6.326  20.906  10.453  1.00  0.00     0.184 HD
HETATM   41  N3  UNL     1      -4.276  19.852   8.208  1.00  0.00    -0.176 N 
HETATM   42  C4  UNL     1      -3.782  21.003   7.751  1.00  0.00     0.127 A 
ATOM     43  H3  UNL     1      -3.943  18.978   7.801  1.00  0.00     0.186 HD
BRANCH  39  44
HETATM   44  N2  UNL     1      -5.636  18.642   9.593  1.00  0.00    -0.234 N 
ATOM     45  H22 UNL     1      -5.972  18.540  10.551  1.00  0.00     0.174 HD
ATOM     46  H21 UNL     1      -5.656  17.829   8.977  1.00  0.00     0.174 HD
ENDBRANCH  39  44
BRANCH  42  47
HETATM   47  N4  UNL     1      -2.889  21.010   6.794  1.00  0.00    -0.384 N 
ATOM     48  H42 UNL     1      -2.539  20.128   6.418  1.00  0.00     0.157 HD
ATOM     49  H41 UNL     1      -2.535  21.891   6.421  1.00  0.00     0.157 HD
ENDBRANCH  42  47
ENDBRANCH  34  35
ENDBRANCH  33  34
ENDBRANCH   1  33
BRANCH   7  50
HETATM   50  C24 UNL     1      -2.473  26.969   7.765  1.00  0.00     0.091 C 
BRANCH  50  51
HETATM   51  C25 UNL     1      -2.262  28.405   7.914  1.00  0.00     0.050 C 
BRANCH  51  52
HETATM   52  C26 UNL     1      -2.021  29.257   6.721  1.00  0.00    -0.018 C 
HETATM   53  C27 UNL     1      -0.688  30.022   6.963  1.00  0.00     0.010 C 
HETATM   54  C28 UNL     1      -3.044  30.351   6.571  1.00  0.00     0.010 C 
ENDBRANCH  51  52
ENDBRANCH  50  51
ENDBRANCH   7  50
TORSDOF 19
ENDMDL
MODEL 5
REMARK VINA RESULT: -9.656160117      2.706      4.480
REMARK  19 active torsions:
REMARK  status: ('A' for Active; 'I' for Inactive)
REMARK    1  A    between atoms: C3_5  and  N2_6 
REMARK    2  A    between atoms: C4_11  and  N4_12 
REMARK    3  A    between atoms: C5_15  and  C6_16 
REMARK    4  A    between atoms: C6_16  and  C7_17 
REMARK    5  A    between atoms: C7_17  and  C8_18 
REMARK    6  A    between atoms: C9_19  and  C10_20 
REMARK    7  A    between atoms: C10_20  and  C11_21 
REMARK    8  A    between atoms: C11_21  and  C12_22 
REMARK    9  A    between atoms: C12_22  and  C13_23 
REMARK   10  A    between atoms: C16_26  and  S1_27 
REMARK   11  A    between atoms: S1_27  and  N5_30 
REMARK   12  A    between atoms: N5_30  and  C17_32 
REMARK   13  A    between atoms: C17_32  and  C18_34 
REMARK   14  A    between atoms: C18_34  and  C19_35 
REMARK   15  A    between atoms: C19_35  and  C20_36 
REMARK   16  A    between atoms: C20_36  and  N6_37 
REMARK       I    between atoms: C21_39  and  N8_41 
REMARK   17  A    between atoms: N11_49  and  C24_50 
REMARK   18  A    between atoms: C24_50  and  C25_51 
REMARK   19  A    between atoms: C25_51  and  C26_52 
ROOT
HETATM    1  C8  UNL     1       0.300  24.038   6.622  1.00  0.00     0.081 A 
HETATM    2  C9  UNL     1       1.294  23.380   5.940  1.00  0.00     0.056 A 
HETATM    3  N9  UNL     1       1.445  24.099   4.768  1.00  0.00    -0.288 N 
ATOM      4  H9  UNL     1       2.106  23.879   4.024  1.00  0.00     0.188 HD
HETATM    5  N10 UNL     1       0.622  25.090   4.761  1.00  0.00    -0.236 N 
ATOM      6  H10 UNL     1       0.544  25.769   4.004  1.00  0.00     0.209 HD
HETATM    7  N11 UNL     1      -0.115  25.113   5.873  1.00  0.00    -0.255 N 
ENDROOT
BRANCH   2   8
HETATM    8  C10 UNL     1       2.171  22.240   6.246  1.00  0.00     0.061 C 
BRANCH   8   9
HETATM    9  C11 UNL     1       3.608  22.609   6.226  1.00  0.00     0.013 C 
BRANCH   9  10
HETATM   10  C12 UNL     1       4.071  23.621   5.254  1.00  0.00     0.065 C 
BRANCH  10  11
HETATM   11  C13 UNL     1       5.545  23.749   5.130  1.00  0.00     0.054 A 
HETATM   12  C14 UNL     1       6.566  23.206   5.874  1.00  0.00     0.036 A 
HETATM   13  C15 UNL     1       7.745  23.647   5.320  1.00  0.00     0.054 A 
HETATM   14  C16 UNL     1       7.396  24.460   4.237  1.00  0.00     0.190 A 
HETATM   15  O3  UNL     1       6.099  24.467   4.196  1.00  0.00    -0.302 OA
BRANCH  14  16
HETATM   16  S1  UNL     1       8.566  25.235   3.238  1.00  0.00     0.282 S 
HETATM   17  O1  UNL     1       8.337  24.746   1.806  1.00  0.00    -0.198 OA
HETATM   18  O2  UNL     1       9.973  24.808   3.570  1.00  0.00    -0.198 OA
BRANCH  16  19
HETATM   19  N5  UNL     1       8.377  26.917   3.210  1.00  0.00    -0.296 N 
ATOM     20  H5  UNL     1       7.961  27.398   2.413  1.00  0.00     0.174 HD
BRANCH  19  21
HETATM   21  C17 UNL     1       8.825  27.618   4.349  1.00  0.00     0.190 C 
HETATM   22 CL1  UNL     1       9.462  29.259   3.795  1.00  0.00    -0.102 Cl
BRANCH  21  23
HETATM   23  C18 UNL     1       7.758  27.952   5.319  1.00  0.00     0.043 C 
BRANCH  23  24
HETATM   24  C19 UNL     1       7.778  29.233   6.040  1.00  0.00     0.023 C 
BRANCH  24  25
HETATM   25  C20 UNL     1       7.696  29.185   7.533  1.00  0.00     0.122 C 
BRANCH  25  26
HETATM   26  N6  UNL     1       8.945  29.678   8.126  1.00  0.00    -0.365 N 
HETATM   27  C21 UNL     1       9.167  29.772   9.375  1.00  0.00     0.185 C 
HETATM   28  N7  UNL     1      10.420  30.264   9.805  1.00  0.00    -0.064 NA
HETATM   29  N8  UNL     1       8.185  29.392  10.309  1.00  0.00    -0.364 N 
HETATM   30  C22 UNL     1       8.182  28.057  10.844  1.00  0.00     0.151 C 
HETATM   31  C23 UNL     1       7.172  30.325  10.750  1.00  0.00     0.151 C 
ATOM     32  H6  UNL     1       9.688  29.967   7.490  1.00  0.00     0.162 HD
ENDBRANCH  25  26
ENDBRANCH  24  25
ENDBRANCH  23  24
ENDBRANCH  21  23
ENDBRANCH  19  21
ENDBRANCH  16  19
ENDBRANCH  14  16
ENDBRANCH  10  11
ENDBRANCH   9  10
ENDBRANCH   8   9
ENDBRANCH   2   8
BRANCH   1  33
HETATM   33  C7  UNL     1      -0.229  23.714   7.932  1.00  0.00     0.034 C 
BRANCH  33  34
HETATM   34  C6  UNL     1      -1.642  23.839   8.294  1.00  0.00     0.020 C 
BRANCH  34  35
HETATM   35  C5  UNL     1      -2.599  22.771   8.157  1.00  0.00     0.031 A 
HETATM   36  C2  UNL     1      -2.329  21.442   8.002  1.00  0.00     0.036 A 
HETATM   37  C1  UNL     1      -0.922  20.901   8.070  1.00  0.00     0.070 C 
HETATM   38  N1  UNL     1      -3.336  20.550   7.841  1.00  0.00    -0.195 N 
HETATM   39  C3  UNL     1      -4.607  20.926   7.831  1.00  0.00     0.677 A 
ATOM     40  H1  UNL     1      -3.110  19.562   7.724  1.00  0.00     0.184 HD
HETATM   41  N3  UNL     1      -4.897  22.225   7.986  1.00  0.00    -0.176 N 
HETATM   42  C4  UNL     1      -3.953  23.153   8.146  1.00  0.00     0.127 A 
ATOM     43  H3  UNL     1      -5.875  22.514   7.981  1.00  0.00     0.186 HD
BRANCH  39  44
HETATM   44  N2  UNL     1      -5.577  20.063   7.675  1.00  0.00    -0.234 N 
ATOM     45  H22 UNL     1      -5.473  19.117   8.040  1.00  0.00     0.174 HD
ATOM     46  H21 UNL     1      -6.442  20.311   7.194  1.00  0.00     0.174 HD
ENDBRANCH  39  44
BRANCH  42  47
HETATM   47  N4  UNL     1      -4.277  24.412   8.296  1.00  0.00    -0.384 N 
ATOM     48  H42 UNL     1      -4.753  24.717   9.145  1.00  0.00     0.157 HD
ATOM     49  H41 UNL     1      -4.060  25.094   7.568  1.00  0.00     0.157 HD
ENDBRANCH  42  47
ENDBRANCH  34  35
ENDBRANCH  33  34
ENDBRANCH   1  33
BRANCH   7  50
HETATM   50  C24 UNL     1      -1.077  26.071   6.212  1.00  0.00     0.091 C 
BRANCH  50  51
HETATM   51  C25 UNL     1      -0.765  27.436   6.624  1.00  0.00     0.050 C 
BRANCH  51  52
HETATM   52  C26 UNL     1      -1.855  28.422   6.841  1.00  0.00    -0.018 C 
HETATM   53  C27 UNL     1      -1.190  29.823   6.965  1.00  0.00     0.010 C 
HETATM   54  C28 UNL     1      -2.555  28.235   8.160  1.00  0.00     0.010 C 
ENDBRANCH  51  52
ENDBRANCH  50  51
ENDBRANCH   7  50
TORSDOF 19
ENDMDL
