MODEL 1
REMARK VINA RESULT: -8.060045695      0.000      0.000
REMARK  25 active torsions:
REMARK  status: ('A' for Active; 'I' for Inactive)
REMARK    1  A    between atoms: C2_2  and  C3_3 
REMARK    2  A    between atoms: C3_3  and  N1_4 
REMARK    3  A    between atoms: N1_4  and  C4_5 
REMARK       I    between atoms: N1_4  and  C7_8 
REMARK    4  A    between atoms: C4_5  and  C5_6 
REMARK    5  A    between atoms: C7_8  and  O2_10 
REMARK    6  A    between atoms: O2_10  and  C8_11 
REMARK    7  A    between atoms: C8_11  and  C9_12 
REMARK    8  A    between atoms: C9_12  and  C10_13 
REMARK    9  A    between atoms: C10_13  and  C11_14 
REMARK   10  A    between atoms: C11_14  and  C12_15 
REMARK   11  A    between atoms: C12_15  and  C13_16 
REMARK   12  A    between atoms: C13_16  and  C14_17 
REMARK   13  A    between atoms: C14_17  and  C15_18 
REMARK   14  A    between atoms: C15_18  and  C16_19 
REMARK   15  A    between atoms: C16_19  and  C17_20 
REMARK   16  A    between atoms: C17_20  and  C18_21 
REMARK   17  A    between atoms: C18_21  and  N2_22 
REMARK   18  A    between atoms: C18_21  and  N4_32 
REMARK       I    between atoms: N2_22  and  C19_23 
REMARK   19  A    between atoms: C19_23  and  C20_25 
REMARK   20  A    between atoms: N4_32  and  C24_34 
REMARK   21  A    between atoms: C26_37  and  O5_38 
REMARK   22  A    between atoms: C26_37  and  C27_40 
REMARK   23  A    between atoms: C27_40  and  O6_41 
REMARK   24  A    between atoms: C28_43  and  O7_44 
REMARK   25  A    between atoms: C29_46  and  O8_47 
ROOT
HETATM    1  C18 UNL     1       8.539  25.132   3.376  1.00  0.00     0.157 C 
ENDROOT
BRANCH   1   2
HETATM    2  C17 UNL     1       7.681  23.992   3.943  1.00  0.00     0.092 C 
BRANCH   2   3
HETATM    3  C16 UNL     1       6.991  24.473   5.194  1.00  0.00     0.008 C 
BRANCH   3   4
HETATM    4  C15 UNL     1       6.703  23.408   6.194  1.00  0.00     0.000 C 
BRANCH   4   5
HETATM    5  C14 UNL     1       5.420  22.656   5.958  1.00  0.00     0.000 C 
BRANCH   5   6
HETATM    6  C13 UNL     1       4.317  23.547   5.428  1.00  0.00     0.000 C 
BRANCH   6   7
HETATM    7  C12 UNL     1       2.987  23.224   6.022  1.00  0.00     0.000 C 
BRANCH   7   8
HETATM    8  C11 UNL     1       3.114  22.775   7.450  1.00  0.00     0.000 C 
BRANCH   8   9
HETATM    9  C10 UNL     1       2.168  21.632   7.706  1.00  0.00     0.002 C 
BRANCH   9  10
HETATM   10  C9  UNL     1       0.841  21.796   7.006  1.00  0.00     0.027 C 
BRANCH  10  11
HETATM   11  C8  UNL     1      -0.293  21.094   7.698  1.00  0.00     0.180 C 
BRANCH  11  12
HETATM   12  O2  UNL     1      -1.478  21.440   6.968  1.00  0.00    -0.304 OA
BRANCH  12  13
HETATM   13  C7  UNL     1      -2.551  22.052   7.592  1.00  0.00     0.362 C 
HETATM   14  N1  UNL     1      -2.805  23.468   7.414  1.00  0.00    -0.328 N 
HETATM   15  O1  UNL     1      -3.272  21.320   8.304  1.00  0.00    -0.238 OA
BRANCH  14  16
HETATM   16  C3  UNL     1      -3.921  24.002   8.093  1.00  0.00     0.127 C 
BRANCH  16  17
HETATM   17  C2  UNL     1      -3.715  24.958   9.213  1.00  0.00     0.015 C 
HETATM   18  C1  UNL     1      -3.789  26.406   8.897  1.00  0.00     0.006 C 
ENDBRANCH  16  17
ENDBRANCH  14  16
BRANCH  14  19
HETATM   19  C4  UNL     1      -1.970  24.149   6.497  1.00  0.00     0.127 C 
BRANCH  19  20
HETATM   20  C5  UNL     1      -0.818  24.934   7.011  1.00  0.00     0.015 C 
HETATM   21  C6  UNL     1      -0.905  26.311   6.315  1.00  0.00     0.006 C 
ENDBRANCH  19  20
ENDBRANCH  14  19
ENDBRANCH  12  13
ENDBRANCH  11  12
ENDBRANCH  10  11
ENDBRANCH   9  10
ENDBRANCH   8   9
ENDBRANCH   7   8
ENDBRANCH   6   7
ENDBRANCH   5   6
ENDBRANCH   4   5
ENDBRANCH   3   4
ENDBRANCH   2   3
ENDBRANCH   1   2
BRANCH   1  22
HETATM   22  N2  UNL     1       8.442  25.365   2.213  1.00  0.00    -0.352 NA
HETATM   23  C19 UNL     1       8.338  25.596   0.932  1.00  0.00     0.344 C 
HETATM   24  O3  UNL     1       7.220  25.743   0.329  1.00  0.00    -0.249 OA
BRANCH  23  25
HETATM   25  C20 UNL     1       9.530  25.710   0.058  1.00  0.00     0.116 A 
HETATM   26  C21 UNL     1       9.778  25.003  -1.097  1.00  0.00     0.039 A 
HETATM   27  C22 UNL     1      10.990  25.409  -1.596  1.00  0.00     0.040 A 
HETATM   28  C23 UNL     1      11.475  26.364  -0.739  1.00  0.00     0.080 A 
HETATM   29 BR1  UNL     1      13.125  27.282  -0.935  1.00  0.00    -0.031 Br
HETATM   30  N3  UNL     1      10.582  26.527   0.247  1.00  0.00    -0.345 N 
ATOM     31  H3  UNL     1      10.685  27.177   1.027  1.00  0.00     0.167 HD
ENDBRANCH  23  25
ENDBRANCH   1  22
BRANCH   1  32
HETATM   32  N4  UNL     1       9.378  25.805   4.348  1.00  0.00    -0.340 N 
ATOM     33  H4  UNL     1       9.837  25.243   5.064  1.00  0.00     0.164 HD
BRANCH  32  34
HETATM   34  C24 UNL     1       9.597  27.236   4.351  1.00  0.00     0.254 C 
HETATM   35  O4  UNL     1      10.056  27.584   3.088  1.00  0.00    -0.361 OA
HETATM   36  C25 UNL     1       9.964  28.955   2.857  1.00  0.00     0.213 C 
HETATM   37  C26 UNL     1       8.497  29.235   2.619  1.00  0.00     0.128 C 
HETATM   38  C28 UNL     1       7.768  28.926   3.879  1.00  0.00     0.189 C 
HETATM   39  C29 UNL     1       8.385  27.943   4.792  1.00  0.00     0.198 C 
BRANCH  37  40
HETATM   40  O5  UNL     1       8.058  28.436   1.551  1.00  0.00    -0.383 OA
ATOM     41  H5  UNL     1       7.511  27.742   1.899  1.00  0.00     0.210 HD
ENDBRANCH  37  40
BRANCH  37  42
HETATM   42  C27 UNL     1       8.357  30.704   2.270  1.00  0.00     0.206 C 
BRANCH  42  43
HETATM   43  O6  UNL     1       7.099  30.964   1.747  1.00  0.00    -0.398 OA
ATOM     44  H6  UNL     1       6.739  31.758   2.124  1.00  0.00     0.209 HD
ENDBRANCH  42  43
ENDBRANCH  37  42
BRANCH  38  45
HETATM   45  O7  UNL     1       7.503  30.159   4.525  1.00  0.00    -0.390 OA
ATOM     46  H7  UNL     1       8.170  30.775   4.243  1.00  0.00     0.210 HD
ENDBRANCH  38  45
BRANCH  39  47
HETATM   47  O8  UNL     1       8.745  28.667   5.967  1.00  0.00    -0.388 OA
ATOM     48  H8  UNL     1       7.996  28.622   6.551  1.00  0.00     0.210 HD
ENDBRANCH  39  47
ENDBRANCH  32  34
ENDBRANCH   1  32
TORSDOF 25
ENDMDL
MODEL 2
REMARK VINA RESULT: -7.955236677      2.427      4.605
REMARK  25 active torsions:
REMARK  status: ('A' for Active; 'I' for Inactive)
REMARK    1  A    between atoms: C2_2  and  C3_3 
REMARK    2  A    between atoms: C3_3  and  N1_4 
REMARK    3  A    between atoms: N1_4  and  C4_5 
REMARK       I    between atoms: N1_4  and  C7_8 
REMARK    4  A    between atoms: C4_5  and  C5_6 
REMARK    5  A    between atoms: C7_8  and  O2_10 
REMARK    6  A    between atoms: O2_10  and  C8_11 
REMARK    7  A    between atoms: C8_11  and  C9_12 
REMARK    8  A    between atoms: C9_12  and  C10_13 
REMARK    9  A    between atoms: C10_13  and  C11_14 
REMARK   10  A    between atoms: C11_14  and  C12_15 
REMARK   11  A    between atoms: C12_15  and  C13_16 
REMARK   12  A    between atoms: C13_16  and  C14_17 
REMARK   13  A    between atoms: C14_17  and  C15_18 
REMARK   14  A    between atoms: C15_18  and  C16_19 
REMARK   15  A    between atoms: C16_19  and  C17_20 
REMARK   16  A    between atoms: C17_20  and  C18_21 
REMARK   17  A    between atoms: C18_21  and  N2_22 
REMARK   18  A    between atoms: C18_21  and  N4_32 
REMARK       I    between atoms: N2_22  and  C19_23 
REMARK   19  A    between atoms: C19_23  and  C20_25 
REMARK   20  A    between atoms: N4_32  and  C24_34 
REMARK   21  A    between atoms: C26_37  and  O5_38 
REMARK   22  A    between atoms: C26_37  and  C27_40 
REMARK   23  A    between atoms: C27_40  and  O6_41 
REMARK   24  A    between atoms: C28_43  and  O7_44 
REMARK   25  A    between atoms: C29_46  and  O8_47 
ROOT
HETATM    1  C18 UNL     1       7.262  25.798   4.551  1.00  0.00     0.157 C 
ENDROOT
BRANCH   1   2
HETATM    2  C17 UNL     1       7.119  24.661   5.572  1.00  0.00     0.092 C 
BRANCH   2   3
HETATM    3  C16 UNL     1       6.083  23.684   5.076  1.00  0.00     0.008 C 
BRANCH   3   4
HETATM    4  C15 UNL     1       4.745  24.279   4.810  1.00  0.00     0.000 C 
BRANCH   4   5
HETATM    5  C14 UNL     1       3.585  23.480   5.344  1.00  0.00     0.000 C 
BRANCH   5   6
HETATM    6  C13 UNL     1       4.024  22.400   6.309  1.00  0.00     0.000 C 
BRANCH   6   7
HETATM    7  C12 UNL     1       3.138  22.310   7.507  1.00  0.00     0.000 C 
BRANCH   7   8
HETATM    8  C11 UNL     1       1.687  22.397   7.128  1.00  0.00     0.000 C 
BRANCH   8   9
HETATM    9  C10 UNL     1       0.860  21.612   8.111  1.00  0.00     0.002 C 
BRANCH   9  10
HETATM   10  C9  UNL     1      -0.348  20.962   7.479  1.00  0.00     0.027 C 
BRANCH  10  11
HETATM   11  C8  UNL     1      -1.510  21.898   7.305  1.00  0.00     0.180 C 
BRANCH  11  12
HETATM   12  O2  UNL     1      -2.646  21.229   7.868  1.00  0.00    -0.304 OA
BRANCH  12  13
HETATM   13  C7  UNL     1      -3.803  21.920   8.182  1.00  0.00     0.362 C 
HETATM   14  N1  UNL     1      -4.919  21.249   8.817  1.00  0.00    -0.328 N 
HETATM   15  O1  UNL     1      -3.821  23.135   7.890  1.00  0.00    -0.238 OA
BRANCH  14  16
HETATM   16  C3  UNL     1      -6.057  22.037   9.096  1.00  0.00     0.127 C 
BRANCH  16  17
HETATM   17  C2  UNL     1      -6.239  22.614  10.454  1.00  0.00     0.015 C 
HETATM   18  C1  UNL     1      -5.914  24.052  10.633  1.00  0.00     0.006 C 
ENDBRANCH  16  17
ENDBRANCH  14  16
BRANCH  14  19
HETATM   19  C4  UNL     1      -4.718  19.898   9.186  1.00  0.00     0.127 C 
BRANCH  19  20
HETATM   20  C5  UNL     1      -5.852  19.126   9.756  1.00  0.00     0.015 C 
HETATM   21  C6  UNL     1      -5.550  18.991  11.266  1.00  0.00     0.006 C 
ENDBRANCH  19  20
ENDBRANCH  14  19
ENDBRANCH  12  13
ENDBRANCH  11  12
ENDBRANCH  10  11
ENDBRANCH   9  10
ENDBRANCH   8   9
ENDBRANCH   7   8
ENDBRANCH   6   7
ENDBRANCH   5   6
ENDBRANCH   4   5
ENDBRANCH   3   4
ENDBRANCH   2   3
ENDBRANCH   1   2
BRANCH   1  22
HETATM   22  N2  UNL     1       7.335  26.909   4.974  1.00  0.00    -0.352 NA
HETATM   23  C19 UNL     1       7.391  28.130   5.432  1.00  0.00     0.344 C 
HETATM   24  O3  UNL     1       7.251  28.429   6.667  1.00  0.00    -0.249 OA
BRANCH  23  25
HETATM   25  C20 UNL     1       7.627  29.290   4.539  1.00  0.00     0.116 A 
HETATM   26  C21 UNL     1       7.913  30.582   4.921  1.00  0.00     0.039 A 
HETATM   27  C22 UNL     1       8.058  31.342   3.788  1.00  0.00     0.040 A 
HETATM   28  C23 UNL     1       7.859  30.505   2.719  1.00  0.00     0.080 A 
HETATM   29 BR1  UNL     1       7.941  31.017   0.893  1.00  0.00    -0.031 Br
HETATM   30  N3  UNL     1       7.602  29.279   3.194  1.00  0.00    -0.345 N 
ATOM     31  H3  UNL     1       7.413  28.457   2.619  1.00  0.00     0.167 HD
ENDBRANCH  23  25
ENDBRANCH   1  22
BRANCH   1  32
HETATM   32  N4  UNL     1       7.296  25.374   3.166  1.00  0.00    -0.340 N 
ATOM     33  H4  UNL     1       6.412  25.264   2.670  1.00  0.00     0.164 HD
BRANCH  32  34
HETATM   34  C24 UNL     1       8.525  25.098   2.451  1.00  0.00     0.254 C 
HETATM   35  O4  UNL     1       8.176  24.752   1.153  1.00  0.00    -0.361 OA
HETATM   36  C25 UNL     1       9.264  24.810   0.285  1.00  0.00     0.213 C 
HETATM   37  C26 UNL     1       9.514  26.281   0.037  1.00  0.00     0.128 C 
HETATM   38  C28 UNL     1       9.918  26.895   1.331  1.00  0.00     0.189 C 
HETATM   39  C29 UNL     1       9.456  26.231   2.567  1.00  0.00     0.198 C 
BRANCH  37  40
HETATM   40  O5  UNL     1       8.337  26.854  -0.469  1.00  0.00    -0.383 OA
ATOM     41  H5  UNL     1       7.595  26.469  -0.017  1.00  0.00     0.210 HD
ENDBRANCH  37  40
BRANCH  37  42
HETATM   42  C27 UNL     1      10.634  26.395  -0.978  1.00  0.00     0.206 C 
BRANCH  42  43
HETATM   43  O6  UNL     1      10.733  27.694  -1.453  1.00  0.00    -0.398 OA
ATOM     44  H6  UNL     1      11.403  28.173  -0.981  1.00  0.00     0.209 HD
ENDBRANCH  42  43
ENDBRANCH  37  42
BRANCH  38  45
HETATM   45  O7  UNL     1      11.327  27.045   1.304  1.00  0.00    -0.390 OA
ATOM     46  H7  UNL     1      11.568  27.585   2.048  1.00  0.00     0.210 HD
ENDBRANCH  38  45
BRANCH  39  47
HETATM   47  O8  UNL     1      10.625  25.729   3.208  1.00  0.00    -0.388 OA
ATOM     48  H8  UNL     1      11.364  26.172   2.806  1.00  0.00     0.210 HD
ENDBRANCH  39  47
ENDBRANCH  32  34
ENDBRANCH   1  32
TORSDOF 25
ENDMDL
MODEL 3
REMARK VINA RESULT: -7.952025468      1.430      2.446
REMARK  25 active torsions:
REMARK  status: ('A' for Active; 'I' for Inactive)
REMARK    1  A    between atoms: C2_2  and  C3_3 
REMARK    2  A    between atoms: C3_3  and  N1_4 
REMARK    3  A    between atoms: N1_4  and  C4_5 
REMARK       I    between atoms: N1_4  and  C7_8 
REMARK    4  A    between atoms: C4_5  and  C5_6 
REMARK    5  A    between atoms: C7_8  and  O2_10 
REMARK    6  A    between atoms: O2_10  and  C8_11 
REMARK    7  A    between atoms: C8_11  and  C9_12 
REMARK    8  A    between atoms: C9_12  and  C10_13 
REMARK    9  A    between atoms: C10_13  and  C11_14 
REMARK   10  A    between atoms: C11_14  and  C12_15 
REMARK   11  A    between atoms: C12_15  and  C13_16 
REMARK   12  A    between atoms: C13_16  and  C14_17 
REMARK   13  A    between atoms: C14_17  and  C15_18 
REMARK   14  A    between atoms: C15_18  and  C16_19 
REMARK   15  A    between atoms: C16_19  and  C17_20 
REMARK   16  A    between atoms: C17_20  and  C18_21 
REMARK   17  A    between atoms: C18_21  and  N2_22 
REMARK   18  A    between atoms: C18_21  and  N4_32 
REMARK       I    between atoms: N2_22  and  C19_23 
REMARK   19  A    between atoms: C19_23  and  C20_25 
REMARK   20  A    between atoms: N4_32  and  C24_34 
REMARK   21  A    between atoms: C26_37  and  O5_38 
REMARK   22  A    between atoms: C26_37  and  C27_40 
REMARK   23  A    between atoms: C27_40  and  O6_41 
REMARK   24  A    between atoms: C28_43  and  O7_44 
REMARK   25  A    between atoms: C29_46  and  O8_47 
ROOT
HETATM    1  C18 UNL     1       8.307  25.242   3.492  1.00  0.00     0.157 C 
ENDROOT
BRANCH   1   2
HETATM    2  C17 UNL     1       7.346  24.224   4.121  1.00  0.00     0.092 C 
BRANCH   2   3
HETATM    3  C16 UNL     1       6.165  24.958   4.702  1.00  0.00     0.008 C 
BRANCH   3   4
HETATM    4  C15 UNL     1       4.914  24.156   4.786  1.00  0.00     0.000 C 
BRANCH   4   5
HETATM    5  C14 UNL     1       4.908  23.114   5.873  1.00  0.00     0.000 C 
BRANCH   5   6
HETATM    6  C13 UNL     1       3.606  22.345   5.929  1.00  0.00     0.000 C 
BRANCH   6   7
HETATM    7  C12 UNL     1       3.157  22.082   7.327  1.00  0.00     0.000 C 
BRANCH   7   8
HETATM    8  C11 UNL     1       1.659  22.002   7.420  1.00  0.00     0.000 C 
BRANCH   8   9
HETATM    9  C10 UNL     1       1.040  22.793   6.298  1.00  0.00     0.002 C 
BRANCH   9  10
HETATM   10  C9  UNL     1       0.068  23.841   6.783  1.00  0.00     0.027 C 
BRANCH  10  11
HETATM   11  C8  UNL     1      -0.787  23.381   7.929  1.00  0.00     0.180 C 
BRANCH  11  12
HETATM   12  O2  UNL     1      -2.081  23.109   7.375  1.00  0.00    -0.304 OA
BRANCH  12  13
HETATM   13  C7  UNL     1      -2.624  21.837   7.410  1.00  0.00     0.362 C 
HETATM   14  N1  UNL     1      -3.908  21.595   8.036  1.00  0.00    -0.328 N 
HETATM   15  O1  UNL     1      -1.949  20.930   6.878  1.00  0.00    -0.238 OA
BRANCH  14  16
HETATM   16  C3  UNL     1      -4.378  20.264   8.026  1.00  0.00     0.127 C 
BRANCH  16  17
HETATM   17  C2  UNL     1      -4.383  19.473   9.285  1.00  0.00     0.015 C 
HETATM   18  C1  UNL     1      -5.704  19.123   9.866  1.00  0.00     0.006 C 
ENDBRANCH  16  17
ENDBRANCH  14  16
BRANCH  14  19
HETATM   19  C4  UNL     1      -4.608  22.732   8.504  1.00  0.00     0.127 C 
BRANCH  19  20
HETATM   20  C5  UNL     1      -6.054  22.612   8.824  1.00  0.00     0.015 C 
HETATM   21  C6  UNL     1      -6.165  22.826  10.350  1.00  0.00     0.006 C 
ENDBRANCH  19  20
ENDBRANCH  14  19
ENDBRANCH  12  13
ENDBRANCH  11  12
ENDBRANCH  10  11
ENDBRANCH   9  10
ENDBRANCH   8   9
ENDBRANCH   7   8
ENDBRANCH   6   7
ENDBRANCH   5   6
ENDBRANCH   4   5
ENDBRANCH   3   4
ENDBRANCH   2   3
ENDBRANCH   1   2
BRANCH   1  22
HETATM   22  N2  UNL     1       8.217  25.430   2.319  1.00  0.00    -0.352 NA
HETATM   23  C19 UNL     1       8.120  25.611   1.030  1.00  0.00     0.344 C 
HETATM   24  O3  UNL     1       7.006  25.746   0.417  1.00  0.00    -0.249 OA
BRANCH  23  25
HETATM   25  C20 UNL     1       9.316  25.677   0.157  1.00  0.00     0.116 A 
HETATM   26  C21 UNL     1       9.531  24.970  -1.005  1.00  0.00     0.039 A 
HETATM   27  C22 UNL     1      10.761  25.324  -1.500  1.00  0.00     0.040 A 
HETATM   28  C23 UNL     1      11.289  26.248  -0.634  1.00  0.00     0.080 A 
HETATM   29 BR1  UNL     1      12.980  27.090  -0.823  1.00  0.00    -0.031 Br
HETATM   30  N3  UNL     1      10.405  26.444   0.353  1.00  0.00    -0.345 N 
ATOM     31  H3  UNL     1      10.538  27.081   1.139  1.00  0.00     0.167 HD
ENDBRANCH  23  25
ENDBRANCH   1  22
BRANCH   1  32
HETATM   32  N4  UNL     1       9.226  25.870   4.421  1.00  0.00    -0.340 N 
ATOM     33  H4  UNL     1       9.697  25.282   5.108  1.00  0.00     0.164 HD
BRANCH  32  34
HETATM   34  C24 UNL     1       9.507  27.290   4.421  1.00  0.00     0.254 C 
HETATM   35  O4  UNL     1       9.982  27.615   3.159  1.00  0.00    -0.361 OA
HETATM   36  C25 UNL     1       9.951  28.988   2.925  1.00  0.00     0.213 C 
HETATM   37  C26 UNL     1       8.499  29.332   2.683  1.00  0.00     0.128 C 
HETATM   38  C28 UNL     1       7.754  29.058   3.943  1.00  0.00     0.189 C 
HETATM   39  C29 UNL     1       8.326  28.051   4.859  1.00  0.00     0.198 C 
BRANCH  37  40
HETATM   40  O5  UNL     1       8.027  28.550   1.616  1.00  0.00    -0.383 OA
ATOM     41  H5  UNL     1       7.356  29.041   1.157  1.00  0.00     0.210 HD
ENDBRANCH  37  40
BRANCH  37  42
HETATM   42  C27 UNL     1       8.424  30.804   2.331  1.00  0.00     0.206 C 
BRANCH  42  43
HETATM   43  O6  UNL     1       7.172  31.123   1.827  1.00  0.00    -0.398 OA
ATOM     44  H6  UNL     1       6.838  31.914   2.234  1.00  0.00     0.209 HD
ENDBRANCH  42  43
ENDBRANCH  37  42
BRANCH  38  45
HETATM   45  O7  UNL     1       7.542  30.302   4.586  1.00  0.00    -0.390 OA
ATOM     46  H7  UNL     1       6.616  30.362   4.786  1.00  0.00     0.210 HD
ENDBRANCH  38  45
BRANCH  39  47
HETATM   47  O8  UNL     1       8.715  28.760   6.033  1.00  0.00    -0.388 OA
ATOM     48  H8  UNL     1       8.537  28.184   6.768  1.00  0.00     0.210 HD
ENDBRANCH  39  47
ENDBRANCH  32  34
ENDBRANCH   1  32
TORSDOF 25
ENDMDL
MODEL 4
REMARK VINA RESULT: -7.929699875      1.671      2.535
REMARK  25 active torsions:
REMARK  status: ('A' for Active; 'I' for Inactive)
REMARK    1  A    between atoms: C2_2  and  C3_3 
REMARK    2  A    between atoms: C3_3  and  N1_4 
REMARK    3  A    between atoms: N1_4  and  C4_5 
REMARK       I    between atoms: N1_4  and  C7_8 
REMARK    4  A    between atoms: C4_5  and  C5_6 
REMARK    5  A    between atoms: C7_8  and  O2_10 
REMARK    6  A    between atoms: O2_10  and  C8_11 
REMARK    7  A    between atoms: C8_11  and  C9_12 
REMARK    8  A    between atoms: C9_12  and  C10_13 
REMARK    9  A    between atoms: C10_13  and  C11_14 
REMARK   10  A    between atoms: C11_14  and  C12_15 
REMARK   11  A    between atoms: C12_15  and  C13_16 
REMARK   12  A    between atoms: C13_16  and  C14_17 
REMARK   13  A    between atoms: C14_17  and  C15_18 
REMARK   14  A    between atoms: C15_18  and  C16_19 
REMARK   15  A    between atoms: C16_19  and  C17_20 
REMARK   16  A    between atoms: C17_20  and  C18_21 
REMARK   17  A    between atoms: C18_21  and  N2_22 
REMARK   18  A    between atoms: C18_21  and  N4_32 
REMARK       I    between atoms: N2_22  and  C19_23 
REMARK   19  A    between atoms: C19_23  and  C20_25 
REMARK   20  A    between atoms: N4_32  and  C24_34 
REMARK   21  A    between atoms: C26_37  and  O5_38 
REMARK   22  A    between atoms: C26_37  and  C27_40 
REMARK   23  A    between atoms: C27_40  and  O6_41 
REMARK   24  A    between atoms: C28_43  and  O7_44 
REMARK   25  A    between atoms: C29_46  and  O8_47 
ROOT
HETATM    1  C18 UNL     1       8.414  25.106   3.475  1.00  0.00     0.157 C 
ENDROOT
BRANCH   1   2
HETATM    2  C17 UNL     1       7.514  24.009   4.061  1.00  0.00     0.092 C 
BRANCH   2   3
HETATM    3  C16 UNL     1       6.390  24.655   4.828  1.00  0.00     0.008 C 
BRANCH   3   4
HETATM    4  C15 UNL     1       5.368  23.707   5.350  1.00  0.00     0.000 C 
BRANCH   4   5
HETATM    5  C14 UNL     1       3.955  24.011   4.929  1.00  0.00     0.000 C 
BRANCH   5   6
HETATM    6  C13 UNL     1       2.931  23.437   5.885  1.00  0.00     0.000 C 
BRANCH   6   7
HETATM    7  C12 UNL     1       3.554  22.614   6.962  1.00  0.00     0.000 C 
BRANCH   7   8
HETATM    8  C11 UNL     1       2.516  21.908   7.788  1.00  0.00     0.000 C 
BRANCH   8   9
HETATM    9  C10 UNL     1       1.163  22.073   7.147  1.00  0.00     0.002 C 
BRANCH   9  10
HETATM   10  C9  UNL     1       0.098  21.221   7.794  1.00  0.00     0.027 C 
BRANCH  10  11
HETATM   11  C8  UNL     1      -1.204  21.216   7.044  1.00  0.00     0.180 C 
BRANCH  11  12
HETATM   12  O2  UNL     1      -2.219  20.923   8.013  1.00  0.00    -0.304 OA
BRANCH  12  13
HETATM   13  C7  UNL     1      -3.370  21.686   8.100  1.00  0.00     0.362 C 
HETATM   14  N1  UNL     1      -4.611  21.107   8.573  1.00  0.00    -0.328 N 
HETATM   15  O1  UNL     1      -3.271  22.882   7.751  1.00  0.00    -0.238 OA
BRANCH  14  16
HETATM   16  C3  UNL     1      -5.732  21.963   8.624  1.00  0.00     0.127 C 
BRANCH  16  17
HETATM   17  C2  UNL     1      -5.865  22.939   9.738  1.00  0.00     0.015 C 
HETATM   18  C1  UNL     1      -6.806  22.598  10.834  1.00  0.00     0.006 C 
ENDBRANCH  16  17
ENDBRANCH  14  16
BRANCH  14  19
HETATM   19  C4  UNL     1      -4.550  19.771   9.034  1.00  0.00     0.127 C 
BRANCH  19  20
HETATM   20  C5  UNL     1      -5.736  19.181   9.706  1.00  0.00     0.015 C 
HETATM   21  C6  UNL     1      -5.399  19.168  11.215  1.00  0.00     0.006 C 
ENDBRANCH  19  20
ENDBRANCH  14  19
ENDBRANCH  12  13
ENDBRANCH  11  12
ENDBRANCH  10  11
ENDBRANCH   9  10
ENDBRANCH   8   9
ENDBRANCH   7   8
ENDBRANCH   6   7
ENDBRANCH   5   6
ENDBRANCH   4   5
ENDBRANCH   3   4
ENDBRANCH   2   3
ENDBRANCH   1   2
BRANCH   1  22
HETATM   22  N2  UNL     1       8.324  25.324   2.307  1.00  0.00    -0.352 NA
HETATM   23  C19 UNL     1       8.227  25.538   1.023  1.00  0.00     0.344 C 
HETATM   24  O3  UNL     1       7.113  25.702   0.416  1.00  0.00    -0.249 OA
BRANCH  23  25
HETATM   25  C20 UNL     1       9.423  25.611   0.150  1.00  0.00     0.116 A 
HETATM   26  C21 UNL     1       9.665  24.866  -0.983  1.00  0.00     0.039 A 
HETATM   27  C22 UNL     1      10.883  25.242  -1.491  1.00  0.00     0.040 A 
HETATM   28  C23 UNL     1      11.377  26.217  -0.661  1.00  0.00     0.080 A 
HETATM   29 BR1  UNL     1      13.038  27.108  -0.881  1.00  0.00    -0.031 Br
HETATM   30  N3  UNL     1      10.484  26.421   0.317  1.00  0.00    -0.345 N 
ATOM     31  H3  UNL     1      10.593  27.093   1.077  1.00  0.00     0.167 HD
ENDBRANCH  23  25
ENDBRANCH   1  22
BRANCH   1  32
HETATM   32  N4  UNL     1       9.279  25.763   4.434  1.00  0.00    -0.340 N 
ATOM     33  H4  UNL     1       9.737  25.192   5.144  1.00  0.00     0.164 HD
BRANCH  32  34
HETATM   34  C24 UNL     1       9.527  27.190   4.433  1.00  0.00     0.254 C 
HETATM   35  O4  UNL     1      10.014  27.521   3.176  1.00  0.00    -0.361 OA
HETATM   36  C25 UNL     1       9.953  28.892   2.936  1.00  0.00     0.213 C 
HETATM   37  C26 UNL     1       8.497  29.200   2.671  1.00  0.00     0.128 C 
HETATM   38  C28 UNL     1       7.740  28.913   3.920  1.00  0.00     0.189 C 
HETATM   39  C29 UNL     1       8.322  27.923   4.850  1.00  0.00     0.198 C 
BRANCH  37  40
HETATM   40  O5  UNL     1       8.061  28.404   1.601  1.00  0.00    -0.383 OA
ATOM     41  H5  UNL     1       7.135  28.567   1.461  1.00  0.00     0.210 HD
ENDBRANCH  37  40
BRANCH  37  42
HETATM   42  C27 UNL     1       8.393  30.669   2.312  1.00  0.00     0.206 C 
BRANCH  42  43
HETATM   43  O6  UNL     1       7.179  30.936   1.696  1.00  0.00    -0.398 OA
ATOM     44  H6  UNL     1       6.587  31.370   2.298  1.00  0.00     0.209 HD
ENDBRANCH  42  43
ENDBRANCH  37  42
BRANCH  38  45
HETATM   45  O7  UNL     1       7.489  30.155   4.556  1.00  0.00    -0.390 OA
ATOM     46  H7  UNL     1       8.322  30.605   4.634  1.00  0.00     0.210 HD
ENDBRANCH  38  45
BRANCH  39  47
HETATM   47  O8  UNL     1       8.675  28.646   6.026  1.00  0.00    -0.388 OA
ATOM     48  H8  UNL     1       8.579  29.568   5.816  1.00  0.00     0.210 HD
ENDBRANCH  39  47
ENDBRANCH  32  34
ENDBRANCH   1  32
TORSDOF 25
ENDMDL
MODEL 5
REMARK VINA RESULT: -7.929184553      2.265      4.347
REMARK  25 active torsions:
REMARK  status: ('A' for Active; 'I' for Inactive)
REMARK    1  A    between atoms: C2_2  and  C3_3 
REMARK    2  A    between atoms: C3_3  and  N1_4 
REMARK    3  A    between atoms: N1_4  and  C4_5 
REMARK       I    between atoms: N1_4  and  C7_8 
REMARK    4  A    between atoms: C4_5  and  C5_6 
REMARK    5  A    between atoms: C7_8  and  O2_10 
REMARK    6  A    between atoms: O2_10  and  C8_11 
REMARK    7  A    between atoms: C8_11  and  C9_12 
REMARK    8  A    between atoms: C9_12  and  C10_13 
REMARK    9  A    between atoms: C10_13  and  C11_14 
REMARK   10  A    between atoms: C11_14  and  C12_15 
REMARK   11  A    between atoms: C12_15  and  C13_16 
REMARK   12  A    between atoms: C13_16  and  C14_17 
REMARK   13  A    between atoms: C14_17  and  C15_18 
REMARK   14  A    between atoms: C15_18  and  C16_19 
REMARK   15  A    between atoms: C16_19  and  C17_20 
REMARK   16  A    between atoms: C17_20  and  C18_21 
REMARK   17  A    between atoms: C18_21  and  N2_22 
REMARK   18  A    between atoms: C18_21  and  N4_32 
REMARK       I    between atoms: N2_22  and  C19_23 
REMARK   19  A    between atoms: C19_23  and  C20_25 
REMARK   20  A    between atoms: N4_32  and  C24_34 
REMARK   21  A    between atoms: C26_37  and  O5_38 
REMARK   22  A    between atoms: C26_37  and  C27_40 
REMARK   23  A    between atoms: C27_40  and  O6_41 
REMARK   24  A    between atoms: C28_43  and  O7_44 
REMARK   25  A    between atoms: C29_46  and  O8_47 
ROOT
HETATM    1  C18 UNL     1       9.146  25.823   3.931  1.00  0.00     0.157 C 
ENDROOT
BRANCH   1   2
HETATM    2  C17 UNL     1       8.853  24.498   4.649  1.00  0.00     0.092 C 
BRANCH   2   3
HETATM    3  C16 UNL     1       7.363  24.352   4.819  1.00  0.00     0.008 C 
BRANCH   3   4
HETATM    4  C15 UNL     1       6.948  23.572   6.017  1.00  0.00     0.000 C 
BRANCH   4   5
HETATM    5  C14 UNL     1       6.027  22.416   5.727  1.00  0.00     0.000 C 
BRANCH   5   6
HETATM    6  C13 UNL     1       4.721  22.514   6.485  1.00  0.00     0.000 C 
BRANCH   6   7
HETATM    7  C12 UNL     1       3.685  23.289   5.741  1.00  0.00     0.000 C 
BRANCH   7   8
HETATM    8  C11 UNL     1       2.336  23.176   6.393  1.00  0.00     0.000 C 
BRANCH   8   9
HETATM    9  C10 UNL     1       2.137  21.773   6.902  1.00  0.00     0.002 C 
BRANCH   9  10
HETATM   10  C9  UNL     1       1.196  21.702   8.081  1.00  0.00     0.027 C 
BRANCH  10  11
HETATM   11  C8  UNL     1      -0.072  20.951   7.791  1.00  0.00     0.180 C 
BRANCH  11  12
HETATM   12  O2  UNL     1      -0.819  21.769   6.881  1.00  0.00    -0.304 OA
BRANCH  12  13
HETATM   13  C7  UNL     1      -2.038  22.315   7.242  1.00  0.00     0.362 C 
HETATM   14  N1  UNL     1      -2.166  23.733   7.514  1.00  0.00    -0.328 N 
HETATM   15  O1  UNL     1      -3.002  21.522   7.318  1.00  0.00    -0.238 OA
BRANCH  14  16
HETATM   16  C3  UNL     1      -3.448  24.196   7.879  1.00  0.00     0.127 C 
BRANCH  16  17
HETATM   17  C2  UNL     1      -3.625  24.959   9.142  1.00  0.00     0.015 C 
HETATM   18  C1  UNL     1      -3.819  26.427   9.032  1.00  0.00     0.006 C 
ENDBRANCH  16  17
ENDBRANCH  14  16
BRANCH  14  19
HETATM   19  C4  UNL     1      -1.016  24.526   7.287  1.00  0.00     0.127 C 
BRANCH  19  20
HETATM   20  C5  UNL     1      -0.929  25.335   6.045  1.00  0.00     0.015 C 
HETATM   21  C6  UNL     1      -0.924  26.811   6.505  1.00  0.00     0.006 C 
ENDBRANCH  19  20
ENDBRANCH  14  19
ENDBRANCH  12  13
ENDBRANCH  11  12
ENDBRANCH  10  11
ENDBRANCH   9  10
ENDBRANCH   8   9
ENDBRANCH   7   8
ENDBRANCH   6   7
ENDBRANCH   5   6
ENDBRANCH   4   5
ENDBRANCH   3   4
ENDBRANCH   2   3
ENDBRANCH   1   2
BRANCH   1  22
HETATM   22  N2  UNL     1       8.764  26.824   4.450  1.00  0.00    -0.352 NA
HETATM   23  C19 UNL     1       8.328  27.925   4.999  1.00  0.00     0.344 C 
HETATM   24  O3  UNL     1       7.427  27.955   5.907  1.00  0.00    -0.249 OA
BRANCH  23  25
HETATM   25  C20 UNL     1       8.855  29.255   4.609  1.00  0.00     0.116 A 
HETATM   26  C21 UNL     1       9.682  29.537   3.545  1.00  0.00     0.039 A 
HETATM   27  C22 UNL     1       9.931  30.886   3.541  1.00  0.00     0.040 A 
HETATM   28  C23 UNL     1       9.252  31.420   4.607  1.00  0.00     0.080 A 
HETATM   29 BR1  UNL     1       9.232  33.256   5.090  1.00  0.00    -0.031 Br
HETATM   30  N3  UNL     1       8.613  30.422   5.234  1.00  0.00    -0.345 N 
ATOM     31  H3  UNL     1       8.030  30.532   6.064  1.00  0.00     0.167 HD
ENDBRANCH  23  25
ENDBRANCH   1  22
BRANCH   1  32
HETATM   32  N4  UNL     1       9.873  25.693   2.684  1.00  0.00    -0.340 N 
ATOM     33  H4  UNL     1      10.752  25.177   2.686  1.00  0.00     0.164 HD
BRANCH  32  34
HETATM   34  C24 UNL     1       9.410  26.260   1.434  1.00  0.00     0.254 C 
HETATM   35  O4  UNL     1      10.458  27.003   0.907  1.00  0.00    -0.361 OA
HETATM   36  C25 UNL     1      10.264  27.299  -0.440  1.00  0.00     0.213 C 
HETATM   37  C26 UNL     1      10.538  26.013  -1.188  1.00  0.00     0.128 C 
HETATM   38  C28 UNL     1       9.505  25.023  -0.777  1.00  0.00     0.189 C 
HETATM   39  C29 UNL     1       8.885  25.206   0.552  1.00  0.00     0.198 C 
BRANCH  37  40
HETATM   40  O5  UNL     1      11.834  25.580  -0.869  1.00  0.00    -0.383 OA
ATOM     41  H5  UNL     1      12.403  25.759  -1.610  1.00  0.00     0.210 HD
ENDBRANCH  37  40
BRANCH  37  42
HETATM   42  C27 UNL     1      10.430  26.309  -2.671  1.00  0.00     0.206 C 
BRANCH  42  43
HETATM   43  O6  UNL     1      11.268  25.476  -3.397  1.00  0.00    -0.398 OA
ATOM     44  H6  UNL     1      12.099  25.367  -2.951  1.00  0.00     0.209 HD
ENDBRANCH  42  43
ENDBRANCH  37  42
BRANCH  38  45
HETATM   45  O7  UNL     1       8.538  24.968  -1.811  1.00  0.00    -0.390 OA
ATOM     46  H7  UNL     1       8.232  24.071  -1.863  1.00  0.00     0.210 HD
ENDBRANCH  38  45
BRANCH  39  47
HETATM   47  O8  UNL     1       7.518  25.527   0.309  1.00  0.00    -0.388 OA
ATOM     48  H8  UNL     1       7.502  26.428   0.006  1.00  0.00     0.210 HD
ENDBRANCH  39  47
ENDBRANCH  32  34
ENDBRANCH   1  32
TORSDOF 25
ENDMDL
