MODEL 1
REMARK VINA RESULT: -6.974638715      0.000      0.000
REMARK  22 active torsions:
REMARK  status: ('A' for Active; 'I' for Inactive)
REMARK    1  A    between atoms: C2_2  and  C3_3 
REMARK    2  A    between atoms: C3_3  and  C4_4 
REMARK    3  A    between atoms: C4_4  and  C5_5 
REMARK    4  A    between atoms: C5_5  and  C6_6 
REMARK    5  A    between atoms: C6_6  and  N1_7 
REMARK       I    between atoms: N1_7  and  C7_9 
REMARK    6  A    between atoms: C7_9  and  C8_11 
REMARK    7  A    between atoms: C8_11  and  C9_12 
REMARK    8  A    between atoms: C8_11  and  N3_24 
REMARK    9  A    between atoms: C9_12  and  C10_13 
REMARK   10  A    between atoms: C10_13  and  C11_14 
REMARK   11  A    between atoms: C11_14  and  N2_15 
REMARK       I    between atoms: N2_15  and  C12_17 
REMARK   12  A    between atoms: C12_17  and  O3_19 
REMARK   13  A    between atoms: O3_19  and  C13_20 
REMARK   14  A    between atoms: C21_32  and  C22_33 
REMARK   15  A    between atoms: C22_33  and  C23_34 
REMARK   16  A    between atoms: C26_39  and  O5_40 
REMARK   17  A    between atoms: C27_42  and  C28_43 
REMARK   18  A    between atoms: C28_43  and  C29_44 
REMARK   19  A    between atoms: C29_44  and  C30_45 
REMARK   20  A    between atoms: C30_45  and  C31_46 
REMARK   21  A    between atoms: C31_46  and  N6_47 
REMARK   22  A    between atoms: C32_53  and  O6_54 
ROOT
HETATM    1  N3  UNL     1       9.094  26.867   3.964  1.00  0.00    -0.312 N 
HETATM    2  C17 UNL     1      10.263  27.731   3.680  1.00  0.00     0.134 C 
HETATM    3  C18 UNL     1      10.622  27.807   2.243  1.00  0.00     0.040 C 
HETATM    4  C19 UNL     1      10.240  29.088   1.544  1.00  0.00     0.124 C 
HETATM    5  N4  UNL     1      10.882  30.263   2.086  1.00  0.00    -0.356 N 
ATOM      6  H4  UNL     1      11.888  30.303   1.922  1.00  0.00     0.162 HD
HETATM    7  C20 UNL     1      10.375  31.348   2.792  1.00  0.00     0.264 C 
HETATM    8  O4  UNL     1      11.134  31.831   3.686  1.00  0.00    -0.266 OA
HETATM    9  C21 UNL     1       9.083  32.065   2.693  1.00  0.00     0.079 C 
HETATM   10  N5  UNL     1       7.915  31.375   3.082  1.00  0.00    -0.338 N 
ATOM     11  H5  UNL     1       7.093  31.796   2.651  1.00  0.00     0.167 HD
HETATM   12  C26 UNL     1       7.551  30.307   3.865  1.00  0.00     0.139 C 
HETATM   13  C27 UNL     1       7.659  29.893   5.251  1.00  0.00     0.159 C 
HETATM   14  N7  UNL     1       7.713  28.463   5.458  1.00  0.00    -0.344 N 
ATOM     15  H7  UNL     1       7.536  28.195   6.426  1.00  0.00     0.164 HD
HETATM   16  C32 UNL     1       7.949  27.380   4.635  1.00  0.00     0.220 C 
ENDROOT
BRANCH   1  17
HETATM   17  C8  UNL     1       9.254  25.500   3.505  1.00  0.00     0.083 C 
BRANCH  17  18
HETATM   18  C7  UNL     1       8.701  25.171   2.211  1.00  0.00     0.264 C 
HETATM   19  N1  UNL     1       9.538  24.642   1.206  1.00  0.00    -0.356 N 
ATOM     20  H1  UNL     1      10.528  24.505   1.411  1.00  0.00     0.162 HD
HETATM   21  O1  UNL     1       7.500  25.338   1.952  1.00  0.00    -0.266 OA
BRANCH  19  22
HETATM   22  C6  UNL     1       9.037  24.287  -0.114  1.00  0.00     0.123 C 
BRANCH  22  23
HETATM   23  C5  UNL     1      10.034  24.617  -1.198  1.00  0.00     0.020 C 
BRANCH  23  24
HETATM   24  C4  UNL     1      10.981  25.710  -0.779  1.00  0.00     0.002 C 
BRANCH  24  25
HETATM   25  C3  UNL     1      10.720  26.935  -1.648  1.00  0.00    -0.000 C 
BRANCH  25  26
HETATM   26  C2  UNL     1      11.933  27.842  -1.565  1.00  0.00    -0.005 C 
HETATM   27  C1  UNL     1      12.986  27.262  -0.637  1.00  0.00     0.005 C 
ENDBRANCH  25  26
ENDBRANCH  24  25
ENDBRANCH  23  24
ENDBRANCH  22  23
ENDBRANCH  19  22
ENDBRANCH  17  18
BRANCH  17  28
HETATM   28  C9  UNL     1       9.051  24.499   4.579  1.00  0.00     0.065 C 
BRANCH  28  29
HETATM   29  C10 UNL     1       7.955  23.514   4.477  1.00  0.00     0.026 C 
BRANCH  29  30
HETATM   30  C11 UNL     1       7.211  23.536   5.833  1.00  0.00     0.125 C 
BRANCH  30  31
HETATM   31  N2  UNL     1       5.935  22.894   5.727  1.00  0.00    -0.337 N 
HETATM   32  C12 UNL     1       4.739  23.464   5.232  1.00  0.00     0.361 C 
HETATM   33  O2  UNL     1       4.723  24.641   4.832  1.00  0.00    -0.238 OA
ATOM     34  H2  UNL     1       5.884  21.925   6.040  1.00  0.00     0.164 HD
BRANCH  32  35
HETATM   35  O3  UNL     1       3.578  22.742   5.178  1.00  0.00    -0.294 OA
BRANCH  35  36
HETATM   36  C13 UNL     1       2.627  22.693   6.230  1.00  0.00     0.061 C 
HETATM   37  C14 UNL     1       2.213  21.239   6.348  1.00  0.00     0.046 C 
HETATM   38  C15 UNL     1       3.221  23.094   7.549  1.00  0.00     0.046 C 
HETATM   39  C16 UNL     1       1.419  23.536   5.960  1.00  0.00     0.046 C 
ENDBRANCH  35  36
ENDBRANCH  32  35
ENDBRANCH  30  31
ENDBRANCH  29  30
ENDBRANCH  28  29
ENDBRANCH  17  28
ENDBRANCH   1  17
BRANCH  16  40
HETATM   40  O6  UNL     1       6.889  26.646   4.407  1.00  0.00    -0.332 OA
ATOM     41  H6  UNL     1       6.178  26.867   4.996  1.00  0.00     0.220 HD
ENDBRANCH  16  40
BRANCH  13  42
HETATM   42  C28 UNL     1       8.686  30.569   6.115  1.00  0.00     0.034 C 
BRANCH  42  43
HETATM   43  C29 UNL     1       8.134  31.226   7.310  1.00  0.00     0.004 C 
BRANCH  43  44
HETATM   44  C30 UNL     1       6.760  31.762   7.132  1.00  0.00     0.027 C 
BRANCH  44  45
HETATM   45  C31 UNL     1       5.666  31.342   8.019  1.00  0.00     0.229 C 
BRANCH  45  46
HETATM   46  N6  UNL     1       5.712  29.959   8.404  1.00  0.00    -0.079 N 
ATOM     47  H63 UNL     1       5.455  29.362   7.617  1.00  0.00     0.274 HD
ATOM     48  H62 UNL     1       6.677  29.660   8.543  1.00  0.00     0.274 HD
ATOM     49  H61 UNL     1       5.148  29.731   9.222  1.00  0.00     0.274 HD
ENDBRANCH  45  46
ENDBRANCH  44  45
ENDBRANCH  43  44
ENDBRANCH  42  43
ENDBRANCH  13  42
BRANCH  12  50
HETATM   50  O5  UNL     1       6.916  29.363   3.200  1.00  0.00    -0.348 OA
ATOM     51  H5  UNL     1       6.216  29.693   2.650  1.00  0.00     0.219 HD
ENDBRANCH  12  50
BRANCH   9  52
HETATM   52  C22 UNL     1       9.281  33.475   3.163  1.00  0.00     0.067 C 
BRANCH  52  53
HETATM   53  C23 UNL     1       8.505  33.924   4.346  1.00  0.00    -0.017 C 
HETATM   54  C24 UNL     1       7.772  35.247   3.977  1.00  0.00     0.010 C 
HETATM   55  C25 UNL     1       9.311  34.316   5.561  1.00  0.00     0.010 C 
ENDBRANCH  52  53
ENDBRANCH   9  52
TORSDOF 22
ENDMDL
MODEL 2
REMARK VINA RESULT: -6.959673024      2.794      7.954
REMARK  22 active torsions:
REMARK  status: ('A' for Active; 'I' for Inactive)
REMARK    1  A    between atoms: C2_2  and  C3_3 
REMARK    2  A    between atoms: C3_3  and  C4_4 
REMARK    3  A    between atoms: C4_4  and  C5_5 
REMARK    4  A    between atoms: C5_5  and  C6_6 
REMARK    5  A    between atoms: C6_6  and  N1_7 
REMARK       I    between atoms: N1_7  and  C7_9 
REMARK    6  A    between atoms: C7_9  and  C8_11 
REMARK    7  A    between atoms: C8_11  and  C9_12 
REMARK    8  A    between atoms: C8_11  and  N3_24 
REMARK    9  A    between atoms: C9_12  and  C10_13 
REMARK   10  A    between atoms: C10_13  and  C11_14 
REMARK   11  A    between atoms: C11_14  and  N2_15 
REMARK       I    between atoms: N2_15  and  C12_17 
REMARK   12  A    between atoms: C12_17  and  O3_19 
REMARK   13  A    between atoms: O3_19  and  C13_20 
REMARK   14  A    between atoms: C21_32  and  C22_33 
REMARK   15  A    between atoms: C22_33  and  C23_34 
REMARK   16  A    between atoms: C26_39  and  O5_40 
REMARK   17  A    between atoms: C27_42  and  C28_43 
REMARK   18  A    between atoms: C28_43  and  C29_44 
REMARK   19  A    between atoms: C29_44  and  C30_45 
REMARK   20  A    between atoms: C30_45  and  C31_46 
REMARK   21  A    between atoms: C31_46  and  N6_47 
REMARK   22  A    between atoms: C32_53  and  O6_54 
ROOT
HETATM    1  N3  UNL     1       8.271  25.972   1.652  1.00  0.00    -0.312 N 
HETATM    2  C17 UNL     1       7.749  26.865   0.592  1.00  0.00     0.134 C 
HETATM    3  C18 UNL     1       7.909  28.309   0.888  1.00  0.00     0.040 C 
HETATM    4  C19 UNL     1       9.008  29.011   0.129  1.00  0.00     0.124 C 
HETATM    5  N4  UNL     1       8.823  29.007  -1.304  1.00  0.00    -0.356 N 
ATOM      6  H4  UNL     1       8.039  29.576  -1.626  1.00  0.00     0.162 HD
HETATM    7  C20 UNL     1       9.520  28.368  -2.322  1.00  0.00     0.264 C 
HETATM    8  O4  UNL     1       8.825  27.971  -3.306  1.00  0.00    -0.266 OA
HETATM    9  C21 UNL     1      10.960  28.055  -2.479  1.00  0.00     0.079 C 
HETATM   10  N5  UNL     1      11.526  27.101  -1.607  1.00  0.00    -0.338 N 
ATOM     11  H5  UNL     1      12.536  27.225  -1.552  1.00  0.00     0.167 HD
HETATM   12  C26 UNL     1      11.127  26.057  -0.809  1.00  0.00     0.139 C 
HETATM   13  C27 UNL     1      10.438  24.788  -0.951  1.00  0.00     0.159 C 
HETATM   14  N7  UNL     1       9.698  24.362   0.217  1.00  0.00    -0.344 N 
ATOM     15  H7  UNL     1       9.439  23.376   0.186  1.00  0.00     0.164 HD
HETATM   16  C32 UNL     1       9.265  24.996   1.365  1.00  0.00     0.220 C 
ENDROOT
BRANCH   1  17
HETATM   17  C8  UNL     1       7.668  26.197   2.952  1.00  0.00     0.083 C 
BRANCH  17  18
HETATM   18  C7  UNL     1       8.393  27.037   3.878  1.00  0.00     0.264 C 
HETATM   19  N1  UNL     1       7.692  27.966   4.677  1.00  0.00    -0.356 N 
ATOM     20  H1  UNL     1       6.678  28.030   4.583  1.00  0.00     0.162 HD
HETATM   21  O1  UNL     1       9.625  26.969   3.995  1.00  0.00    -0.266 OA
BRANCH  19  22
HETATM   22  C6  UNL     1       8.367  28.835   5.630  1.00  0.00     0.123 C 
BRANCH  22  23
HETATM   23  C5  UNL     1       7.524  29.078   6.859  1.00  0.00     0.020 C 
BRANCH  23  24
HETATM   24  C4  UNL     1       8.361  29.470   8.047  1.00  0.00     0.002 C 
BRANCH  24  25
HETATM   25  C3  UNL     1       7.648  29.012   9.313  1.00  0.00    -0.000 C 
BRANCH  25  26
HETATM   26  C2  UNL     1       8.667  28.943  10.434  1.00  0.00    -0.005 C 
HETATM   27  C1  UNL     1       8.524  27.653  11.224  1.00  0.00     0.005 C 
ENDBRANCH  25  26
ENDBRANCH  24  25
ENDBRANCH  23  24
ENDBRANCH  22  23
ENDBRANCH  19  22
ENDBRANCH  17  18
BRANCH  17  28
HETATM   28  C9  UNL     1       7.045  24.979   3.523  1.00  0.00     0.065 C 
BRANCH  28  29
HETATM   29  C10 UNL     1       7.400  24.533   4.885  1.00  0.00     0.026 C 
BRANCH  29  30
HETATM   30  C11 UNL     1       6.773  23.132   5.072  1.00  0.00     0.125 C 
BRANCH  30  31
HETATM   31  N2  UNL     1       5.645  23.190   5.953  1.00  0.00    -0.337 N 
HETATM   32  C12 UNL     1       4.330  23.590   5.619  1.00  0.00     0.361 C 
HETATM   33  O2  UNL     1       4.056  23.941   4.457  1.00  0.00    -0.238 OA
ATOM     34  H2  UNL     1       5.806  22.914   6.921  1.00  0.00     0.164 HD
BRANCH  32  35
HETATM   35  O3  UNL     1       3.331  23.599   6.555  1.00  0.00    -0.294 OA
BRANCH  35  36
HETATM   36  C13 UNL     1       2.434  22.521   6.764  1.00  0.00     0.061 C 
HETATM   37  C14 UNL     1       2.439  22.261   8.258  1.00  0.00     0.046 C 
HETATM   38  C15 UNL     1       1.025  22.873   6.380  1.00  0.00     0.046 C 
HETATM   39  C16 UNL     1       2.843  21.276   6.039  1.00  0.00     0.046 C 
ENDBRANCH  35  36
ENDBRANCH  32  35
ENDBRANCH  30  31
ENDBRANCH  29  30
ENDBRANCH  28  29
ENDBRANCH  17  28
ENDBRANCH   1  17
BRANCH  16  40
HETATM   40  O6  UNL     1       9.905  24.629   2.447  1.00  0.00    -0.332 OA
ATOM     41  H6  UNL     1      10.758  24.265   2.242  1.00  0.00     0.220 HD
ENDBRANCH  16  40
BRANCH  13  42
HETATM   42  C28 UNL     1       9.611  24.563  -2.185  1.00  0.00     0.034 C 
BRANCH  42  43
HETATM   43  C29 UNL     1      10.372  24.067  -3.342  1.00  0.00     0.004 C 
BRANCH  43  44
HETATM   44  C30 UNL     1       9.799  24.451  -4.658  1.00  0.00     0.027 C 
BRANCH  44  45
HETATM   45  C31 UNL     1       9.144  23.453  -5.516  1.00  0.00     0.229 C 
BRANCH  45  46
HETATM   46  N6  UNL     1       9.652  22.118  -5.365  1.00  0.00    -0.079 N 
ATOM     47  H63 UNL     1      10.665  22.106  -5.482  1.00  0.00     0.274 HD
ATOM     48  H62 UNL     1       9.585  21.819  -4.392  1.00  0.00     0.274 HD
ATOM     49  H61 UNL     1       9.216  21.429  -5.979  1.00  0.00     0.274 HD
ENDBRANCH  45  46
ENDBRANCH  44  45
ENDBRANCH  43  44
ENDBRANCH  42  43
ENDBRANCH  13  42
BRANCH  12  50
HETATM   50  O5  UNL     1      11.445  26.215   0.459  1.00  0.00    -0.348 OA
ATOM     51  H5  UNL     1      12.211  25.718   0.722  1.00  0.00     0.219 HD
ENDBRANCH  12  50
BRANCH   9  52
HETATM   52  C22 UNL     1      11.275  27.976  -3.942  1.00  0.00     0.067 C 
BRANCH  52  53
HETATM   53  C23 UNL     1      12.525  27.282  -4.343  1.00  0.00    -0.017 C 
HETATM   54  C24 UNL     1      13.688  28.317  -4.320  1.00  0.00     0.010 C 
HETATM   55  C25 UNL     1      12.570  26.759  -5.758  1.00  0.00     0.010 C 
ENDBRANCH  52  53
ENDBRANCH   9  52
TORSDOF 22
ENDMDL
MODEL 3
REMARK VINA RESULT: -6.616203484      2.853      8.578
REMARK  22 active torsions:
REMARK  status: ('A' for Active; 'I' for Inactive)
REMARK    1  A    between atoms: C2_2  and  C3_3 
REMARK    2  A    between atoms: C3_3  and  C4_4 
REMARK    3  A    between atoms: C4_4  and  C5_5 
REMARK    4  A    between atoms: C5_5  and  C6_6 
REMARK    5  A    between atoms: C6_6  and  N1_7 
REMARK       I    between atoms: N1_7  and  C7_9 
REMARK    6  A    between atoms: C7_9  and  C8_11 
REMARK    7  A    between atoms: C8_11  and  C9_12 
REMARK    8  A    between atoms: C8_11  and  N3_24 
REMARK    9  A    between atoms: C9_12  and  C10_13 
REMARK   10  A    between atoms: C10_13  and  C11_14 
REMARK   11  A    between atoms: C11_14  and  N2_15 
REMARK       I    between atoms: N2_15  and  C12_17 
REMARK   12  A    between atoms: C12_17  and  O3_19 
REMARK   13  A    between atoms: O3_19  and  C13_20 
REMARK   14  A    between atoms: C21_32  and  C22_33 
REMARK   15  A    between atoms: C22_33  and  C23_34 
REMARK   16  A    between atoms: C26_39  and  O5_40 
REMARK   17  A    between atoms: C27_42  and  C28_43 
REMARK   18  A    between atoms: C28_43  and  C29_44 
REMARK   19  A    between atoms: C29_44  and  C30_45 
REMARK   20  A    between atoms: C30_45  and  C31_46 
REMARK   21  A    between atoms: C31_46  and  N6_47 
REMARK   22  A    between atoms: C32_53  and  O6_54 
ROOT
HETATM    1  N3  UNL     1       8.902  27.136   2.201  1.00  0.00    -0.312 N 
HETATM    2  C17 UNL     1       8.322  27.886   1.064  1.00  0.00     0.134 C 
HETATM    3  C18 UNL     1       8.690  29.323   1.038  1.00  0.00     0.040 C 
HETATM    4  C19 UNL     1       9.725  29.710   0.011  1.00  0.00     0.124 C 
HETATM    5  N4  UNL     1       9.313  29.471  -1.353  1.00  0.00    -0.356 N 
ATOM      6  H4  UNL     1       8.557  30.077  -1.674  1.00  0.00     0.162 HD
HETATM    7  C20 UNL     1       9.761  28.565  -2.306  1.00  0.00     0.264 C 
HETATM    8  O4  UNL     1       8.875  28.097  -3.086  1.00  0.00    -0.266 OA
HETATM    9  C21 UNL     1      11.112  28.026  -2.591  1.00  0.00     0.079 C 
HETATM   10  N5  UNL     1      11.698  27.177  -1.629  1.00  0.00    -0.338 N 
ATOM     11  H5  UNL     1      12.711  27.163  -1.738  1.00  0.00     0.167 HD
HETATM   12  C26 UNL     1      11.316  26.363  -0.590  1.00  0.00     0.139 C 
HETATM   13  C27 UNL     1      10.474  25.201  -0.378  1.00  0.00     0.159 C 
HETATM   14  N7  UNL     1       9.888  25.105   0.941  1.00  0.00    -0.344 N 
ATOM     15  H7  UNL     1       9.518  24.177   1.145  1.00  0.00     0.164 HD
HETATM   16  C32 UNL     1       9.720  25.993   1.985  1.00  0.00     0.220 C 
ENDROOT
BRANCH   1  17
HETATM   17  C8  UNL     1       8.546  27.678   3.499  1.00  0.00     0.083 C 
BRANCH  17  18
HETATM   18  C7  UNL     1       7.640  26.899   4.312  1.00  0.00     0.264 C 
HETATM   19  N1  UNL     1       7.128  25.680   3.819  1.00  0.00    -0.356 N 
ATOM     20  H1  UNL     1       7.406  25.370   2.887  1.00  0.00     0.162 HD
HETATM   21  O1  UNL     1       7.294  27.269   5.443  1.00  0.00    -0.266 OA
BRANCH  19  22
HETATM   22  C6  UNL     1       6.217  24.849   4.594  1.00  0.00     0.123 C 
BRANCH  22  23
HETATM   23  C5  UNL     1       6.957  23.804   5.393  1.00  0.00     0.020 C 
BRANCH  23  24
HETATM   24  C4  UNL     1       6.019  22.805   6.018  1.00  0.00     0.002 C 
BRANCH  24  25
HETATM   25  C3  UNL     1       4.591  23.183   5.641  1.00  0.00    -0.000 C 
BRANCH  25  26
HETATM   26  C2  UNL     1       3.656  22.139   6.222  1.00  0.00    -0.005 C 
HETATM   27  C1  UNL     1       3.011  22.637   7.504  1.00  0.00     0.005 C 
ENDBRANCH  25  26
ENDBRANCH  24  25
ENDBRANCH  23  24
ENDBRANCH  22  23
ENDBRANCH  19  22
ENDBRANCH  17  18
BRANCH  17  28
HETATM   28  C9  UNL     1       8.311  29.141   3.474  1.00  0.00     0.065 C 
BRANCH  28  29
HETATM   29  C10 UNL     1       9.150  30.041   4.291  1.00  0.00     0.026 C 
BRANCH  29  30
HETATM   30  C11 UNL     1       8.242  30.602   5.410  1.00  0.00     0.125 C 
BRANCH  30  31
HETATM   31  N2  UNL     1       8.390  29.846   6.617  1.00  0.00    -0.337 N 
HETATM   32  C12 UNL     1       7.366  29.500   7.530  1.00  0.00     0.361 C 
HETATM   33  O2  UNL     1       6.193  29.859   7.324  1.00  0.00    -0.238 OA
ATOM     34  H2  UNL     1       9.330  29.522   6.842  1.00  0.00     0.164 HD
BRANCH  32  35
HETATM   35  O3  UNL     1       7.634  28.766   8.653  1.00  0.00    -0.294 OA
BRANCH  35  36
HETATM   36  C13 UNL     1       7.616  29.298   9.968  1.00  0.00     0.061 C 
HETATM   37  C14 UNL     1       8.386  28.311  10.825  1.00  0.00     0.046 C 
HETATM   38  C15 UNL     1       8.331  30.615  10.057  1.00  0.00     0.046 C 
HETATM   39  C16 UNL     1       6.229  29.454  10.512  1.00  0.00     0.046 C 
ENDBRANCH  35  36
ENDBRANCH  32  35
ENDBRANCH  30  31
ENDBRANCH  29  30
ENDBRANCH  28  29
ENDBRANCH  17  28
ENDBRANCH   1  17
BRANCH  16  40
HETATM   40  O6  UNL     1      10.479  25.742   3.022  1.00  0.00    -0.332 OA
ATOM     41  H6  UNL     1      10.085  25.094   3.594  1.00  0.00     0.220 HD
ENDBRANCH  16  40
BRANCH  13  42
HETATM   42  C28 UNL     1       9.440  24.875  -1.417  1.00  0.00     0.034 C 
BRANCH  42  43
HETATM   43  C29 UNL     1       9.976  24.226  -2.624  1.00  0.00     0.004 C 
BRANCH  43  44
HETATM   44  C30 UNL     1       9.215  24.523  -3.865  1.00  0.00     0.027 C 
BRANCH  44  45
HETATM   45  C31 UNL     1       9.377  23.692  -5.066  1.00  0.00     0.229 C 
BRANCH  45  46
HETATM   46  N6  UNL     1       9.934  22.392  -4.817  1.00  0.00    -0.079 N 
ATOM     47  H63 UNL     1      10.662  22.446  -4.104  1.00  0.00     0.274 HD
ATOM     48  H62 UNL     1       9.257  21.802  -4.331  1.00  0.00     0.274 HD
ATOM     49  H61 UNL     1      10.285  21.917  -5.648  1.00  0.00     0.274 HD
ENDBRANCH  45  46
ENDBRANCH  44  45
ENDBRANCH  43  44
ENDBRANCH  42  43
ENDBRANCH  13  42
BRANCH  12  50
HETATM   50  O5  UNL     1      11.850  26.703   0.565  1.00  0.00    -0.348 OA
ATOM     51  H5  UNL     1      12.308  25.990   0.994  1.00  0.00     0.219 HD
ENDBRANCH  12  50
BRANCH   9  52
HETATM   52  C22 UNL     1      11.176  27.638  -4.037  1.00  0.00     0.067 C 
BRANCH  52  53
HETATM   53  C23 UNL     1      12.489  27.201  -4.576  1.00  0.00    -0.017 C 
HETATM   54  C24 UNL     1      12.619  27.733  -6.035  1.00  0.00     0.010 C 
HETATM   55  C25 UNL     1      12.677  25.713  -4.745  1.00  0.00     0.010 C 
ENDBRANCH  52  53
ENDBRANCH   9  52
TORSDOF 22
ENDMDL
MODEL 4
REMARK VINA RESULT: -6.565809063      3.588      9.928
REMARK  22 active torsions:
REMARK  status: ('A' for Active; 'I' for Inactive)
REMARK    1  A    between atoms: C2_2  and  C3_3 
REMARK    2  A    between atoms: C3_3  and  C4_4 
REMARK    3  A    between atoms: C4_4  and  C5_5 
REMARK    4  A    between atoms: C5_5  and  C6_6 
REMARK    5  A    between atoms: C6_6  and  N1_7 
REMARK       I    between atoms: N1_7  and  C7_9 
REMARK    6  A    between atoms: C7_9  and  C8_11 
REMARK    7  A    between atoms: C8_11  and  C9_12 
REMARK    8  A    between atoms: C8_11  and  N3_24 
REMARK    9  A    between atoms: C9_12  and  C10_13 
REMARK   10  A    between atoms: C10_13  and  C11_14 
REMARK   11  A    between atoms: C11_14  and  N2_15 
REMARK       I    between atoms: N2_15  and  C12_17 
REMARK   12  A    between atoms: C12_17  and  O3_19 
REMARK   13  A    between atoms: O3_19  and  C13_20 
REMARK   14  A    between atoms: C21_32  and  C22_33 
REMARK   15  A    between atoms: C22_33  and  C23_34 
REMARK   16  A    between atoms: C26_39  and  O5_40 
REMARK   17  A    between atoms: C27_42  and  C28_43 
REMARK   18  A    between atoms: C28_43  and  C29_44 
REMARK   19  A    between atoms: C29_44  and  C30_45 
REMARK   20  A    between atoms: C30_45  and  C31_46 
REMARK   21  A    between atoms: C31_46  and  N6_47 
REMARK   22  A    between atoms: C32_53  and  O6_54 
ROOT
HETATM    1  N3  UNL     1      10.107  29.486   0.263  1.00  0.00    -0.312 N 
HETATM    2  C17 UNL     1      10.654  28.903   1.510  1.00  0.00     0.134 C 
HETATM    3  C18 UNL     1      10.154  29.549   2.748  1.00  0.00     0.040 C 
HETATM    4  C19 UNL     1       9.123  28.764   3.521  1.00  0.00     0.124 C 
HETATM    5  N4  UNL     1       9.603  27.491   4.008  1.00  0.00    -0.356 N 
ATOM      6  H4  UNL     1      10.310  27.563   4.740  1.00  0.00     0.162 HD
HETATM    7  C20 UNL     1       9.275  26.187   3.657  1.00  0.00     0.264 C 
HETATM    8  O4  UNL     1      10.227  25.348   3.690  1.00  0.00    -0.266 OA
HETATM    9  C21 UNL     1       7.991  25.576   3.241  1.00  0.00     0.079 C 
HETATM   10  N5  UNL     1       7.454  25.957   1.994  1.00  0.00    -0.338 N 
ATOM     11  H5  UNL     1       6.451  25.778   1.969  1.00  0.00     0.167 HD
HETATM   12  C26 UNL     1       7.874  26.496   0.802  1.00  0.00     0.139 C 
HETATM   13  C27 UNL     1       8.813  26.181  -0.258  1.00  0.00     0.159 C 
HETATM   14  N7  UNL     1       9.359  27.328  -0.949  1.00  0.00    -0.344 N 
ATOM     15  H7  UNL     1       9.808  27.084  -1.832  1.00  0.00     0.164 HD
HETATM   16  C32 UNL     1       9.408  28.681  -0.678  1.00  0.00     0.220 C 
ENDROOT
BRANCH   1  17
HETATM   17  C8  UNL     1      10.366  30.907   0.122  1.00  0.00     0.083 C 
BRANCH  17  18
HETATM   18  C7  UNL     1       9.225  31.792   0.164  1.00  0.00     0.264 C 
HETATM   19  N1  UNL     1       8.136  31.492   1.011  1.00  0.00    -0.356 N 
ATOM     20  H1  UNL     1       8.174  30.645   1.579  1.00  0.00     0.162 HD
HETATM   21  O1  UNL     1       9.169  32.820  -0.527  1.00  0.00    -0.266 OA
BRANCH  19  22
HETATM   22  C6  UNL     1       6.963  32.348   1.100  1.00  0.00     0.123 C 
BRANCH  22  23
HETATM   23  C5  UNL     1       5.830  31.837   0.243  1.00  0.00     0.020 C 
BRANCH  23  24
HETATM   24  C4  UNL     1       4.528  32.521   0.564  1.00  0.00     0.002 C 
BRANCH  24  25
HETATM   25  C3  UNL     1       3.657  32.511  -0.687  1.00  0.00    -0.000 C 
BRANCH  25  26
HETATM   26  C2  UNL     1       2.272  32.996  -0.304  1.00  0.00    -0.005 C 
HETATM   27  C1  UNL     1       1.804  32.347   0.987  1.00  0.00     0.005 C 
ENDBRANCH  25  26
ENDBRANCH  24  25
ENDBRANCH  23  24
ENDBRANCH  22  23
ENDBRANCH  19  22
ENDBRANCH  17  18
BRANCH  17  28
HETATM   28  C9  UNL     1      11.395  31.211  -0.902  1.00  0.00     0.065 C 
BRANCH  28  29
HETATM   29  C10 UNL     1      12.556  32.056  -0.557  1.00  0.00     0.026 C 
BRANCH  29  30
HETATM   30  C11 UNL     1      13.580  31.894  -1.704  1.00  0.00     0.125 C 
BRANCH  30  31
HETATM   31  N2  UNL     1      14.294  30.659  -1.583  1.00  0.00    -0.337 N 
HETATM   32  C12 UNL     1      14.217  29.547  -2.454  1.00  0.00     0.361 C 
HETATM   33  O2  UNL     1      13.470  29.579  -3.448  1.00  0.00    -0.238 OA
ATOM     34  H2  UNL     1      14.924  30.572  -0.786  1.00  0.00     0.164 HD
BRANCH  32  35
HETATM   35  O3  UNL     1      14.957  28.418  -2.231  1.00  0.00    -0.294 OA
BRANCH  35  36
HETATM   36  C13 UNL     1      14.428  27.222  -1.681  1.00  0.00     0.061 C 
HETATM   37  C14 UNL     1      15.505  26.677  -0.762  1.00  0.00     0.046 C 
HETATM   38  C15 UNL     1      13.212  27.475  -0.838  1.00  0.00     0.046 C 
HETATM   39  C16 UNL     1      14.099  26.199  -2.724  1.00  0.00     0.046 C 
ENDBRANCH  35  36
ENDBRANCH  32  35
ENDBRANCH  30  31
ENDBRANCH  29  30
ENDBRANCH  28  29
ENDBRANCH  17  28
ENDBRANCH   1  17
BRANCH  16  40
HETATM   40  O6  UNL     1       8.640  29.405  -1.453  1.00  0.00    -0.332 OA
ATOM     41  H6  UNL     1       7.720  29.242  -1.284  1.00  0.00     0.220 HD
ENDBRANCH  16  40
BRANCH  13  42
HETATM   42  C28 UNL     1       9.909  25.196   0.035  1.00  0.00     0.034 C 
BRANCH  42  43
HETATM   43  C29 UNL     1       9.914  24.016  -0.844  1.00  0.00     0.004 C 
BRANCH  43  44
HETATM   44  C30 UNL     1      10.591  24.232  -2.150  1.00  0.00     0.027 C 
BRANCH  44  45
HETATM   45  C31 UNL     1       9.875  24.015  -3.415  1.00  0.00     0.229 C 
BRANCH  45  46
HETATM   46  N6  UNL     1      10.188  22.774  -4.067  1.00  0.00    -0.079 N 
ATOM     47  H63 UNL     1       9.979  22.834  -5.064  1.00  0.00     0.274 HD
ATOM     48  H62 UNL     1      11.198  22.638  -4.108  1.00  0.00     0.274 HD
ATOM     49  H61 UNL     1       9.736  21.957  -3.658  1.00  0.00     0.274 HD
ENDBRANCH  45  46
ENDBRANCH  44  45
ENDBRANCH  43  44
ENDBRANCH  42  43
ENDBRANCH  13  42
BRANCH  12  50
HETATM   50  O5  UNL     1       7.271  27.627   0.497  1.00  0.00    -0.348 OA
ATOM     51  H5  UNL     1       6.325  27.554   0.464  1.00  0.00     0.219 HD
ENDBRANCH  12  50
BRANCH   9  52
HETATM   52  C22 UNL     1       8.013  24.122   3.607  1.00  0.00     0.067 C 
BRANCH  52  53
HETATM   53  C23 UNL     1       6.951  23.623   4.517  1.00  0.00    -0.017 C 
HETATM   54  C24 UNL     1       5.754  24.618   4.463  1.00  0.00     0.010 C 
HETATM   55  C25 UNL     1       7.295  23.592   5.986  1.00  0.00     0.010 C 
ENDBRANCH  52  53
ENDBRANCH   9  52
TORSDOF 22
ENDMDL
MODEL 5
REMARK VINA RESULT: -6.553266540      2.945      9.815
REMARK  22 active torsions:
REMARK  status: ('A' for Active; 'I' for Inactive)
REMARK    1  A    between atoms: C2_2  and  C3_3 
REMARK    2  A    between atoms: C3_3  and  C4_4 
REMARK    3  A    between atoms: C4_4  and  C5_5 
REMARK    4  A    between atoms: C5_5  and  C6_6 
REMARK    5  A    between atoms: C6_6  and  N1_7 
REMARK       I    between atoms: N1_7  and  C7_9 
REMARK    6  A    between atoms: C7_9  and  C8_11 
REMARK    7  A    between atoms: C8_11  and  C9_12 
REMARK    8  A    between atoms: C8_11  and  N3_24 
REMARK    9  A    between atoms: C9_12  and  C10_13 
REMARK   10  A    between atoms: C10_13  and  C11_14 
REMARK   11  A    between atoms: C11_14  and  N2_15 
REMARK       I    between atoms: N2_15  and  C12_17 
REMARK   12  A    between atoms: C12_17  and  O3_19 
REMARK   13  A    between atoms: O3_19  and  C13_20 
REMARK   14  A    between atoms: C21_32  and  C22_33 
REMARK   15  A    between atoms: C22_33  and  C23_34 
REMARK   16  A    between atoms: C26_39  and  O5_40 
REMARK   17  A    between atoms: C27_42  and  C28_43 
REMARK   18  A    between atoms: C28_43  and  C29_44 
REMARK   19  A    between atoms: C29_44  and  C30_45 
REMARK   20  A    between atoms: C30_45  and  C31_46 
REMARK   21  A    between atoms: C31_46  and  N6_47 
REMARK   22  A    between atoms: C32_53  and  O6_54 
ROOT
HETATM    1  N3  UNL     1      10.213  29.270   0.528  1.00  0.00    -0.312 N 
HETATM    2  C17 UNL     1      10.700  28.630   1.771  1.00  0.00     0.134 C 
HETATM    3  C18 UNL     1      10.191  29.259   3.013  1.00  0.00     0.040 C 
HETATM    4  C19 UNL     1       9.109  28.494   3.733  1.00  0.00     0.124 C 
HETATM    5  N4  UNL     1       9.524  27.189   4.195  1.00  0.00    -0.356 N 
ATOM      6  H4  UNL     1      10.211  27.211   4.949  1.00  0.00     0.162 HD
HETATM    7  C20 UNL     1       9.156  25.910   3.796  1.00  0.00     0.264 C 
HETATM    8  O4  UNL     1      10.073  25.033   3.830  1.00  0.00    -0.266 OA
HETATM    9  C21 UNL     1       7.861  25.363   3.327  1.00  0.00     0.079 C 
HETATM   10  N5  UNL     1       7.376  25.801   2.077  1.00  0.00    -0.338 N 
ATOM     11  H5  UNL     1       6.367  25.663   2.019  1.00  0.00     0.167 HD
HETATM   12  C26 UNL     1       7.850  26.357   0.914  1.00  0.00     0.139 C 
HETATM   13  C27 UNL     1       8.807  26.036  -0.128  1.00  0.00     0.159 C 
HETATM   14  N7  UNL     1       9.417  27.179  -0.769  1.00  0.00    -0.344 N 
ATOM     15  H7  UNL     1       9.881  26.943  -1.646  1.00  0.00     0.164 HD
HETATM   16  C32 UNL     1       9.510  28.521  -0.456  1.00  0.00     0.220 C 
ENDROOT
BRANCH   1  17
HETATM   17  C8  UNL     1      10.532  30.683   0.436  1.00  0.00     0.083 C 
BRANCH  17  18
HETATM   18  C7  UNL     1       9.427  31.613   0.506  1.00  0.00     0.264 C 
HETATM   19  N1  UNL     1       9.027  32.132   1.756  1.00  0.00    -0.356 N 
ATOM     20  H1  UNL     1       9.526  31.836   2.594  1.00  0.00     0.162 HD
HETATM   21  O1  UNL     1       8.813  31.974  -0.508  1.00  0.00    -0.266 OA
BRANCH  19  22
HETATM   22  C6  UNL     1       7.927  33.076   1.888  1.00  0.00     0.123 C 
BRANCH  22  23
HETATM   23  C5  UNL     1       7.378  33.102   3.294  1.00  0.00     0.020 C 
BRANCH  23  24
HETATM   24  C4  UNL     1       8.239  32.318   4.248  1.00  0.00     0.002 C 
BRANCH  24  25
HETATM   25  C3  UNL     1       7.478  32.151   5.558  1.00  0.00    -0.000 C 
BRANCH  25  26
HETATM   26  C2  UNL     1       8.089  30.987   6.316  1.00  0.00    -0.005 C 
HETATM   27  C1  UNL     1       7.063  29.893   6.554  1.00  0.00     0.005 C 
ENDBRANCH  25  26
ENDBRANCH  24  25
ENDBRANCH  23  24
ENDBRANCH  22  23
ENDBRANCH  19  22
ENDBRANCH  17  18
BRANCH  17  28
HETATM   28  C9  UNL     1      11.576  30.979  -0.573  1.00  0.00     0.065 C 
BRANCH  28  29
HETATM   29  C10 UNL     1      12.657  31.936  -0.262  1.00  0.00     0.026 C 
BRANCH  29  30
HETATM   30  C11 UNL     1      13.790  31.675  -1.281  1.00  0.00     0.125 C 
BRANCH  30  31
HETATM   31  N2  UNL     1      13.506  30.519  -2.077  1.00  0.00    -0.337 N 
HETATM   32  C12 UNL     1      14.408  29.486  -2.421  1.00  0.00     0.361 C 
HETATM   33  O2  UNL     1      15.587  29.523  -2.025  1.00  0.00    -0.238 OA
ATOM     34  H2  UNL     1      12.554  30.432  -2.433  1.00  0.00     0.164 HD
BRANCH  32  35
HETATM   35  O3  UNL     1      14.013  28.425  -3.191  1.00  0.00    -0.294 OA
BRANCH  35  36
HETATM   36  C13 UNL     1      13.181  27.376  -2.723  1.00  0.00     0.061 C 
HETATM   37  C14 UNL     1      11.815  27.629  -3.331  1.00  0.00     0.046 C 
HETATM   38  C15 UNL     1      13.640  26.030  -3.206  1.00  0.00     0.046 C 
HETATM   39  C16 UNL     1      13.066  27.348  -1.230  1.00  0.00     0.046 C 
ENDBRANCH  35  36
ENDBRANCH  32  35
ENDBRANCH  30  31
ENDBRANCH  29  30
ENDBRANCH  28  29
ENDBRANCH  17  28
ENDBRANCH   1  17
BRANCH  16  40
HETATM   40  O6  UNL     1       8.794  29.297  -1.230  1.00  0.00    -0.332 OA
ATOM     41  H6  UNL     1       8.128  28.806  -1.697  1.00  0.00     0.220 HD
ENDBRANCH  16  40
BRANCH  13  42
HETATM   42  C28 UNL     1       9.854  25.000   0.165  1.00  0.00     0.034 C 
BRANCH  42  43
HETATM   43  C29 UNL     1       9.921  23.909  -0.821  1.00  0.00     0.004 C 
BRANCH  43  44
HETATM   44  C30 UNL     1      10.569  24.286  -2.103  1.00  0.00     0.027 C 
BRANCH  44  45
HETATM   45  C31 UNL     1       9.900  24.039  -3.388  1.00  0.00     0.229 C 
BRANCH  45  46
HETATM   46  N6  UNL     1      10.235  22.784  -4.000  1.00  0.00    -0.079 N 
ATOM     47  H63 UNL     1       9.858  22.737  -4.947  1.00  0.00     0.274 HD
ATOM     48  H62 UNL     1      11.233  22.744  -4.207  1.00  0.00     0.274 HD
ATOM     49  H61 UNL     1       9.951  21.964  -3.464  1.00  0.00     0.274 HD
ENDBRANCH  45  46
ENDBRANCH  44  45
ENDBRANCH  43  44
ENDBRANCH  42  43
ENDBRANCH  13  42
BRANCH  12  50
HETATM   50  O5  UNL     1       7.301  27.519   0.627  1.00  0.00    -0.348 OA
ATOM     51  H5  UNL     1       7.438  27.790  -0.273  1.00  0.00     0.219 HD
ENDBRANCH  12  50
BRANCH   9  52
HETATM   52  C22 UNL     1       7.816  23.900   3.650  1.00  0.00     0.067 C 
BRANCH  52  53
HETATM   53  C23 UNL     1       6.847  23.450   4.681  1.00  0.00    -0.017 C 
HETATM   54  C24 UNL     1       5.597  24.376   4.615  1.00  0.00     0.010 C 
HETATM   55  C25 UNL     1       7.292  23.590   6.117  1.00  0.00     0.010 C 
ENDBRANCH  52  53
ENDBRANCH   9  52
TORSDOF 22
ENDMDL
