MODEL 1
REMARK VINA RESULT: -7.677863512      0.000      0.000
REMARK  6 active torsions:
REMARK  status: ('A' for Active; 'I' for Inactive)
REMARK    1  A    between atoms: C2_2  and  C3_3 
REMARK    2  A    between atoms: C4_4  and  C5_5 
REMARK    3  A    between atoms: C5_5  and  N1_6 
REMARK    4  A    between atoms: N1_6  and  C6_8 
REMARK    5  A    between atoms: C6_8  and  C7_9 
REMARK    6  A    between atoms: N2_13  and  C11_14 
ROOT
HETATM    1  N1  UNL     1      -6.028  20.000  -3.955  1.00  0.00    -0.382 N 
ATOM      2  H1  UNL     1      -7.024  19.792  -4.033  1.00  0.00     0.164 HD
ENDROOT
BRANCH   1   3
HETATM    3  C5  UNL     1      -5.205  19.594  -4.989  1.00  0.00     0.067 C 
BRANCH   3   4
HETATM    4  C4  UNL     1      -5.197  18.220  -5.567  1.00  0.00     0.047 C 
HETATM    5  C3  UNL     1      -4.045  17.876  -6.416  1.00  0.00     0.092 C 
HETATM    6  N3  UNL     1      -3.120  16.981  -5.851  1.00  0.00    -0.383 N 
HETATM    7  C18 UNL     1      -3.384  16.154  -4.786  1.00  0.00     0.084 C 
HETATM    8  C21 UNL     1      -1.960  16.607  -6.540  1.00  0.00     0.059 C 
HETATM    9  C17 UNL     1      -4.815  15.995  -4.391  1.00  0.00     0.026 C 
HETATM   10  C19 UNL     1      -2.733  14.841  -5.158  1.00  0.00     0.030 C 
HETATM   11  C16 UNL     1      -5.597  17.260  -4.484  1.00  0.00     0.014 C 
HETATM   12  C20 UNL     1      -1.641  15.169  -6.152  1.00  0.00     0.046 C 
BRANCH   5  13
HETATM   13  C2  UNL     1      -4.460  17.498  -7.834  1.00  0.00     0.021 C 
HETATM   14  C1  UNL     1      -5.443  16.407  -7.920  1.00  0.00     0.007 C 
ENDBRANCH   5  13
ENDBRANCH   3   4
ENDBRANCH   1   3
BRANCH   1  15
HETATM   15  C6  UNL     1      -5.596  20.671  -2.814  1.00  0.00     0.066 C 
BRANCH  15  16
HETATM   16  C7  UNL     1      -6.202  20.267  -1.495  1.00  0.00     0.052 C 
HETATM   17  C8  UNL     1      -6.695  21.353  -0.619  1.00  0.00     0.013 C 
HETATM   18  C9  UNL     1      -6.698  20.758   0.809  1.00  0.00     0.031 C 
HETATM   19  C10 UNL     1      -6.989  19.265   0.685  1.00  0.00     0.273 C 
HETATM   20  N2  UNL     1      -7.980  19.144  -0.367  1.00  0.00     0.093 N 
HETATM   21  C15 UNL     1      -7.328  19.237  -1.667  1.00  0.00     0.282 C 
BRANCH  20  22
HETATM   22  C11 UNL     1      -8.785  17.978  -0.229  1.00  0.00     0.223 C 
HETATM   23  C12 UNL     1      -8.299  16.863   0.643  1.00  0.00     0.036 C 
HETATM   24  C13 UNL     1      -8.589  15.918  -0.534  1.00  0.00     0.004 C 
HETATM   25  C14 UNL     1      -8.848  17.109  -1.443  1.00  0.00     0.036 C 
ENDBRANCH  20  22
ENDBRANCH  15  16
ENDBRANCH   1  15
TORSDOF 6
ENDMDL
MODEL 2
REMARK VINA RESULT: -7.545282532      1.159      1.438
REMARK  6 active torsions:
REMARK  status: ('A' for Active; 'I' for Inactive)
REMARK    1  A    between atoms: C2_2  and  C3_3 
REMARK    2  A    between atoms: C4_4  and  C5_5 
REMARK    3  A    between atoms: C5_5  and  N1_6 
REMARK    4  A    between atoms: N1_6  and  C6_8 
REMARK    5  A    between atoms: C6_8  and  C7_9 
REMARK    6  A    between atoms: N2_13  and  C11_14 
ROOT
HETATM    1  N1  UNL     1      -6.238  18.141  -3.747  1.00  0.00    -0.382 N 
ATOM      2  H1  UNL     1      -6.361  17.205  -3.358  1.00  0.00     0.164 HD
ENDROOT
BRANCH   1   3
HETATM    3  C5  UNL     1      -5.485  18.260  -4.900  1.00  0.00     0.067 C 
BRANCH   3   4
HETATM    4  C4  UNL     1      -4.966  17.107  -5.689  1.00  0.00     0.047 C 
HETATM    5  C3  UNL     1      -3.861  17.395  -6.618  1.00  0.00     0.092 C 
HETATM    6  N3  UNL     1      -2.600  16.909  -6.231  1.00  0.00    -0.383 N 
HETATM    7  C18 UNL     1      -2.396  15.917  -5.303  1.00  0.00     0.084 C 
HETATM    8  C21 UNL     1      -1.461  17.153  -7.008  1.00  0.00     0.059 C 
HETATM    9  C17 UNL     1      -3.589  15.119  -4.894  1.00  0.00     0.026 C 
HETATM   10  C19 UNL     1      -1.300  15.063  -5.900  1.00  0.00     0.030 C 
HETATM   11  C16 UNL     1      -4.828  15.935  -4.759  1.00  0.00     0.014 C 
HETATM   12  C20 UNL     1      -0.541  15.948  -6.863  1.00  0.00     0.046 C 
BRANCH   5  13
HETATM   13  C2  UNL     1      -4.217  17.066  -8.064  1.00  0.00     0.021 C 
HETATM   14  C1  UNL     1      -5.353  16.146  -8.226  1.00  0.00     0.007 C 
ENDBRANCH   5  13
ENDBRANCH   3   4
ENDBRANCH   1   3
BRANCH   1  15
HETATM   15  C6  UNL     1      -6.839  19.203  -3.078  1.00  0.00     0.066 C 
BRANCH  15  16
HETATM   16  C7  UNL     1      -7.133  19.027  -1.610  1.00  0.00     0.052 C 
HETATM   17  C8  UNL     1      -7.016  20.227  -0.752  1.00  0.00     0.013 C 
HETATM   18  C9  UNL     1      -6.784  19.686   0.678  1.00  0.00     0.031 C 
HETATM   19  C10 UNL     1      -7.519  18.353   0.792  1.00  0.00     0.273 C 
HETATM   20  N2  UNL     1      -8.760  18.526   0.061  1.00  0.00     0.093 N 
HETATM   21  C15 UNL     1      -8.509  18.391  -1.369  1.00  0.00     0.282 C 
BRANCH  20  22
HETATM   22  C11 UNL     1      -9.795  17.668   0.529  1.00  0.00     0.223 C 
HETATM   23  C12 UNL     1      -9.865  17.350   1.990  1.00  0.00     0.036 C 
HETATM   24  C13 UNL     1      -9.953  15.869   1.585  1.00  0.00     0.004 C 
HETATM   25  C14 UNL     1      -9.647  16.233   0.141  1.00  0.00     0.036 C 
ENDBRANCH  20  22
ENDBRANCH  15  16
ENDBRANCH   1  15
TORSDOF 6
ENDMDL
MODEL 3
REMARK VINA RESULT: -7.540891396      3.413      5.304
REMARK  6 active torsions:
REMARK  status: ('A' for Active; 'I' for Inactive)
REMARK    1  A    between atoms: C2_2  and  C3_3 
REMARK    2  A    between atoms: C4_4  and  C5_5 
REMARK    3  A    between atoms: C5_5  and  N1_6 
REMARK    4  A    between atoms: N1_6  and  C6_8 
REMARK    5  A    between atoms: C6_8  and  C7_9 
REMARK    6  A    between atoms: N2_13  and  C11_14 
ROOT
HETATM    1  N1  UNL     1      -6.750  22.491  -0.402  1.00  0.00    -0.382 N 
ATOM      2  H1  UNL     1      -7.665  22.851  -0.677  1.00  0.00     0.164 HD
ENDROOT
BRANCH   1   3
HETATM    3  C5  UNL     1      -5.636  23.218  -0.780  1.00  0.00     0.067 C 
BRANCH   3   4
HETATM    4  C4  UNL     1      -5.241  23.478  -2.193  1.00  0.00     0.047 C 
HETATM    5  C3  UNL     1      -4.726  22.324  -2.949  1.00  0.00     0.092 C 
HETATM    6  N3  UNL     1      -5.590  21.807  -3.930  1.00  0.00    -0.383 N 
HETATM    7  C18 UNL     1      -6.655  22.486  -4.470  1.00  0.00     0.084 C 
HETATM    8  C21 UNL     1      -5.234  20.685  -4.689  1.00  0.00     0.059 C 
HETATM    9  C17 UNL     1      -6.725  23.954  -4.205  1.00  0.00     0.026 C 
HETATM   10  C19 UNL     1      -6.599  22.162  -5.946  1.00  0.00     0.030 C 
HETATM   11  C16 UNL     1      -6.308  24.325  -2.824  1.00  0.00     0.014 C 
HETATM   12  C20 UNL     1      -5.852  20.853  -6.071  1.00  0.00     0.046 C 
BRANCH   5  13
HETATM   13  C2  UNL     1      -3.305  22.549  -3.455  1.00  0.00     0.021 C 
HETATM   14  C1  UNL     1      -2.820  23.933  -3.342  1.00  0.00     0.007 C 
ENDBRANCH   5  13
ENDBRANCH   3   4
ENDBRANCH   1   3
BRANCH   1  15
HETATM   15  C6  UNL     1      -6.715  21.305   0.325  1.00  0.00     0.066 C 
BRANCH  15  16
HETATM   16  C7  UNL     1      -7.289  20.071  -0.322  1.00  0.00     0.052 C 
HETATM   17  C8  UNL     1      -6.530  19.488  -1.450  1.00  0.00     0.013 C 
HETATM   18  C9  UNL     1      -7.564  18.671  -2.260  1.00  0.00     0.031 C 
HETATM   19  C10 UNL     1      -8.603  18.138  -1.277  1.00  0.00     0.273 C 
HETATM   20  N2  UNL     1      -7.862  17.767  -0.086  1.00  0.00     0.093 N 
HETATM   21  C15 UNL     1      -7.568  18.960   0.699  1.00  0.00     0.282 C 
BRANCH  20  22
HETATM   22  C11 UNL     1      -8.512  16.749   0.667  1.00  0.00     0.223 C 
HETATM   23  C12 UNL     1      -9.386  15.768  -0.048  1.00  0.00     0.036 C 
HETATM   24  C13 UNL     1     -10.465  16.080   1.002  1.00  0.00     0.004 C 
HETATM   25  C14 UNL     1      -9.624  17.226   1.543  1.00  0.00     0.036 C 
ENDBRANCH  20  22
ENDBRANCH  15  16
ENDBRANCH   1  15
TORSDOF 6
ENDMDL
MODEL 4
REMARK VINA RESULT: -7.447569699      3.526      6.592
REMARK  6 active torsions:
REMARK  status: ('A' for Active; 'I' for Inactive)
REMARK    1  A    between atoms: C2_2  and  C3_3 
REMARK    2  A    between atoms: C4_4  and  C5_5 
REMARK    3  A    between atoms: C5_5  and  N1_6 
REMARK    4  A    between atoms: N1_6  and  C6_8 
REMARK    5  A    between atoms: C6_8  and  C7_9 
REMARK    6  A    between atoms: N2_13  and  C11_14 
ROOT
HETATM    1  N1  UNL     1      -6.182  21.245   0.217  1.00  0.00    -0.382 N 
ATOM      2  H1  UNL     1      -5.407  21.579   0.791  1.00  0.00     0.164 HD
ENDROOT
BRANCH   1   3
HETATM    3  C5  UNL     1      -6.670  19.978   0.476  1.00  0.00     0.067 C 
BRANCH   3   4
HETATM    4  C4  UNL     1      -7.842  19.370  -0.216  1.00  0.00     0.047 C 
HETATM    5  C3  UNL     1      -7.578  18.150  -0.997  1.00  0.00     0.092 C 
HETATM    6  N3  UNL     1      -8.065  16.955  -0.439  1.00  0.00    -0.383 N 
HETATM    7  C18 UNL     1      -9.041  16.884   0.526  1.00  0.00     0.084 C 
HETATM    8  C21 UNL     1      -7.844  15.722  -1.063  1.00  0.00     0.059 C 
HETATM    9  C17 UNL     1      -9.823  18.128   0.790  1.00  0.00     0.026 C 
HETATM   10  C19 UNL     1      -9.913  15.727   0.095  1.00  0.00     0.030 C 
HETATM   11  C16 UNL     1      -8.996  19.366   0.745  1.00  0.00     0.014 C 
HETATM   12  C20 UNL     1      -9.052  14.840  -0.776  1.00  0.00     0.046 C 
BRANCH   5  13
HETATM   13  C2  UNL     1      -7.933  18.316  -2.470  1.00  0.00     0.021 C 
HETATM   14  C1  UNL     1      -6.794  18.617  -3.350  1.00  0.00     0.007 C 
ENDBRANCH   5  13
ENDBRANCH   3   4
ENDBRANCH   1   3
BRANCH   1  15
HETATM   15  C6  UNL     1      -6.671  22.098  -0.768  1.00  0.00     0.066 C 
BRANCH  15  16
HETATM   16  C7  UNL     1      -5.807  22.331  -1.981  1.00  0.00     0.052 C 
HETATM   17  C8  UNL     1      -4.642  21.436  -2.160  1.00  0.00     0.013 C 
HETATM   18  C9  UNL     1      -3.660  22.219  -3.063  1.00  0.00     0.031 C 
HETATM   19  C10 UNL     1      -4.491  23.097  -3.995  1.00  0.00     0.273 C 
HETATM   20  N2  UNL     1      -5.645  22.298  -4.361  1.00  0.00     0.093 N 
HETATM   21  C15 UNL     1      -6.624  22.327  -3.281  1.00  0.00     0.282 C 
BRANCH  20  22
HETATM   22  C11 UNL     1      -6.193  22.673  -5.620  1.00  0.00     0.223 C 
HETATM   23  C12 UNL     1      -7.583  23.227  -5.667  1.00  0.00     0.036 C 
HETATM   24  C13 UNL     1      -7.872  22.204  -6.778  1.00  0.00     0.004 C 
HETATM   25  C14 UNL     1      -6.530  21.534  -6.526  1.00  0.00     0.036 C 
ENDBRANCH  20  22
ENDBRANCH  15  16
ENDBRANCH   1  15
TORSDOF 6
ENDMDL
MODEL 5
REMARK VINA RESULT: -7.368661694      3.863      6.931
REMARK  6 active torsions:
REMARK  status: ('A' for Active; 'I' for Inactive)
REMARK    1  A    between atoms: C2_2  and  C3_3 
REMARK    2  A    between atoms: C4_4  and  C5_5 
REMARK    3  A    between atoms: C5_5  and  N1_6 
REMARK    4  A    between atoms: N1_6  and  C6_8 
REMARK    5  A    between atoms: C6_8  and  C7_9 
REMARK    6  A    between atoms: N2_13  and  C11_14 
ROOT
HETATM    1  N1  UNL     1      -6.206  20.219   0.533  1.00  0.00    -0.382 N 
ATOM      2  H1  UNL     1      -5.260  19.879   0.359  1.00  0.00     0.164 HD
ENDROOT
BRANCH   1   3
HETATM    3  C5  UNL     1      -7.142  19.307   0.983  1.00  0.00     0.067 C 
BRANCH   3   4
HETATM    4  C4  UNL     1      -8.249  18.758   0.151  1.00  0.00     0.047 C 
HETATM    5  C3  UNL     1      -7.886  17.692  -0.798  1.00  0.00     0.092 C 
HETATM    6  N3  UNL     1      -8.324  16.401  -0.457  1.00  0.00    -0.383 N 
HETATM    7  C18 UNL     1      -9.330  16.128   0.438  1.00  0.00     0.084 C 
HETATM    8  C21 UNL     1      -8.008  15.295  -1.256  1.00  0.00     0.059 C 
HETATM    9  C17 UNL     1     -10.192  17.272   0.856  1.00  0.00     0.026 C 
HETATM   10  C19 UNL     1     -10.117  15.011  -0.209  1.00  0.00     0.030 C 
HETATM   11  C16 UNL     1      -9.437  18.543   1.044  1.00  0.00     0.014 C 
HETATM   12  C20 UNL     1      -9.173  14.318  -1.167  1.00  0.00     0.046 C 
BRANCH   5  13
HETATM   13  C2  UNL     1      -8.193  18.072  -2.243  1.00  0.00     0.021 C 
HETATM   14  C1  UNL     1      -7.023  18.472  -3.039  1.00  0.00     0.007 C 
ENDBRANCH   5  13
ENDBRANCH   3   4
ENDBRANCH   1   3
BRANCH   1  15
HETATM   15  C6  UNL     1      -6.459  21.568   0.300  1.00  0.00     0.066 C 
BRANCH  15  16
HETATM   16  C7  UNL     1      -5.774  22.214  -0.876  1.00  0.00     0.052 C 
HETATM   17  C8  UNL     1      -5.482  21.351  -2.043  1.00  0.00     0.013 C 
HETATM   18  C9  UNL     1      -4.323  22.052  -2.790  1.00  0.00     0.031 C 
HETATM   19  C10 UNL     1      -4.483  23.556  -2.582  1.00  0.00     0.273 C 
HETATM   20  N2  UNL     1      -5.909  23.811  -2.644  1.00  0.00     0.093 N 
HETATM   21  C15 UNL     1      -6.527  23.457  -1.371  1.00  0.00     0.282 C 
BRANCH  20  22
HETATM   22  C11 UNL     1      -6.210  25.139  -3.060  1.00  0.00     0.223 C 
HETATM   23  C12 UNL     1      -6.927  26.047  -2.111  1.00  0.00     0.036 C 
HETATM   24  C13 UNL     1      -7.904  26.350  -3.260  1.00  0.00     0.004 C 
HETATM   25  C14 UNL     1      -7.279  25.247  -4.098  1.00  0.00     0.036 C 
ENDBRANCH  20  22
ENDBRANCH  15  16
ENDBRANCH   1  15
TORSDOF 6
ENDMDL
