MODEL 1
REMARK VINA RESULT: -7.856948203      0.000      0.000
REMARK  6 active torsions:
REMARK  status: ('A' for Active; 'I' for Inactive)
REMARK    1  A    between atoms: C1_2  and  C2_3 
REMARK       I    between atoms: C1_2  and  N1_11 
REMARK    2  A    between atoms: C2_3  and  C3_4 
REMARK    3  A    between atoms: C3_4  and  C4_5 
REMARK    4  A    between atoms: N1_11  and  C10_12 
REMARK    5  A    between atoms: N1_11  and  C16_20 
REMARK    6  A    between atoms: C10_12  and  C11_13 
ROOT
HETATM    1  O1  UNL     1      -6.453  19.410   0.880  1.00  0.00    -0.273 OA
HETATM    2  C1  UNL     1      -6.755  19.503  -0.337  1.00  0.00     0.220 C 
HETATM    3  N1  UNL     1      -7.607  18.514  -0.893  1.00  0.00    -0.342 N 
ENDROOT
BRANCH   3   4
HETATM    4  C10 UNL     1      -7.976  18.618  -2.274  1.00  0.00     0.183 C 
BRANCH   4   5
HETATM    5  C11 UNL     1      -6.890  18.426  -3.245  1.00  0.00     0.027 A 
HETATM    6  C12 UNL     1      -6.474  19.406  -4.108  1.00  0.00     0.027 A 
HETATM    7  C13 UNL     1      -5.460  19.206  -5.014  1.00  0.00     0.003 A 
HETATM    8  C14 UNL     1      -4.841  17.981  -5.057  1.00  0.00     0.017 A 
HETATM    9  C15 UNL     1      -5.267  16.993  -4.180  1.00  0.00     0.088 A 
HETATM   10  N2  UNL     1      -6.265  17.241  -3.311  1.00  0.00    -0.368 N 
ATOM     11  H2  UNL     1      -6.559  16.498  -2.677  1.00  0.00     0.165 HD
ENDBRANCH   4   5
ENDBRANCH   3   4
BRANCH   3  12
HETATM   12  C16 UNL     1      -8.045  17.438  -0.038  1.00  0.00     0.090 C 
HETATM   13  C17 UNL     1      -8.438  16.206  -0.864  1.00  0.00     0.053 C 
HETATM   14  C18 UNL     1      -8.438  15.042   0.105  1.00  0.00     0.234 C 
HETATM   15  N3  UNL     1      -8.559  15.516   1.475  1.00  0.00    -0.075 N 
HETATM   16  C19 UNL     1      -9.676  16.445   1.504  1.00  0.00     0.234 C 
ATOM     17  H32 UNL     1      -8.649  14.760   2.154  1.00  0.00     0.277 HD
ATOM     18  H31 UNL     1      -7.695  15.915   1.839  1.00  0.00     0.277 HD
HETATM   19  C20 UNL     1      -9.225  17.748   0.824  1.00  0.00     0.053 C 
ENDBRANCH   3  12
BRANCH   2  20
HETATM   20  C2  UNL     1      -6.177  20.646  -1.066  1.00  0.00     0.103 C 
BRANCH  20  21
HETATM   21  C3  UNL     1      -6.329  21.937  -0.334  1.00  0.00     0.014 C 
BRANCH  21  22
HETATM   22  C4  UNL     1      -6.494  23.103  -1.246  1.00  0.00    -0.014 C 
HETATM   23  C5  UNL     1      -6.282  22.743  -2.678  1.00  0.00     0.004 C 
HETATM   24  C6  UNL     1      -6.519  23.930  -3.592  1.00  0.00     0.000 C 
HETATM   25  C7  UNL     1      -6.288  25.247  -2.891  1.00  0.00     0.000 C 
HETATM   26  C8  UNL     1      -5.114  25.093  -1.948  1.00  0.00     0.000 C 
HETATM   27  C9  UNL     1      -5.422  24.128  -0.854  1.00  0.00     0.004 C 
ENDBRANCH  21  22
ENDBRANCH  20  21
ENDBRANCH   2  20
TORSDOF 6
ENDMDL
MODEL 2
REMARK VINA RESULT: -7.819139268      2.613      6.641
REMARK  6 active torsions:
REMARK  status: ('A' for Active; 'I' for Inactive)
REMARK    1  A    between atoms: C1_2  and  C2_3 
REMARK       I    between atoms: C1_2  and  N1_11 
REMARK    2  A    between atoms: C2_3  and  C3_4 
REMARK    3  A    between atoms: C3_4  and  C4_5 
REMARK    4  A    between atoms: N1_11  and  C10_12 
REMARK    5  A    between atoms: N1_11  and  C16_20 
REMARK    6  A    between atoms: C10_12  and  C11_13 
ROOT
HETATM    1  O1  UNL     1      -7.613  21.793   0.027  1.00  0.00    -0.273 OA
HETATM    2  C1  UNL     1      -6.685  21.304  -0.665  1.00  0.00     0.220 C 
HETATM    3  N1  UNL     1      -5.840  22.196  -1.377  1.00  0.00    -0.342 N 
ENDROOT
BRANCH   3   4
HETATM    4  C10 UNL     1      -4.765  21.654  -2.155  1.00  0.00     0.183 C 
BRANCH   4   5
HETATM    5  C11 UNL     1      -5.031  21.486  -3.589  1.00  0.00     0.027 A 
HETATM    6  C12 UNL     1      -6.049  20.708  -4.077  1.00  0.00     0.027 A 
HETATM    7  C13 UNL     1      -6.279  20.557  -5.424  1.00  0.00     0.003 A 
HETATM    8  C14 UNL     1      -5.461  21.208  -6.314  1.00  0.00     0.017 A 
HETATM    9  C15 UNL     1      -4.431  21.994  -5.813  1.00  0.00     0.088 A 
HETATM   10  N2  UNL     1      -4.249  22.108  -4.484  1.00  0.00    -0.368 N 
ATOM     11  H2  UNL     1      -3.485  22.692  -4.143  1.00  0.00     0.165 HD
ENDBRANCH   4   5
ENDBRANCH   3   4
BRANCH   3  12
HETATM   12  C16 UNL     1      -6.122  23.607  -1.295  1.00  0.00     0.090 C 
HETATM   13  C17 UNL     1      -6.380  24.197  -2.689  1.00  0.00     0.053 C 
HETATM   14  C18 UNL     1      -7.088  25.515  -2.455  1.00  0.00     0.234 C 
HETATM   15  N3  UNL     1      -6.851  25.991  -1.100  1.00  0.00    -0.075 N 
HETATM   16  C19 UNL     1      -5.419  25.920  -0.871  1.00  0.00     0.234 C 
ATOM     17  H32 UNL     1      -7.240  26.918  -0.927  1.00  0.00     0.277 HD
ATOM     18  H31 UNL     1      -7.395  25.489  -0.399  1.00  0.00     0.277 HD
HETATM   19  C20 UNL     1      -5.041  24.441  -0.690  1.00  0.00     0.053 C 
ENDBRANCH   3  12
BRANCH   2  20
HETATM   20  C2  UNL     1      -6.575  19.835  -0.665  1.00  0.00     0.103 C 
BRANCH  20  21
HETATM   21  C3  UNL     1      -6.946  19.226   0.645  1.00  0.00     0.014 C 
BRANCH  21  22
HETATM   22  C4  UNL     1      -7.753  17.983   0.498  1.00  0.00    -0.014 C 
HETATM   23  C5  UNL     1      -8.110  17.699  -0.922  1.00  0.00     0.004 C 
HETATM   24  C6  UNL     1      -8.875  16.396  -1.055  1.00  0.00     0.000 C 
HETATM   25  C7  UNL     1      -9.618  16.037   0.210  1.00  0.00     0.000 C 
HETATM   26  C8  UNL     1     -10.160  17.307   0.828  1.00  0.00     0.000 C 
HETATM   27  C9  UNL     1      -9.057  18.204   1.276  1.00  0.00     0.004 C 
ENDBRANCH  21  22
ENDBRANCH  20  21
ENDBRANCH   2  20
TORSDOF 6
ENDMDL
MODEL 3
REMARK VINA RESULT: -7.714585659      2.712      6.753
REMARK  6 active torsions:
REMARK  status: ('A' for Active; 'I' for Inactive)
REMARK    1  A    between atoms: C1_2  and  C2_3 
REMARK       I    between atoms: C1_2  and  N1_11 
REMARK    2  A    between atoms: C2_3  and  C3_4 
REMARK    3  A    between atoms: C3_4  and  C4_5 
REMARK    4  A    between atoms: N1_11  and  C10_12 
REMARK    5  A    between atoms: N1_11  and  C16_20 
REMARK    6  A    between atoms: C10_12  and  C11_13 
ROOT
HETATM    1  O1  UNL     1      -7.176  21.987   0.007  1.00  0.00    -0.273 OA
HETATM    2  C1  UNL     1      -6.401  21.681  -0.935  1.00  0.00     0.220 C 
HETATM    3  N1  UNL     1      -5.797  22.734  -1.672  1.00  0.00    -0.342 N 
ENDROOT
BRANCH   3   4
HETATM    4  C10 UNL     1      -4.895  22.401  -2.736  1.00  0.00     0.183 C 
BRANCH   4   5
HETATM    5  C11 UNL     1      -5.516  21.922  -3.978  1.00  0.00     0.027 A 
HETATM    6  C12 UNL     1      -5.302  20.668  -4.489  1.00  0.00     0.027 A 
HETATM    7  C13 UNL     1      -5.887  20.239  -5.656  1.00  0.00     0.003 A 
HETATM    8  C14 UNL     1      -6.716  21.095  -6.336  1.00  0.00     0.017 A 
HETATM    9  C15 UNL     1      -6.930  22.364  -5.813  1.00  0.00     0.088 A 
HETATM   10  N2  UNL     1      -6.332  22.735  -4.665  1.00  0.00    -0.368 N 
ATOM     11  H2  UNL     1      -6.506  23.672  -4.303  1.00  0.00     0.165 HD
ENDBRANCH   4   5
ENDBRANCH   3   4
BRANCH   3  12
HETATM   12  C16 UNL     1      -6.140  24.090  -1.323  1.00  0.00     0.090 C 
HETATM   13  C17 UNL     1      -6.533  24.895  -2.569  1.00  0.00     0.053 C 
HETATM   14  C18 UNL     1      -7.283  26.107  -2.057  1.00  0.00     0.234 C 
HETATM   15  N3  UNL     1      -6.965  26.354  -0.660  1.00  0.00    -0.075 N 
HETATM   16  C19 UNL     1      -5.517  26.332  -0.544  1.00  0.00     0.234 C 
ATOM     17  H32 UNL     1      -7.384  27.212  -0.299  1.00  0.00     0.277 HD
ATOM     18  H31 UNL     1      -7.428  25.707  -0.023  1.00  0.00     0.277 HD
HETATM   19  C20 UNL     1      -5.056  24.870  -0.655  1.00  0.00     0.053 C 
ENDBRANCH   3  12
BRANCH   2  20
HETATM   20  C2  UNL     1      -6.203  20.241  -1.176  1.00  0.00     0.103 C 
BRANCH  20  21
HETATM   21  C3  UNL     1      -7.452  19.549  -1.607  1.00  0.00     0.014 C 
BRANCH  21  22
HETATM   22  C4  UNL     1      -7.785  18.372  -0.757  1.00  0.00    -0.014 C 
HETATM   23  C5  UNL     1      -8.613  17.363  -1.477  1.00  0.00     0.004 C 
HETATM   24  C6  UNL     1      -8.885  16.146  -0.614  1.00  0.00     0.000 C 
HETATM   25  C7  UNL     1      -8.834  16.468   0.861  1.00  0.00     0.000 C 
HETATM   26  C8  UNL     1      -9.432  17.841   1.076  1.00  0.00     0.000 C 
HETATM   27  C9  UNL     1      -8.606  18.899   0.427  1.00  0.00     0.004 C 
ENDBRANCH  21  22
ENDBRANCH  20  21
ENDBRANCH   2  20
TORSDOF 6
ENDMDL
MODEL 4
REMARK VINA RESULT: -7.644501341      2.562      6.681
REMARK  6 active torsions:
REMARK  status: ('A' for Active; 'I' for Inactive)
REMARK    1  A    between atoms: C1_2  and  C2_3 
REMARK       I    between atoms: C1_2  and  N1_11 
REMARK    2  A    between atoms: C2_3  and  C3_4 
REMARK    3  A    between atoms: C3_4  and  C4_5 
REMARK    4  A    between atoms: N1_11  and  C10_12 
REMARK    5  A    between atoms: N1_11  and  C16_20 
REMARK    6  A    between atoms: C10_12  and  C11_13 
ROOT
HETATM    1  O1  UNL     1      -7.583  21.720   0.055  1.00  0.00    -0.273 OA
HETATM    2  C1  UNL     1      -6.659  21.228  -0.640  1.00  0.00     0.220 C 
HETATM    3  N1  UNL     1      -5.824  22.117  -1.367  1.00  0.00    -0.342 N 
ENDROOT
BRANCH   3   4
HETATM    4  C10 UNL     1      -4.752  21.572  -2.149  1.00  0.00     0.183 C 
BRANCH   4   5
HETATM    5  C11 UNL     1      -5.003  21.459  -3.591  1.00  0.00     0.027 A 
HETATM    6  C12 UNL     1      -6.025  20.713  -4.119  1.00  0.00     0.027 A 
HETATM    7  C13 UNL     1      -6.240  20.614  -5.473  1.00  0.00     0.003 A 
HETATM    8  C14 UNL     1      -5.404  21.286  -6.329  1.00  0.00     0.017 A 
HETATM    9  C15 UNL     1      -4.370  22.040  -5.788  1.00  0.00     0.088 A 
HETATM   10  N2  UNL     1      -4.203  22.104  -4.454  1.00  0.00    -0.368 N 
ATOM     11  H2  UNL     1      -3.437  22.666  -4.083  1.00  0.00     0.165 HD
ENDBRANCH   4   5
ENDBRANCH   3   4
BRANCH   3  12
HETATM   12  C16 UNL     1      -6.110  23.528  -1.296  1.00  0.00     0.090 C 
HETATM   13  C17 UNL     1      -6.358  24.110  -2.695  1.00  0.00     0.053 C 
HETATM   14  C18 UNL     1      -7.071  25.427  -2.474  1.00  0.00     0.234 C 
HETATM   15  N3  UNL     1      -6.848  25.910  -1.120  1.00  0.00    -0.075 N 
HETATM   16  C19 UNL     1      -5.417  25.845  -0.878  1.00  0.00     0.234 C 
ATOM     17  H32 UNL     1      -7.240  26.838  -0.955  1.00  0.00     0.277 HD
ATOM     18  H31 UNL     1      -7.396  25.411  -0.421  1.00  0.00     0.277 HD
HETATM   19  C20 UNL     1      -5.037  24.368  -0.686  1.00  0.00     0.053 C 
ENDBRANCH   3  12
BRANCH   2  20
HETATM   20  C2  UNL     1      -6.544  19.760  -0.628  1.00  0.00     0.103 C 
BRANCH  20  21
HETATM   21  C3  UNL     1      -7.584  19.089  -1.459  1.00  0.00     0.014 C 
BRANCH  21  22
HETATM   22  C4  UNL     1      -8.637  18.423  -0.642  1.00  0.00    -0.014 C 
HETATM   23  C5  UNL     1      -8.268  18.332   0.800  1.00  0.00     0.004 C 
HETATM   24  C6  UNL     1      -9.381  17.709   1.621  1.00  0.00     0.000 C 
HETATM   25  C7  UNL     1     -10.259  16.797   0.798  1.00  0.00     0.000 C 
HETATM   26  C8  UNL     1      -9.388  16.058  -0.195  1.00  0.00     0.000 C 
HETATM   27  C9  UNL     1      -8.779  16.994  -1.183  1.00  0.00     0.004 C 
ENDBRANCH  21  22
ENDBRANCH  20  21
ENDBRANCH   2  20
TORSDOF 6
ENDMDL
MODEL 5
REMARK VINA RESULT: -7.506893024      3.107      7.060
REMARK  6 active torsions:
REMARK  status: ('A' for Active; 'I' for Inactive)
REMARK    1  A    between atoms: C1_2  and  C2_3 
REMARK       I    between atoms: C1_2  and  N1_11 
REMARK    2  A    between atoms: C2_3  and  C3_4 
REMARK    3  A    between atoms: C3_4  and  C4_5 
REMARK    4  A    between atoms: N1_11  and  C10_12 
REMARK    5  A    between atoms: N1_11  and  C16_20 
REMARK    6  A    between atoms: C10_12  and  C11_13 
ROOT
HETATM    1  O1  UNL     1      -6.891  22.247  -0.567  1.00  0.00    -0.273 OA
HETATM    2  C1  UNL     1      -6.419  22.158  -1.728  1.00  0.00     0.220 C 
HETATM    3  N1  UNL     1      -6.000  23.352  -2.373  1.00  0.00    -0.342 N 
ENDROOT
BRANCH   3   4
HETATM    4  C10 UNL     1      -5.441  23.263  -3.691  1.00  0.00     0.183 C 
BRANCH   4   5
HETATM    5  C11 UNL     1      -6.388  22.961  -4.772  1.00  0.00     0.027 A 
HETATM    6  C12 UNL     1      -6.252  21.884  -5.609  1.00  0.00     0.027 A 
HETATM    7  C13 UNL     1      -7.145  21.621  -6.620  1.00  0.00     0.003 A 
HETATM    8  C14 UNL     1      -8.213  22.465  -6.798  1.00  0.00     0.017 A 
HETATM    9  C15 UNL     1      -8.345  23.554  -5.946  1.00  0.00     0.088 A 
HETATM   10  N2  UNL     1      -7.442  23.767  -4.971  1.00  0.00    -0.368 N 
ATOM     11  H2  UNL     1      -7.563  24.574  -4.360  1.00  0.00     0.165 HD
ENDBRANCH   4   5
ENDBRANCH   3   4
BRANCH   3  12
HETATM   12  C16 UNL     1      -6.178  24.599  -1.673  1.00  0.00     0.090 C 
HETATM   13  C17 UNL     1      -6.390  25.757  -2.659  1.00  0.00     0.053 C 
HETATM   14  C18 UNL     1      -7.000  26.882  -1.850  1.00  0.00     0.234 C 
HETATM   15  N3  UNL     1      -6.731  26.698  -0.432  1.00  0.00    -0.075 N 
HETATM   16  C19 UNL     1      -5.308  26.438  -0.301  1.00  0.00     0.234 C 
ATOM     17  H32 UNL     1      -7.051  27.478   0.142  1.00  0.00     0.277 HD
ATOM     18  H31 UNL     1      -7.312  25.976  -0.005  1.00  0.00     0.277 HD
HETATM   19  C20 UNL     1      -5.040  25.008  -0.798  1.00  0.00     0.053 C 
ENDBRANCH   3  12
BRANCH   2  20
HETATM   20  C2  UNL     1      -6.354  20.804  -2.304  1.00  0.00     0.103 C 
BRANCH  20  21
HETATM   21  C3  UNL     1      -6.185  19.742  -1.270  1.00  0.00     0.014 C 
BRANCH  21  22
HETATM   22  C4  UNL     1      -7.484  19.212  -0.768  1.00  0.00    -0.014 C 
HETATM   23  C5  UNL     1      -7.402  18.742   0.645  1.00  0.00     0.004 C 
HETATM   24  C6  UNL     1      -8.749  18.267   1.154  1.00  0.00     0.000 C 
HETATM   25  C7  UNL     1      -9.647  17.791   0.037  1.00  0.00     0.000 C 
HETATM   26  C8  UNL     1      -8.800  17.073  -0.991  1.00  0.00     0.000 C 
HETATM   27  C9  UNL     1      -7.839  18.004  -1.646  1.00  0.00     0.004 C 
ENDBRANCH  21  22
ENDBRANCH  20  21
ENDBRANCH   2  20
TORSDOF 6
ENDMDL
