MODEL 1
REMARK VINA RESULT: -6.773668674      0.000      0.000
REMARK  6 active torsions:
REMARK  status: ('A' for Active; 'I' for Inactive)
REMARK    1  A    between atoms: C2_2  and  N1_3 
REMARK    2  A    between atoms: N2_12  and  C11_13 
REMARK    3  A    between atoms: C11_13  and  C12_14 
REMARK    4  A    between atoms: C15_17  and  N3_18 
REMARK    5  A    between atoms: N3_18  and  C16_21 
REMARK    6  A    between atoms: C16_21  and  C17_22 
ROOT
HETATM    1  C12 UNL     1      -6.513  19.391  -0.932  1.00  0.00     0.014 C 
HETATM    2  C13 UNL     1      -7.521  18.390  -1.443  1.00  0.00     0.008 C 
HETATM    3  C14 UNL     1      -8.929  18.651  -1.052  1.00  0.00     0.033 C 
HETATM    4  C15 UNL     1      -9.198  18.948   0.370  1.00  0.00     0.186 C 
HETATM    5  C20 UNL     1      -8.133  19.880   0.917  1.00  0.00     0.033 C 
HETATM    6  C21 UNL     1      -6.729  19.483   0.570  1.00  0.00     0.008 C 
ENDROOT
BRANCH   1   7
HETATM    7  C11 UNL     1      -6.751  20.704  -1.607  1.00  0.00     0.277 C 
BRANCH   7   8
HETATM    8  N2  UNL     1      -5.795  21.002  -2.641  1.00  0.00     0.097 N 
HETATM    9  C4  UNL     1      -6.373  21.550  -3.816  1.00  0.00     0.255 C 
HETATM   10  C3  UNL     1      -6.724  23.023  -3.664  1.00  0.00     0.309 C 
HETATM   11  C5  UNL     1      -5.449  21.376  -4.993  1.00  0.00     0.016 C 
HETATM   12  N1  UNL     1      -6.034  23.635  -2.554  1.00  0.00     0.096 N 
HETATM   13  C9  UNL     1      -4.655  23.172  -2.621  1.00  0.00     0.251 C 
HETATM   14  C8  UNL     1      -4.117  23.251  -3.999  1.00  0.00     0.038 C 
HETATM   15  C10 UNL     1      -4.694  21.743  -2.093  1.00  0.00     0.308 C 
HETATM   16  C7  UNL     1      -4.085  21.941  -4.755  1.00  0.00     0.008 C 
HETATM   17  C6  UNL     1      -5.312  19.896  -5.267  1.00  0.00     0.012 C 
BRANCH  12  18
HETATM   18  C2  UNL     1      -6.105  25.066  -2.723  1.00  0.00     0.268 C 
HETATM   19  C1  UNL     1      -7.164  25.493  -3.730  1.00  0.00     0.037 C 
ENDBRANCH  12  18
ENDBRANCH   7   8
ENDBRANCH   1   7
BRANCH   4  20
HETATM   20  N3  UNL     1      -9.419  17.843   1.247  1.00  0.00    -0.071 N 
ATOM     21  H32 UNL     1      -8.533  17.406   1.499  1.00  0.00     0.277 HD
ATOM     22  H31 UNL     1      -9.719  18.172   2.164  1.00  0.00     0.277 HD
BRANCH  20  23
HETATM   23  C16 UNL     1     -10.343  16.854   0.741  1.00  0.00     0.236 C 
BRANCH  23  24
HETATM   24  C17 UNL     1      -9.730  15.462   0.748  1.00  0.00     0.003 C 
HETATM   25  C18 UNL     1      -8.284  15.596   1.147  1.00  0.00     0.011 C 
HETATM   26  C19 UNL     1      -9.687  15.014  -0.738  1.00  0.00     0.011 C 
ENDBRANCH  23  24
ENDBRANCH  20  23
ENDBRANCH   4  20
TORSDOF 6
ENDMDL
MODEL 2
REMARK VINA RESULT: -6.522055687      1.847      2.898
REMARK  6 active torsions:
REMARK  status: ('A' for Active; 'I' for Inactive)
REMARK    1  A    between atoms: C2_2  and  N1_3 
REMARK    2  A    between atoms: N2_12  and  C11_13 
REMARK    3  A    between atoms: C11_13  and  C12_14 
REMARK    4  A    between atoms: C15_17  and  N3_18 
REMARK    5  A    between atoms: N3_18  and  C16_21 
REMARK    6  A    between atoms: C16_21  and  C17_22 
ROOT
HETATM    1  C12 UNL     1      -5.619  21.795  -1.437  1.00  0.00     0.014 C 
HETATM    2  C13 UNL     1      -5.527  20.371  -1.931  1.00  0.00     0.008 C 
HETATM    3  C14 UNL     1      -6.787  19.590  -1.857  1.00  0.00     0.033 C 
HETATM    4  C15 UNL     1      -7.539  19.630  -0.586  1.00  0.00     0.186 C 
HETATM    5  C20 UNL     1      -7.555  21.042  -0.034  1.00  0.00     0.033 C 
HETATM    6  C21 UNL     1      -6.218  21.722  -0.041  1.00  0.00     0.008 C 
ENDROOT
BRANCH   1   7
HETATM    7  C11 UNL     1      -6.486  22.576  -2.371  1.00  0.00     0.277 C 
BRANCH   7   8
HETATM    8  N2  UNL     1      -5.748  23.427  -3.267  1.00  0.00     0.097 N 
HETATM    9  C4  UNL     1      -5.333  22.781  -4.461  1.00  0.00     0.255 C 
HETATM   10  C3  UNL     1      -6.463  22.636  -5.470  1.00  0.00     0.309 C 
HETATM   11  C5  UNL     1      -4.188  23.523  -5.098  1.00  0.00     0.016 C 
HETATM   12  N1  UNL     1      -7.563  23.528  -5.188  1.00  0.00     0.096 N 
HETATM   13  C9  UNL     1      -6.972  24.820  -4.870  1.00  0.00     0.251 C 
HETATM   14  C8  UNL     1      -5.909  25.190  -5.832  1.00  0.00     0.038 C 
HETATM   15  C10 UNL     1      -6.443  24.670  -3.448  1.00  0.00     0.308 C 
HETATM   16  C7  UNL     1      -4.493  24.966  -5.349  1.00  0.00     0.008 C 
HETATM   17  C6  UNL     1      -3.001  23.441  -4.167  1.00  0.00     0.012 C 
BRANCH  12  18
HETATM   18  C2  UNL     1      -8.379  23.614  -6.375  1.00  0.00     0.268 C 
HETATM   19  C1  UNL     1      -8.218  22.412  -7.295  1.00  0.00     0.037 C 
ENDBRANCH  12  18
ENDBRANCH   7   8
ENDBRANCH   1   7
BRANCH   4  20
HETATM   20  N3  UNL     1      -7.184  18.682   0.422  1.00  0.00    -0.071 N 
ATOM     21  H32 UNL     1      -6.564  17.970   0.037  1.00  0.00     0.277 HD
ATOM     22  H31 UNL     1      -6.558  19.108   1.105  1.00  0.00     0.277 HD
BRANCH  20  23
HETATM   23  C16 UNL     1      -8.309  18.066   1.087  1.00  0.00     0.236 C 
BRANCH  23  24
HETATM   24  C17 UNL     1      -9.274  17.443   0.090  1.00  0.00     0.003 C 
HETATM   25  C18 UNL     1     -10.465  16.933   0.858  1.00  0.00     0.011 C 
HETATM   26  C19 UNL     1      -8.568  16.163  -0.435  1.00  0.00     0.011 C 
ENDBRANCH  23  24
ENDBRANCH  20  23
ENDBRANCH   4  20
TORSDOF 6
ENDMDL
MODEL 3
REMARK VINA RESULT: -6.517330066      2.075      2.879
REMARK  6 active torsions:
REMARK  status: ('A' for Active; 'I' for Inactive)
REMARK    1  A    between atoms: C2_2  and  N1_3 
REMARK    2  A    between atoms: N2_12  and  C11_13 
REMARK    3  A    between atoms: C11_13  and  C12_14 
REMARK    4  A    between atoms: C15_17  and  N3_18 
REMARK    5  A    between atoms: N3_18  and  C16_21 
REMARK    6  A    between atoms: C16_21  and  C17_22 
ROOT
HETATM    1  C12 UNL     1      -5.224  21.793  -2.106  1.00  0.00     0.014 C 
HETATM    2  C13 UNL     1      -5.288  20.285  -2.153  1.00  0.00     0.008 C 
HETATM    3  C14 UNL     1      -6.612  19.695  -1.834  1.00  0.00     0.033 C 
HETATM    4  C15 UNL     1      -7.303  20.186  -0.625  1.00  0.00     0.186 C 
HETATM    5  C20 UNL     1      -7.163  21.693  -0.520  1.00  0.00     0.033 C 
HETATM    6  C21 UNL     1      -5.769  22.198  -0.746  1.00  0.00     0.008 C 
ENDROOT
BRANCH   1   7
HETATM    7  C11 UNL     1      -6.052  22.347  -3.221  1.00  0.00     0.277 C 
BRANCH   7   8
HETATM    8  N2  UNL     1      -5.599  21.947  -4.528  1.00  0.00     0.097 N 
HETATM    9  C4  UNL     1      -6.642  21.515  -5.389  1.00  0.00     0.255 C 
HETATM   10  C3  UNL     1      -7.433  22.675  -5.976  1.00  0.00     0.309 C 
HETATM   11  C5  UNL     1      -6.092  20.669  -6.507  1.00  0.00     0.016 C 
HETATM   12  N1  UNL     1      -6.720  23.926  -5.878  1.00  0.00     0.096 N 
HETATM   13  C9  UNL     1      -5.347  23.648  -6.274  1.00  0.00     0.251 C 
HETATM   14  C8  UNL     1      -5.286  22.823  -7.503  1.00  0.00     0.038 C 
HETATM   15  C10 UNL     1      -4.725  22.948  -5.072  1.00  0.00     0.308 C 
HETATM   16  C7  UNL     1      -5.009  21.352  -7.280  1.00  0.00     0.008 C 
HETATM   17  C6  UNL     1      -5.524  19.406  -5.903  1.00  0.00     0.012 C 
BRANCH  12  18
HETATM   18  C2  UNL     1      -7.338  24.861  -6.787  1.00  0.00     0.268 C 
HETATM   19  C1  UNL     1      -8.700  24.394  -7.283  1.00  0.00     0.037 C 
ENDBRANCH  12  18
ENDBRANCH   7   8
ENDBRANCH   1   7
BRANCH   4  20
HETATM   20  N3  UNL     1      -6.998  19.549   0.616  1.00  0.00    -0.071 N 
ATOM     21  H32 UNL     1      -5.994  19.579   0.793  1.00  0.00     0.277 HD
ATOM     22  H31 UNL     1      -7.329  20.115   1.397  1.00  0.00     0.277 HD
BRANCH  20  23
HETATM   23  C16 UNL     1      -7.490  18.195   0.731  1.00  0.00     0.236 C 
BRANCH  23  24
HETATM   24  C17 UNL     1      -8.943  18.090   0.297  1.00  0.00     0.003 C 
HETATM   25  C18 UNL     1      -9.732  17.534   1.453  1.00  0.00     0.011 C 
HETATM   26  C19 UNL     1      -8.981  16.970  -0.778  1.00  0.00     0.011 C 
ENDBRANCH  23  24
ENDBRANCH  20  23
ENDBRANCH   4  20
TORSDOF 6
ENDMDL
MODEL 4
REMARK VINA RESULT: -6.472905986      1.929      2.757
REMARK  6 active torsions:
REMARK  status: ('A' for Active; 'I' for Inactive)
REMARK    1  A    between atoms: C2_2  and  N1_3 
REMARK    2  A    between atoms: N2_12  and  C11_13 
REMARK    3  A    between atoms: C11_13  and  C12_14 
REMARK    4  A    between atoms: C15_17  and  N3_18 
REMARK    5  A    between atoms: N3_18  and  C16_21 
REMARK    6  A    between atoms: C16_21  and  C17_22 
ROOT
HETATM    1  C12 UNL     1      -5.360  22.133  -1.911  1.00  0.00     0.014 C 
HETATM    2  C13 UNL     1      -5.242  20.656  -2.202  1.00  0.00     0.008 C 
HETATM    3  C14 UNL     1      -6.478  19.864  -1.976  1.00  0.00     0.033 C 
HETATM    4  C15 UNL     1      -7.191  20.066  -0.698  1.00  0.00     0.186 C 
HETATM    5  C20 UNL     1      -7.230  21.542  -0.351  1.00  0.00     0.033 C 
HETATM    6  C21 UNL     1      -5.914  22.245  -0.500  1.00  0.00     0.008 C 
ENDROOT
BRANCH   1   7
HETATM    7  C11 UNL     1      -6.277  22.753  -2.917  1.00  0.00     0.277 C 
BRANCH   7   8
HETATM    8  N2  UNL     1      -5.848  22.570  -4.278  1.00  0.00     0.097 N 
HETATM    9  C4  UNL     1      -6.912  22.353  -5.192  1.00  0.00     0.255 C 
HETATM   10  C3  UNL     1      -7.642  23.638  -5.555  1.00  0.00     0.309 C 
HETATM   11  C5  UNL     1      -6.409  21.692  -6.448  1.00  0.00     0.016 C 
HETATM   12  N1  UNL     1      -6.865  24.813  -5.243  1.00  0.00     0.096 N 
HETATM   13  C9  UNL     1      -5.508  24.540  -5.697  1.00  0.00     0.251 C 
HETATM   14  C8  UNL     1      -5.492  23.945  -7.053  1.00  0.00     0.038 C 
HETATM   15  C10 UNL     1      -4.923  23.605  -4.645  1.00  0.00     0.308 C 
HETATM   16  C7  UNL     1      -5.292  22.446  -7.098  1.00  0.00     0.008 C 
HETATM   17  C6  UNL     1      -5.907  20.315  -6.085  1.00  0.00     0.012 C 
BRANCH  12  18
HETATM   18  C2  UNL     1      -7.434  25.926  -5.964  1.00  0.00     0.268 C 
HETATM   19  C1  UNL     1      -7.134  27.270  -5.315  1.00  0.00     0.037 C 
ENDBRANCH  12  18
ENDBRANCH   7   8
ENDBRANCH   1   7
BRANCH   4  20
HETATM   20  N3  UNL     1      -6.779  19.280   0.421  1.00  0.00    -0.071 N 
ATOM     21  H32 UNL     1      -5.794  19.029   0.335  1.00  0.00     0.277 HD
ATOM     22  H31 UNL     1      -6.740  19.854   1.263  1.00  0.00     0.277 HD
BRANCH  20  23
HETATM   23  C16 UNL     1      -7.581  18.101   0.652  1.00  0.00     0.236 C 
BRANCH  23  24
HETATM   24  C17 UNL     1      -8.879  18.144  -0.137  1.00  0.00     0.003 C 
HETATM   25  C18 UNL     1     -10.001  17.774   0.797  1.00  0.00     0.011 C 
HETATM   26  C19 UNL     1      -8.800  16.964  -1.143  1.00  0.00     0.011 C 
ENDBRANCH  23  24
ENDBRANCH  20  23
ENDBRANCH   4  20
TORSDOF 6
ENDMDL
MODEL 5
REMARK VINA RESULT: -6.416907150      1.703      2.499
REMARK  6 active torsions:
REMARK  status: ('A' for Active; 'I' for Inactive)
REMARK    1  A    between atoms: C2_2  and  N1_3 
REMARK    2  A    between atoms: N2_12  and  C11_13 
REMARK    3  A    between atoms: C11_13  and  C12_14 
REMARK    4  A    between atoms: C15_17  and  N3_18 
REMARK    5  A    between atoms: N3_18  and  C16_21 
REMARK    6  A    between atoms: C16_21  and  C17_22 
ROOT
HETATM    1  C12 UNL     1      -5.791  21.323  -0.348  1.00  0.00     0.014 C 
HETATM    2  C13 UNL     1      -5.589  20.215  -1.353  1.00  0.00     0.008 C 
HETATM    3  C14 UNL     1      -6.834  19.635  -1.917  1.00  0.00     0.033 C 
HETATM    4  C15 UNL     1      -7.901  19.259  -0.967  1.00  0.00     0.186 C 
HETATM    5  C20 UNL     1      -8.045  20.325   0.102  1.00  0.00     0.033 C 
HETATM    6  C21 UNL     1      -6.747  20.777   0.701  1.00  0.00     0.008 C 
ENDROOT
BRANCH   1   7
HETATM    7  C11 UNL     1      -6.361  22.514  -1.050  1.00  0.00     0.277 C 
BRANCH   7   8
HETATM    8  N2  UNL     1      -5.361  23.387  -1.607  1.00  0.00     0.097 N 
HETATM    9  C4  UNL     1      -5.485  23.580  -3.008  1.00  0.00     0.255 C 
HETATM   10  C3  UNL     1      -6.594  24.558  -3.369  1.00  0.00     0.309 C 
HETATM   11  C5  UNL     1      -4.184  24.061  -3.595  1.00  0.00     0.016 C 
HETATM   12  N1  UNL     1      -6.986  25.375  -2.245  1.00  0.00     0.096 N 
HETATM   13  C9  UNL     1      -5.753  25.806  -1.602  1.00  0.00     0.251 C 
HETATM   14  C8  UNL     1      -4.757  26.283  -2.588  1.00  0.00     0.038 C 
HETATM   15  C10 UNL     1      -5.267  24.588  -0.826  1.00  0.00     0.308 C 
HETATM   16  C7  UNL     1      -3.664  25.296  -2.930  1.00  0.00     0.008 C 
HETATM   17  C6  UNL     1      -3.160  22.963  -3.432  1.00  0.00     0.012 C 
BRANCH  12  18
HETATM   18  C2  UNL     1      -7.724  26.505  -2.755  1.00  0.00     0.268 C 
HETATM   19  C1  UNL     1      -7.932  26.447  -4.262  1.00  0.00     0.037 C 
ENDBRANCH  12  18
ENDBRANCH   7   8
ENDBRANCH   1   7
BRANCH   4  20
HETATM   20  N3  UNL     1      -7.847  17.952  -0.394  1.00  0.00    -0.071 N 
ATOM     21  H32 UNL     1      -6.887  17.608  -0.385  1.00  0.00     0.277 HD
ATOM     22  H31 UNL     1      -8.025  17.997   0.609  1.00  0.00     0.277 HD
BRANCH  20  23
HETATM   23  C16 UNL     1      -8.722  16.987  -1.018  1.00  0.00     0.236 C 
BRANCH  23  24
HETATM   24  C17 UNL     1      -9.028  15.826  -0.087  1.00  0.00     0.003 C 
HETATM   25  C18 UNL     1      -9.521  14.677  -0.927  1.00  0.00     0.011 C 
HETATM   26  C19 UNL     1     -10.267  16.265   0.741  1.00  0.00     0.011 C 
ENDBRANCH  23  24
ENDBRANCH  20  23
ENDBRANCH   4  20
TORSDOF 6
ENDMDL
