MODEL 1
REMARK VINA RESULT: -6.627053880      0.000      0.000
REMARK  6 active torsions:
REMARK  status: ('A' for Active; 'I' for Inactive)
REMARK    1  A    between atoms: C2_2  and  N1_3 
REMARK    2  A    between atoms: N1_3  and  C3_4 
REMARK    3  A    between atoms: N1_3  and  C9_10 
REMARK    4  A    between atoms: C3_4  and  C4_5 
REMARK    5  A    between atoms: N3_22  and  C17_23 
REMARK    6  A    between atoms: C17_23  and  C18_24 
ROOT
HETATM    1  C9  UNL     1      -5.941  20.763  -2.234  1.00  0.00     0.528 C 
HETATM    2  N2  UNL     1      -6.101  20.176  -3.533  1.00  0.00    -0.008 N 
ATOM      3  H21 UNL     1      -6.936  19.594  -3.604  1.00  0.00     0.283 HD
ATOM      4  H22 UNL     1      -5.412  19.449  -3.725  1.00  0.00     0.283 HD
HETATM    5  C10 UNL     1      -6.077  21.228  -4.493  1.00  0.00     0.210 C 
HETATM    6  C11 UNL     1      -6.982  21.002  -5.671  1.00  0.00     0.049 C 
HETATM    7  C12 UNL     1      -6.307  21.479  -6.935  1.00  0.00     0.003 C 
HETATM    8  C13 UNL     1      -5.040  20.734  -7.229  1.00  0.00     0.000 C 
HETATM    9  C14 UNL     1      -4.263  20.474  -5.958  1.00  0.00     0.003 C 
HETATM   10  C15 UNL     1      -4.641  21.517  -4.961  1.00  0.00     0.049 C 
HETATM   11  C16 UNL     1      -6.473  22.416  -3.695  1.00  0.00     0.259 C 
HETATM   12  O1  UNL     1      -7.054  23.411  -4.178  1.00  0.00    -0.270 OA
HETATM   13  N3  UNL     1      -6.067  22.187  -2.332  1.00  0.00    -0.297 N 
ENDROOT
BRANCH   1  14
HETATM   14  N1  UNL     1      -6.907  20.094  -1.366  1.00  0.00     0.139 N 
BRANCH  14  15
HETATM   15  C2  UNL     1      -6.199  19.879  -0.137  1.00  0.00     0.273 C 
HETATM   16  C1  UNL     1      -6.812  20.682   1.014  1.00  0.00     0.037 C 
ENDBRANCH  14  15
BRANCH  14  17
HETATM   17  C3  UNL     1      -7.409  18.987  -2.043  1.00  0.00     0.282 C 
BRANCH  17  18
HETATM   18  C4  UNL     1      -8.508  18.141  -1.597  1.00  0.00     0.014 C 
HETATM   19  C5  UNL     1      -8.125  16.806  -1.087  1.00  0.00     0.006 C 
HETATM   20  C6  UNL     1      -8.625  16.662   0.336  1.00  0.00     0.000 C 
HETATM   21  C7  UNL     1      -9.790  17.634   0.407  1.00  0.00     0.000 C 
HETATM   22  C8  UNL     1      -9.380  18.785  -0.525  1.00  0.00     0.006 C 
ENDBRANCH  17  18
ENDBRANCH  14  17
ENDBRANCH   1  14
BRANCH  13  23
HETATM   23  C17 UNL     1      -5.800  23.168  -1.340  1.00  0.00     0.133 C 
BRANCH  23  24
HETATM   24  C18 UNL     1      -5.267  24.480  -1.778  1.00  0.00    -0.005 C 
HETATM   25  C19 UNL     1      -4.957  25.274  -0.494  1.00  0.00     0.011 C 
HETATM   26  C20 UNL     1      -3.929  24.384  -2.491  1.00  0.00     0.011 C 
ENDBRANCH  23  24
ENDBRANCH  13  23
TORSDOF 6
ENDMDL
MODEL 2
REMARK VINA RESULT: -6.504192183      2.507      5.208
REMARK  6 active torsions:
REMARK  status: ('A' for Active; 'I' for Inactive)
REMARK    1  A    between atoms: C2_2  and  N1_3 
REMARK    2  A    between atoms: N1_3  and  C3_4 
REMARK    3  A    between atoms: N1_3  and  C9_10 
REMARK    4  A    between atoms: C3_4  and  C4_5 
REMARK    5  A    between atoms: N3_22  and  C17_23 
REMARK    6  A    between atoms: C17_23  and  C18_24 
ROOT
HETATM    1  C9  UNL     1      -5.735  20.071  -5.926  1.00  0.00     0.528 C 
HETATM    2  N2  UNL     1      -6.798  20.903  -5.441  1.00  0.00    -0.008 N 
ATOM      3  H21 UNL     1      -6.944  20.813  -4.435  1.00  0.00     0.283 HD
ATOM      4  H22 UNL     1      -7.719  20.582  -5.741  1.00  0.00     0.283 HD
HETATM    5  C10 UNL     1      -6.523  22.242  -5.841  1.00  0.00     0.210 C 
HETATM    6  C11 UNL     1      -6.955  23.280  -4.845  1.00  0.00     0.049 C 
HETATM    7  C12 UNL     1      -7.529  24.476  -5.567  1.00  0.00     0.003 C 
HETATM    8  C13 UNL     1      -8.745  24.133  -6.374  1.00  0.00     0.000 C 
HETATM    9  C14 UNL     1      -8.578  22.794  -7.055  1.00  0.00     0.003 C 
HETATM   10  C15 UNL     1      -7.118  22.539  -7.227  1.00  0.00     0.049 C 
HETATM   11  C16 UNL     1      -5.051  22.231  -6.044  1.00  0.00     0.259 C 
HETATM   12  O1  UNL     1      -4.327  23.240  -5.907  1.00  0.00    -0.270 OA
HETATM   13  N3  UNL     1      -4.665  20.893  -6.410  1.00  0.00    -0.297 N 
ENDROOT
BRANCH   1  14
HETATM   14  N1  UNL     1      -5.400  19.164  -4.832  1.00  0.00     0.139 N 
BRANCH  14  15
HETATM   15  C2  UNL     1      -5.480  17.855  -5.412  1.00  0.00     0.273 C 
HETATM   16  C1  UNL     1      -4.972  16.779  -4.446  1.00  0.00     0.037 C 
ENDBRANCH  14  15
BRANCH  14  17
HETATM   17  C3  UNL     1      -6.224  19.461  -3.750  1.00  0.00     0.282 C 
BRANCH  17  18
HETATM   18  C4  UNL     1      -5.779  19.888  -2.430  1.00  0.00     0.014 C 
HETATM   19  C5  UNL     1      -5.088  21.195  -2.377  1.00  0.00     0.006 C 
HETATM   20  C6  UNL     1      -5.838  22.109  -1.431  1.00  0.00     0.000 C 
HETATM   21  C7  UNL     1      -6.564  21.150  -0.504  1.00  0.00     0.000 C 
HETATM   22  C8  UNL     1      -6.897  19.944  -1.395  1.00  0.00     0.006 C 
ENDBRANCH  17  18
ENDBRANCH  14  17
ENDBRANCH   1  14
BRANCH  13  23
HETATM   23  C17 UNL     1      -3.509  20.501  -7.137  1.00  0.00     0.133 C 
BRANCH  23  24
HETATM   24  C18 UNL     1      -3.641  19.397  -8.117  1.00  0.00    -0.005 C 
HETATM   25  C19 UNL     1      -3.158  19.957  -9.469  1.00  0.00     0.011 C 
HETATM   26  C20 UNL     1      -2.712  18.227  -7.843  1.00  0.00     0.011 C 
ENDBRANCH  23  24
ENDBRANCH  13  23
TORSDOF 6
ENDMDL
MODEL 3
REMARK VINA RESULT: -6.406343710      3.526      7.133
REMARK  6 active torsions:
REMARK  status: ('A' for Active; 'I' for Inactive)
REMARK    1  A    between atoms: C2_2  and  N1_3 
REMARK    2  A    between atoms: N1_3  and  C3_4 
REMARK    3  A    between atoms: N1_3  and  C9_10 
REMARK    4  A    between atoms: C3_4  and  C4_5 
REMARK    5  A    between atoms: N3_22  and  C17_23 
REMARK    6  A    between atoms: C17_23  and  C18_24 
ROOT
HETATM    1  C9  UNL     1      -5.797  26.071  -0.862  1.00  0.00     0.528 C 
HETATM    2  N2  UNL     1      -5.305  25.576   0.391  1.00  0.00    -0.008 N 
ATOM      3  H21 UNL     1      -4.840  24.672   0.305  1.00  0.00     0.283 HD
ATOM      4  H22 UNL     1      -6.051  25.285   1.022  1.00  0.00     0.283 HD
HETATM    5  C10 UNL     1      -4.464  26.577   0.956  1.00  0.00     0.210 C 
HETATM    6  C11 UNL     1      -3.292  26.032   1.723  1.00  0.00     0.049 C 
HETATM    7  C12 UNL     1      -3.056  26.865   2.960  1.00  0.00     0.003 C 
HETATM    8  C13 UNL     1      -4.222  26.843   3.901  1.00  0.00     0.000 C 
HETATM    9  C14 UNL     1      -5.527  26.896   3.140  1.00  0.00     0.003 C 
HETATM   10  C15 UNL     1      -5.273  27.553   1.826  1.00  0.00     0.049 C 
HETATM   11  C16 UNL     1      -4.045  27.367  -0.230  1.00  0.00     0.259 C 
HETATM   12  O1  UNL     1      -2.966  27.993  -0.298  1.00  0.00    -0.270 OA
HETATM   13  N3  UNL     1      -5.086  27.263  -1.219  1.00  0.00    -0.297 N 
ENDROOT
BRANCH   1  14
HETATM   14  N1  UNL     1      -5.696  24.959  -1.803  1.00  0.00     0.139 N 
BRANCH  14  15
HETATM   15  C2  UNL     1      -6.801  25.144  -2.699  1.00  0.00     0.273 C 
HETATM   16  C1  UNL     1      -6.362  25.045  -4.163  1.00  0.00     0.037 C 
ENDBRANCH  14  15
BRANCH  14  17
HETATM   17  C3  UNL     1      -5.624  23.775  -1.076  1.00  0.00     0.282 C 
BRANCH  17  18
HETATM   18  C4  UNL     1      -6.440  22.588  -1.295  1.00  0.00     0.014 C 
HETATM   19  C5  UNL     1      -6.041  21.736  -2.437  1.00  0.00     0.006 C 
HETATM   20  C6  UNL     1      -5.747  20.340  -1.928  1.00  0.00     0.000 C 
HETATM   21  C7  UNL     1      -6.555  20.246  -0.646  1.00  0.00     0.000 C 
HETATM   22  C8  UNL     1      -6.529  21.673  -0.078  1.00  0.00     0.006 C 
ENDBRANCH  17  18
ENDBRANCH  14  17
ENDBRANCH   1  14
BRANCH  13  23
HETATM   23  C17 UNL     1      -5.366  28.176  -2.271  1.00  0.00     0.133 C 
BRANCH  23  24
HETATM   24  C18 UNL     1      -6.678  28.865  -2.269  1.00  0.00    -0.005 C 
HETATM   25  C19 UNL     1      -6.378  30.370  -2.124  1.00  0.00     0.011 C 
HETATM   26  C20 UNL     1      -7.424  28.757  -3.587  1.00  0.00     0.011 C 
ENDBRANCH  23  24
ENDBRANCH  13  23
TORSDOF 6
ENDMDL
MODEL 4
REMARK VINA RESULT: -6.364431476      1.647      4.425
REMARK  6 active torsions:
REMARK  status: ('A' for Active; 'I' for Inactive)
REMARK    1  A    between atoms: C2_2  and  N1_3 
REMARK    2  A    between atoms: N1_3  and  C3_4 
REMARK    3  A    between atoms: N1_3  and  C9_10 
REMARK    4  A    between atoms: C3_4  and  C4_5 
REMARK    5  A    between atoms: N3_22  and  C17_23 
REMARK    6  A    between atoms: C17_23  and  C18_24 
ROOT
HETATM    1  C9  UNL     1      -6.160  21.253  -3.392  1.00  0.00     0.528 C 
HETATM    2  N2  UNL     1      -6.381  22.273  -2.408  1.00  0.00    -0.008 N 
ATOM      3  H21 UNL     1      -6.283  21.929  -1.453  1.00  0.00     0.283 HD
ATOM      4  H22 UNL     1      -7.358  22.561  -2.349  1.00  0.00     0.283 HD
HETATM    5  C10 UNL     1      -5.503  23.357  -2.697  1.00  0.00     0.210 C 
HETATM    6  C11 UNL     1      -4.982  24.065  -1.479  1.00  0.00     0.049 C 
HETATM    7  C12 UNL     1      -4.929  25.553  -1.735  1.00  0.00     0.003 C 
HETATM    8  C13 UNL     1      -6.281  26.138  -2.016  1.00  0.00     0.000 C 
HETATM    9  C14 UNL     1      -7.098  25.207  -2.884  1.00  0.00     0.003 C 
HETATM   10  C15 UNL     1      -6.157  24.355  -3.667  1.00  0.00     0.049 C 
HETATM   11  C16 UNL     1      -4.420  22.707  -3.480  1.00  0.00     0.259 C 
HETATM   12  O1  UNL     1      -3.244  23.125  -3.511  1.00  0.00    -0.270 OA
HETATM   13  N3  UNL     1      -4.985  21.565  -4.151  1.00  0.00    -0.297 N 
ENDROOT
BRANCH   1  14
HETATM   14  N1  UNL     1      -6.135  19.988  -2.664  1.00  0.00     0.139 N 
BRANCH  14  15
HETATM   15  C2  UNL     1      -6.708  19.038  -3.573  1.00  0.00     0.273 C 
HETATM   16  C1  UNL     1      -5.717  17.924  -3.923  1.00  0.00     0.037 C 
ENDBRANCH  14  15
BRANCH  14  17
HETATM   17  C3  UNL     1      -6.752  20.180  -1.432  1.00  0.00     0.282 C 
BRANCH  17  18
HETATM   18  C4  UNL     1      -7.247  19.129  -0.552  1.00  0.00     0.014 C 
HETATM   19  C5  UNL     1      -7.045  19.355   0.896  1.00  0.00     0.006 C 
HETATM   20  C6  UNL     1      -8.391  19.328   1.590  1.00  0.00     0.000 C 
HETATM   21  C7  UNL     1      -9.257  18.493   0.662  1.00  0.00     0.000 C 
HETATM   22  C8  UNL     1      -8.728  18.819  -0.743  1.00  0.00     0.006 C 
ENDBRANCH  17  18
ENDBRANCH  14  17
ENDBRANCH   1  14
BRANCH  13  23
HETATM   23  C17 UNL     1      -4.504  20.937  -5.331  1.00  0.00     0.133 C 
BRANCH  23  24
HETATM   24  C18 UNL     1      -5.068  21.368  -6.632  1.00  0.00    -0.005 C 
HETATM   25  C19 UNL     1      -4.275  20.616  -7.719  1.00  0.00     0.011 C 
HETATM   26  C20 UNL     1      -6.506  20.929  -6.846  1.00  0.00     0.011 C 
ENDBRANCH  23  24
ENDBRANCH  13  23
TORSDOF 6
ENDMDL
MODEL 5
REMARK VINA RESULT: -6.264068104      2.539      5.739
REMARK  6 active torsions:
REMARK  status: ('A' for Active; 'I' for Inactive)
REMARK    1  A    between atoms: C2_2  and  N1_3 
REMARK    2  A    between atoms: N1_3  and  C3_4 
REMARK    3  A    between atoms: N1_3  and  C9_10 
REMARK    4  A    between atoms: C3_4  and  C4_5 
REMARK    5  A    between atoms: N3_22  and  C17_23 
REMARK    6  A    between atoms: C17_23  and  C18_24 
ROOT
HETATM    1  C9  UNL     1      -5.798  24.804  -2.862  1.00  0.00     0.528 C 
HETATM    2  N2  UNL     1      -6.600  23.621  -2.751  1.00  0.00    -0.008 N 
ATOM      3  H21 UNL     1      -7.125  23.417  -3.602  1.00  0.00     0.283 HD
ATOM      4  H22 UNL     1      -7.397  23.741  -2.126  1.00  0.00     0.283 HD
HETATM    5  C10 UNL     1      -5.747  22.549  -2.359  1.00  0.00     0.210 C 
HETATM    6  C11 UNL     1      -6.121  21.220  -2.952  1.00  0.00     0.049 C 
HETATM    7  C12 UNL     1      -5.932  20.130  -1.924  1.00  0.00     0.003 C 
HETATM    8  C13 UNL     1      -6.807  20.314  -0.720  1.00  0.00     0.000 C 
HETATM    9  C14 UNL     1      -6.882  21.773  -0.331  1.00  0.00     0.003 C 
HETATM   10  C15 UNL     1      -5.650  22.451  -0.827  1.00  0.00     0.049 C 
HETATM   11  C16 UNL     1      -4.408  23.012  -2.805  1.00  0.00     0.259 C 
HETATM   12  O1  UNL     1      -3.480  22.237  -3.123  1.00  0.00    -0.270 OA
HETATM   13  N3  UNL     1      -4.410  24.451  -2.791  1.00  0.00    -0.297 N 
ENDROOT
BRANCH   1  14
HETATM   14  N1  UNL     1      -6.227  25.469  -4.090  1.00  0.00     0.139 N 
BRANCH  14  15
HETATM   15  C2  UNL     1      -6.501  26.819  -3.691  1.00  0.00     0.273 C 
HETATM   16  C1  UNL     1      -7.976  27.010  -3.325  1.00  0.00     0.037 C 
ENDBRANCH  14  15
BRANCH  14  17
HETATM   17  C3  UNL     1      -7.257  24.724  -4.654  1.00  0.00     0.282 C 
BRANCH  17  18
HETATM   18  C4  UNL     1      -7.252  24.134  -5.987  1.00  0.00     0.014 C 
HETATM   19  C5  UNL     1      -6.193  23.133  -6.243  1.00  0.00     0.006 C 
HETATM   20  C6  UNL     1      -6.840  21.825  -6.646  1.00  0.00     0.000 C 
HETATM   21  C7  UNL     1      -8.188  22.248  -7.205  1.00  0.00     0.000 C 
HETATM   22  C8  UNL     1      -8.574  23.477  -6.370  1.00  0.00     0.006 C 
ENDBRANCH  17  18
ENDBRANCH  14  17
ENDBRANCH   1  14
BRANCH  13  23
HETATM   23  C17 UNL     1      -3.286  25.311  -2.675  1.00  0.00     0.133 C 
BRANCH  23  24
HETATM   24  C18 UNL     1      -3.065  26.004  -1.383  1.00  0.00    -0.005 C 
HETATM   25  C19 UNL     1      -1.539  26.136  -1.217  1.00  0.00     0.011 C 
HETATM   26  C20 UNL     1      -3.569  27.436  -1.369  1.00  0.00     0.011 C 
ENDBRANCH  23  24
ENDBRANCH  13  23
TORSDOF 6
ENDMDL
