MODEL 1
REMARK VINA RESULT: -7.996076187      0.000      0.000
REMARK  7 active torsions:
REMARK  status: ('A' for Active; 'I' for Inactive)
REMARK       I    between atoms: C2_2  and  N1_4 
REMARK    1  A    between atoms: C4_6  and  O2_7 
REMARK    2  A    between atoms: O2_7  and  C5_8 
REMARK    3  A    between atoms: C5_8  and  C6_9 
REMARK    4  A    between atoms: C6_9  and  C7_10 
REMARK    5  A    between atoms: C7_10  and  C8_11 
REMARK    6  A    between atoms: C19_22  and  C20_23 
REMARK    7  A    between atoms: C20_23  and  O3_24 
ROOT
HETATM    1  O2  UNL     1      -6.539  19.891  -2.990  1.00  0.00    -0.354 OA
ENDROOT
BRANCH   1   2
HETATM    2  C4  UNL     1      -6.006  19.378  -4.192  1.00  0.00     0.062 C 
HETATM    3  C3  UNL     1      -5.746  18.105  -4.327  1.00  0.00     0.126 C 
HETATM    4  N1  UNL     1      -5.203  17.517  -5.522  1.00  0.00    -0.319 N 
HETATM    5  C2  UNL     1      -4.796  16.167  -5.440  1.00  0.00     0.220 C 
HETATM    6  C19 UNL     1      -5.128  18.349  -6.680  1.00  0.00     0.116 C 
HETATM    7  C1  UNL     1      -4.925  15.422  -4.175  1.00  0.00     0.117 C 
HETATM    8  O1  UNL     1      -4.324  15.582  -6.426  1.00  0.00    -0.273 OA
HETATM    9  C18 UNL     1      -4.796  19.789  -6.314  1.00  0.00     0.034 C 
HETATM   10  C17 UNL     1      -5.748  20.327  -5.299  1.00  0.00     0.068 C 
BRANCH   6  11
HETATM   11  C20 UNL     1      -4.179  17.932  -7.748  1.00  0.00     0.189 C 
BRANCH  11  12
HETATM   12  O3  UNL     1      -2.845  18.121  -7.420  1.00  0.00    -0.399 OA
ATOM     13  H3  UNL     1      -2.358  18.624  -8.062  1.00  0.00     0.209 HD
ENDBRANCH  11  12
ENDBRANCH   6  11
ENDBRANCH   1   2
BRANCH   1  14
HETATM   14  C5  UNL     1      -5.672  20.185  -1.890  1.00  0.00     0.175 C 
BRANCH  14  15
HETATM   15  C6  UNL     1      -6.450  19.762  -0.638  1.00  0.00     0.027 C 
BRANCH  15  16
HETATM   16  C7  UNL     1      -7.811  19.382  -1.066  1.00  0.00     0.007 C 
BRANCH  16  17
HETATM   17  C8  UNL     1      -8.365  18.174  -0.334  1.00  0.00    -0.014 C 
HETATM   18  C9  UNL     1      -9.540  18.533   0.561  1.00  0.00     0.005 C 
HETATM   19  C10 UNL     1      -9.468  17.681   1.774  1.00  0.00     0.000 C 
HETATM   20  C11 UNL     1      -9.874  16.235   1.530  1.00  0.00     0.000 C 
HETATM   21  C12 UNL     1      -8.651  15.438   1.325  1.00  0.00     0.005 C 
HETATM   22  C13 UNL     1      -8.282  14.978  -0.017  1.00  0.00    -0.010 A 
HETATM   23  C14 UNL     1      -9.274  14.630  -1.073  1.00  0.00     0.010 A 
HETATM   24  C15 UNL     1      -8.234  15.798  -1.167  1.00  0.00    -0.010 A 
HETATM   25  C16 UNL     1      -8.860  17.110  -1.283  1.00  0.00     0.009 C 
ENDBRANCH  16  17
ENDBRANCH  15  16
ENDBRANCH  14  15
ENDBRANCH   1  14
TORSDOF 7
ENDMDL
MODEL 2
REMARK VINA RESULT: -7.874752709      3.091      5.056
REMARK  7 active torsions:
REMARK  status: ('A' for Active; 'I' for Inactive)
REMARK       I    between atoms: C2_2  and  N1_4 
REMARK    1  A    between atoms: C4_6  and  O2_7 
REMARK    2  A    between atoms: O2_7  and  C5_8 
REMARK    3  A    between atoms: C5_8  and  C6_9 
REMARK    4  A    between atoms: C6_9  and  C7_10 
REMARK    5  A    between atoms: C7_10  and  C8_11 
REMARK    6  A    between atoms: C19_22  and  C20_23 
REMARK    7  A    between atoms: C20_23  and  O3_24 
ROOT
HETATM    1  O2  UNL     1      -6.361  20.209  -4.638  1.00  0.00    -0.354 OA
ENDROOT
BRANCH   1   2
HETATM    2  C4  UNL     1      -6.447  21.608  -4.480  1.00  0.00     0.062 C 
HETATM    3  C3  UNL     1      -6.183  22.177  -3.334  1.00  0.00     0.126 C 
HETATM    4  N1  UNL     1      -6.251  23.595  -3.105  1.00  0.00    -0.319 N 
HETATM    5  C2  UNL     1      -6.129  24.031  -1.767  1.00  0.00     0.220 C 
HETATM    6  C19 UNL     1      -6.432  24.431  -4.248  1.00  0.00     0.116 C 
HETATM    7  C1  UNL     1      -5.950  23.056  -0.675  1.00  0.00     0.117 C 
HETATM    8  O1  UNL     1      -6.170  25.237  -1.483  1.00  0.00    -0.273 OA
HETATM    9  C18 UNL     1      -7.338  23.776  -5.282  1.00  0.00     0.034 C 
HETATM   10  C17 UNL     1      -6.847  22.417  -5.654  1.00  0.00     0.068 C 
BRANCH   6  11
HETATM   11  C20 UNL     1      -6.956  25.802  -4.004  1.00  0.00     0.189 C 
BRANCH  11  12
HETATM   12  O3  UNL     1      -8.325  25.851  -3.791  1.00  0.00    -0.399 OA
ATOM     13  H3  UNL     1      -8.647  26.713  -3.557  1.00  0.00     0.209 HD
ENDBRANCH  11  12
ENDBRANCH   6  11
ENDBRANCH   1   2
BRANCH   1  14
HETATM   14  C5  UNL     1      -5.832  19.400  -3.582  1.00  0.00     0.175 C 
BRANCH  14  15
HETATM   15  C6  UNL     1      -7.042  18.674  -2.983  1.00  0.00     0.027 C 
BRANCH  15  16
HETATM   16  C7  UNL     1      -7.223  19.171  -1.605  1.00  0.00     0.007 C 
BRANCH  16  17
HETATM   17  C8  UNL     1      -7.994  18.219  -0.710  1.00  0.00    -0.014 C 
HETATM   18  C9  UNL     1      -9.090  18.924   0.072  1.00  0.00     0.005 C 
HETATM   19  C10 UNL     1      -9.183  18.282   1.408  1.00  0.00     0.000 C 
HETATM   20  C11 UNL     1      -9.845  16.913   1.383  1.00  0.00     0.000 C 
HETATM   21  C12 UNL     1      -8.788  15.886   1.351  1.00  0.00     0.005 C 
HETATM   22  C13 UNL     1      -8.501  15.155   0.114  1.00  0.00    -0.010 A 
HETATM   23  C14 UNL     1      -9.532  14.823  -0.908  1.00  0.00     0.010 A 
HETATM   24  C15 UNL     1      -8.295  15.754  -1.149  1.00  0.00    -0.010 A 
HETATM   25  C16 UNL     1      -8.669  17.120  -1.495  1.00  0.00     0.009 C 
ENDBRANCH  16  17
ENDBRANCH  15  16
ENDBRANCH  14  15
ENDBRANCH   1  14
TORSDOF 7
ENDMDL
MODEL 3
REMARK VINA RESULT: -7.780308846      3.670      5.476
REMARK  7 active torsions:
REMARK  status: ('A' for Active; 'I' for Inactive)
REMARK       I    between atoms: C2_2  and  N1_4 
REMARK    1  A    between atoms: C4_6  and  O2_7 
REMARK    2  A    between atoms: O2_7  and  C5_8 
REMARK    3  A    between atoms: C5_8  and  C6_9 
REMARK    4  A    between atoms: C6_9  and  C7_10 
REMARK    5  A    between atoms: C7_10  and  C8_11 
REMARK    6  A    between atoms: C19_22  and  C20_23 
REMARK    7  A    between atoms: C20_23  and  O3_24 
ROOT
HETATM    1  O2  UNL     1      -5.111  21.722  -1.752  1.00  0.00    -0.354 OA
ENDROOT
BRANCH   1   2
HETATM    2  C4  UNL     1      -5.704  22.922  -2.196  1.00  0.00     0.062 C 
HETATM    3  C3  UNL     1      -6.361  22.975  -3.324  1.00  0.00     0.126 C 
HETATM    4  N1  UNL     1      -6.989  24.163  -3.836  1.00  0.00    -0.319 N 
HETATM    5  C2  UNL     1      -7.486  24.103  -5.156  1.00  0.00     0.220 C 
HETATM    6  C19 UNL     1      -7.055  25.291  -2.963  1.00  0.00     0.116 C 
HETATM    7  C1  UNL     1      -7.348  22.870  -5.953  1.00  0.00     0.117 C 
HETATM    8  O1  UNL     1      -8.049  25.081  -5.671  1.00  0.00    -0.273 OA
HETATM    9  C18 UNL     1      -5.812  25.395  -2.089  1.00  0.00     0.034 C 
HETATM   10  C17 UNL     1      -5.561  24.125  -1.345  1.00  0.00     0.068 C 
BRANCH   6  11
HETATM   11  C20 UNL     1      -7.264  26.621  -3.596  1.00  0.00     0.189 C 
BRANCH  11  12
HETATM   12  O3  UNL     1      -8.559  27.103  -3.477  1.00  0.00    -0.399 OA
ATOM     13  H3  UNL     1      -8.770  27.428  -2.609  1.00  0.00     0.209 HD
ENDBRANCH  11  12
ENDBRANCH   6  11
ENDBRANCH   1   2
BRANCH   1  14
HETATM   14  C5  UNL     1      -5.580  20.464  -2.247  1.00  0.00     0.175 C 
BRANCH  14  15
HETATM   15  C6  UNL     1      -6.579  19.963  -1.197  1.00  0.00     0.027 C 
BRANCH  15  16
HETATM   16  C7  UNL     1      -7.435  18.949  -1.844  1.00  0.00     0.007 C 
BRANCH  16  17
HETATM   17  C8  UNL     1      -8.156  18.044  -0.863  1.00  0.00    -0.014 C 
HETATM   18  C9  UNL     1      -9.237  18.781  -0.088  1.00  0.00     0.005 C 
HETATM   19  C10 UNL     1      -9.271  18.226   1.289  1.00  0.00     0.000 C 
HETATM   20  C11 UNL     1      -9.907  16.847   1.376  1.00  0.00     0.000 C 
HETATM   21  C12 UNL     1      -8.833  15.838   1.372  1.00  0.00     0.005 C 
HETATM   22  C13 UNL     1      -8.576  15.033   0.175  1.00  0.00    -0.010 A 
HETATM   23  C14 UNL     1      -9.636  14.619  -0.786  1.00  0.00     0.010 A 
HETATM   24  C15 UNL     1      -8.426  15.552  -1.131  1.00  0.00    -0.010 A 
HETATM   25  C16 UNL     1      -8.838  16.886  -1.550  1.00  0.00     0.009 C 
ENDBRANCH  16  17
ENDBRANCH  15  16
ENDBRANCH  14  15
ENDBRANCH   1  14
TORSDOF 7
ENDMDL
MODEL 4
REMARK VINA RESULT: -7.777712796      4.250      6.278
REMARK  7 active torsions:
REMARK  status: ('A' for Active; 'I' for Inactive)
REMARK       I    between atoms: C2_2  and  N1_4 
REMARK    1  A    between atoms: C4_6  and  O2_7 
REMARK    2  A    between atoms: O2_7  and  C5_8 
REMARK    3  A    between atoms: C5_8  and  C6_9 
REMARK    4  A    between atoms: C6_9  and  C7_10 
REMARK    5  A    between atoms: C7_10  and  C8_11 
REMARK    6  A    between atoms: C19_22  and  C20_23 
REMARK    7  A    between atoms: C20_23  and  O3_24 
ROOT
HETATM    1  O2  UNL     1      -5.256  22.055  -1.509  1.00  0.00    -0.354 OA
ENDROOT
BRANCH   1   2
HETATM    2  C4  UNL     1      -5.712  23.239  -2.126  1.00  0.00     0.062 C 
HETATM    3  C3  UNL     1      -5.615  24.396  -1.525  1.00  0.00     0.126 C 
HETATM    4  N1  UNL     1      -6.059  25.639  -2.095  1.00  0.00    -0.319 N 
HETATM    5  C2  UNL     1      -6.065  26.765  -1.242  1.00  0.00     0.220 C 
HETATM    6  C19 UNL     1      -6.448  25.623  -3.468  1.00  0.00     0.116 C 
HETATM    7  C1  UNL     1      -5.640  26.641   0.165  1.00  0.00     0.117 C 
HETATM    8  O1  UNL     1      -6.427  27.877  -1.655  1.00  0.00    -0.273 OA
HETATM    9  C18 UNL     1      -7.142  24.318  -3.837  1.00  0.00     0.034 C 
HETATM   10  C17 UNL     1      -6.305  23.136  -3.478  1.00  0.00     0.068 C 
BRANCH   6  11
HETATM   11  C20 UNL     1      -7.319  26.735  -3.934  1.00  0.00     0.189 C 
BRANCH  11  12
HETATM   12  O3  UNL     1      -8.632  26.643  -3.497  1.00  0.00    -0.399 OA
ATOM     13  H3  UNL     1      -9.162  27.403  -3.707  1.00  0.00     0.209 HD
ENDBRANCH  11  12
ENDBRANCH   6  11
ENDBRANCH   1   2
BRANCH   1  14
HETATM   14  C5  UNL     1      -5.613  20.781  -2.054  1.00  0.00     0.175 C 
BRANCH  14  15
HETATM   15  C6  UNL     1      -6.709  20.238  -1.127  1.00  0.00     0.027 C 
BRANCH  15  16
HETATM   16  C7  UNL     1      -7.261  19.022  -1.756  1.00  0.00     0.007 C 
BRANCH  16  17
HETATM   17  C8  UNL     1      -8.031  18.136  -0.795  1.00  0.00    -0.014 C 
HETATM   18  C9  UNL     1      -9.076  18.912  -0.008  1.00  0.00     0.005 C 
HETATM   19  C10 UNL     1      -9.144  18.332   1.357  1.00  0.00     0.000 C 
HETATM   20  C11 UNL     1      -9.851  16.987   1.415  1.00  0.00     0.000 C 
HETATM   21  C12 UNL     1      -8.830  15.924   1.394  1.00  0.00     0.005 C 
HETATM   22  C13 UNL     1      -8.609  15.130   0.182  1.00  0.00    -0.010 A 
HETATM   23  C14 UNL     1      -9.685  14.790  -0.790  1.00  0.00     0.010 A 
HETATM   24  C15 UNL     1      -8.428  15.666  -1.113  1.00  0.00    -0.010 A 
HETATM   25  C16 UNL     1      -8.769  17.028  -1.507  1.00  0.00     0.009 C 
ENDBRANCH  16  17
ENDBRANCH  15  16
ENDBRANCH  14  15
ENDBRANCH   1  14
TORSDOF 7
ENDMDL
MODEL 5
REMARK VINA RESULT: -7.773910502      3.638      5.854
REMARK  7 active torsions:
REMARK  status: ('A' for Active; 'I' for Inactive)
REMARK       I    between atoms: C2_2  and  N1_4 
REMARK    1  A    between atoms: C4_6  and  O2_7 
REMARK    2  A    between atoms: O2_7  and  C5_8 
REMARK    3  A    between atoms: C5_8  and  C6_9 
REMARK    4  A    between atoms: C6_9  and  C7_10 
REMARK    5  A    between atoms: C7_10  and  C8_11 
REMARK    6  A    between atoms: C19_22  and  C20_23 
REMARK    7  A    between atoms: C20_23  and  O3_24 
ROOT
HETATM    1  O2  UNL     1      -6.211  20.931  -3.686  1.00  0.00    -0.354 OA
ENDROOT
BRANCH   1   2
HETATM    2  C4  UNL     1      -6.193  22.196  -3.063  1.00  0.00     0.062 C 
HETATM    3  C3  UNL     1      -6.761  23.233  -3.619  1.00  0.00     0.126 C 
HETATM    4  N1  UNL     1      -6.779  24.549  -3.039  1.00  0.00    -0.319 N 
HETATM    5  C2  UNL     1      -7.258  25.598  -3.855  1.00  0.00     0.220 C 
HETATM    6  C19 UNL     1      -6.316  24.674  -1.695  1.00  0.00     0.116 C 
HETATM    7  C1  UNL     1      -7.705  25.330  -5.234  1.00  0.00     0.117 C 
HETATM    8  O1  UNL     1      -7.314  26.762  -3.429  1.00  0.00    -0.273 OA
HETATM    9  C18 UNL     1      -5.157  23.726  -1.412  1.00  0.00     0.034 C 
HETATM   10  C17 UNL     1      -5.510  22.317  -1.755  1.00  0.00     0.068 C 
BRANCH   6  11
HETATM   11  C20 UNL     1      -5.898  26.031  -1.249  1.00  0.00     0.189 C 
BRANCH  11  12
HETATM   12  O3  UNL     1      -6.799  26.643  -0.391  1.00  0.00    -0.399 OA
ATOM     13  H3  UNL     1      -6.577  27.541  -0.177  1.00  0.00     0.209 HD
ENDBRANCH  11  12
ENDBRANCH   6  11
ENDBRANCH   1   2
BRANCH   1  14
HETATM   14  C5  UNL     1      -5.732  19.779  -2.985  1.00  0.00     0.175 C 
BRANCH  14  15
HETATM   15  C6  UNL     1      -6.989  18.997  -2.584  1.00  0.00     0.027 C 
BRANCH  15  16
HETATM   16  C7  UNL     1      -7.280  19.315  -1.172  1.00  0.00     0.007 C 
BRANCH  16  17
HETATM   17  C8  UNL     1      -8.053  18.227  -0.451  1.00  0.00    -0.014 C 
HETATM   18  C9  UNL     1      -9.254  18.777   0.302  1.00  0.00     0.005 C 
HETATM   19  C10 UNL     1      -9.410  17.990   1.551  1.00  0.00     0.000 C 
HETATM   20  C11 UNL     1      -9.972  16.595   1.328  1.00  0.00     0.000 C 
HETATM   21  C12 UNL     1      -8.848  15.642   1.284  1.00  0.00     0.005 C 
HETATM   22  C13 UNL     1      -8.413  15.067   0.008  1.00  0.00    -0.010 A 
HETATM   23  C14 UNL     1      -9.333  14.787  -1.129  1.00  0.00     0.010 A 
HETATM   24  C15 UNL     1      -8.148  15.810  -1.165  1.00  0.00    -0.010 A 
HETATM   25  C16 UNL     1      -8.586  17.181  -1.400  1.00  0.00     0.009 C 
ENDBRANCH  16  17
ENDBRANCH  15  16
ENDBRANCH  14  15
ENDBRANCH   1  14
TORSDOF 7
ENDMDL
