MODEL 1
REMARK VINA RESULT: -7.811425578      0.000      0.000
REMARK  6 active torsions:
REMARK  status: ('A' for Active; 'I' for Inactive)
REMARK    1  A    between atoms: C2_2  and  C3_4 
REMARK    2  A    between atoms: C10_11  and  C11_12 
REMARK       I    between atoms: C11_12  and  N1_14 
REMARK    3  A    between atoms: C13_16  and  C14_17 
REMARK       I    between atoms: C14_17  and  N2_19 
REMARK    4  A    between atoms: N2_19  and  C15_21 
REMARK    5  A    between atoms: C15_21  and  C16_22 
REMARK    6  A    between atoms: C16_22  and  N3_23 
ROOT
HETATM    1  C11 UNL     1       3.352   9.675   0.589  1.00  0.00     0.229 C 
HETATM    2  O2  UNL     1       3.755   8.733  -0.144  1.00  0.00    -0.272 OA
HETATM    3  N1  UNL     1       4.323  10.385   1.348  1.00  0.00    -0.334 N 
HETATM    4  C12 UNL     1       4.572  11.476   2.314  1.00  0.00     0.161 A 
HETATM    5  C13 UNL     1       5.681  10.634   1.776  1.00  0.00     0.197 A 
ENDROOT
BRANCH   1   6
HETATM    6  C10 UNL     1       1.927  10.002   0.637  1.00  0.00     0.043 C 
HETATM    7  C9  UNL     1       1.645  11.414   0.109  1.00  0.00     0.024 C 
HETATM    8  C7  UNL     1       0.178  11.694   0.238  1.00  0.00    -0.012 C 
HETATM    9  C6  UNL     1      -0.316  11.564   1.661  1.00  0.00     0.009 C 
HETATM   10  C8  UNL     1      -0.585  10.766  -0.659  1.00  0.00     0.022 C 
HETATM   11  C5  UNL     1      -0.067  10.142   2.131  1.00  0.00    -0.012 C 
HETATM   12  C4  UNL     1      -0.792   9.151   1.241  1.00  0.00     0.022 C 
HETATM   13  C23 UNL     1       1.414   9.882   2.046  1.00  0.00     0.024 C 
HETATM   14  C3  UNL     1      -0.328   9.350  -0.178  1.00  0.00     0.022 C 
HETATM   15  C24 UNL     1       1.143   9.050  -0.246  1.00  0.00     0.036 C 
BRANCH  14  16
HETATM   16  C2  UNL     1      -1.051   8.402  -1.050  1.00  0.00     0.131 C 
HETATM   17  C1  UNL     1      -2.304   8.779  -1.781  1.00  0.00     0.091 C 
HETATM   18  O1  UNL     1      -0.652   7.260  -1.214  1.00  0.00    -0.298 OA
ENDBRANCH  14  16
ENDBRANCH   1   6
BRANCH   5  19
HETATM   19  C14 UNL     1       6.316   9.723   2.760  1.00  0.00     0.242 C 
HETATM   20  O3  UNL     1       7.535   9.838   2.994  1.00  0.00    -0.271 OA
HETATM   21  N2  UNL     1       5.549   8.751   3.410  1.00  0.00    -0.358 N 
ATOM     22  H2  UNL     1       4.554   8.690   3.194  1.00  0.00     0.162 HD
BRANCH  21  23
HETATM   23  C15 UNL     1       6.100   7.836   4.367  1.00  0.00     0.152 C 
BRANCH  23  24
HETATM   24  C16 UNL     1       5.061   7.222   5.258  1.00  0.00     0.292 C 
BRANCH  24  25
HETATM   25  N3  UNL     1       5.615   6.864   6.536  1.00  0.00     0.090 N 
HETATM   26  C17 UNL     1       4.664   6.452   7.521  1.00  0.00     0.272 C 
HETATM   27  C18 UNL     1       4.730   4.974   7.828  1.00  0.00     0.030 C 
HETATM   28  C19 UNL     1       5.916   4.538   8.597  1.00  0.00     0.002 C 
HETATM   29  C20 UNL     1       6.881   5.642   8.956  1.00  0.00     0.002 C 
HETATM   30  C21 UNL     1       7.555   6.234   7.757  1.00  0.00     0.030 C 
HETATM   31  C22 UNL     1       6.767   6.021   6.484  1.00  0.00     0.272 C 
ENDBRANCH  24  25
ENDBRANCH  23  24
ENDBRANCH  21  23
ENDBRANCH   5  19
TORSDOF 6
ENDMDL
MODEL 2
REMARK VINA RESULT: -7.780453771      0.255      1.099
REMARK  6 active torsions:
REMARK  status: ('A' for Active; 'I' for Inactive)
REMARK    1  A    between atoms: C2_2  and  C3_4 
REMARK    2  A    between atoms: C10_11  and  C11_12 
REMARK       I    between atoms: C11_12  and  N1_14 
REMARK    3  A    between atoms: C13_16  and  C14_17 
REMARK       I    between atoms: C14_17  and  N2_19 
REMARK    4  A    between atoms: N2_19  and  C15_21 
REMARK    5  A    between atoms: C15_21  and  C16_22 
REMARK    6  A    between atoms: C16_22  and  N3_23 
ROOT
HETATM    1  C11 UNL     1       3.318   9.652   0.658  1.00  0.00     0.229 C 
HETATM    2  O2  UNL     1       3.717   8.688  -0.049  1.00  0.00    -0.272 OA
HETATM    3  N1  UNL     1       4.283  10.340   1.444  1.00  0.00    -0.334 N 
HETATM    4  C12 UNL     1       4.531  11.435   2.406  1.00  0.00     0.161 A 
HETATM    5  C13 UNL     1       5.632  10.552   1.919  1.00  0.00     0.197 A 
ENDROOT
BRANCH   1   6
HETATM    6  C10 UNL     1       1.904  10.024   0.650  1.00  0.00     0.043 C 
HETATM    7  C9  UNL     1       1.681  11.418   0.053  1.00  0.00     0.024 C 
HETATM    8  C7  UNL     1       0.220  11.749   0.127  1.00  0.00    -0.012 C 
HETATM    9  C6  UNL     1      -0.316  11.698   1.540  1.00  0.00     0.009 C 
HETATM   10  C8  UNL     1      -0.547  10.805  -0.750  1.00  0.00     0.022 C 
HETATM   11  C5  UNL     1      -0.126  10.292   2.079  1.00  0.00    -0.012 C 
HETATM   12  C4  UNL     1      -0.857   9.284   1.212  1.00  0.00     0.022 C 
HETATM   13  C23 UNL     1       1.348   9.983   2.048  1.00  0.00     0.024 C 
HETATM   14  C3  UNL     1      -0.347   9.406  -0.200  1.00  0.00     0.022 C 
HETATM   15  C24 UNL     1       1.114   9.058  -0.212  1.00  0.00     0.036 C 
BRANCH  14  16
HETATM   16  C2  UNL     1      -1.076   8.442  -1.050  1.00  0.00     0.131 C 
HETATM   17  C1  UNL     1      -2.310   8.817  -1.813  1.00  0.00     0.091 C 
HETATM   18  O1  UNL     1      -0.697   7.287  -1.168  1.00  0.00    -0.298 OA
ENDBRANCH  14  16
ENDBRANCH   1   6
BRANCH   5  19
HETATM   19  C14 UNL     1       6.202   9.634   2.935  1.00  0.00     0.242 C 
HETATM   20  O3  UNL     1       7.415   9.714   3.213  1.00  0.00    -0.271 OA
HETATM   21  N2  UNL     1       5.381   8.693   3.567  1.00  0.00    -0.358 N 
ATOM     22  H2  UNL     1       4.394   8.660   3.314  1.00  0.00     0.162 HD
BRANCH  21  23
HETATM   23  C15 UNL     1       5.868   7.773   4.553  1.00  0.00     0.152 C 
BRANCH  23  24
HETATM   24  C16 UNL     1       4.829   7.395   5.567  1.00  0.00     0.292 C 
BRANCH  24  25
HETATM   25  N3  UNL     1       5.265   6.286   6.372  1.00  0.00     0.090 N 
HETATM   26  C17 UNL     1       6.649   5.949   6.252  1.00  0.00     0.272 C 
HETATM   27  C18 UNL     1       7.453   6.295   7.484  1.00  0.00     0.030 C 
HETATM   28  C19 UNL     1       7.209   5.438   8.664  1.00  0.00     0.002 C 
HETATM   29  C20 UNL     1       6.188   4.345   8.454  1.00  0.00     0.002 C 
HETATM   30  C21 UNL     1       4.807   4.878   8.232  1.00  0.00     0.030 C 
HETATM   31  C22 UNL     1       4.808   6.304   7.727  1.00  0.00     0.272 C 
ENDBRANCH  24  25
ENDBRANCH  23  24
ENDBRANCH  21  23
ENDBRANCH   5  19
TORSDOF 6
ENDMDL
MODEL 3
REMARK VINA RESULT: -7.601922362      1.431      2.522
REMARK  6 active torsions:
REMARK  status: ('A' for Active; 'I' for Inactive)
REMARK    1  A    between atoms: C2_2  and  C3_4 
REMARK    2  A    between atoms: C10_11  and  C11_12 
REMARK       I    between atoms: C11_12  and  N1_14 
REMARK    3  A    between atoms: C13_16  and  C14_17 
REMARK       I    between atoms: C14_17  and  N2_19 
REMARK    4  A    between atoms: N2_19  and  C15_21 
REMARK    5  A    between atoms: C15_21  and  C16_22 
REMARK    6  A    between atoms: C16_22  and  N3_23 
ROOT
HETATM    1  C11 UNL     1       4.757   9.116  -0.379  1.00  0.00     0.229 C 
HETATM    2  O2  UNL     1       5.429   8.118  -0.753  1.00  0.00    -0.272 OA
HETATM    3  N1  UNL     1       5.412  10.091   0.424  1.00  0.00    -0.334 N 
HETATM    4  C12 UNL     1       5.285  11.373   1.150  1.00  0.00     0.161 A 
HETATM    5  C13 UNL     1       6.568  10.610   1.119  1.00  0.00     0.197 A 
ENDROOT
BRANCH   1   6
HETATM    6  C10 UNL     1       3.354   9.240  -0.774  1.00  0.00     0.043 C 
HETATM    7  C9  UNL     1       2.874   8.021  -1.570  1.00  0.00     0.024 C 
HETATM    8  C7  UNL     1       1.449   8.243  -1.982  1.00  0.00    -0.012 C 
HETATM    9  C6  UNL     1       1.271   9.501  -2.801  1.00  0.00     0.009 C 
HETATM   10  C8  UNL     1       0.582   8.297  -0.760  1.00  0.00     0.022 C 
HETATM   11  C5  UNL     1       1.708  10.690  -1.964  1.00  0.00    -0.012 C 
HETATM   12  C4  UNL     1       0.884  10.780  -0.694  1.00  0.00     0.022 C 
HETATM   13  C23 UNL     1       3.153  10.485  -1.594  1.00  0.00     0.024 C 
HETATM   14  C3  UNL     1       1.029   9.488   0.067  1.00  0.00     0.022 C 
HETATM   15  C24 UNL     1       2.471   9.323   0.456  1.00  0.00     0.036 C 
BRANCH  14  16
HETATM   16  C2  UNL     1       0.208   9.565   1.292  1.00  0.00     0.131 C 
HETATM   17  C1  UNL     1       0.692  10.234   2.542  1.00  0.00     0.091 C 
HETATM   18  O1  UNL     1      -0.914   9.084   1.335  1.00  0.00    -0.298 OA
ENDBRANCH  14  16
ENDBRANCH   1   6
BRANCH   5  19
HETATM   19  C14 UNL     1       6.975  10.007   2.411  1.00  0.00     0.242 C 
HETATM   20  O3  UNL     1       8.147  10.161   2.809  1.00  0.00    -0.271 OA
HETATM   21  N2  UNL     1       6.051   9.277   3.165  1.00  0.00    -0.358 N 
ATOM     22  H2  UNL     1       5.101   9.176   2.807  1.00  0.00     0.162 HD
BRANCH  21  23
HETATM   23  C15 UNL     1       6.380   8.663   4.419  1.00  0.00     0.152 C 
BRANCH  23  24
HETATM   24  C16 UNL     1       5.317   7.726   4.911  1.00  0.00     0.292 C 
BRANCH  24  25
HETATM   25  N3  UNL     1       5.642   7.203   6.210  1.00  0.00     0.090 N 
HETATM   26  C17 UNL     1       4.566   7.187   7.151  1.00  0.00     0.272 C 
HETATM   27  C18 UNL     1       4.062   5.795   7.453  1.00  0.00     0.030 C 
HETATM   28  C19 UNL     1       4.966   4.956   8.270  1.00  0.00     0.002 C 
HETATM   29  C20 UNL     1       6.258   5.624   8.676  1.00  0.00     0.002 C 
HETATM   30  C21 UNL     1       7.153   5.907   7.510  1.00  0.00     0.030 C 
HETATM   31  C22 UNL     1       6.397   5.989   6.203  1.00  0.00     0.272 C 
ENDBRANCH  24  25
ENDBRANCH  23  24
ENDBRANCH  21  23
ENDBRANCH   5  19
TORSDOF 6
ENDMDL
MODEL 4
REMARK VINA RESULT: -7.596945121      1.964      3.281
REMARK  6 active torsions:
REMARK  status: ('A' for Active; 'I' for Inactive)
REMARK    1  A    between atoms: C2_2  and  C3_4 
REMARK    2  A    between atoms: C10_11  and  C11_12 
REMARK       I    between atoms: C11_12  and  N1_14 
REMARK    3  A    between atoms: C13_16  and  C14_17 
REMARK       I    between atoms: C14_17  and  N2_19 
REMARK    4  A    between atoms: N2_19  and  C15_21 
REMARK    5  A    between atoms: C15_21  and  C16_22 
REMARK    6  A    between atoms: C16_22  and  N3_23 
ROOT
HETATM    1  C11 UNL     1       5.136   9.609   0.803  1.00  0.00     0.229 C 
HETATM    2  O2  UNL     1       6.380   9.407   0.802  1.00  0.00    -0.272 OA
HETATM    3  N1  UNL     1       4.548  10.113   1.996  1.00  0.00    -0.334 N 
HETATM    4  C12 UNL     1       3.304  10.545   2.667  1.00  0.00     0.161 A 
HETATM    5  C13 UNL     1       4.622  10.571   3.365  1.00  0.00     0.197 A 
ENDROOT
BRANCH   1   6
HETATM    6  C10 UNL     1       4.352   9.326  -0.398  1.00  0.00     0.043 C 
HETATM    7  C9  UNL     1       4.914   8.135  -1.183  1.00  0.00     0.024 C 
HETATM    8  C7  UNL     1       4.092   7.940  -2.421  1.00  0.00    -0.012 C 
HETATM    9  C6  UNL     1       4.062   9.171  -3.299  1.00  0.00     0.009 C 
HETATM   10  C8  UNL     1       2.697   7.549  -2.035  1.00  0.00     0.022 C 
HETATM   11  C5  UNL     1       3.453  10.315  -2.507  1.00  0.00    -0.012 C 
HETATM   12  C4  UNL     1       2.046   9.965  -2.060  1.00  0.00     0.022 C 
HETATM   13  C23 UNL     1       4.310  10.538  -1.289  1.00  0.00     0.024 C 
HETATM   14  C3  UNL     1       2.102   8.699  -1.245  1.00  0.00     0.022 C 
HETATM   15  C24 UNL     1       2.931   8.957  -0.019  1.00  0.00     0.036 C 
BRANCH  14  16
HETATM   16  C2  UNL     1       0.729   8.344  -0.830  1.00  0.00     0.131 C 
HETATM   17  C1  UNL     1       0.045   9.002   0.330  1.00  0.00     0.091 C 
HETATM   18  O1  UNL     1       0.087   7.491  -1.423  1.00  0.00    -0.298 OA
ENDBRANCH  14  16
ENDBRANCH   1   6
BRANCH   5  19
HETATM   19  C14 UNL     1       4.778   9.582   4.459  1.00  0.00     0.242 C 
HETATM   20  O3  UNL     1       5.906   9.104   4.689  1.00  0.00    -0.271 OA
HETATM   21  N2  UNL     1       3.667   9.197   5.217  1.00  0.00    -0.358 N 
ATOM     22  H2  UNL     1       2.761   9.613   5.000  1.00  0.00     0.162 HD
BRANCH  21  23
HETATM   23  C15 UNL     1       3.746   8.242   6.284  1.00  0.00     0.152 C 
BRANCH  23  24
HETATM   24  C16 UNL     1       3.541   6.829   5.824  1.00  0.00     0.292 C 
BRANCH  24  25
HETATM   25  N3  UNL     1       4.419   5.923   6.515  1.00  0.00     0.090 N 
HETATM   26  C17 UNL     1       5.707   5.745   5.919  1.00  0.00     0.272 C 
HETATM   27  C18 UNL     1       6.822   6.377   6.718  1.00  0.00     0.030 C 
HETATM   28  C19 UNL     1       7.164   5.692   7.984  1.00  0.00     0.002 C 
HETATM   29  C20 UNL     1       6.341   4.463   8.282  1.00  0.00     0.002 C 
HETATM   30  C21 UNL     1       4.901   4.779   8.542  1.00  0.00     0.030 C 
HETATM   31  C22 UNL     1       4.477   6.096   7.932  1.00  0.00     0.272 C 
ENDBRANCH  24  25
ENDBRANCH  23  24
ENDBRANCH  21  23
ENDBRANCH   5  19
TORSDOF 6
ENDMDL
MODEL 5
REMARK VINA RESULT: -7.274735219      2.114      3.441
REMARK  6 active torsions:
REMARK  status: ('A' for Active; 'I' for Inactive)
REMARK    1  A    between atoms: C2_2  and  C3_4 
REMARK    2  A    between atoms: C10_11  and  C11_12 
REMARK       I    between atoms: C11_12  and  N1_14 
REMARK    3  A    between atoms: C13_16  and  C14_17 
REMARK       I    between atoms: C14_17  and  N2_19 
REMARK    4  A    between atoms: N2_19  and  C15_21 
REMARK    5  A    between atoms: C15_21  and  C16_22 
REMARK    6  A    between atoms: C16_22  and  N3_23 
ROOT
HETATM    1  C11 UNL     1       4.132  10.086   1.152  1.00  0.00     0.229 C 
HETATM    2  O2  UNL     1       5.140  10.815   1.358  1.00  0.00    -0.272 OA
HETATM    3  N1  UNL     1       3.294   9.786   2.262  1.00  0.00    -0.334 N 
HETATM    4  C12 UNL     1       2.084   9.082   2.734  1.00  0.00     0.161 A 
HETATM    5  C13 UNL     1       2.939   9.883   3.660  1.00  0.00     0.197 A 
ENDROOT
BRANCH   1   6
HETATM    6  C10 UNL     1       3.861   9.581  -0.193  1.00  0.00     0.043 C 
HETATM    7  C9  UNL     1       4.695   8.337  -0.518  1.00  0.00     0.024 C 
HETATM    8  C7  UNL     1       4.402   7.912  -1.926  1.00  0.00    -0.012 C 
HETATM    9  C6  UNL     1       4.684   9.003  -2.933  1.00  0.00     0.009 C 
HETATM   10  C8  UNL     1       2.971   7.476  -2.024  1.00  0.00     0.022 C 
HETATM   11  C5  UNL     1       3.804  10.198  -2.612  1.00  0.00    -0.012 C 
HETATM   12  C4  UNL     1       2.338   9.811  -2.666  1.00  0.00     0.022 C 
HETATM   13  C23 UNL     1       4.138  10.651  -1.215  1.00  0.00     0.024 C 
HETATM   14  C3  UNL     1       2.104   8.678  -1.700  1.00  0.00     0.022 C 
HETATM   15  C24 UNL     1       2.408   9.165  -0.312  1.00  0.00     0.036 C 
BRANCH  14  16
HETATM   16  C2  UNL     1       0.682   8.285  -1.770  1.00  0.00     0.131 C 
HETATM   17  C1  UNL     1      -0.266   8.873  -2.771  1.00  0.00     0.091 C 
HETATM   18  O1  UNL     1       0.215   7.452  -1.008  1.00  0.00    -0.298 OA
ENDBRANCH  14  16
ENDBRANCH   1   6
BRANCH   5  19
HETATM   19  C14 UNL     1       3.695   9.094   4.663  1.00  0.00     0.242 C 
HETATM   20  O3  UNL     1       3.136   8.778   5.732  1.00  0.00    -0.271 OA
HETATM   21  N2  UNL     1       5.016   8.714   4.403  1.00  0.00    -0.358 N 
ATOM     22  H2  UNL     1       5.437   8.989   3.516  1.00  0.00     0.162 HD
BRANCH  21  23
HETATM   23  C15 UNL     1       5.804   7.957   5.331  1.00  0.00     0.152 C 
BRANCH  23  24
HETATM   24  C16 UNL     1       5.703   6.475   5.115  1.00  0.00     0.292 C 
BRANCH  24  25
HETATM   25  N3  UNL     1       5.785   5.759   6.359  1.00  0.00     0.090 N 
HETATM   26  C17 UNL     1       7.109   5.483   6.820  1.00  0.00     0.272 C 
HETATM   27  C18 UNL     1       7.498   6.297   8.032  1.00  0.00     0.030 C 
HETATM   28  C19 UNL     1       6.834   5.911   9.296  1.00  0.00     0.002 C 
HETATM   29  C20 UNL     1       5.866   4.758   9.178  1.00  0.00     0.002 C 
HETATM   30  C21 UNL     1       4.666   5.094   8.348  1.00  0.00     0.030 C 
HETATM   31  C22 UNL     1       4.921   6.238   7.392  1.00  0.00     0.272 C 
ENDBRANCH  24  25
ENDBRANCH  23  24
ENDBRANCH  21  23
ENDBRANCH   5  19
TORSDOF 6
ENDMDL
