MODEL 1
REMARK VINA RESULT: -7.970006697      0.000      0.000
REMARK  5 active torsions:
REMARK  status: ('A' for Active; 'I' for Inactive)
REMARK       I    between atoms: N2_8  and  C7_9 
REMARK    1  A    between atoms: C7_9  and  C8_11 
REMARK    2  A    between atoms: C8_11  and  N3_12 
REMARK       I    between atoms: N3_12  and  C9_14 
REMARK    3  A    between atoms: C9_14  and  C10_16 
REMARK       I    between atoms: N4_19  and  C13_20 
REMARK    4  A    between atoms: C13_20  and  C14_22 
REMARK    5  A    between atoms: C15_23  and  C16_24 
ROOT
HETATM    1  N1  UNL     1       3.062   6.834  -1.877  1.00  0.00    -0.195 NA
HETATM    2  C1  UNL     1       3.318   7.593  -2.727  1.00  0.00     0.084 C 
HETATM    3  C2  UNL     1       3.618   8.554  -3.779  1.00  0.00     0.194 C 
HETATM    4  C3  UNL     1       3.709   7.843  -5.113  1.00  0.00     0.040 C 
HETATM    5  C4  UNL     1       4.948   7.000  -5.239  1.00  0.00     0.004 C 
HETATM    6  C5  UNL     1       6.047   7.430  -4.318  1.00  0.00     0.020 C 
HETATM    7  C6  UNL     1       6.049   8.937  -4.122  1.00  0.00     0.127 C 
HETATM    8  N2  UNL     1       4.788   9.335  -3.520  1.00  0.00    -0.334 N 
HETATM    9  C7  UNL     1       4.763  10.501  -2.685  1.00  0.00     0.238 C 
HETATM   10  O1  UNL     1       5.832  11.144  -2.500  1.00  0.00    -0.272 OA
ENDROOT
BRANCH   9  11
HETATM   11  C8  UNL     1       3.453  10.866  -2.093  1.00  0.00     0.225 C 
BRANCH  11  12
HETATM   12  N3  UNL     1       3.420  10.495  -0.700  1.00  0.00    -0.352 N 
HETATM   13  C9  UNL     1       2.307   9.878  -0.088  1.00  0.00     0.222 C 
HETATM   14  O2  UNL     1       1.270   9.620  -0.733  1.00  0.00    -0.273 OA
ATOM     15  H3  UNL     1       4.241  10.687  -0.127  1.00  0.00     0.162 HD
BRANCH  13  16
HETATM   16  C10 UNL     1       2.362   9.528   1.347  1.00  0.00     0.081 C 
HETATM   17  C11 UNL     1       1.992  10.746   2.168  1.00  0.00     0.034 C 
HETATM   18  C12 UNL     1       1.851  10.331   3.631  1.00  0.00     0.127 C 
HETATM   19  N4  UNL     1       2.958   9.421   3.917  1.00  0.00    -0.349 N 
HETATM   20  C13 UNL     1       2.854   8.500   4.971  1.00  0.00     0.243 C 
HETATM   21  C22 UNL     1       4.114   9.530   3.082  1.00  0.00     0.127 C 
HETATM   22  O3  UNL     1       1.803   8.447   5.694  1.00  0.00    -0.268 OA
HETATM   23  C23 UNL     1       3.796   9.107   1.655  1.00  0.00     0.034 C 
BRANCH  20  24
HETATM   24  C14 UNL     1       3.892   7.555   5.328  1.00  0.00     0.070 C 
HETATM   25  C15 UNL     1       3.704   6.582   6.197  1.00  0.00    -0.017 C 
BRANCH  25  26
HETATM   26  C16 UNL     1       4.789   5.657   6.517  1.00  0.00     0.008 C 
HETATM   27  C17 UNL     1       6.130   6.107   5.993  1.00  0.00     0.008 C 
HETATM   28  C18 UNL     1       7.153   6.265   7.081  1.00  0.00     0.001 C 
HETATM   29  C19 UNL     1       7.247   5.092   7.997  1.00  0.00     0.000 C 
HETATM   30  C20 UNL     1       5.974   4.337   8.184  1.00  0.00     0.001 C 
HETATM   31  C21 UNL     1       4.818   5.323   7.981  1.00  0.00     0.008 C 
ENDBRANCH  25  26
ENDBRANCH  20  24
ENDBRANCH  13  16
ENDBRANCH  11  12
ENDBRANCH   9  11
TORSDOF 5
ENDMDL
MODEL 2
REMARK VINA RESULT: -7.828807686      1.296      1.527
REMARK  5 active torsions:
REMARK  status: ('A' for Active; 'I' for Inactive)
REMARK       I    between atoms: N2_8  and  C7_9 
REMARK    1  A    between atoms: C7_9  and  C8_11 
REMARK    2  A    between atoms: C8_11  and  N3_12 
REMARK       I    between atoms: N3_12  and  C9_14 
REMARK    3  A    between atoms: C9_14  and  C10_16 
REMARK       I    between atoms: N4_19  and  C13_20 
REMARK    4  A    between atoms: C13_20  and  C14_22 
REMARK    5  A    between atoms: C15_23  and  C16_24 
ROOT
HETATM    1  N1  UNL     1       1.353   9.028  -3.732  1.00  0.00    -0.195 NA
HETATM    2  C1  UNL     1       2.451   9.067  -4.128  1.00  0.00     0.084 C 
HETATM    3  C2  UNL     1       3.824   9.135  -4.609  1.00  0.00     0.194 C 
HETATM    4  C3  UNL     1       3.845   9.016  -6.119  1.00  0.00     0.040 C 
HETATM    5  C4  UNL     1       3.524   7.627  -6.598  1.00  0.00     0.004 C 
HETATM    6  C5  UNL     1       3.775   6.576  -5.562  1.00  0.00     0.020 C 
HETATM    7  C6  UNL     1       4.968   6.931  -4.689  1.00  0.00     0.127 C 
HETATM    8  N2  UNL     1       4.691   8.177  -3.996  1.00  0.00    -0.334 N 
HETATM    9  C7  UNL     1       5.299   8.401  -2.716  1.00  0.00     0.238 C 
HETATM   10  O1  UNL     1       6.054   7.514  -2.234  1.00  0.00    -0.272 OA
ENDROOT
BRANCH   9  11
HETATM   11  C8  UNL     1       4.985   9.687  -2.047  1.00  0.00     0.225 C 
BRANCH  11  12
HETATM   12  N3  UNL     1       4.708   9.463  -0.650  1.00  0.00    -0.352 N 
HETATM   13  C9  UNL     1       3.449   9.704  -0.059  1.00  0.00     0.222 C 
HETATM   14  O2  UNL     1       2.489  10.137  -0.729  1.00  0.00    -0.273 OA
ATOM     15  H3  UNL     1       5.461   9.112  -0.058  1.00  0.00     0.162 HD
BRANCH  13  16
HETATM   16  C10 UNL     1       3.255   9.442   1.382  1.00  0.00     0.081 C 
HETATM   17  C11 UNL     1       2.724  10.696   2.046  1.00  0.00     0.034 C 
HETATM   18  C12 UNL     1       2.332  10.365   3.485  1.00  0.00     0.127 C 
HETATM   19  N4  UNL     1       3.387   9.506   4.019  1.00  0.00    -0.349 N 
HETATM   20  C13 UNL     1       3.114   8.647   5.095  1.00  0.00     0.243 C 
HETATM   21  C22 UNL     1       4.671   9.597   3.395  1.00  0.00     0.127 C 
HETATM   22  O3  UNL     1       1.953   8.606   5.623  1.00  0.00    -0.268 OA
HETATM   23  C23 UNL     1       4.619   9.081   1.964  1.00  0.00     0.034 C 
BRANCH  20  24
HETATM   24  C14 UNL     1       4.089   7.754   5.688  1.00  0.00     0.070 C 
HETATM   25  C15 UNL     1       3.920   6.448   5.743  1.00  0.00    -0.017 C 
BRANCH  25  26
HETATM   26  C16 UNL     1       4.939   5.597   6.354  1.00  0.00     0.008 C 
HETATM   27  C17 UNL     1       6.347   6.006   6.003  1.00  0.00     0.008 C 
HETATM   28  C18 UNL     1       7.176   6.326   7.214  1.00  0.00     0.001 C 
HETATM   29  C19 UNL     1       7.119   5.283   8.278  1.00  0.00     0.000 C 
HETATM   30  C20 UNL     1       5.833   4.529   8.350  1.00  0.00     0.001 C 
HETATM   31  C21 UNL     1       4.725   5.455   7.834  1.00  0.00     0.008 C 
ENDBRANCH  25  26
ENDBRANCH  20  24
ENDBRANCH  13  16
ENDBRANCH  11  12
ENDBRANCH   9  11
TORSDOF 5
ENDMDL
MODEL 3
REMARK VINA RESULT: -7.790119066      1.271      2.157
REMARK  5 active torsions:
REMARK  status: ('A' for Active; 'I' for Inactive)
REMARK       I    between atoms: N2_8  and  C7_9 
REMARK    1  A    between atoms: C7_9  and  C8_11 
REMARK    2  A    between atoms: C8_11  and  N3_12 
REMARK       I    between atoms: N3_12  and  C9_14 
REMARK    3  A    between atoms: C9_14  and  C10_16 
REMARK       I    between atoms: N4_19  and  C13_20 
REMARK    4  A    between atoms: C13_20  and  C14_22 
REMARK    5  A    between atoms: C15_23  and  C16_24 
ROOT
HETATM    1  N1  UNL     1       6.544   9.757  -5.824  1.00  0.00    -0.195 NA
HETATM    2  C1  UNL     1       6.326   8.825  -5.155  1.00  0.00     0.084 C 
HETATM    3  C2  UNL     1       6.059   7.676  -4.300  1.00  0.00     0.194 C 
HETATM    4  C3  UNL     1       6.746   6.449  -4.862  1.00  0.00     0.040 C 
HETATM    5  C4  UNL     1       6.087   5.936  -6.114  1.00  0.00     0.004 C 
HETATM    6  C5  UNL     1       4.660   6.366  -6.245  1.00  0.00     0.020 C 
HETATM    7  C6  UNL     1       3.979   6.451  -4.888  1.00  0.00     0.127 C 
HETATM    8  N2  UNL     1       4.666   7.442  -4.078  1.00  0.00    -0.334 N 
HETATM    9  C7  UNL     1       3.918   8.153  -3.081  1.00  0.00     0.238 C 
HETATM   10  O1  UNL     1       2.692   7.895  -2.938  1.00  0.00    -0.272 OA
ENDROOT
BRANCH   9  11
HETATM   11  C8  UNL     1       4.662   9.154  -2.281  1.00  0.00     0.225 C 
BRANCH  11  12
HETATM   12  N3  UNL     1       4.407   8.954  -0.876  1.00  0.00    -0.352 N 
HETATM   13  C9  UNL     1       3.482   9.723  -0.137  1.00  0.00     0.222 C 
HETATM   14  O2  UNL     1       2.826  10.641  -0.672  1.00  0.00    -0.273 OA
ATOM     15  H3  UNL     1       4.919   8.218  -0.391  1.00  0.00     0.162 HD
BRANCH  13  16
HETATM   16  C10 UNL     1       3.281   9.444   1.300  1.00  0.00     0.081 C 
HETATM   17  C11 UNL     1       2.722  10.683   1.971  1.00  0.00     0.034 C 
HETATM   18  C12 UNL     1       2.324  10.331   3.403  1.00  0.00     0.127 C 
HETATM   19  N4  UNL     1       3.390   9.486   3.939  1.00  0.00    -0.349 N 
HETATM   20  C13 UNL     1       3.124   8.613   5.004  1.00  0.00     0.243 C 
HETATM   21  C22 UNL     1       4.677   9.607   3.326  1.00  0.00     0.127 C 
HETATM   22  O3  UNL     1       1.959   8.547   5.522  1.00  0.00    -0.268 OA
HETATM   23  C23 UNL     1       4.646   9.103   1.890  1.00  0.00     0.034 C 
BRANCH  20  24
HETATM   24  C14 UNL     1       4.110   7.732   5.597  1.00  0.00     0.070 C 
HETATM   25  C15 UNL     1       3.912   6.438   5.748  1.00  0.00    -0.017 C 
BRANCH  25  26
HETATM   26  C16 UNL     1       4.943   5.599   6.354  1.00  0.00     0.008 C 
HETATM   27  C17 UNL     1       6.346   6.033   6.007  1.00  0.00     0.008 C 
HETATM   28  C18 UNL     1       7.169   6.357   7.220  1.00  0.00     0.001 C 
HETATM   29  C19 UNL     1       7.128   5.306   8.277  1.00  0.00     0.000 C 
HETATM   30  C20 UNL     1       5.854   4.531   8.343  1.00  0.00     0.001 C 
HETATM   31  C21 UNL     1       4.732   5.443   7.833  1.00  0.00     0.008 C 
ENDBRANCH  25  26
ENDBRANCH  20  24
ENDBRANCH  13  16
ENDBRANCH  11  12
ENDBRANCH   9  11
TORSDOF 5
ENDMDL
MODEL 4
REMARK VINA RESULT: -7.727081908      2.378      3.638
REMARK  5 active torsions:
REMARK  status: ('A' for Active; 'I' for Inactive)
REMARK       I    between atoms: N2_8  and  C7_9 
REMARK    1  A    between atoms: C7_9  and  C8_11 
REMARK    2  A    between atoms: C8_11  and  N3_12 
REMARK       I    between atoms: N3_12  and  C9_14 
REMARK    3  A    between atoms: C9_14  and  C10_16 
REMARK       I    between atoms: N4_19  and  C13_20 
REMARK    4  A    between atoms: C13_20  and  C14_22 
REMARK    5  A    between atoms: C15_23  and  C16_24 
ROOT
HETATM    1  N1  UNL     1       8.492   7.974  -6.811  1.00  0.00    -0.195 NA
HETATM    2  C1  UNL     1       8.076   7.123  -6.128  1.00  0.00     0.084 C 
HETATM    3  C2  UNL     1       7.562   6.076  -5.256  1.00  0.00     0.194 C 
HETATM    4  C3  UNL     1       8.194   4.748  -5.620  1.00  0.00     0.040 C 
HETATM    5  C4  UNL     1       7.686   4.202  -6.927  1.00  0.00     0.004 C 
HETATM    6  C5  UNL     1       6.349   4.752  -7.314  1.00  0.00     0.020 C 
HETATM    7  C6  UNL     1       5.480   5.008  -6.094  1.00  0.00     0.127 C 
HETATM    8  N2  UNL     1       6.134   5.992  -5.248  1.00  0.00    -0.334 N 
HETATM    9  C7  UNL     1       5.320   6.847  -4.432  1.00  0.00     0.238 C 
HETATM   10  O1  UNL     1       4.066   6.718  -4.473  1.00  0.00    -0.272 OA
ENDROOT
BRANCH   9  11
HETATM   11  C8  UNL     1       6.033   7.834  -3.587  1.00  0.00     0.225 C 
BRANCH  11  12
HETATM   12  N3  UNL     1       5.427   7.895  -2.280  1.00  0.00    -0.352 N 
HETATM   13  C9  UNL     1       5.309   9.088  -1.534  1.00  0.00     0.222 C 
HETATM   14  O2  UNL     1       5.735  10.176  -1.975  1.00  0.00    -0.273 OA
ATOM     15  H3  UNL     1       5.066   7.033  -1.873  1.00  0.00     0.162 HD
BRANCH  13  16
HETATM   16  C10 UNL     1       4.669   9.057  -0.202  1.00  0.00     0.081 C 
HETATM   17  C11 UNL     1       3.656  10.181  -0.115  1.00  0.00     0.034 C 
HETATM   18  C12 UNL     1       2.855  10.023   1.177  1.00  0.00     0.127 C 
HETATM   19  N4  UNL     1       3.811   9.661   2.222  1.00  0.00    -0.349 N 
HETATM   20  C13 UNL     1       3.372   8.981   3.368  1.00  0.00     0.243 C 
HETATM   21  C22 UNL     1       5.174  10.034   2.004  1.00  0.00     0.127 C 
HETATM   22  O3  UNL     1       2.141   8.676   3.518  1.00  0.00    -0.268 OA
HETATM   23  C23 UNL     1       5.770   9.265   0.834  1.00  0.00     0.034 C 
BRANCH  20  24
HETATM   24  C14 UNL     1       4.241   8.573   4.453  1.00  0.00     0.070 C 
HETATM   25  C15 UNL     1       4.015   7.501   5.185  1.00  0.00    -0.017 C 
BRANCH  25  26
HETATM   26  C16 UNL     1       4.928   7.139   6.266  1.00  0.00     0.008 C 
HETATM   27  C17 UNL     1       4.225   6.601   7.487  1.00  0.00     0.008 C 
HETATM   28  C18 UNL     1       4.677   5.218   7.854  1.00  0.00     0.001 C 
HETATM   29  C19 UNL     1       6.159   5.064   7.920  1.00  0.00     0.000 C 
HETATM   30  C20 UNL     1       6.924   5.949   6.993  1.00  0.00     0.001 C 
HETATM   31  C21 UNL     1       6.028   6.236   5.783  1.00  0.00     0.008 C 
ENDBRANCH  25  26
ENDBRANCH  20  24
ENDBRANCH  13  16
ENDBRANCH  11  12
ENDBRANCH   9  11
TORSDOF 5
ENDMDL
MODEL 5
REMARK VINA RESULT: -7.699285507      5.337      6.813
REMARK  5 active torsions:
REMARK  status: ('A' for Active; 'I' for Inactive)
REMARK       I    between atoms: N2_8  and  C7_9 
REMARK    1  A    between atoms: C7_9  and  C8_11 
REMARK    2  A    between atoms: C8_11  and  N3_12 
REMARK       I    between atoms: N3_12  and  C9_14 
REMARK    3  A    between atoms: C9_14  and  C10_16 
REMARK       I    between atoms: N4_19  and  C13_20 
REMARK    4  A    between atoms: C13_20  and  C14_22 
REMARK    5  A    between atoms: C15_23  and  C16_24 
ROOT
HETATM    1  N1  UNL     1      11.249  14.632  -0.041  1.00  0.00    -0.195 NA
HETATM    2  C1  UNL     1      10.996  14.268   1.039  1.00  0.00     0.084 C 
HETATM    3  C2  UNL     1      10.656  13.807   2.378  1.00  0.00     0.194 C 
HETATM    4  C3  UNL     1      11.078  14.844   3.399  1.00  0.00     0.040 C 
HETATM    5  C4  UNL     1      12.571  14.915   3.573  1.00  0.00     0.004 C 
HETATM    6  C5  UNL     1      13.272  13.662   3.151  1.00  0.00     0.020 C 
HETATM    7  C6  UNL     1      12.430  12.430   3.443  1.00  0.00     0.127 C 
HETATM    8  N2  UNL     1      11.190  12.518   2.690  1.00  0.00    -0.334 N 
HETATM    9  C7  UNL     1      10.545  11.302   2.284  1.00  0.00     0.238 C 
HETATM   10  O1  UNL     1      11.071  10.199   2.594  1.00  0.00    -0.272 OA
ENDROOT
BRANCH   9  11
HETATM   11  C8  UNL     1       9.285  11.443   1.518  1.00  0.00     0.225 C 
BRANCH  11  12
HETATM   12  N3  UNL     1       8.196  10.830   2.239  1.00  0.00    -0.352 N 
HETATM   13  C9  UNL     1       6.971  10.470   1.636  1.00  0.00     0.222 C 
HETATM   14  O2  UNL     1       6.760  10.671   0.422  1.00  0.00    -0.273 OA
ATOM     15  H3  UNL     1       8.317  10.647   3.234  1.00  0.00     0.162 HD
BRANCH  13  16
HETATM   16  C10 UNL     1       5.912   9.842   2.453  1.00  0.00     0.081 C 
HETATM   17  C11 UNL     1       4.782  10.834   2.643  1.00  0.00     0.034 C 
HETATM   18  C12 UNL     1       3.606  10.120   3.308  1.00  0.00     0.127 C 
HETATM   19  N4  UNL     1       4.170   9.267   4.353  1.00  0.00    -0.349 N 
HETATM   20  C13 UNL     1       3.456   8.147   4.804  1.00  0.00     0.243 C 
HETATM   21  C22 UNL     1       5.452   9.639   4.866  1.00  0.00     0.127 C 
HETATM   22  O3  UNL     1       2.311   7.860   4.318  1.00  0.00    -0.268 OA
HETATM   23  C23 UNL     1       6.530   9.489   3.802  1.00  0.00     0.034 C 
BRANCH  20  24
HETATM   24  C14 UNL     1       3.932   7.238   5.827  1.00  0.00     0.070 C 
HETATM   25  C15 UNL     1       4.821   6.295   5.587  1.00  0.00    -0.017 C 
BRANCH  25  26
HETATM   26  C16 UNL     1       5.264   5.408   6.659  1.00  0.00     0.008 C 
HETATM   27  C17 UNL     1       6.724   5.570   7.003  1.00  0.00     0.008 C 
HETATM   28  C18 UNL     1       6.943   5.940   8.442  1.00  0.00     0.001 C 
HETATM   29  C19 UNL     1       6.209   5.073   9.407  1.00  0.00     0.000 C 
HETATM   30  C20 UNL     1       4.921   4.518   8.899  1.00  0.00     0.001 C 
HETATM   31  C21 UNL     1       4.369   5.503   7.862  1.00  0.00     0.008 C 
ENDBRANCH  25  26
ENDBRANCH  20  24
ENDBRANCH  13  16
ENDBRANCH  11  12
ENDBRANCH   9  11
TORSDOF 5
ENDMDL
