MODEL 1
REMARK VINA RESULT: -6.983206269      0.000      0.000
REMARK  5 active torsions:
REMARK  status: ('A' for Active; 'I' for Inactive)
REMARK       I    between atoms: C2_4  and  N2_5 
REMARK       I    between atoms: C2_4  and  N3_17 
REMARK    1  A    between atoms: N2_5  and  C3_7 
REMARK    2  A    between atoms: C15_20  and  N4_21 
REMARK    3  A    between atoms: N5_24  and  C18_25 
REMARK    4  A    between atoms: C18_25  and  C19_26 
REMARK    5  A    between atoms: C19_26  and  O1_27 
ROOT
HETATM    1  C1  UNL     1       3.418   8.932  -0.107  1.00  0.00     0.165 C 
HETATM    2  N1  UNL     1       2.361   9.844   0.123  1.00  0.00    -0.231 N 
ATOM      3  H1  UNL     1       1.870  10.127  -0.725  1.00  0.00     0.177 HD
HETATM    4  C2  UNL     1       1.911  10.371   1.166  1.00  0.00     0.672 C 
HETATM    5  N2  UNL     1       0.813  11.271   1.096  1.00  0.00    -0.217 N 
ATOM      6  H2  UNL     1      -0.092  10.920   1.411  1.00  0.00     0.178 HD
HETATM    7  N3  UNL     1       2.448  10.112   2.451  1.00  0.00    -0.218 N 
HETATM    8  C13 UNL     1       3.829  10.331   2.735  1.00  0.00     0.143 C 
HETATM    9  C14 UNL     1       4.400   9.086   3.368  1.00  0.00     0.056 C 
HETATM   10  C15 UNL     1       3.743   8.873   4.706  1.00  0.00     0.226 C 
HETATM   11  C23 UNL     1       2.261   8.751   4.525  1.00  0.00     0.056 C 
HETATM   12  C24 UNL     1       1.619   9.638   3.541  1.00  0.00     0.143 C 
ENDROOT
BRANCH   5  13
HETATM   13  C3  UNL     1       0.856  12.616   0.627  1.00  0.00     0.048 C 
HETATM   14  C4  UNL     1       2.146  13.328   0.942  1.00  0.00     0.036 C 
HETATM   15  C5  UNL     1       2.039  14.761   0.473  1.00  0.00    -0.012 C 
HETATM   16  C6  UNL     1       1.884  14.757  -1.020  1.00  0.00     0.009 C 
HETATM   17  C10 UNL     1       0.863  15.487   1.055  1.00  0.00     0.009 C 
HETATM   18  C7  UNL     1       0.608  14.052  -1.394  1.00  0.00    -0.012 C 
HETATM   19  C8  UNL     1      -0.608  14.698  -0.760  1.00  0.00     0.009 C 
HETATM   20  C12 UNL     1       0.673  12.637  -0.866  1.00  0.00     0.036 C 
HETATM   21  C9  UNL     1      -0.410  14.723   0.721  1.00  0.00    -0.012 C 
HETATM   22  C11 UNL     1      -0.281  13.354   1.339  1.00  0.00     0.036 C 
ENDBRANCH   5  13
BRANCH  10  23
HETATM   23  N4  UNL     1       4.206   7.652   5.309  1.00  0.00     0.096 N 
HETATM   24  C16 UNL     1       3.519   7.306   6.535  1.00  0.00     0.303 C 
HETATM   25  C17 UNL     1       4.370   6.470   7.449  1.00  0.00     0.302 C 
HETATM   26  N5  UNL     1       5.174   5.502   6.746  1.00  0.00     0.093 N 
HETATM   27  C21 UNL     1       5.917   6.044   5.662  1.00  0.00     0.302 C 
HETATM   28  C22 UNL     1       5.601   7.541   5.536  1.00  0.00     0.303 C 
BRANCH  26  29
HETATM   29  C18 UNL     1       6.134   4.935   7.704  1.00  0.00     0.298 C 
BRANCH  29  30
HETATM   30  C19 UNL     1       6.395   5.829   8.871  1.00  0.00     0.197 C 
BRANCH  30  31
HETATM   31  O1  UNL     1       7.668   6.374   8.833  1.00  0.00    -0.394 OA
HETATM   32  C20 UNL     1       8.592   5.694   8.091  1.00  0.00     0.201 C 
ENDBRANCH  30  31
ENDBRANCH  29  30
ENDBRANCH  26  29
ENDBRANCH  10  23
TORSDOF 5
ENDMDL
MODEL 2
REMARK VINA RESULT: -6.892386354      1.972      2.509
REMARK  5 active torsions:
REMARK  status: ('A' for Active; 'I' for Inactive)
REMARK       I    between atoms: C2_4  and  N2_5 
REMARK       I    between atoms: C2_4  and  N3_17 
REMARK    1  A    between atoms: N2_5  and  C3_7 
REMARK    2  A    between atoms: C15_20  and  N4_21 
REMARK    3  A    between atoms: N5_24  and  C18_25 
REMARK    4  A    between atoms: C18_25  and  C19_26 
REMARK    5  A    between atoms: C19_26  and  O1_27 
ROOT
HETATM    1  C1  UNL     1       5.682   9.094  -0.405  1.00  0.00     0.165 C 
HETATM    2  N1  UNL     1       4.843  10.230  -0.487  1.00  0.00    -0.231 N 
ATOM      3  H1  UNL     1       4.707  10.573  -1.438  1.00  0.00     0.177 HD
HETATM    4  C2  UNL     1       4.235  10.896   0.382  1.00  0.00     0.672 C 
HETATM    5  N2  UNL     1       3.445  12.015   0.001  1.00  0.00    -0.217 N 
ATOM      6  H2  UNL     1       2.432  11.892   0.021  1.00  0.00     0.178 HD
HETATM    7  N3  UNL     1       4.289  10.588   1.763  1.00  0.00    -0.218 N 
HETATM    8  C13 UNL     1       5.533  10.506   2.456  1.00  0.00     0.143 C 
HETATM    9  C14 UNL     1       5.589   9.197   3.206  1.00  0.00     0.056 C 
HETATM   10  C15 UNL     1       4.532   9.205   4.278  1.00  0.00     0.226 C 
HETATM   11  C23 UNL     1       3.185   9.409   3.655  1.00  0.00     0.056 C 
HETATM   12  C24 UNL     1       3.087  10.367   2.542  1.00  0.00     0.143 C 
ENDROOT
BRANCH   5  13
HETATM   13  C3  UNL     1       3.932  13.291  -0.405  1.00  0.00     0.048 C 
HETATM   14  C4  UNL     1       5.344  13.572   0.042  1.00  0.00     0.036 C 
HETATM   15  C5  UNL     1       5.715  14.977  -0.373  1.00  0.00    -0.012 C 
HETATM   16  C6  UNL     1       5.700  15.045  -1.873  1.00  0.00     0.009 C 
HETATM   17  C10 UNL     1       4.765  16.017   0.144  1.00  0.00     0.009 C 
HETATM   18  C7  UNL     1       4.309  14.767  -2.377  1.00  0.00    -0.012 C 
HETATM   19  C8  UNL     1       3.293  15.740  -1.815  1.00  0.00     0.009 C 
HETATM   20  C12 UNL     1       3.898  13.390  -1.906  1.00  0.00     0.036 C 
HETATM   21  C9  UNL     1       3.357  15.680  -0.324  1.00  0.00    -0.012 C 
HETATM   22  C11 UNL     1       3.011  14.327   0.245  1.00  0.00     0.036 C 
ENDBRANCH   5  13
BRANCH  10  23
HETATM   23  N4  UNL     1       4.501   7.943   4.968  1.00  0.00     0.096 N 
HETATM   24  C16 UNL     1       3.678   7.946   6.158  1.00  0.00     0.303 C 
HETATM   25  C17 UNL     1       4.133   6.927   7.167  1.00  0.00     0.302 C 
HETATM   26  N5  UNL     1       4.573   5.693   6.566  1.00  0.00     0.093 N 
HETATM   27  C21 UNL     1       5.510   5.864   5.511  1.00  0.00     0.302 C 
HETATM   28  C22 UNL     1       5.753   7.364   5.295  1.00  0.00     0.303 C 
BRANCH  26  29
HETATM   29  C18 UNL     1       5.221   4.890   7.613  1.00  0.00     0.298 C 
BRANCH  29  30
HETATM   30  C19 UNL     1       6.122   5.693   8.493  1.00  0.00     0.197 C 
BRANCH  30  31
HETATM   31  O1  UNL     1       7.434   5.255   8.431  1.00  0.00    -0.394 OA
HETATM   32  C20 UNL     1       8.359   6.181   8.038  1.00  0.00     0.201 C 
ENDBRANCH  30  31
ENDBRANCH  29  30
ENDBRANCH  26  29
ENDBRANCH  10  23
TORSDOF 5
ENDMDL
MODEL 3
REMARK VINA RESULT: -6.857466539      1.894      2.839
REMARK  5 active torsions:
REMARK  status: ('A' for Active; 'I' for Inactive)
REMARK       I    between atoms: C2_4  and  N2_5 
REMARK       I    between atoms: C2_4  and  N3_17 
REMARK    1  A    between atoms: N2_5  and  C3_7 
REMARK    2  A    between atoms: C15_20  and  N4_21 
REMARK    3  A    between atoms: N5_24  and  C18_25 
REMARK    4  A    between atoms: C18_25  and  C19_26 
REMARK    5  A    between atoms: C19_26  and  O1_27 
ROOT
HETATM    1  C1  UNL     1       5.942   9.079  -0.131  1.00  0.00     0.165 C 
HETATM    2  N1  UNL     1       4.984  10.098  -0.339  1.00  0.00    -0.231 N 
ATOM      3  H1  UNL     1       4.924  10.415  -1.307  1.00  0.00     0.177 HD
HETATM    4  C2  UNL     1       4.196  10.687   0.435  1.00  0.00     0.672 C 
HETATM    5  N2  UNL     1       3.324  11.694  -0.064  1.00  0.00    -0.217 N 
ATOM      6  H2  UNL     1       2.340  11.443  -0.164  1.00  0.00     0.178 HD
HETATM    7  N3  UNL     1       4.117  10.397   1.818  1.00  0.00    -0.218 N 
HETATM    8  C13 UNL     1       5.267  10.479   2.659  1.00  0.00     0.143 C 
HETATM    9  C14 UNL     1       5.394   9.193   3.439  1.00  0.00     0.056 C 
HETATM   10  C15 UNL     1       4.220   9.073   4.374  1.00  0.00     0.226 C 
HETATM   11  C23 UNL     1       2.945   9.100   3.588  1.00  0.00     0.056 C 
HETATM   12  C24 UNL     1       2.866  10.031   2.451  1.00  0.00     0.143 C 
ENDROOT
BRANCH   5  13
HETATM   13  C3  UNL     1       3.693  13.019  -0.436  1.00  0.00     0.048 C 
HETATM   14  C4  UNL     1       2.520  13.910  -0.753  1.00  0.00     0.036 C 
HETATM   15  C5  UNL     1       3.039  15.253  -1.211  1.00  0.00    -0.012 C 
HETATM   16  C6  UNL     1       3.784  15.885  -0.071  1.00  0.00     0.009 C 
HETATM   17  C10 UNL     1       3.979  15.158  -2.377  1.00  0.00     0.009 C 
HETATM   18  C7  UNL     1       4.970  15.031   0.292  1.00  0.00    -0.012 C 
HETATM   19  C8  UNL     1       5.910  14.832  -0.879  1.00  0.00     0.009 C 
HETATM   20  C12 UNL     1       4.467  13.660   0.684  1.00  0.00     0.036 C 
HETATM   21  C9  UNL     1       5.135  14.239  -2.010  1.00  0.00    -0.012 C 
HETATM   22  C11 UNL     1       4.547  12.886  -1.700  1.00  0.00     0.036 C 
ENDBRANCH   5  13
BRANCH  10  23
HETATM   23  N4  UNL     1       4.263   7.822   5.083  1.00  0.00     0.096 N 
HETATM   24  C16 UNL     1       3.541   7.833   6.337  1.00  0.00     0.303 C 
HETATM   25  C17 UNL     1       4.091   6.837   7.319  1.00  0.00     0.302 C 
HETATM   26  N5  UNL     1       4.496   5.599   6.703  1.00  0.00     0.093 N 
HETATM   27  C21 UNL     1       5.342   5.764   5.572  1.00  0.00     0.302 C 
HETATM   28  C22 UNL     1       5.545   7.264   5.314  1.00  0.00     0.303 C 
BRANCH  26  29
HETATM   29  C18 UNL     1       5.240   4.821   7.705  1.00  0.00     0.298 C 
BRANCH  29  30
HETATM   30  C19 UNL     1       6.283   5.621   8.412  1.00  0.00     0.197 C 
BRANCH  30  31
HETATM   31  O1  UNL     1       7.559   5.140   8.171  1.00  0.00    -0.394 OA
HETATM   32  C20 UNL     1       8.552   6.076   8.098  1.00  0.00     0.201 C 
ENDBRANCH  30  31
ENDBRANCH  29  30
ENDBRANCH  26  29
ENDBRANCH  10  23
TORSDOF 5
ENDMDL
MODEL 4
REMARK VINA RESULT: -6.850550842      0.260      1.364
REMARK  5 active torsions:
REMARK  status: ('A' for Active; 'I' for Inactive)
REMARK       I    between atoms: C2_4  and  N2_5 
REMARK       I    between atoms: C2_4  and  N3_17 
REMARK    1  A    between atoms: N2_5  and  C3_7 
REMARK    2  A    between atoms: C15_20  and  N4_21 
REMARK    3  A    between atoms: N5_24  and  C18_25 
REMARK    4  A    between atoms: C18_25  and  C19_26 
REMARK    5  A    between atoms: C19_26  and  O1_27 
ROOT
HETATM    1  C1  UNL     1       3.317   8.964  -0.191  1.00  0.00     0.165 C 
HETATM    2  N1  UNL     1       2.295   9.912   0.047  1.00  0.00    -0.231 N 
ATOM      3  H1  UNL     1       1.796  10.199  -0.795  1.00  0.00     0.177 HD
HETATM    4  C2  UNL     1       1.884  10.468   1.092  1.00  0.00     0.672 C 
HETATM    5  N2  UNL     1       0.813  11.402   1.030  1.00  0.00    -0.217 N 
ATOM      6  H2  UNL     1      -0.095  11.084   1.369  1.00  0.00     0.178 HD
HETATM    7  N3  UNL     1       2.439  10.210   2.369  1.00  0.00    -0.218 N 
HETATM    8  C13 UNL     1       3.832  10.390   2.621  1.00  0.00     0.143 C 
HETATM    9  C14 UNL     1       4.377   9.136   3.260  1.00  0.00     0.056 C 
HETATM   10  C15 UNL     1       3.742   8.963   4.614  1.00  0.00     0.226 C 
HETATM   11  C23 UNL     1       2.253   8.886   4.466  1.00  0.00     0.056 C 
HETATM   12  C24 UNL     1       1.620   9.779   3.483  1.00  0.00     0.143 C 
ENDROOT
BRANCH   5  13
HETATM   13  C3  UNL     1       0.889  12.738   0.541  1.00  0.00     0.048 C 
HETATM   14  C4  UNL     1      -0.167  13.652   1.107  1.00  0.00     0.036 C 
HETATM   15  C5  UNL     1      -0.038  15.009   0.455  1.00  0.00    -0.012 C 
HETATM   16  C6  UNL     1       1.297  15.586   0.827  1.00  0.00     0.009 C 
HETATM   17  C10 UNL     1      -0.113  14.955  -1.042  1.00  0.00     0.009 C 
HETATM   18  C7  UNL     1       2.395  14.707   0.288  1.00  0.00    -0.012 C 
HETATM   19  C8  UNL     1       2.312  14.549  -1.217  1.00  0.00     0.009 C 
HETATM   20  C12 UNL     1       2.232  13.325   0.879  1.00  0.00     0.036 C 
HETATM   21  C9  UNL     1       0.962  14.011  -1.561  1.00  0.00    -0.012 C 
HETATM   22  C11 UNL     1       0.682  12.652  -0.973  1.00  0.00     0.036 C 
ENDBRANCH   5  13
BRANCH  10  23
HETATM   23  N4  UNL     1       4.179   7.737   5.226  1.00  0.00     0.096 N 
HETATM   24  C16 UNL     1       3.498   7.424   6.464  1.00  0.00     0.303 C 
HETATM   25  C17 UNL     1       4.338   6.575   7.377  1.00  0.00     0.302 C 
HETATM   26  N5  UNL     1       5.106   5.578   6.676  1.00  0.00     0.093 N 
HETATM   27  C21 UNL     1       5.850   6.087   5.576  1.00  0.00     0.302 C 
HETATM   28  C22 UNL     1       5.573   7.590   5.437  1.00  0.00     0.303 C 
BRANCH  26  29
HETATM   29  C18 UNL     1       6.062   4.995   7.628  1.00  0.00     0.298 C 
BRANCH  29  30
HETATM   30  C19 UNL     1       6.344   5.884   8.794  1.00  0.00     0.197 C 
BRANCH  30  31
HETATM   31  O1  UNL     1       7.654   6.333   8.801  1.00  0.00    -0.394 OA
HETATM   32  C20 UNL     1       8.549   5.585   8.090  1.00  0.00     0.201 C 
ENDBRANCH  30  31
ENDBRANCH  29  30
ENDBRANCH  26  29
ENDBRANCH  10  23
TORSDOF 5
ENDMDL
MODEL 5
REMARK VINA RESULT: -6.845806169      0.198      1.294
REMARK  5 active torsions:
REMARK  status: ('A' for Active; 'I' for Inactive)
REMARK       I    between atoms: C2_4  and  N2_5 
REMARK       I    between atoms: C2_4  and  N3_17 
REMARK    1  A    between atoms: N2_5  and  C3_7 
REMARK    2  A    between atoms: C15_20  and  N4_21 
REMARK    3  A    between atoms: N5_24  and  C18_25 
REMARK    4  A    between atoms: C18_25  and  C19_26 
REMARK    5  A    between atoms: C19_26  and  O1_27 
ROOT
HETATM    1  C1  UNL     1       3.458   8.848  -0.158  1.00  0.00     0.165 C 
HETATM    2  N1  UNL     1       2.367   9.722   0.062  1.00  0.00    -0.231 N 
ATOM      3  H1  UNL     1       1.873   9.985  -0.791  1.00  0.00     0.177 HD
HETATM    4  C2  UNL     1       1.892  10.235   1.100  1.00  0.00     0.672 C 
HETATM    5  N2  UNL     1       0.762  11.095   1.019  1.00  0.00    -0.217 N 
ATOM      6  H2  UNL     1      -0.131  10.713   1.329  1.00  0.00     0.178 HD
HETATM    7  N3  UNL     1       2.428   9.999   2.389  1.00  0.00    -0.218 N 
HETATM    8  C13 UNL     1       3.798  10.268   2.683  1.00  0.00     0.143 C 
HETATM    9  C14 UNL     1       4.409   9.046   3.323  1.00  0.00     0.056 C 
HETATM   10  C15 UNL     1       3.750   8.814   4.657  1.00  0.00     0.226 C 
HETATM   11  C23 UNL     1       2.275   8.638   4.466  1.00  0.00     0.056 C 
HETATM   12  C24 UNL     1       1.609   9.499   3.475  1.00  0.00     0.143 C 
ENDROOT
BRANCH   5  13
HETATM   13  C3  UNL     1       0.760  12.440   0.547  1.00  0.00     0.048 C 
HETATM   14  C4  UNL     1       0.785  12.556  -0.955  1.00  0.00     0.036 C 
HETATM   15  C5  UNL     1       0.865  14.018  -1.330  1.00  0.00    -0.012 C 
HETATM   16  C6  UNL     1      -0.386  14.696  -0.851  1.00  0.00     0.009 C 
HETATM   17  C10 UNL     1       2.036  14.724  -0.711  1.00  0.00     0.009 C 
HETATM   18  C7  UNL     1      -0.465  14.607   0.650  1.00  0.00    -0.012 C 
HETATM   19  C8  UNL     1       0.739  15.232   1.324  1.00  0.00     0.009 C 
HETATM   20  C12 UNL     1      -0.473  13.147   1.041  1.00  0.00     0.036 C 
HETATM   21  C9  UNL     1       1.970  14.566   0.801  1.00  0.00    -0.012 C 
HETATM   22  C11 UNL     1       2.033  13.089   1.097  1.00  0.00     0.036 C 
ENDBRANCH   5  13
BRANCH  10  23
HETATM   23  N4  UNL     1       4.252   7.611   5.266  1.00  0.00     0.096 N 
HETATM   24  C16 UNL     1       3.565   7.241   6.486  1.00  0.00     0.303 C 
HETATM   25  C17 UNL     1       4.438   6.439   7.410  1.00  0.00     0.302 C 
HETATM   26  N5  UNL     1       5.285   5.501   6.717  1.00  0.00     0.093 N 
HETATM   27  C21 UNL     1       6.019   6.069   5.640  1.00  0.00     0.302 C 
HETATM   28  C22 UNL     1       5.648   7.553   5.508  1.00  0.00     0.303 C 
BRANCH  26  29
HETATM   29  C18 UNL     1       6.256   4.971   7.686  1.00  0.00     0.298 C 
BRANCH  29  30
HETATM   30  C19 UNL     1       6.459   5.868   8.862  1.00  0.00     0.197 C 
BRANCH  30  31
HETATM   31  O1  UNL     1       7.730   6.418   8.882  1.00  0.00    -0.394 OA
HETATM   32  C20 UNL     1       8.668   5.793   8.110  1.00  0.00     0.201 C 
ENDBRANCH  30  31
ENDBRANCH  29  30
ENDBRANCH  26  29
ENDBRANCH  10  23
TORSDOF 5
ENDMDL
