MODEL 1
REMARK VINA RESULT: -8.895583542      0.000      0.000
REMARK  5 active torsions:
REMARK  status: ('A' for Active; 'I' for Inactive)
REMARK    1  A    between atoms: C2_2  and  N1_4 
REMARK       I    between atoms: N3_19  and  C17_20 
REMARK    2  A    between atoms: C17_20  and  C18_22 
REMARK    3  A    between atoms: C18_22  and  C19_23 
REMARK    4  A    between atoms: C19_23  and  C20_24 
REMARK    5  A    between atoms: C20_24  and  C21_25 
ROOT
HETATM    1  N1  UNL     1       5.676   6.560   6.022  1.00  0.00     0.097 N 
HETATM    2  C4  UNL     1       4.382   6.059   5.717  1.00  0.00     0.274 C 
HETATM    3  C5  UNL     1       3.388   7.193   5.844  1.00  0.00     0.041 C 
HETATM    4  C6  UNL     1       3.618   8.048   4.569  1.00  0.00     0.036 C 
HETATM    5  C7  UNL     1       2.526   9.035   4.570  1.00  0.00     0.016 C 
HETATM    6  C8  UNL     1       2.279   9.845   3.348  1.00  0.00     0.001 C 
HETATM    7  C9  UNL     1       1.300   9.318   2.335  1.00  0.00     0.052 A 
HETATM    8  C10 UNL     1       0.139  10.281   2.089  1.00  0.00     0.279 A 
HETATM    9  N2  UNL     1       0.570  10.366   0.702  1.00  0.00     0.089 N 
HETATM   10  C11 UNL     1      -0.407   9.895  -0.256  1.00  0.00     0.310 C 
HETATM   11  C12 UNL     1       1.656   9.418   0.929  1.00  0.00     0.229 A 
HETATM   12  C13 UNL     1       2.954   9.983   0.450  1.00  0.00     0.043 C 
HETATM   13  C14 UNL     1       3.546  10.821   1.528  1.00  0.00     0.019 A 
HETATM   14  C15 UNL     1       3.518   9.744   2.593  1.00  0.00     0.022 A 
HETATM   15  C16 UNL     1       4.474  10.853   2.539  1.00  0.00     0.120 A 
HETATM   16  N3  UNL     1       5.656  10.164   2.998  1.00  0.00    -0.256 N 
HETATM   17  C17 UNL     1       6.768  10.357   2.174  1.00  0.00     0.238 C 
HETATM   18  O1  UNL     1       6.638  11.081   1.157  1.00  0.00    -0.272 OA
HETATM   19  N4  UNL     1       5.861   9.345   4.126  1.00  0.00    -0.302 N 
ATOM     20  H4  UNL     1       6.790   9.400   4.544  1.00  0.00     0.186 HD
HETATM   21  C22 UNL     1       5.016   8.512   4.721  1.00  0.00     0.036 C 
HETATM   22  C23 UNL     1       5.859   7.968   5.842  1.00  0.00     0.327 C 
ENDROOT
BRANCH  17  23
HETATM   23  C18 UNL     1       8.024   9.694   2.561  1.00  0.00     0.105 C 
BRANCH  23  24
HETATM   24  C19 UNL     1       9.116  10.571   3.034  1.00  0.00     0.020 C 
BRANCH  24  25
HETATM   25  C20 UNL     1       9.421  10.558   4.486  1.00  0.00     0.113 C 
BRANCH  25  26
HETATM   26  C21 UNL     1      10.380  11.648   4.798  1.00  0.00     0.172 C 
HETATM   27  O2  UNL     1      11.377  11.895   4.066  1.00  0.00    -0.648 OA
HETATM   28  O3  UNL     1      10.170  12.413   5.927  1.00  0.00    -0.648 OA
ENDBRANCH  25  26
ENDBRANCH  24  25
ENDBRANCH  23  24
ENDBRANCH  17  23
BRANCH   1  29
HETATM   29  C2  UNL     1       6.122   6.059   7.270  1.00  0.00     0.215 C 
HETATM   30  C1  UNL     1       5.418   4.801   7.719  1.00  0.00     0.042 C 
HETATM   31  C3  UNL     1       7.600   5.809   7.363  1.00  0.00     0.042 C 
ENDBRANCH   1  29
TORSDOF 5
ENDMDL
MODEL 2
REMARK VINA RESULT: -7.539197073      3.888      8.131
REMARK  5 active torsions:
REMARK  status: ('A' for Active; 'I' for Inactive)
REMARK    1  A    between atoms: C2_2  and  N1_4 
REMARK       I    between atoms: N3_19  and  C17_20 
REMARK    2  A    between atoms: C17_20  and  C18_22 
REMARK    3  A    between atoms: C18_22  and  C19_23 
REMARK    4  A    between atoms: C19_23  and  C20_24 
REMARK    5  A    between atoms: C20_24  and  C21_25 
ROOT
HETATM    1  N1  UNL     1       4.441   9.088  -2.404  1.00  0.00     0.097 N 
HETATM    2  C4  UNL     1       5.191   8.123  -1.680  1.00  0.00     0.274 C 
HETATM    3  C5  UNL     1       5.908   8.825  -0.547  1.00  0.00     0.041 C 
HETATM    4  C6  UNL     1       4.795   9.095   0.501  1.00  0.00     0.036 C 
HETATM    5  C7  UNL     1       5.505   9.588   1.692  1.00  0.00     0.016 C 
HETATM    6  C8  UNL     1       4.773   9.690   2.982  1.00  0.00     0.001 C 
HETATM    7  C9  UNL     1       4.808   8.508   3.912  1.00  0.00     0.052 A 
HETATM    8  C10 UNL     1       5.399   8.856   5.278  1.00  0.00     0.279 A 
HETATM    9  N2  UNL     1       4.119   8.488   5.866  1.00  0.00     0.089 N 
HETATM   10  C11 UNL     1       4.187   7.376   6.792  1.00  0.00     0.310 C 
HETATM   11  C12 UNL     1       3.570   8.120   4.565  1.00  0.00     0.229 A 
HETATM   12  C13 UNL     1       2.267   8.815   4.332  1.00  0.00     0.043 C 
HETATM   13  C14 UNL     1       2.532  10.166   3.767  1.00  0.00     0.019 A 
HETATM   14  C15 UNL     1       3.371   9.684   2.601  1.00  0.00     0.022 A 
HETATM   15  C16 UNL     1       2.569  10.910   2.614  1.00  0.00     0.120 A 
HETATM   16  N3  UNL     1       2.092  10.891   1.252  1.00  0.00    -0.256 N 
HETATM   17  C17 UNL     1       0.710  11.066   1.143  1.00  0.00     0.238 C 
HETATM   18  O1  UNL     1       0.043  11.217   2.196  1.00  0.00    -0.272 OA
HETATM   19  N4  UNL     1       2.789  10.729   0.038  1.00  0.00    -0.302 N 
ATOM     20  H4  UNL     1       2.411  11.246  -0.756  1.00  0.00     0.186 HD
HETATM   21  C22 UNL     1       3.867   9.999  -0.217  1.00  0.00     0.036 C 
HETATM   22  C23 UNL     1       4.083  10.271  -1.680  1.00  0.00     0.327 C 
ENDROOT
BRANCH  17  23
HETATM   23  C18 UNL     1       0.128  11.062  -0.209  1.00  0.00     0.105 C 
BRANCH  23  24
HETATM   24  C19 UNL     1      -1.106  10.269  -0.394  1.00  0.00     0.020 C 
BRANCH  24  25
HETATM   25  C20 UNL     1      -1.079   8.851   0.038  1.00  0.00     0.113 C 
BRANCH  25  26
HETATM   26  C21 UNL     1      -0.574   8.006  -1.074  1.00  0.00     0.172 C 
HETATM   27  O2  UNL     1       0.626   7.622  -1.134  1.00  0.00    -0.648 OA
HETATM   28  O3  UNL     1      -1.450   7.632  -2.072  1.00  0.00    -0.648 OA
ENDBRANCH  25  26
ENDBRANCH  24  25
ENDBRANCH  23  24
ENDBRANCH  17  23
BRANCH   1  29
HETATM   29  C2  UNL     1       5.026   9.324  -3.673  1.00  0.00     0.215 C 
HETATM   30  C1  UNL     1       5.928  10.534  -3.723  1.00  0.00     0.042 C 
HETATM   31  C3  UNL     1       5.790   8.165  -4.245  1.00  0.00     0.042 C 
ENDBRANCH   1  29
TORSDOF 5
ENDMDL
MODEL 3
REMARK VINA RESULT: -7.448976966      3.938      8.008
REMARK  5 active torsions:
REMARK  status: ('A' for Active; 'I' for Inactive)
REMARK    1  A    between atoms: C2_2  and  N1_4 
REMARK       I    between atoms: N3_19  and  C17_20 
REMARK    2  A    between atoms: C17_20  and  C18_22 
REMARK    3  A    between atoms: C18_22  and  C19_23 
REMARK    4  A    between atoms: C19_23  and  C20_24 
REMARK    5  A    between atoms: C20_24  and  C21_25 
ROOT
HETATM    1  N1  UNL     1       4.549   9.019  -2.236  1.00  0.00     0.097 N 
HETATM    2  C4  UNL     1       5.458   8.218  -1.495  1.00  0.00     0.274 C 
HETATM    3  C5  UNL     1       6.000   9.047  -0.349  1.00  0.00     0.041 C 
HETATM    4  C6  UNL     1       4.835   9.093   0.675  1.00  0.00     0.036 C 
HETATM    5  C7  UNL     1       5.410   9.715   1.879  1.00  0.00     0.016 C 
HETATM    6  C8  UNL     1       4.646   9.671   3.153  1.00  0.00     0.001 C 
HETATM    7  C9  UNL     1       4.893   8.518   4.087  1.00  0.00     0.052 A 
HETATM    8  C10 UNL     1       5.376   8.974   5.464  1.00  0.00     0.279 A 
HETATM    9  N2  UNL     1       4.181   8.362   6.028  1.00  0.00     0.089 N 
HETATM   10  C11 UNL     1       4.446   7.284   6.958  1.00  0.00     0.310 C 
HETATM   11  C12 UNL     1       3.741   7.895   4.717  1.00  0.00     0.229 A 
HETATM   12  C13 UNL     1       2.333   8.321   4.455  1.00  0.00     0.043 C 
HETATM   13  C14 UNL     1       2.339   9.698   3.891  1.00  0.00     0.019 A 
HETATM   14  C15 UNL     1       3.280   9.390   2.744  1.00  0.00     0.022 A 
HETATM   15  C16 UNL     1       2.254  10.435   2.737  1.00  0.00     0.120 A 
HETATM   16  N3  UNL     1       1.818  10.324   1.365  1.00  0.00    -0.256 N 
HETATM   17  C17 UNL     1       0.431  10.226   1.228  1.00  0.00     0.238 C 
HETATM   18  O1  UNL     1      -0.274  10.242   2.267  1.00  0.00    -0.272 OA
HETATM   19  N4  UNL     1       2.557  10.303   0.166  1.00  0.00    -0.302 N 
ATOM     20  H4  UNL     1       2.102  10.736  -0.637  1.00  0.00     0.186 HD
HETATM   21  C22 UNL     1       3.763   9.798  -0.065  1.00  0.00     0.036 C 
HETATM   22  C23 UNL     1       3.951  10.108  -1.524  1.00  0.00     0.327 C 
ENDROOT
BRANCH  17  23
HETATM   23  C18 UNL     1      -0.111  10.108  -0.135  1.00  0.00     0.105 C 
BRANCH  23  24
HETATM   24  C19 UNL     1      -0.877   8.880  -0.439  1.00  0.00     0.020 C 
BRANCH  24  25
HETATM   25  C20 UNL     1      -0.754   8.320  -1.807  1.00  0.00     0.113 C 
BRANCH  25  26
HETATM   26  C21 UNL     1       0.674   8.321  -2.214  1.00  0.00     0.172 C 
HETATM   27  O2  UNL     1       1.091   8.984  -3.202  1.00  0.00    -0.648 OA
HETATM   28  O3  UNL     1       1.572   7.569  -1.483  1.00  0.00    -0.648 OA
ENDBRANCH  25  26
ENDBRANCH  24  25
ENDBRANCH  23  24
ENDBRANCH  17  23
BRANCH   1  29
HETATM   29  C2  UNL     1       5.102   9.365  -3.494  1.00  0.00     0.215 C 
HETATM   30  C1  UNL     1       5.904  10.645  -3.485  1.00  0.00     0.042 C 
HETATM   31  C3  UNL     1       5.952   8.302  -4.128  1.00  0.00     0.042 C 
ENDBRANCH   1  29
TORSDOF 5
ENDMDL
MODEL 4
REMARK VINA RESULT: -7.440011492      3.508      7.843
REMARK  5 active torsions:
REMARK  status: ('A' for Active; 'I' for Inactive)
REMARK    1  A    between atoms: C2_2  and  N1_4 
REMARK       I    between atoms: N3_19  and  C17_20 
REMARK    2  A    between atoms: C17_20  and  C18_22 
REMARK    3  A    between atoms: C18_22  and  C19_23 
REMARK    4  A    between atoms: C19_23  and  C20_24 
REMARK    5  A    between atoms: C20_24  and  C21_25 
ROOT
HETATM    1  N1  UNL     1       4.667   9.904  -1.226  1.00  0.00     0.097 N 
HETATM    2  C4  UNL     1       5.549   8.842  -0.891  1.00  0.00     0.274 C 
HETATM    3  C5  UNL     1       6.334   9.243   0.340  1.00  0.00     0.041 C 
HETATM    4  C6  UNL     1       5.322   9.088   1.506  1.00  0.00     0.036 C 
HETATM    5  C7  UNL     1       6.119   9.272   2.730  1.00  0.00     0.016 C 
HETATM    6  C8  UNL     1       5.521   8.921   4.045  1.00  0.00     0.001 C 
HETATM    7  C9  UNL     1       5.730   7.527   4.568  1.00  0.00     0.052 A 
HETATM    8  C10 UNL     1       6.436   7.511   5.924  1.00  0.00     0.279 A 
HETATM    9  N2  UNL     1       5.252   6.868   6.475  1.00  0.00     0.089 N 
HETATM   10  C11 UNL     1       5.487   5.545   7.013  1.00  0.00     0.310 C 
HETATM   11  C12 UNL     1       4.594   6.851   5.172  1.00  0.00     0.229 A 
HETATM   12  C13 UNL     1       3.231   7.459   5.266  1.00  0.00     0.043 C 
HETATM   13  C14 UNL     1       3.348   8.935   5.116  1.00  0.00     0.019 A 
HETATM   14  C15 UNL     1       4.090   8.898   3.795  1.00  0.00     0.022 A 
HETATM   15  C16 UNL     1       3.217   9.986   4.242  1.00  0.00     0.120 A 
HETATM   16  N3  UNL     1       2.603  10.325   2.980  1.00  0.00    -0.256 N 
HETATM   17  C17 UNL     1       1.208  10.395   3.041  1.00  0.00     0.238 C 
HETATM   18  O1  UNL     1       0.646  10.167   4.141  1.00  0.00    -0.272 OA
HETATM   19  N4  UNL     1       3.177  10.592   1.722  1.00  0.00    -0.302 N 
ATOM     20  H4  UNL     1       2.685  11.283   1.154  1.00  0.00     0.186 HD
HETATM   21  C22 UNL     1       4.267  10.073   1.172  1.00  0.00     0.036 C 
HETATM   22  C23 UNL     1       4.311  10.782  -0.153  1.00  0.00     0.327 C 
ENDROOT
BRANCH  17  23
HETATM   23  C18 UNL     1       0.489  10.735   1.803  1.00  0.00     0.105 C 
BRANCH  23  24
HETATM   24  C19 UNL     1      -0.388   9.686   1.239  1.00  0.00     0.020 C 
BRANCH  24  25
HETATM   25  C20 UNL     1      -0.476   9.592  -0.239  1.00  0.00     0.113 C 
BRANCH  25  26
HETATM   26  C21 UNL     1       0.316   8.426  -0.707  1.00  0.00     0.172 C 
HETATM   27  O2  UNL     1       1.575   8.451  -0.769  1.00  0.00    -0.648 OA
HETATM   28  O3  UNL     1      -0.353   7.280  -1.086  1.00  0.00    -0.648 OA
ENDBRANCH  25  26
ENDBRANCH  24  25
ENDBRANCH  23  24
ENDBRANCH  17  23
BRANCH   1  29
HETATM   29  C2  UNL     1       5.099  10.556  -2.408  1.00  0.00     0.215 C 
HETATM   30  C1  UNL     1       6.035  11.716  -2.166  1.00  0.00     0.042 C 
HETATM   31  C3  UNL     1       5.741   9.660  -3.428  1.00  0.00     0.042 C 
ENDBRANCH   1  29
TORSDOF 5
ENDMDL
MODEL 5
REMARK VINA RESULT: -7.314296693      2.635      4.061
REMARK  5 active torsions:
REMARK  status: ('A' for Active; 'I' for Inactive)
REMARK    1  A    between atoms: C2_2  and  N1_4 
REMARK       I    between atoms: N3_19  and  C17_20 
REMARK    2  A    between atoms: C17_20  and  C18_22 
REMARK    3  A    between atoms: C18_22  and  C19_23 
REMARK    4  A    between atoms: C19_23  and  C20_24 
REMARK    5  A    between atoms: C20_24  and  C21_25 
ROOT
HETATM    1  N1  UNL     1       4.285   7.919   4.407  1.00  0.00     0.097 N 
HETATM    2  C4  UNL     1       3.021   7.825   5.049  1.00  0.00     0.274 C 
HETATM    3  C5  UNL     1       2.343   9.176   4.969  1.00  0.00     0.041 C 
HETATM    4  C6  UNL     1       1.855   9.272   3.499  1.00  0.00     0.036 C 
HETATM    5  C7  UNL     1       1.016  10.481   3.454  1.00  0.00     0.016 C 
HETATM    6  C8  UNL     1       0.165  10.729   2.260  1.00  0.00     0.001 C 
HETATM    7  C9  UNL     1      -1.245  10.205   2.275  1.00  0.00     0.052 A 
HETATM    8  C10 UNL     1      -2.283  11.314   2.100  1.00  0.00     0.279 A 
HETATM    9  N2  UNL     1      -2.713  10.648   0.879  1.00  0.00     0.089 N 
HETATM   10  C11 UNL     1      -4.087  10.193   0.901  1.00  0.00     0.310 C 
HETATM   11  C12 UNL     1      -1.747   9.570   1.067  1.00  0.00     0.229 A 
HETATM   12  C13 UNL     1      -0.922   9.386  -0.166  1.00  0.00     0.043 C 
HETATM   13  C14 UNL     1       0.224  10.333  -0.129  1.00  0.00     0.019 A 
HETATM   14  C15 UNL     1       0.746   9.892   1.224  1.00  0.00     0.022 A 
HETATM   15  C16 UNL     1       1.563  10.462   0.149  1.00  0.00     0.120 A 
HETATM   16  N3  UNL     1       2.755   9.665   0.315  1.00  0.00    -0.256 N 
HETATM   17  C17 UNL     1       3.210   9.089  -0.874  1.00  0.00     0.238 C 
HETATM   18  O1  UNL     1       2.565   9.310  -1.929  1.00  0.00    -0.272 OA
HETATM   19  N4  UNL     1       3.518   9.384   1.465  1.00  0.00    -0.302 N 
ATOM     20  H4  UNL     1       4.521   9.281   1.311  1.00  0.00     0.186 HD
HETATM   21  C22 UNL     1       3.115   9.235   2.721  1.00  0.00     0.036 C 
HETATM   22  C23 UNL     1       4.413   8.957   3.429  1.00  0.00     0.327 C 
ENDROOT
BRANCH  17  23
HETATM   23  C18 UNL     1       4.422   8.257  -0.807  1.00  0.00     0.105 C 
BRANCH  23  24
HETATM   24  C19 UNL     1       5.694   8.912  -1.180  1.00  0.00     0.020 C 
BRANCH  24  25
HETATM   25  C20 UNL     1       5.704  10.393  -1.252  1.00  0.00     0.113 C 
BRANCH  25  26
HETATM   26  C21 UNL     1       6.445  10.938  -0.087  1.00  0.00     0.172 C 
HETATM   27  O2  UNL     1       6.972  12.084  -0.102  1.00  0.00    -0.648 OA
HETATM   28  O3  UNL     1       6.559  10.162   1.048  1.00  0.00    -0.648 OA
ENDBRANCH  25  26
ENDBRANCH  24  25
ENDBRANCH  23  24
ENDBRANCH  17  23
BRANCH   1  29
HETATM   29  C2  UNL     1       5.333   7.871   5.360  1.00  0.00     0.215 C 
HETATM   30  C1  UNL     1       6.006   6.524   5.470  1.00  0.00     0.042 C 
HETATM   31  C3  UNL     1       6.408   8.902   5.175  1.00  0.00     0.042 C 
ENDBRANCH   1  29
TORSDOF 5
ENDMDL
