MODEL 1
REMARK VINA RESULT: -8.051256893      0.000      0.000
REMARK  5 active torsions:
REMARK  status: ('A' for Active; 'I' for Inactive)
REMARK    1  A    between atoms: C1_2  and  C2_3 
REMARK       I    between atoms: C1_2  and  N3_23 
REMARK    2  A    between atoms: C2_3  and  C3_4 
REMARK    3  A    between atoms: C3_4  and  C4_5 
REMARK       I    between atoms: C4_5  and  N1_7 
REMARK       I    between atoms: N2_10  and  C7_11 
REMARK    4  A    between atoms: C7_11  and  C8_13 
REMARK    5  A    between atoms: N3_23  and  C17_25 
ROOT
HETATM    1  C4  UNL     1       3.810   9.429   4.192  1.00  0.00     0.220 C 
HETATM    2  O2  UNL     1       4.741   9.658   5.005  1.00  0.00    -0.273 OA
HETATM    3  N1  UNL     1       4.003   9.243   2.798  1.00  0.00    -0.343 N 
HETATM    4  C5  UNL     1       2.853   8.981   1.957  1.00  0.00     0.146 C 
HETATM    5  C6  UNL     1       2.812  10.001   0.835  1.00  0.00     0.146 C 
HETATM    6  N2  UNL     1       4.025   9.775   0.064  1.00  0.00    -0.344 N 
HETATM    7  C7  UNL     1       3.920   9.434  -1.306  1.00  0.00     0.224 C 
HETATM    8  O3  UNL     1       2.817   9.325  -1.877  1.00  0.00    -0.273 OA
HETATM    9  C12 UNL     1       5.266   9.924   0.780  1.00  0.00     0.111 C 
HETATM   10  C13 UNL     1       5.639  11.411   0.820  1.00  0.00     0.037 C 
HETATM   11  C14 UNL     1       7.145  11.474   0.657  1.00  0.00     0.076 C 
HETATM   12  S1  UNL     1       7.806  10.257   1.866  1.00  0.00    -0.167 SA
HETATM   13  C15 UNL     1       6.379   9.907   2.975  1.00  0.00     0.101 C 
HETATM   14  C16 UNL     1       5.286   9.291   2.131  1.00  0.00     0.119 C 
ENDROOT
BRANCH   1  15
HETATM   15  C3  UNL     1       2.442   9.356   4.763  1.00  0.00     0.112 C 
BRANCH  15  16
HETATM   16  C2  UNL     1       2.421   8.720   6.111  1.00  0.00     0.112 C 
BRANCH  16  17
HETATM   17  C1  UNL     1       3.232   7.500   6.181  1.00  0.00     0.218 C 
HETATM   18  O1  UNL     1       2.914   6.543   5.413  1.00  0.00    -0.274 OA
HETATM   19  N3  UNL     1       4.334   7.314   7.030  1.00  0.00    -0.356 N 
ATOM     20  H3  UNL     1       4.604   8.075   7.653  1.00  0.00     0.162 HD
BRANCH  19  21
HETATM   21  C17 UNL     1       5.108   6.085   7.061  1.00  0.00     0.084 C 
HETATM   22  C18 UNL     1       6.478   6.331   6.552  1.00  0.00     0.025 C 
HETATM   23  C19 UNL     1       7.548   6.121   7.614  1.00  0.00     0.002 C 
HETATM   24  C20 UNL     1       7.411   4.652   8.018  1.00  0.00     0.000 C 
HETATM   25  C21 UNL     1       6.133   4.511   8.758  1.00  0.00     0.002 C 
HETATM   26  C22 UNL     1       5.040   5.441   8.412  1.00  0.00     0.025 C 
ENDBRANCH  19  21
ENDBRANCH  16  17
ENDBRANCH  15  16
ENDBRANCH   1  15
BRANCH   7  27
HETATM   27  C8  UNL     1       5.156   9.200  -2.089  1.00  0.00     0.078 C 
HETATM   28  C9  UNL     1       4.872   8.910  -3.564  1.00  0.00     0.014 C 
HETATM   29  C10 UNL     1       5.886   7.789  -3.483  1.00  0.00     0.002 C 
HETATM   30  C11 UNL     1       5.656   7.752  -2.001  1.00  0.00     0.014 C 
ENDBRANCH   7  27
TORSDOF 5
ENDMDL
MODEL 2
REMARK VINA RESULT: -7.727004323      1.344      1.466
REMARK  5 active torsions:
REMARK  status: ('A' for Active; 'I' for Inactive)
REMARK    1  A    between atoms: C1_2  and  C2_3 
REMARK       I    between atoms: C1_2  and  N3_23 
REMARK    2  A    between atoms: C2_3  and  C3_4 
REMARK    3  A    between atoms: C3_4  and  C4_5 
REMARK       I    between atoms: C4_5  and  N1_7 
REMARK       I    between atoms: N2_10  and  C7_11 
REMARK    4  A    between atoms: C7_11  and  C8_13 
REMARK    5  A    between atoms: N3_23  and  C17_25 
ROOT
HETATM    1  C4  UNL     1       3.973   9.319   5.181  1.00  0.00     0.220 C 
HETATM    2  O2  UNL     1       5.141   9.453   5.626  1.00  0.00    -0.273 OA
HETATM    3  N1  UNL     1       3.663   9.156   3.806  1.00  0.00    -0.343 N 
HETATM    4  C5  UNL     1       2.277   9.006   3.409  1.00  0.00     0.146 C 
HETATM    5  C6  UNL     1       1.940  10.055   2.367  1.00  0.00     0.146 C 
HETATM    6  N2  UNL     1       2.795   9.757   1.228  1.00  0.00    -0.344 N 
HETATM    7  C7  UNL     1       2.201   9.461  -0.023  1.00  0.00     0.224 C 
HETATM    8  O3  UNL     1       0.964   9.453  -0.182  1.00  0.00    -0.273 OA
HETATM    9  C12 UNL     1       4.213   9.789   1.476  1.00  0.00     0.111 C 
HETATM   10  C13 UNL     1       4.698  11.241   1.384  1.00  0.00     0.037 C 
HETATM   11  C14 UNL     1       6.058  11.191   0.716  1.00  0.00     0.076 C 
HETATM   12  S1  UNL     1       6.990   9.895   1.627  1.00  0.00    -0.167 SA
HETATM   13  C15 UNL     1       6.003   9.627   3.158  1.00  0.00     0.101 C 
HETATM   14  C16 UNL     1       4.641   9.121   2.740  1.00  0.00     0.119 C 
ENDROOT
BRANCH   1  15
HETATM   15  C3  UNL     1       2.881   9.337   6.185  1.00  0.00     0.112 C 
BRANCH  15  16
HETATM   16  C2  UNL     1       2.357   7.973   6.482  1.00  0.00     0.112 C 
BRANCH  16  17
HETATM   17  C1  UNL     1       3.398   6.941   6.449  1.00  0.00     0.218 C 
HETATM   18  O1  UNL     1       3.365   6.111   5.491  1.00  0.00    -0.274 OA
HETATM   19  N3  UNL     1       4.427   6.804   7.392  1.00  0.00    -0.356 N 
ATOM     20  H3  UNL     1       4.468   7.465   8.168  1.00  0.00     0.162 HD
BRANCH  19  21
HETATM   21  C17 UNL     1       5.437   5.762   7.314  1.00  0.00     0.084 C 
HETATM   22  C18 UNL     1       6.697   6.313   6.760  1.00  0.00     0.025 C 
HETATM   23  C19 UNL     1       7.846   6.277   7.757  1.00  0.00     0.002 C 
HETATM   24  C20 UNL     1       8.036   4.793   8.076  1.00  0.00     0.000 C 
HETATM   25  C21 UNL     1       6.858   4.353   8.864  1.00  0.00     0.002 C 
HETATM   26  C22 UNL     1       5.579   5.052   8.625  1.00  0.00     0.025 C 
ENDBRANCH  19  21
ENDBRANCH  16  17
ENDBRANCH  15  16
ENDBRANCH   1  15
BRANCH   7  27
HETATM   27  C8  UNL     1       3.073   9.152  -1.181  1.00  0.00     0.078 C 
HETATM   28  C9  UNL     1       2.345   9.294  -2.519  1.00  0.00     0.014 C 
HETATM   29  C10 UNL     1       2.985   7.990  -2.944  1.00  0.00     0.002 C 
HETATM   30  C11 UNL     1       3.147   7.652  -1.491  1.00  0.00     0.014 C 
ENDBRANCH   7  27
TORSDOF 5
ENDMDL
MODEL 3
REMARK VINA RESULT: -7.573385398      2.968      4.030
REMARK  5 active torsions:
REMARK  status: ('A' for Active; 'I' for Inactive)
REMARK    1  A    between atoms: C1_2  and  C2_3 
REMARK       I    between atoms: C1_2  and  N3_23 
REMARK    2  A    between atoms: C2_3  and  C3_4 
REMARK    3  A    between atoms: C3_4  and  C4_5 
REMARK       I    between atoms: C4_5  and  N1_7 
REMARK       I    between atoms: N2_10  and  C7_11 
REMARK    4  A    between atoms: C7_11  and  C8_13 
REMARK    5  A    between atoms: N3_23  and  C17_25 
ROOT
HETATM    1  C4  UNL     1       4.642  10.370   2.552  1.00  0.00     0.220 C 
HETATM    2  O2  UNL     1       5.568  11.027   2.012  1.00  0.00    -0.273 OA
HETATM    3  N1  UNL     1       3.451   9.982   1.885  1.00  0.00    -0.343 N 
HETATM    4  C5  UNL     1       2.453   9.222   2.610  1.00  0.00     0.146 C 
HETATM    5  C6  UNL     1       1.120   9.940   2.523  1.00  0.00     0.146 C 
HETATM    6  N2  UNL     1       0.776   9.948   1.109  1.00  0.00    -0.344 N 
HETATM    7  C7  UNL     1      -0.425   9.330   0.687  1.00  0.00     0.224 C 
HETATM    8  O3  UNL     1      -1.204   8.780   1.491  1.00  0.00    -0.273 OA
HETATM    9  C12 UNL     1       1.713  10.605   0.235  1.00  0.00     0.111 C 
HETATM   10  C13 UNL     1       1.432  12.112   0.250  1.00  0.00     0.037 C 
HETATM   11  C14 UNL     1       1.646  12.598  -1.170  1.00  0.00     0.076 C 
HETATM   12  S1  UNL     1       3.271  11.902  -1.671  1.00  0.00    -0.167 SA
HETATM   13  C15 UNL     1       4.034  11.359  -0.086  1.00  0.00     0.101 C 
HETATM   14  C16 UNL     1       3.146  10.287   0.503  1.00  0.00     0.119 C 
ENDROOT
BRANCH   1  15
HETATM   15  C3  UNL     1       4.844   9.998   3.975  1.00  0.00     0.112 C 
BRANCH  15  16
HETATM   16  C2  UNL     1       6.080   9.191   4.182  1.00  0.00     0.112 C 
BRANCH  16  17
HETATM   17  C1  UNL     1       5.826   7.920   4.868  1.00  0.00     0.218 C 
HETATM   18  O1  UNL     1       4.818   7.248   4.494  1.00  0.00    -0.274 OA
HETATM   19  N3  UNL     1       6.612   7.391   5.902  1.00  0.00    -0.356 N 
ATOM     20  H3  UNL     1       7.428   7.919   6.213  1.00  0.00     0.162 HD
BRANCH  19  21
HETATM   21  C17 UNL     1       6.318   6.125   6.550  1.00  0.00     0.084 C 
HETATM   22  C18 UNL     1       7.458   5.709   7.401  1.00  0.00     0.025 C 
HETATM   23  C19 UNL     1       7.104   5.664   8.881  1.00  0.00     0.002 C 
HETATM   24  C20 UNL     1       5.988   4.623   8.982  1.00  0.00     0.000 C 
HETATM   25  C21 UNL     1       4.782   5.200   8.337  1.00  0.00     0.002 C 
HETATM   26  C22 UNL     1       4.992   6.172   7.246  1.00  0.00     0.025 C 
ENDBRANCH  19  21
ENDBRANCH  16  17
ENDBRANCH  15  16
ENDBRANCH   1  15
BRANCH   7  27
HETATM   27  C8  UNL     1      -0.772   9.334  -0.754  1.00  0.00     0.078 C 
HETATM   28  C9  UNL     1      -2.280   9.251  -0.997  1.00  0.00     0.014 C 
HETATM   29  C10 UNL     1      -1.995   8.228  -2.076  1.00  0.00     0.002 C 
HETATM   30  C11 UNL     1      -0.690   7.942  -1.394  1.00  0.00     0.014 C 
ENDBRANCH   7  27
TORSDOF 5
ENDMDL
MODEL 4
REMARK VINA RESULT: -7.568480711      2.927      5.045
REMARK  5 active torsions:
REMARK  status: ('A' for Active; 'I' for Inactive)
REMARK    1  A    between atoms: C1_2  and  C2_3 
REMARK       I    between atoms: C1_2  and  N3_23 
REMARK    2  A    between atoms: C2_3  and  C3_4 
REMARK    3  A    between atoms: C3_4  and  C4_5 
REMARK       I    between atoms: C4_5  and  N1_7 
REMARK       I    between atoms: N2_10  and  C7_11 
REMARK    4  A    between atoms: C7_11  and  C8_13 
REMARK    5  A    between atoms: N3_23  and  C17_25 
ROOT
HETATM    1  C4  UNL     1       5.742   9.829   0.903  1.00  0.00     0.220 C 
HETATM    2  O2  UNL     1       6.386   9.165   0.053  1.00  0.00    -0.273 OA
HETATM    3  N1  UNL     1       4.328   9.796   1.029  1.00  0.00    -0.343 N 
HETATM    4  C5  UNL     1       3.693  10.604   2.051  1.00  0.00     0.146 C 
HETATM    5  C6  UNL     1       2.648  11.494   1.406  1.00  0.00     0.146 C 
HETATM    6  N2  UNL     1       1.663  10.585   0.840  1.00  0.00    -0.344 N 
HETATM    7  C7  UNL     1       0.319  10.664   1.276  1.00  0.00     0.224 C 
HETATM    8  O3  UNL     1      -0.051  11.493   2.130  1.00  0.00    -0.273 OA
HETATM    9  C12 UNL     1       2.153   9.657  -0.146  1.00  0.00     0.111 C 
HETATM   10  C13 UNL     1       2.200  10.360  -1.508  1.00  0.00     0.037 C 
HETATM   11  C14 UNL     1       1.775   9.327  -2.533  1.00  0.00     0.076 C 
HETATM   12  S1  UNL     1       2.784   7.838  -2.156  1.00  0.00    -0.167 SA
HETATM   13  C15 UNL     1       4.111   8.467  -1.045  1.00  0.00     0.101 C 
HETATM   14  C16 UNL     1       3.446   9.000   0.204  1.00  0.00     0.119 C 
ENDROOT
BRANCH   1  15
HETATM   15  C3  UNL     1       6.542  10.687   1.811  1.00  0.00     0.112 C 
BRANCH  15  16
HETATM   16  C2  UNL     1       7.627   9.931   2.500  1.00  0.00     0.112 C 
BRANCH  16  17
HETATM   17  C1  UNL     1       7.198   9.353   3.778  1.00  0.00     0.218 C 
HETATM   18  O1  UNL     1       7.812   9.727   4.822  1.00  0.00    -0.274 OA
HETATM   19  N3  UNL     1       6.162   8.420   3.932  1.00  0.00    -0.356 N 
ATOM     20  H3  UNL     1       5.658   8.110   3.101  1.00  0.00     0.162 HD
BRANCH  19  21
HETATM   21  C17 UNL     1       5.774   7.876   5.222  1.00  0.00     0.084 C 
HETATM   22  C18 UNL     1       4.527   8.523   5.695  1.00  0.00     0.025 C 
HETATM   23  C19 UNL     1       3.362   7.550   5.803  1.00  0.00     0.002 C 
HETATM   24  C20 UNL     1       3.817   6.511   6.829  1.00  0.00     0.000 C 
HETATM   25  C21 UNL     1       4.900   5.712   6.203  1.00  0.00     0.002 C 
HETATM   26  C22 UNL     1       5.736   6.379   5.185  1.00  0.00     0.025 C 
ENDBRANCH  19  21
ENDBRANCH  16  17
ENDBRANCH  15  16
ENDBRANCH   1  15
BRANCH   7  27
HETATM   27  C8  UNL     1      -0.683   9.734   0.702  1.00  0.00     0.078 C 
HETATM   28  C9  UNL     1      -1.410  10.325  -0.507  1.00  0.00     0.014 C 
HETATM   29  C10 UNL     1      -2.700   9.793   0.077  1.00  0.00     0.002 C 
HETATM   30  C11 UNL     1      -2.036   9.792   1.422  1.00  0.00     0.014 C 
ENDBRANCH   7  27
TORSDOF 5
ENDMDL
MODEL 5
REMARK VINA RESULT: -7.519728463      2.197      3.612
REMARK  5 active torsions:
REMARK  status: ('A' for Active; 'I' for Inactive)
REMARK    1  A    between atoms: C1_2  and  C2_3 
REMARK       I    between atoms: C1_2  and  N3_23 
REMARK    2  A    between atoms: C2_3  and  C3_4 
REMARK    3  A    between atoms: C3_4  and  C4_5 
REMARK       I    between atoms: C4_5  and  N1_7 
REMARK       I    between atoms: N2_10  and  C7_11 
REMARK    4  A    between atoms: C7_11  and  C8_13 
REMARK    5  A    between atoms: N3_23  and  C17_25 
ROOT
HETATM    1  C4  UNL     1       1.972   9.824   2.893  1.00  0.00     0.220 C 
HETATM    2  O2  UNL     1       0.862   9.619   2.342  1.00  0.00    -0.273 OA
HETATM    3  N1  UNL     1       3.087  10.410   2.238  1.00  0.00    -0.343 N 
HETATM    4  C5  UNL     1       4.319  10.601   2.976  1.00  0.00     0.146 C 
HETATM    5  C6  UNL     1       5.457   9.933   2.230  1.00  0.00     0.146 C 
HETATM    6  N2  UNL     1       5.552  10.636   0.960  1.00  0.00    -0.344 N 
HETATM    7  C7  UNL     1       6.761  11.289   0.620  1.00  0.00     0.224 C 
HETATM    8  O3  UNL     1       7.753  11.277   1.375  1.00  0.00    -0.273 OA
HETATM    9  C12 UNL     1       4.374  10.606   0.132  1.00  0.00     0.111 C 
HETATM   10  C13 UNL     1       4.362   9.295  -0.664  1.00  0.00     0.037 C 
HETATM   11  C14 UNL     1       3.825   9.638  -2.039  1.00  0.00     0.076 C 
HETATM   12  S1  UNL     1       2.301  10.617  -1.725  1.00  0.00    -0.167 SA
HETATM   13  C15 UNL     1       1.932  10.312   0.053  1.00  0.00     0.101 C 
HETATM   14  C16 UNL     1       3.094  10.847   0.858  1.00  0.00     0.119 C 
ENDROOT
BRANCH   1  15
HETATM   15  C3  UNL     1       2.086   9.416   4.315  1.00  0.00     0.112 C 
BRANCH  15  16
HETATM   16  C2  UNL     1       2.543   8.005   4.468  1.00  0.00     0.112 C 
BRANCH  16  17
HETATM   17  C1  UNL     1       3.538   7.838   5.532  1.00  0.00     0.218 C 
HETATM   18  O1  UNL     1       4.021   8.890   6.048  1.00  0.00    -0.274 OA
HETATM   19  N3  UNL     1       3.993   6.604   6.023  1.00  0.00    -0.356 N 
ATOM     20  H3  UNL     1       3.613   5.749   5.619  1.00  0.00     0.162 HD
BRANCH  19  21
HETATM   21  C17 UNL     1       4.982   6.492   7.081  1.00  0.00     0.084 C 
HETATM   22  C18 UNL     1       4.588   5.431   8.038  1.00  0.00     0.025 C 
HETATM   23  C19 UNL     1       5.564   4.263   8.059  1.00  0.00     0.002 C 
HETATM   24  C20 UNL     1       6.893   4.877   8.500  1.00  0.00     0.000 C 
HETATM   25  C21 UNL     1       7.378   5.734   7.389  1.00  0.00     0.002 C 
HETATM   26  C22 UNL     1       6.362   6.352   6.514  1.00  0.00     0.025 C 
ENDBRANCH  19  21
ENDBRANCH  16  17
ENDBRANCH  15  16
ENDBRANCH   1  15
BRANCH   7  27
HETATM   27  C8  UNL     1       6.854  12.009  -0.672  1.00  0.00     0.078 C 
HETATM   28  C9  UNL     1       8.172  12.771  -0.827  1.00  0.00     0.014 C 
HETATM   29  C10 UNL     1       7.370  13.941  -1.357  1.00  0.00     0.002 C 
HETATM   30  C11 UNL     1       6.175  13.384  -0.642  1.00  0.00     0.014 C 
ENDBRANCH   7  27
TORSDOF 5
ENDMDL
