MODEL 1
REMARK VINA RESULT: -7.411729837      0.000      0.000
REMARK  4 active torsions:
REMARK  status: ('A' for Active; 'I' for Inactive)
REMARK    1  A    between atoms: C2_2  and  C3_3 
REMARK    2  A    between atoms: C3_3  and  N1_5 
REMARK    3  A    between atoms: C9_10  and  C10_11 
REMARK    4  A    between atoms: C11_15  and  O1_16 
ROOT
HETATM    1  N1  UNL     1      14.686  30.000  -0.259  1.00  0.00    -0.313 N 
HETATM    2  C5  UNL     1      15.825  29.176  -0.083  1.00  0.00     0.088 A 
HETATM    3  C6  UNL     1      17.117  29.701  -0.097  1.00  0.00     0.031 A 
HETATM    4  C7  UNL     1      18.239  28.911   0.054  1.00  0.00     0.022 A 
HETATM    5  C8  UNL     1      18.039  27.557   0.221  1.00  0.00     0.020 A 
HETATM    6  C9  UNL     1      16.758  26.994   0.240  1.00  0.00     0.083 A 
HETATM    7  C11 UNL     1      15.666  27.820   0.087  1.00  0.00     0.109 A 
HETATM    8  S1  UNL     1      17.365  31.450  -0.289  1.00  0.00    -0.113 SA
HETATM    9  C12 UNL     1      15.738  32.223  -0.227  1.00  0.00     0.061 C 
HETATM   10  C13 UNL     1      15.874  33.444   0.668  1.00  0.00     0.032 C 
HETATM   11  C14 UNL     1      15.377  32.623  -1.643  1.00  0.00     0.032 C 
HETATM   12  C15 UNL     1      14.758  31.319   0.421  1.00  0.00     0.195 C 
HETATM   13  C16 UNL     1      13.415  32.019   0.414  1.00  0.00     0.079 C 
HETATM   14  F4  UNL     1      15.097  31.162   1.740  1.00  0.00    -0.217 F 
ENDROOT
BRANCH   1  15
HETATM   15  C3  UNL     1      13.584  29.554  -1.055  1.00  0.00    -0.011 C 
HETATM   16  C4  UNL     1      13.609  29.732  -2.531  1.00  0.00     0.063 C 
BRANCH  15  17
HETATM   17  C2  UNL     1      12.262  29.305  -0.432  1.00  0.00     0.048 C 
HETATM   18  C1  UNL     1      11.305  28.570  -1.407  1.00  0.00     0.011 C 
ENDBRANCH  15  17
ENDBRANCH   1  15
BRANCH   7  19
HETATM   19  O1  UNL     1      14.387  27.314   0.105  1.00  0.00    -0.358 OA
ATOM     20  H1  UNL     1      13.991  27.127   0.948  1.00  0.00     0.217 HD
ENDBRANCH   7  19
BRANCH   6  21
HETATM   21  C10 UNL     1      16.544  25.553   0.427  1.00  0.00     0.420 C 
HETATM   22  F1  UNL     1      15.707  25.223   1.456  1.00  0.00    -0.166 F 
HETATM   23  F2  UNL     1      17.799  24.975   0.663  1.00  0.00    -0.166 F 
HETATM   24  F3  UNL     1      16.121  24.969  -0.777  1.00  0.00    -0.166 F 
ENDBRANCH   6  21
TORSDOF 4
ENDMDL
MODEL 2
REMARK VINA RESULT: -7.310520353      5.452      7.581
REMARK  4 active torsions:
REMARK  status: ('A' for Active; 'I' for Inactive)
REMARK    1  A    between atoms: C2_2  and  C3_3 
REMARK    2  A    between atoms: C3_3  and  N1_5 
REMARK    3  A    between atoms: C9_10  and  C10_11 
REMARK    4  A    between atoms: C11_15  and  O1_16 
ROOT
HETATM    1  N1  UNL     1      18.476  31.230  -3.002  1.00  0.00    -0.313 N 
HETATM    2  C5  UNL     1      18.700  32.615  -2.800  1.00  0.00     0.088 A 
HETATM    3  C6  UNL     1      17.782  33.411  -2.116  1.00  0.00     0.031 A 
HETATM    4  C7  UNL     1      17.974  34.765  -1.927  1.00  0.00     0.022 A 
HETATM    5  C8  UNL     1      19.125  35.319  -2.447  1.00  0.00     0.020 A 
HETATM    6  C9  UNL     1      20.068  34.550  -3.139  1.00  0.00     0.083 A 
HETATM    7  C11 UNL     1      19.838  33.203  -3.304  1.00  0.00     0.109 A 
HETATM    8  S1  UNL     1      16.313  32.687  -1.429  1.00  0.00    -0.113 SA
HETATM    9  C12 UNL     1      16.460  30.903  -1.633  1.00  0.00     0.061 C 
HETATM   10  C13 UNL     1      16.024  30.280  -0.316  1.00  0.00     0.032 C 
HETATM   11  C14 UNL     1      15.530  30.501  -2.760  1.00  0.00     0.032 C 
HETATM   12  C15 UNL     1      17.877  30.519  -1.844  1.00  0.00     0.195 C 
HETATM   13  C16 UNL     1      17.921  29.017  -2.034  1.00  0.00     0.079 C 
HETATM   14  F4  UNL     1      18.586  30.777  -0.700  1.00  0.00    -0.217 F 
ENDROOT
BRANCH   1  15
HETATM   15  C3  UNL     1      18.808  30.616  -4.251  1.00  0.00    -0.011 C 
HETATM   16  C4  UNL     1      17.940  30.829  -5.439  1.00  0.00     0.063 C 
BRANCH  15  17
HETATM   17  C2  UNL     1      19.735  29.460  -4.296  1.00  0.00     0.048 C 
HETATM   18  C1  UNL     1      20.196  29.159  -5.747  1.00  0.00     0.011 C 
ENDBRANCH  15  17
ENDBRANCH   1  15
BRANCH   7  19
HETATM   19  O1  UNL     1      20.739  32.406  -3.972  1.00  0.00    -0.358 OA
ATOM     20  H1  UNL     1      20.966  32.637  -4.865  1.00  0.00     0.217 HD
ENDBRANCH   7  19
BRANCH   6  21
HETATM   21  C10 UNL     1      21.300  35.137  -3.686  1.00  0.00     0.420 C 
HETATM   22  F1  UNL     1      22.459  34.639  -3.160  1.00  0.00    -0.166 F 
HETATM   23  F2  UNL     1      21.247  36.516  -3.437  1.00  0.00    -0.166 F 
HETATM   24  F3  UNL     1      21.297  35.043  -5.086  1.00  0.00    -0.166 F 
ENDBRANCH   6  21
TORSDOF 4
ENDMDL
MODEL 3
REMARK VINA RESULT: -7.212935258      3.803      5.297
REMARK  4 active torsions:
REMARK  status: ('A' for Active; 'I' for Inactive)
REMARK    1  A    between atoms: C2_2  and  C3_3 
REMARK    2  A    between atoms: C3_3  and  N1_5 
REMARK    3  A    between atoms: C9_10  and  C10_11 
REMARK    4  A    between atoms: C11_15  and  O1_16 
ROOT
HETATM    1  N1  UNL     1      16.643  30.058  -0.859  1.00  0.00    -0.313 N 
HETATM    2  C5  UNL     1      16.589  30.278  -2.257  1.00  0.00     0.088 A 
HETATM    3  C6  UNL     1      15.415  30.691  -2.887  1.00  0.00     0.031 A 
HETATM    4  C7  UNL     1      15.338  30.890  -4.250  1.00  0.00     0.022 A 
HETATM    5  C8  UNL     1      16.481  30.665  -4.988  1.00  0.00     0.020 A 
HETATM    6  C9  UNL     1      17.677  30.251  -4.390  1.00  0.00     0.083 A 
HETATM    7  C11 UNL     1      17.710  30.064  -3.026  1.00  0.00     0.109 A 
HETATM    8  S1  UNL     1      13.952  31.002  -1.928  1.00  0.00    -0.113 SA
HETATM    9  C12 UNL     1      14.424  30.883  -0.194  1.00  0.00     0.061 C 
HETATM   10  C13 UNL     1      13.773  32.060   0.513  1.00  0.00     0.032 C 
HETATM   11  C14 UNL     1      13.883  29.567   0.330  1.00  0.00     0.032 C 
HETATM   12  C15 UNL     1      15.890  31.044  -0.041  1.00  0.00     0.195 C 
HETATM   13  C16 UNL     1      16.215  30.905   1.431  1.00  0.00     0.079 C 
HETATM   14  F4  UNL     1      16.238  32.323  -0.388  1.00  0.00    -0.217 F 
ENDROOT
BRANCH   1  15
HETATM   15  C3  UNL     1      17.371  28.947  -0.327  1.00  0.00    -0.011 C 
HETATM   16  C4  UNL     1      16.770  27.587  -0.340  1.00  0.00     0.063 C 
BRANCH  15  17
HETATM   17  C2  UNL     1      18.508  29.169   0.599  1.00  0.00     0.048 C 
HETATM   18  C1  UNL     1      19.152  27.828   1.038  1.00  0.00     0.011 C 
ENDBRANCH  15  17
ENDBRANCH   1  15
BRANCH   7  19
HETATM   19  O1  UNL     1      18.864  29.663  -2.393  1.00  0.00    -0.358 OA
ATOM     20  H1  UNL     1      19.530  29.226  -2.910  1.00  0.00     0.217 HD
ENDBRANCH   7  19
BRANCH   6  21
HETATM   21  C10 UNL     1      18.899  30.018  -5.173  1.00  0.00     0.420 C 
HETATM   22  F1  UNL     1      20.019  30.635  -4.690  1.00  0.00    -0.166 F 
HETATM   23  F2  UNL     1      18.653  30.484  -6.472  1.00  0.00    -0.166 F 
HETATM   24  F3  UNL     1      19.110  28.641  -5.338  1.00  0.00    -0.166 F 
ENDBRANCH   6  21
TORSDOF 4
ENDMDL
MODEL 4
REMARK VINA RESULT: -7.079573329      4.086      6.055
REMARK  4 active torsions:
REMARK  status: ('A' for Active; 'I' for Inactive)
REMARK    1  A    between atoms: C2_2  and  C3_3 
REMARK    2  A    between atoms: C3_3  and  N1_5 
REMARK    3  A    between atoms: C9_10  and  C10_11 
REMARK    4  A    between atoms: C11_15  and  O1_16 
ROOT
HETATM    1  N1  UNL     1      16.406  30.734  -2.562  1.00  0.00    -0.313 N 
HETATM    2  C5  UNL     1      15.061  30.402  -2.860  1.00  0.00     0.088 A 
HETATM    3  C6  UNL     1      14.205  29.881  -1.891  1.00  0.00     0.031 A 
HETATM    4  C7  UNL     1      12.898  29.533  -2.168  1.00  0.00     0.022 A 
HETATM    5  C8  UNL     1      12.455  29.720  -3.460  1.00  0.00     0.020 A 
HETATM    6  C9  UNL     1      13.285  30.241  -4.459  1.00  0.00     0.083 A 
HETATM    7  C11 UNL     1      14.583  30.576  -4.139  1.00  0.00     0.109 A 
HETATM    8  S1  UNL     1      14.776  29.664  -0.222  1.00  0.00    -0.113 SA
HETATM    9  C12 UNL     1      16.413  30.411  -0.125  1.00  0.00     0.061 C 
HETATM   10  C13 UNL     1      16.444  31.214   1.166  1.00  0.00     0.032 C 
HETATM   11  C14 UNL     1      17.421  29.280  -0.087  1.00  0.00     0.032 C 
HETATM   12  C15 UNL     1      16.614  31.371  -1.237  1.00  0.00     0.195 C 
HETATM   13  C16 UNL     1      18.012  31.936  -1.107  1.00  0.00     0.079 C 
HETATM   14  F4  UNL     1      15.759  32.431  -1.072  1.00  0.00    -0.217 F 
ENDROOT
BRANCH   1  15
HETATM   15  C3  UNL     1      17.449  30.443  -3.497  1.00  0.00    -0.011 C 
HETATM   16  C4  UNL     1      18.125  29.119  -3.471  1.00  0.00     0.063 C 
BRANCH  15  17
HETATM   17  C2  UNL     1      18.153  31.541  -4.203  1.00  0.00     0.048 C 
HETATM   18  C1  UNL     1      19.035  30.999  -5.358  1.00  0.00     0.011 C 
ENDBRANCH  15  17
ENDBRANCH   1  15
BRANCH   7  19
HETATM   19  O1  UNL     1      15.434  31.096  -5.085  1.00  0.00    -0.358 OA
ATOM     20  H1  UNL     1      15.424  32.035  -5.230  1.00  0.00     0.217 HD
ENDBRANCH   7  19
BRANCH   6  21
HETATM   21  C10 UNL     1      12.812  30.449  -5.834  1.00  0.00     0.420 C 
HETATM   22  F1  UNL     1      13.272  31.587  -6.436  1.00  0.00    -0.166 F 
HETATM   23  F2  UNL     1      11.412  30.499  -5.787  1.00  0.00    -0.166 F 
HETATM   24  F3  UNL     1      13.087  29.316  -6.614  1.00  0.00    -0.166 F 
ENDBRANCH   6  21
TORSDOF 4
ENDMDL
MODEL 5
REMARK VINA RESULT: -7.059394893      3.233      4.976
REMARK  4 active torsions:
REMARK  status: ('A' for Active; 'I' for Inactive)
REMARK    1  A    between atoms: C2_2  and  C3_3 
REMARK    2  A    between atoms: C3_3  and  N1_5 
REMARK    3  A    between atoms: C9_10  and  C10_11 
REMARK    4  A    between atoms: C11_15  and  O1_16 
ROOT
HETATM    1  N1  UNL     1      15.683  31.153  -1.278  1.00  0.00    -0.313 N 
HETATM    2  C5  UNL     1      14.595  30.606  -2.002  1.00  0.00     0.088 A 
HETATM    3  C6  UNL     1      14.482  30.767  -3.383  1.00  0.00     0.031 A 
HETATM    4  C7  UNL     1      13.420  30.258  -4.102  1.00  0.00     0.022 A 
HETATM    5  C8  UNL     1      12.453  29.570  -3.400  1.00  0.00     0.020 A 
HETATM    6  C9  UNL     1      12.533  29.387  -2.015  1.00  0.00     0.083 A 
HETATM    7  C11 UNL     1      13.611  29.912  -1.336  1.00  0.00     0.109 A 
HETATM    8  S1  UNL     1      15.743  31.634  -4.284  1.00  0.00    -0.113 SA
HETATM    9  C12 UNL     1      17.083  31.967  -3.127  1.00  0.00     0.061 C 
HETATM   10  C13 UNL     1      18.375  31.633  -3.856  1.00  0.00     0.032 C 
HETATM   11  C14 UNL     1      17.021  33.440  -2.778  1.00  0.00     0.032 C 
HETATM   12  C15 UNL     1      16.999  31.058  -1.959  1.00  0.00     0.195 C 
HETATM   13  C16 UNL     1      18.134  31.411  -1.021  1.00  0.00     0.079 C 
HETATM   14  F4  UNL     1      17.235  29.773  -2.374  1.00  0.00    -0.217 F 
ENDROOT
BRANCH   1  15
HETATM   15  C3  UNL     1      15.471  31.754   0.004  1.00  0.00    -0.011 C 
HETATM   16  C4  UNL     1      14.860  33.106   0.101  1.00  0.00     0.063 C 
BRANCH  15  17
HETATM   17  C2  UNL     1      16.208  31.264   1.193  1.00  0.00     0.048 C 
HETATM   18  C1  UNL     1      15.818  32.055   2.469  1.00  0.00     0.011 C 
ENDBRANCH  15  17
ENDBRANCH   1  15
BRANCH   7  19
HETATM   19  O1  UNL     1      13.737  29.754   0.025  1.00  0.00    -0.358 OA
ATOM     20  H1  UNL     1      13.859  28.875   0.365  1.00  0.00     0.217 HD
ENDBRANCH   7  19
BRANCH   6  21
HETATM   21  C10 UNL     1      11.508  28.647  -1.266  1.00  0.00     0.420 C 
HETATM   22  F1  UNL     1      11.956  27.519  -0.636  1.00  0.00    -0.166 F 
HETATM   23  F2  UNL     1      10.508  28.286  -2.180  1.00  0.00    -0.166 F 
HETATM   24  F3  UNL     1      10.856  29.505  -0.367  1.00  0.00    -0.166 F 
ENDBRANCH   6  21
TORSDOF 4
ENDMDL
