MODEL 1
REMARK VINA RESULT: -10.049311079      0.000      0.000
REMARK  3 active torsions:
REMARK  status: ('A' for Active; 'I' for Inactive)
REMARK    1  A    between atoms: C2_3  and  N2_4 
REMARK       I    between atoms: N3_6  and  C3_8 
REMARK    2  A    between atoms: C8_17  and  C9_18 
REMARK    3  A    between atoms: C12_21  and  C13_22 
ROOT
HETATM    1  N1  UNL     1      16.280  26.237  -0.082  1.00  0.00    -0.099 NA
HETATM    2  C1  UNL     1      17.373  25.966   0.767  1.00  0.00     0.087 A 
HETATM    3  C2  UNL     1      17.394  24.725   1.389  1.00  0.00     0.073 A 
HETATM    4  C4  UNL     1      18.419  24.464   2.312  1.00  0.00     0.035 A 
HETATM    5  C5  UNL     1      19.386  25.403   2.601  1.00  0.00     0.033 A 
HETATM    6  C6  UNL     1      19.351  26.620   1.972  1.00  0.00     0.045 A 
HETATM    7  N4  UNL     1      20.154  27.712   2.066  1.00  0.00    -0.364 N 
ATOM      8  H4  UNL     1      20.975  27.786   2.667  1.00  0.00     0.165 HD
HETATM    9  C7  UNL     1      19.719  28.652   1.273  1.00  0.00     0.101 A 
HETATM   10  C8  UNL     1      18.583  28.163   0.614  1.00  0.00     0.004 A 
HETATM   11  C16 UNL     1      18.334  26.900   1.044  1.00  0.00     0.029 A 
ENDROOT
BRANCH  10  12
HETATM   12  C9  UNL     1      17.911  28.874  -0.475  1.00  0.00    -0.024 A 
HETATM   13  C10 UNL     1      16.721  29.522  -0.197  1.00  0.00     0.013 A 
HETATM   14  C11 UNL     1      16.027  30.122  -1.231  1.00  0.00     0.017 A 
HETATM   15  C12 UNL     1      16.506  30.077  -2.522  1.00  0.00     0.048 A 
HETATM   16  C14 UNL     1      17.687  29.443  -2.804  1.00  0.00     0.017 A 
HETATM   17  C15 UNL     1      18.370  28.844  -1.739  1.00  0.00     0.013 A 
BRANCH  15  18
HETATM   18  C13 UNL     1      15.676  30.670  -3.597  1.00  0.00     0.417 C 
HETATM   19  F2  UNL     1      16.298  30.450  -4.818  1.00  0.00    -0.166 F 
HETATM   20  F3  UNL     1      14.425  30.027  -3.656  1.00  0.00    -0.166 F 
HETATM   21  F4  UNL     1      15.439  32.003  -3.435  1.00  0.00    -0.166 F 
ENDBRANCH  15  18
ENDBRANCH  10  12
BRANCH   3  22
HETATM   22  N2  UNL     1      16.423  23.756   1.082  1.00  0.00    -0.294 N 
HETATM   23  N3  UNL     1      15.528  23.424   1.874  1.00  0.00    -0.241 N 
HETATM   24  C3  UNL     1      15.311  23.922   3.161  1.00  0.00     0.417 C 
ATOM     25  H3  UNL     1      14.879  22.706   1.549  1.00  0.00     0.192 HD
HETATM   26  O1  UNL     1      15.036  25.113   3.431  1.00  0.00    -0.232 OA
HETATM   27  F1  UNL     1      15.381  23.100   4.271  1.00  0.00    -0.141 F 
ATOM     28  H2  UNL     1      16.455  23.306   0.167  1.00  0.00     0.187 HD
ENDBRANCH   3  22
TORSDOF 3
ENDMDL
MODEL 2
REMARK VINA RESULT: -9.553416952      3.824      7.517
REMARK  3 active torsions:
REMARK  status: ('A' for Active; 'I' for Inactive)
REMARK    1  A    between atoms: C2_3  and  N2_4 
REMARK       I    between atoms: N3_6  and  C3_8 
REMARK    2  A    between atoms: C8_17  and  C9_18 
REMARK    3  A    between atoms: C12_21  and  C13_22 
ROOT
HETATM    1  N1  UNL     1      17.161  30.847   1.077  1.00  0.00    -0.099 NA
HETATM    2  C1  UNL     1      17.552  31.393  -0.163  1.00  0.00     0.087 A 
HETATM    3  C2  UNL     1      17.534  32.777  -0.275  1.00  0.00     0.073 A 
HETATM    4  C4  UNL     1      17.828  33.344  -1.525  1.00  0.00     0.035 A 
HETATM    5  C5  UNL     1      18.129  32.562  -2.619  1.00  0.00     0.033 A 
HETATM    6  C6  UNL     1      18.147  31.198  -2.487  1.00  0.00     0.045 A 
HETATM    7  N4  UNL     1      18.399  30.204  -3.378  1.00  0.00    -0.364 N 
ATOM      8  H4  UNL     1      18.640  30.344  -4.359  1.00  0.00     0.165 HD
HETATM    9  C7  UNL     1      18.288  29.044  -2.792  1.00  0.00     0.101 A 
HETATM   10  C8  UNL     1      17.958  29.273  -1.449  1.00  0.00     0.004 A 
HETATM   11  C16 UNL     1      17.858  30.611  -1.244  1.00  0.00     0.029 A 
ENDROOT
BRANCH  10  12
HETATM   12  C9  UNL     1      17.907  28.217  -0.437  1.00  0.00    -0.024 A 
HETATM   13  C10 UNL     1      19.033  27.995   0.334  1.00  0.00     0.013 A 
HETATM   14  C11 UNL     1      19.034  26.944   1.232  1.00  0.00     0.017 A 
HETATM   15  C12 UNL     1      17.934  26.125   1.361  1.00  0.00     0.048 A 
HETATM   16  C14 UNL     1      16.812  26.344   0.606  1.00  0.00     0.017 A 
HETATM   17  C15 UNL     1      16.837  27.414  -0.295  1.00  0.00     0.013 A 
BRANCH  15  18
HETATM   18  C13 UNL     1      18.026  24.969   2.283  1.00  0.00     0.417 C 
HETATM   19  F2  UNL     1      19.295  24.940   2.843  1.00  0.00    -0.166 F 
HETATM   20  F3  UNL     1      17.115  25.121   3.346  1.00  0.00    -0.166 F 
HETATM   21  F4  UNL     1      17.758  23.770   1.690  1.00  0.00    -0.166 F 
ENDBRANCH  15  18
ENDBRANCH  10  12
BRANCH   3  22
HETATM   22  N2  UNL     1      17.249  33.580   0.843  1.00  0.00    -0.294 N 
HETATM   23  N3  UNL     1      16.117  34.028   1.080  1.00  0.00    -0.241 N 
HETATM   24  C3  UNL     1      14.957  33.833   0.327  1.00  0.00     0.417 C 
ATOM     25  H3  UNL     1      16.024  34.605   1.917  1.00  0.00     0.192 HD
HETATM   26  O1  UNL     1      14.416  32.722   0.119  1.00  0.00    -0.232 OA
HETATM   27  F1  UNL     1      14.293  34.895  -0.259  1.00  0.00    -0.141 F 
ATOM     28  H2  UNL     1      18.006  33.804   1.489  1.00  0.00     0.187 HD
ENDBRANCH   3  22
TORSDOF 3
ENDMDL
MODEL 3
REMARK VINA RESULT: -9.285627828      4.194      7.837
REMARK  3 active torsions:
REMARK  status: ('A' for Active; 'I' for Inactive)
REMARK    1  A    between atoms: C2_3  and  N2_4 
REMARK       I    between atoms: N3_6  and  C3_8 
REMARK    2  A    between atoms: C8_17  and  C9_18 
REMARK    3  A    between atoms: C12_21  and  C13_22 
ROOT
HETATM    1  N1  UNL     1      18.764  30.525  -1.884  1.00  0.00    -0.099 NA
HETATM    2  C1  UNL     1      17.436  30.665  -2.337  1.00  0.00     0.087 A 
HETATM    3  C2  UNL     1      17.220  31.547  -3.388  1.00  0.00     0.073 A 
HETATM    4  C4  UNL     1      15.897  31.777  -3.797  1.00  0.00     0.035 A 
HETATM    5  C5  UNL     1      14.833  31.152  -3.184  1.00  0.00     0.033 A 
HETATM    6  C6  UNL     1      15.068  30.281  -2.152  1.00  0.00     0.045 A 
HETATM    7  N4  UNL     1      14.228  29.544  -1.378  1.00  0.00    -0.364 N 
ATOM      8  H4  UNL     1      13.212  29.528  -1.467  1.00  0.00     0.165 HD
HETATM    9  C7  UNL     1      14.915  28.861  -0.504  1.00  0.00     0.101 A 
HETATM   10  C8  UNL     1      16.272  29.145  -0.711  1.00  0.00     0.004 A 
HETATM   11  C16 UNL     1      16.385  30.035  -1.729  1.00  0.00     0.029 A 
ENDROOT
BRANCH  10  12
HETATM   12  C9  UNL     1      17.358  28.443  -0.026  1.00  0.00    -0.024 A 
HETATM   13  C10 UNL     1      17.282  27.066   0.082  1.00  0.00     0.013 A 
HETATM   14  C11 UNL     1      18.254  26.396   0.803  1.00  0.00     0.017 A 
HETATM   15  C12 UNL     1      19.283  27.083   1.409  1.00  0.00     0.048 A 
HETATM   16  C14 UNL     1      19.368  28.446   1.299  1.00  0.00     0.017 A 
HETATM   17  C15 UNL     1      18.373  29.099   0.564  1.00  0.00     0.013 A 
BRANCH  15  18
HETATM   18  C13 UNL     1      20.246  26.316   2.232  1.00  0.00     0.417 C 
HETATM   19  F2  UNL     1      21.341  25.980   1.448  1.00  0.00    -0.166 F 
HETATM   20  F3  UNL     1      20.730  27.115   3.285  1.00  0.00    -0.166 F 
HETATM   21  F4  UNL     1      19.717  25.188   2.789  1.00  0.00    -0.166 F 
ENDBRANCH  15  18
ENDBRANCH  10  12
BRANCH   3  22
HETATM   22  N2  UNL     1      18.303  32.171  -4.031  1.00  0.00    -0.294 N 
HETATM   23  N3  UNL     1      18.985  31.609  -4.901  1.00  0.00    -0.241 N 
HETATM   24  C3  UNL     1      18.821  30.314  -5.398  1.00  0.00     0.417 C 
ATOM     25  H3  UNL     1      19.751  32.154  -5.298  1.00  0.00     0.192 HD
HETATM   26  O1  UNL     1      17.804  29.901  -6.002  1.00  0.00    -0.232 OA
HETATM   27  F1  UNL     1      19.812  29.360  -5.257  1.00  0.00    -0.141 F 
ATOM     28  H2  UNL     1      18.539  33.129  -3.771  1.00  0.00     0.187 HD
ENDBRANCH   3  22
TORSDOF 3
ENDMDL
MODEL 4
REMARK VINA RESULT: -9.169374500      3.363      6.843
REMARK  3 active torsions:
REMARK  status: ('A' for Active; 'I' for Inactive)
REMARK    1  A    between atoms: C2_3  and  N2_4 
REMARK       I    between atoms: N3_6  and  C3_8 
REMARK    2  A    between atoms: C8_17  and  C9_18 
REMARK    3  A    between atoms: C12_21  and  C13_22 
ROOT
HETATM    1  N1  UNL     1      14.590  26.741  -0.115  1.00  0.00    -0.099 NA
HETATM    2  C1  UNL     1      15.440  27.867  -0.121  1.00  0.00     0.087 A 
HETATM    3  C2  UNL     1      14.896  29.064  -0.567  1.00  0.00     0.073 A 
HETATM    4  C4  UNL     1      15.744  30.178  -0.672  1.00  0.00     0.035 A 
HETATM    5  C5  UNL     1      17.080  30.101  -0.344  1.00  0.00     0.033 A 
HETATM    6  C6  UNL     1      17.597  28.911   0.101  1.00  0.00     0.045 A 
HETATM    7  N4  UNL     1      18.851  28.553   0.482  1.00  0.00    -0.364 N 
ATOM      8  H4  UNL     1      19.658  29.176   0.499  1.00  0.00     0.165 HD
HETATM    9  C7  UNL     1      18.868  27.294   0.822  1.00  0.00     0.101 A 
HETATM   10  C8  UNL     1      17.569  26.792   0.672  1.00  0.00     0.004 A 
HETATM   11  C16 UNL     1      16.764  27.786   0.215  1.00  0.00     0.029 A 
ENDROOT
BRANCH  10  12
HETATM   12  C9  UNL     1      17.162  25.456   1.110  1.00  0.00    -0.024 A 
HETATM   13  C10 UNL     1      16.757  25.293   2.422  1.00  0.00     0.013 A 
HETATM   14  C11 UNL     1      16.454  24.023   2.877  1.00  0.00     0.017 A 
HETATM   15  C12 UNL     1      16.556  22.931   2.042  1.00  0.00     0.048 A 
HETATM   16  C14 UNL     1      16.950  23.087   0.739  1.00  0.00     0.017 A 
HETATM   17  C15 UNL     1      17.249  24.383   0.304  1.00  0.00     0.013 A 
BRANCH  15  18
HETATM   18  C13 UNL     1      16.295  21.589   2.611  1.00  0.00     0.417 C 
HETATM   19  F2  UNL     1      15.261  20.993   1.904  1.00  0.00    -0.166 F 
HETATM   20  F3  UNL     1      17.425  20.765   2.451  1.00  0.00    -0.166 F 
HETATM   21  F4  UNL     1      15.992  21.605   3.941  1.00  0.00    -0.166 F 
ENDBRANCH  15  18
ENDBRANCH  10  12
BRANCH   3  22
HETATM   22  N2  UNL     1      13.529  29.153  -0.884  1.00  0.00    -0.294 N 
HETATM   23  N3  UNL     1      12.669  29.499  -0.061  1.00  0.00    -0.241 N 
HETATM   24  C3  UNL     1      12.871  29.858   1.273  1.00  0.00     0.417 C 
ATOM     25  H3  UNL     1      11.705  29.524  -0.397  1.00  0.00     0.192 HD
HETATM   26  O1  UNL     1      13.556  30.834   1.657  1.00  0.00    -0.232 OA
HETATM   27  F1  UNL     1      12.302  29.136   2.306  1.00  0.00    -0.141 F 
ATOM     28  H2  UNL     1      13.232  28.922  -1.832  1.00  0.00     0.187 HD
ENDBRANCH   3  22
TORSDOF 3
ENDMDL
MODEL 5
REMARK VINA RESULT: -9.165502755      3.957      7.188
REMARK  3 active torsions:
REMARK  status: ('A' for Active; 'I' for Inactive)
REMARK    1  A    between atoms: C2_3  and  N2_4 
REMARK       I    between atoms: N3_6  and  C3_8 
REMARK    2  A    between atoms: C8_17  and  C9_18 
REMARK    3  A    between atoms: C12_21  and  C13_22 
ROOT
HETATM    1  N1  UNL     1      15.127  29.736   0.406  1.00  0.00    -0.099 NA
HETATM    2  C1  UNL     1      15.625  30.496  -0.673  1.00  0.00     0.087 A 
HETATM    3  C2  UNL     1      14.972  31.688  -0.958  1.00  0.00     0.073 A 
HETATM    4  C4  UNL     1      15.386  32.417  -2.084  1.00  0.00     0.035 A 
HETATM    5  C5  UNL     1      16.411  31.975  -2.892  1.00  0.00     0.033 A 
HETATM    6  C6  UNL     1      17.046  30.799  -2.592  1.00  0.00     0.045 A 
HETATM    7  N4  UNL     1      18.063  30.136  -3.203  1.00  0.00    -0.364 N 
ATOM      8  H4  UNL     1      18.545  30.450  -4.044  1.00  0.00     0.165 HD
HETATM    9  C7  UNL     1      18.329  29.036  -2.552  1.00  0.00     0.101 A 
HETATM   10  C8  UNL     1      17.461  28.968  -1.454  1.00  0.00     0.004 A 
HETATM   11  C16 UNL     1      16.648  30.056  -1.468  1.00  0.00     0.029 A 
ENDROOT
BRANCH  10  12
HETATM   12  C9  UNL     1      17.567  27.957  -0.401  1.00  0.00    -0.024 A 
HETATM   13  C10 UNL     1      18.671  27.992   0.431  1.00  0.00     0.013 A 
HETATM   14  C11 UNL     1      18.832  26.992   1.373  1.00  0.00     0.017 A 
HETATM   15  C12 UNL     1      17.912  25.973   1.484  1.00  0.00     0.048 A 
HETATM   16  C14 UNL     1      16.812  25.936   0.668  1.00  0.00     0.017 A 
HETATM   17  C15 UNL     1      16.673  26.960  -0.275  1.00  0.00     0.013 A 
BRANCH  15  18
HETATM   18  C13 UNL     1      18.183  24.890   2.458  1.00  0.00     0.417 C 
HETATM   19  F2  UNL     1      19.511  24.961   2.852  1.00  0.00    -0.166 F 
HETATM   20  F3  UNL     1      17.404  25.073   3.617  1.00  0.00    -0.166 F 
HETATM   21  F4  UNL     1      17.911  23.642   1.981  1.00  0.00    -0.166 F 
ENDBRANCH  15  18
ENDBRANCH  10  12
BRANCH   3  22
HETATM   22  N2  UNL     1      13.940  32.153  -0.124  1.00  0.00    -0.294 N 
HETATM   23  N3  UNL     1      14.152  32.734   0.950  1.00  0.00    -0.241 N 
HETATM   24  C3  UNL     1      15.393  33.035   1.518  1.00  0.00     0.417 C 
ATOM     25  H3  UNL     1      13.329  33.025   1.479  1.00  0.00     0.192 HD
HETATM   26  O1  UNL     1      16.254  33.783   1.003  1.00  0.00    -0.232 OA
HETATM   27  F1  UNL     1      15.769  32.510   2.741  1.00  0.00    -0.141 F 
ATOM     28  H2  UNL     1      12.974  32.006  -0.416  1.00  0.00     0.187 HD
ENDBRANCH   3  22
TORSDOF 3
ENDMDL
