MODEL 1
REMARK VINA RESULT: -6.903921186      0.000      0.000
REMARK  11 active torsions:
REMARK  status: ('A' for Active; 'I' for Inactive)
REMARK    1  A    between atoms: C2_2  and  C3_3 
REMARK    2  A    between atoms: C3_3  and  C4_4 
REMARK    3  A    between atoms: C4_4  and  N1_5 
REMARK    4  A    between atoms: N2_7  and  C5_9 
REMARK    5  A    between atoms: C5_9  and  C7_11 
REMARK    6  A    between atoms: C7_11  and  C8_12 
REMARK    7  A    between atoms: C9_13  and  C10_14 
REMARK    8  A    between atoms: C10_14  and  C11_15 
REMARK    9  A    between atoms: C11_15  and  C12_16 
REMARK   10  A    between atoms: C12_16  and  C13_17 
REMARK   11  A    between atoms: C14_18  and  O1_19 
ROOT
HETATM    1  C5  UNL     1     -17.587  -6.977 159.491  1.00  0.00     0.098 C 
HETATM    2  C6  UNL     1     -17.264  -6.619 160.926  1.00  0.00     0.034 C 
ENDROOT
BRANCH   1   3
HETATM    3  N2  UNL     1     -18.866  -6.365 159.195  1.00  0.00    -0.336 N 
HETATM    4  N1  UNL     1     -19.575  -5.871 160.089  1.00  0.00    -0.340 N 
ATOM      5  H1  UNL     1     -19.282  -5.880 161.066  1.00  0.00     0.179 HD
ATOM      6  H2  UNL     1     -19.193  -6.337 158.228  1.00  0.00     0.180 HD
BRANCH   4   7
HETATM    7  C4  UNL     1     -20.825  -5.289 159.687  1.00  0.00     0.142 C 
BRANCH   7   8
HETATM    8  C3  UNL     1     -20.847  -3.812 160.024  1.00  0.00     0.047 C 
BRANCH   8   9
HETATM    9  C2  UNL     1     -19.911  -3.511 161.124  1.00  0.00    -0.035 C 
HETATM   10  C1  UNL     1     -19.526  -2.263 161.320  1.00  0.00     0.007 C 
ENDBRANCH   8   9
ENDBRANCH   7   8
ENDBRANCH   4   7
ENDBRANCH   1   3
BRANCH   1  11
HETATM   11  C7  UNL     1     -17.799  -8.466 159.318  1.00  0.00     0.053 C 
BRANCH  11  12
HETATM   12  C8  UNL     1     -16.598  -9.177 158.881  1.00  0.00    -0.029 C 
HETATM   13  C9  UNL     1     -16.237  -9.222 157.627  1.00  0.00    -0.031 C 
BRANCH  13  14
HETATM   14  C10 UNL     1     -16.942  -8.594 156.490  1.00  0.00     0.027 C 
BRANCH  14  15
HETATM   15  C11 UNL     1     -16.380  -9.171 155.221  1.00  0.00     0.007 C 
BRANCH  15  16
HETATM   16  C12 UNL     1     -15.890 -10.567 155.302  1.00  0.00     0.029 C 
BRANCH  16  17
HETATM   17  C13 UNL     1     -16.137 -11.502 154.236  1.00  0.00    -0.003 C 
HETATM   18  C14 UNL     1     -17.231 -12.100 153.892  1.00  0.00     0.130 C 
BRANCH  18  19
HETATM   19  O1  UNL     1     -18.427 -11.950 154.498  1.00  0.00    -0.368 OA
HETATM   20  C15 UNL     1     -19.612 -12.656 154.197  1.00  0.00     0.208 C 
ENDBRANCH  18  19
ENDBRANCH  16  17
ENDBRANCH  15  16
ENDBRANCH  14  15
ENDBRANCH  13  14
ENDBRANCH  11  12
ENDBRANCH   1  11
TORSDOF 11
ENDMDL
MODEL 2
REMARK VINA RESULT: -6.862610113      3.804      8.554
REMARK  11 active torsions:
REMARK  status: ('A' for Active; 'I' for Inactive)
REMARK    1  A    between atoms: C2_2  and  C3_3 
REMARK    2  A    between atoms: C3_3  and  C4_4 
REMARK    3  A    between atoms: C4_4  and  N1_5 
REMARK    4  A    between atoms: N2_7  and  C5_9 
REMARK    5  A    between atoms: C5_9  and  C7_11 
REMARK    6  A    between atoms: C7_11  and  C8_12 
REMARK    7  A    between atoms: C9_13  and  C10_14 
REMARK    8  A    between atoms: C10_14  and  C11_15 
REMARK    9  A    between atoms: C11_15  and  C12_16 
REMARK   10  A    between atoms: C12_16  and  C13_17 
REMARK   11  A    between atoms: C14_18  and  O1_19 
ROOT
HETATM    1  C5  UNL     1     -15.979 -10.910 154.500  1.00  0.00     0.098 C 
HETATM    2  C6  UNL     1     -16.543  -9.798 153.641  1.00  0.00     0.034 C 
ENDROOT
BRANCH   1   3
HETATM    3  N2  UNL     1     -17.008 -11.925 154.583  1.00  0.00    -0.336 N 
HETATM    4  N1  UNL     1     -18.193 -11.677 154.295  1.00  0.00    -0.340 N 
ATOM      5  H1  UNL     1     -18.483 -10.749 153.989  1.00  0.00     0.179 HD
ATOM      6  H2  UNL     1     -16.756 -12.866 154.886  1.00  0.00     0.180 HD
BRANCH   4   7
HETATM    7  C4  UNL     1     -19.134 -12.757 154.412  1.00  0.00     0.142 C 
BRANCH   7   8
HETATM    8  C3  UNL     1     -18.406 -14.059 154.677  1.00  0.00     0.047 C 
BRANCH   8   9
HETATM    9  C2  UNL     1     -18.569 -14.991 153.546  1.00  0.00    -0.035 C 
HETATM   10  C1  UNL     1     -19.149 -14.564 152.438  1.00  0.00     0.007 C 
ENDBRANCH   8   9
ENDBRANCH   7   8
ENDBRANCH   4   7
ENDBRANCH   1   3
BRANCH   1  11
HETATM   11  C7  UNL     1     -15.740 -10.454 155.923  1.00  0.00     0.053 C 
BRANCH  11  12
HETATM   12  C8  UNL     1     -16.265  -9.118 156.202  1.00  0.00    -0.029 C 
HETATM   13  C9  UNL     1     -16.526  -8.716 157.416  1.00  0.00    -0.031 C 
BRANCH  13  14
HETATM   14  C10 UNL     1     -16.346  -9.500 158.656  1.00  0.00     0.027 C 
BRANCH  14  15
HETATM   15  C11 UNL     1     -16.888  -8.690 159.799  1.00  0.00     0.007 C 
BRANCH  15  16
HETATM   16  C12 UNL     1     -18.302  -8.263 159.682  1.00  0.00     0.029 C 
BRANCH  16  17
HETATM   17  C13 UNL     1     -18.663  -6.871 159.736  1.00  0.00    -0.003 C 
HETATM   18  C14 UNL     1     -18.672  -6.053 160.738  1.00  0.00     0.130 C 
BRANCH  18  19
HETATM   19  O1  UNL     1     -18.316  -6.362 162.001  1.00  0.00    -0.368 OA
HETATM   20  C15 UNL     1     -17.117  -5.989 162.648  1.00  0.00     0.208 C 
ENDBRANCH  18  19
ENDBRANCH  16  17
ENDBRANCH  15  16
ENDBRANCH  14  15
ENDBRANCH  13  14
ENDBRANCH  11  12
ENDBRANCH   1  11
TORSDOF 11
ENDMDL
MODEL 3
REMARK VINA RESULT: -6.818456099      1.813      2.386
REMARK  11 active torsions:
REMARK  status: ('A' for Active; 'I' for Inactive)
REMARK    1  A    between atoms: C2_2  and  C3_3 
REMARK    2  A    between atoms: C3_3  and  C4_4 
REMARK    3  A    between atoms: C4_4  and  N1_5 
REMARK    4  A    between atoms: N2_7  and  C5_9 
REMARK    5  A    between atoms: C5_9  and  C7_11 
REMARK    6  A    between atoms: C7_11  and  C8_12 
REMARK    7  A    between atoms: C9_13  and  C10_14 
REMARK    8  A    between atoms: C10_14  and  C11_15 
REMARK    9  A    between atoms: C11_15  and  C12_16 
REMARK   10  A    between atoms: C12_16  and  C13_17 
REMARK   11  A    between atoms: C14_18  and  O1_19 
ROOT
HETATM    1  C5  UNL     1     -18.520  -7.012 159.404  1.00  0.00     0.098 C 
HETATM    2  C6  UNL     1     -19.729  -6.740 158.536  1.00  0.00     0.034 C 
ENDROOT
BRANCH   1   3
HETATM    3  N2  UNL     1     -18.483  -5.956 160.395  1.00  0.00    -0.336 N 
HETATM    4  N1  UNL     1     -17.410  -5.444 160.762  1.00  0.00    -0.340 N 
ATOM      5  H1  UNL     1     -16.516  -5.749 160.379  1.00  0.00     0.179 HD
ATOM      6  H2  UNL     1     -19.358  -5.624 160.802  1.00  0.00     0.180 HD
BRANCH   4   7
HETATM    7  C4  UNL     1     -17.486  -4.404 161.751  1.00  0.00     0.142 C 
BRANCH   7   8
HETATM    8  C3  UNL     1     -17.810  -4.995 163.108  1.00  0.00     0.047 C 
BRANCH   8   9
HETATM    9  C2  UNL     1     -18.325  -3.958 164.022  1.00  0.00    -0.035 C 
HETATM   10  C1  UNL     1     -17.473  -3.255 164.746  1.00  0.00     0.007 C 
ENDBRANCH   8   9
ENDBRANCH   7   8
ENDBRANCH   4   7
ENDBRANCH   1   3
BRANCH   1  11
HETATM   11  C7  UNL     1     -17.228  -6.885 158.625  1.00  0.00     0.053 C 
BRANCH  11  12
HETATM   12  C8  UNL     1     -17.385  -7.139 157.194  1.00  0.00    -0.029 C 
HETATM   13  C9  UNL     1     -16.932  -8.226 156.630  1.00  0.00    -0.031 C 
BRANCH  13  14
HETATM   14  C10 UNL     1     -16.220  -9.331 157.305  1.00  0.00     0.027 C 
BRANCH  14  15
HETATM   15  C11 UNL     1     -15.533 -10.152 156.250  1.00  0.00     0.007 C 
BRANCH  15  16
HETATM   16  C12 UNL     1     -16.147 -10.124 154.902  1.00  0.00     0.029 C 
BRANCH  16  17
HETATM   17  C13 UNL     1     -16.253 -11.321 154.110  1.00  0.00    -0.003 C 
HETATM   18  C14 UNL     1     -17.259 -12.116 153.936  1.00  0.00     0.130 C 
BRANCH  18  19
HETATM   19  O1  UNL     1     -18.478 -11.965 154.491  1.00  0.00    -0.368 OA
HETATM   20  C15 UNL     1     -19.650 -12.671 154.141  1.00  0.00     0.208 C 
ENDBRANCH  18  19
ENDBRANCH  16  17
ENDBRANCH  15  16
ENDBRANCH  14  15
ENDBRANCH  13  14
ENDBRANCH  11  12
ENDBRANCH   1  11
TORSDOF 11
ENDMDL
MODEL 4
REMARK VINA RESULT: -6.793278878      1.278      1.913
REMARK  11 active torsions:
REMARK  status: ('A' for Active; 'I' for Inactive)
REMARK    1  A    between atoms: C2_2  and  C3_3 
REMARK    2  A    between atoms: C3_3  and  C4_4 
REMARK    3  A    between atoms: C4_4  and  N1_5 
REMARK    4  A    between atoms: N2_7  and  C5_9 
REMARK    5  A    between atoms: C5_9  and  C7_11 
REMARK    6  A    between atoms: C7_11  and  C8_12 
REMARK    7  A    between atoms: C9_13  and  C10_14 
REMARK    8  A    between atoms: C10_14  and  C11_15 
REMARK    9  A    between atoms: C11_15  and  C12_16 
REMARK   10  A    between atoms: C12_16  and  C13_17 
REMARK   11  A    between atoms: C14_18  and  O1_19 
ROOT
HETATM    1  C5  UNL     1     -18.509  -7.003 159.408  1.00  0.00     0.098 C 
HETATM    2  C6  UNL     1     -19.729  -6.717 158.558  1.00  0.00     0.034 C 
ENDROOT
BRANCH   1   3
HETATM    3  N2  UNL     1     -18.445  -5.949 160.399  1.00  0.00    -0.336 N 
HETATM    4  N1  UNL     1     -17.361  -5.445 160.745  1.00  0.00    -0.340 N 
ATOM      5  H1  UNL     1     -16.477  -5.756 160.343  1.00  0.00     0.179 HD
ATOM      6  H2  UNL     1     -19.309  -5.611 160.823  1.00  0.00     0.180 HD
BRANCH   4   7
HETATM    7  C4  UNL     1     -17.410  -4.405 161.735  1.00  0.00     0.142 C 
BRANCH   7   8
HETATM    8  C3  UNL     1     -18.779  -3.755 161.744  1.00  0.00     0.047 C 
BRANCH   8   9
HETATM    9  C2  UNL     1     -18.665  -2.291 161.606  1.00  0.00    -0.035 C 
HETATM   10  C1  UNL     1     -19.712  -1.599 161.192  1.00  0.00     0.007 C 
ENDBRANCH   8   9
ENDBRANCH   7   8
ENDBRANCH   4   7
ENDBRANCH   1   3
BRANCH   1  11
HETATM   11  C7  UNL     1     -17.229  -6.890 158.609  1.00  0.00     0.053 C 
BRANCH  11  12
HETATM   12  C8  UNL     1     -17.410  -7.144 157.180  1.00  0.00    -0.029 C 
HETATM   13  C9  UNL     1     -16.954  -8.224 156.605  1.00  0.00    -0.031 C 
BRANCH  13  14
HETATM   14  C10 UNL     1     -16.214  -9.320 157.264  1.00  0.00     0.027 C 
BRANCH  14  15
HETATM   15  C11 UNL     1     -15.535 -10.128 156.194  1.00  0.00     0.007 C 
BRANCH  15  16
HETATM   16  C12 UNL     1     -16.183 -10.120 154.862  1.00  0.00     0.029 C 
BRANCH  16  17
HETATM   17  C13 UNL     1     -16.269 -11.320 154.071  1.00  0.00    -0.003 C 
HETATM   18  C14 UNL     1     -17.249 -12.153 153.930  1.00  0.00     0.130 C 
BRANCH  18  19
HETATM   19  O1  UNL     1     -18.454 -12.049 154.526  1.00  0.00    -0.368 OA
HETATM   20  C15 UNL     1     -19.650 -12.674 154.109  1.00  0.00     0.208 C 
ENDBRANCH  18  19
ENDBRANCH  16  17
ENDBRANCH  15  16
ENDBRANCH  14  15
ENDBRANCH  13  14
ENDBRANCH  11  12
ENDBRANCH   1  11
TORSDOF 11
ENDMDL
MODEL 5
REMARK VINA RESULT: -6.775833942      1.535      2.020
REMARK  11 active torsions:
REMARK  status: ('A' for Active; 'I' for Inactive)
REMARK    1  A    between atoms: C2_2  and  C3_3 
REMARK    2  A    between atoms: C3_3  and  C4_4 
REMARK    3  A    between atoms: C4_4  and  N1_5 
REMARK    4  A    between atoms: N2_7  and  C5_9 
REMARK    5  A    between atoms: C5_9  and  C7_11 
REMARK    6  A    between atoms: C7_11  and  C8_12 
REMARK    7  A    between atoms: C9_13  and  C10_14 
REMARK    8  A    between atoms: C10_14  and  C11_15 
REMARK    9  A    between atoms: C11_15  and  C12_16 
REMARK   10  A    between atoms: C12_16  and  C13_17 
REMARK   11  A    between atoms: C14_18  and  O1_19 
ROOT
HETATM    1  C5  UNL     1     -18.515  -7.108 159.593  1.00  0.00     0.098 C 
HETATM    2  C6  UNL     1     -19.555  -6.747 158.554  1.00  0.00     0.034 C 
ENDROOT
BRANCH   1   3
HETATM    3  N2  UNL     1     -18.453  -5.993 160.514  1.00  0.00    -0.336 N 
HETATM    4  N1  UNL     1     -17.376  -5.438 160.796  1.00  0.00    -0.340 N 
ATOM      5  H1  UNL     1     -16.494  -5.750 160.387  1.00  0.00     0.179 HD
ATOM      6  H2  UNL     1     -19.315  -5.653 160.943  1.00  0.00     0.180 HD
BRANCH   4   7
HETATM    7  C4  UNL     1     -17.427  -4.341 161.721  1.00  0.00     0.142 C 
BRANCH   7   8
HETATM    8  C3  UNL     1     -17.755  -4.844 163.112  1.00  0.00     0.047 C 
BRANCH   8   9
HETATM    9  C2  UNL     1     -18.468  -3.812 163.888  1.00  0.00    -0.035 C 
HETATM   10  C1  UNL     1     -19.322  -3.016 163.270  1.00  0.00     0.007 C 
ENDBRANCH   8   9
ENDBRANCH   7   8
ENDBRANCH   4   7
ENDBRANCH   1   3
BRANCH   1  11
HETATM   11  C7  UNL     1     -17.131  -7.216 158.990  1.00  0.00     0.053 C 
BRANCH  11  12
HETATM   12  C8  UNL     1     -16.736  -8.589 158.682  1.00  0.00    -0.029 C 
HETATM   13  C9  UNL     1     -16.568  -9.003 157.455  1.00  0.00    -0.031 C 
BRANCH  13  14
HETATM   14  C10 UNL     1     -16.740  -8.198 156.228  1.00  0.00     0.027 C 
BRANCH  14  15
HETATM   15  C11 UNL     1     -16.363  -9.057 155.054  1.00  0.00     0.007 C 
BRANCH  15  16
HETATM   16  C12 UNL     1     -15.984 -10.455 155.365  1.00  0.00     0.029 C 
BRANCH  16  17
HETATM   17  C13 UNL     1     -16.128 -11.498 154.384  1.00  0.00    -0.003 C 
HETATM   18  C14 UNL     1     -17.185 -12.134 153.996  1.00  0.00     0.130 C 
BRANCH  18  19
HETATM   19  O1  UNL     1     -18.435 -11.927 154.460  1.00  0.00    -0.368 OA
HETATM   20  C15 UNL     1     -19.574 -12.711 154.173  1.00  0.00     0.208 C 
ENDBRANCH  18  19
ENDBRANCH  16  17
ENDBRANCH  15  16
ENDBRANCH  14  15
ENDBRANCH  13  14
ENDBRANCH  11  12
ENDBRANCH   1  11
TORSDOF 11
ENDMDL
