MODEL 1
REMARK VINA RESULT: -7.533141976      0.000      0.000
REMARK  11 active torsions:
REMARK  status: ('A' for Active; 'I' for Inactive)
REMARK    1  A    between atoms: C2_2  and  C3_3 
REMARK    2  A    between atoms: C3_3  and  C4_4 
REMARK    3  A    between atoms: C4_4  and  C5_5 
REMARK    4  A    between atoms: C5_5  and  C6_6 
REMARK    5  A    between atoms: C7_7  and  C8_8 
REMARK    6  A    between atoms: C8_8  and  C9_9 
REMARK    7  A    between atoms: C9_9  and  C10_10 
REMARK    8  A    between atoms: C10_10  and  C11_11 
REMARK    9  A    between atoms: C11_11  and  C12_12 
REMARK   10  A    between atoms: C12_12  and  C13_13 
REMARK   11  A    between atoms: C13_13  and  C14_14 
ROOT
HETATM    1  C10 UNL     1     -16.143  -9.443 157.401  1.00  0.00     0.000 C 
ENDROOT
BRANCH   1   2
HETATM    2  C9  UNL     1     -16.355  -8.277 156.481  1.00  0.00     0.004 C 
BRANCH   2   3
HETATM    3  C8  UNL     1     -16.388  -8.746 155.058  1.00  0.00     0.027 C 
BRANCH   3   4
HETATM    4  C7  UNL     1     -16.778 -10.191 154.966  1.00  0.00    -0.031 C 
HETATM    5  C6  UNL     1     -16.244 -10.935 154.008  1.00  0.00    -0.031 C 
BRANCH   5   6
HETATM    6  C5  UNL     1     -16.617 -12.372 153.898  1.00  0.00     0.027 C 
BRANCH   6   7
HETATM    7  C4  UNL     1     -17.877 -12.628 154.662  1.00  0.00     0.007 C 
BRANCH   7   8
HETATM    8  C3  UNL     1     -18.462 -13.965 154.276  1.00  0.00     0.026 C 
BRANCH   8   9
HETATM    9  C2  UNL     1     -18.992 -13.945 152.910  1.00  0.00    -0.037 C 
HETATM   10  C1  UNL     1     -19.949 -13.095 152.581  1.00  0.00     0.007 C 
ENDBRANCH   8   9
ENDBRANCH   7   8
ENDBRANCH   6   7
ENDBRANCH   5   6
ENDBRANCH   3   4
ENDBRANCH   2   3
ENDBRANCH   1   2
BRANCH   1  11
HETATM   11  C11 UNL     1     -16.525  -9.172 158.816  1.00  0.00     0.000 C 
BRANCH  11  12
HETATM   12  C12 UNL     1     -16.824  -7.710 159.029  1.00  0.00     0.008 C 
BRANCH  12  13
HETATM   13  C13 UNL     1     -17.692  -7.441 160.211  1.00  0.00     0.084 C 
BRANCH  13  14
HETATM   14  C14 UNL     1     -18.959  -6.729 159.789  1.00  0.00     0.113 C 
HETATM   15  N1  UNL     1     -19.521  -5.748 160.374  1.00  0.00    -0.372 N 
HETATM   16  C15 UNL     1     -20.728  -5.312 159.689  1.00  0.00     0.148 C 
ATOM     17  H1  UNL     1     -19.166  -5.317 161.228  1.00  0.00     0.161 HD
HETATM   18  C16 UNL     1     -20.524  -5.949 158.320  1.00  0.00     0.196 C 
HETATM   19  O1  UNL     1     -19.709  -7.048 158.672  1.00  0.00    -0.338 OA
ENDBRANCH  13  14
ENDBRANCH  12  13
ENDBRANCH  11  12
ENDBRANCH   1  11
TORSDOF 11
ENDMDL
MODEL 2
REMARK VINA RESULT: -7.521126275      1.249      1.953
REMARK  11 active torsions:
REMARK  status: ('A' for Active; 'I' for Inactive)
REMARK    1  A    between atoms: C2_2  and  C3_3 
REMARK    2  A    between atoms: C3_3  and  C4_4 
REMARK    3  A    between atoms: C4_4  and  C5_5 
REMARK    4  A    between atoms: C5_5  and  C6_6 
REMARK    5  A    between atoms: C7_7  and  C8_8 
REMARK    6  A    between atoms: C8_8  and  C9_9 
REMARK    7  A    between atoms: C9_9  and  C10_10 
REMARK    8  A    between atoms: C10_10  and  C11_11 
REMARK    9  A    between atoms: C11_11  and  C12_12 
REMARK   10  A    between atoms: C12_12  and  C13_13 
REMARK   11  A    between atoms: C13_13  and  C14_14 
ROOT
HETATM    1  C10 UNL     1     -16.567  -9.436 159.344  1.00  0.00     0.000 C 
ENDROOT
BRANCH   1   2
HETATM    2  C9  UNL     1     -16.192  -9.378 157.893  1.00  0.00     0.004 C 
BRANCH   2   3
HETATM    3  C8  UNL     1     -15.190 -10.446 157.579  1.00  0.00     0.027 C 
BRANCH   3   4
HETATM    4  C7  UNL     1     -15.322 -10.922 156.163  1.00  0.00    -0.031 C 
HETATM    5  C6  UNL     1     -16.102 -10.244 155.333  1.00  0.00    -0.031 C 
BRANCH   5   6
HETATM    6  C5  UNL     1     -16.249 -10.699 153.923  1.00  0.00     0.027 C 
BRANCH   6   7
HETATM    7  C4  UNL     1     -16.855 -12.065 153.893  1.00  0.00     0.007 C 
BRANCH   7   8
HETATM    8  C3  UNL     1     -18.332 -11.990 154.197  1.00  0.00     0.026 C 
BRANCH   8   9
HETATM    9  C2  UNL     1     -18.869 -13.302 154.571  1.00  0.00    -0.037 C 
HETATM   10  C1  UNL     1     -18.317 -14.405 154.099  1.00  0.00     0.007 C 
ENDBRANCH   8   9
ENDBRANCH   7   8
ENDBRANCH   6   7
ENDBRANCH   5   6
ENDBRANCH   3   4
ENDBRANCH   2   3
ENDBRANCH   1   2
BRANCH   1  11
HETATM   11  C11 UNL     1     -17.791  -8.655 159.683  1.00  0.00     0.000 C 
BRANCH  11  12
HETATM   12  C12 UNL     1     -17.964  -7.482 158.752  1.00  0.00     0.008 C 
BRANCH  12  13
HETATM   13  C13 UNL     1     -19.388  -7.147 158.465  1.00  0.00     0.084 C 
BRANCH  13  14
HETATM   14  C14 UNL     1     -19.867  -6.039 159.378  1.00  0.00     0.113 C 
HETATM   15  N1  UNL     1     -19.192  -5.434 160.272  1.00  0.00    -0.372 N 
HETATM   16  C15 UNL     1     -19.973  -4.419 160.962  1.00  0.00     0.148 C 
ATOM     17  H1  UNL     1     -18.215  -5.638 160.481  1.00  0.00     0.161 HD
HETATM   18  C16 UNL     1     -21.127  -4.235 159.987  1.00  0.00     0.196 C 
HETATM   19  O1  UNL     1     -21.143  -5.507 159.372  1.00  0.00    -0.338 OA
ENDBRANCH  13  14
ENDBRANCH  12  13
ENDBRANCH  11  12
ENDBRANCH   1  11
TORSDOF 11
ENDMDL
MODEL 3
REMARK VINA RESULT: -7.476397103      1.887      2.182
REMARK  11 active torsions:
REMARK  status: ('A' for Active; 'I' for Inactive)
REMARK    1  A    between atoms: C2_2  and  C3_3 
REMARK    2  A    between atoms: C3_3  and  C4_4 
REMARK    3  A    between atoms: C4_4  and  C5_5 
REMARK    4  A    between atoms: C5_5  and  C6_6 
REMARK    5  A    between atoms: C7_7  and  C8_8 
REMARK    6  A    between atoms: C8_8  and  C9_9 
REMARK    7  A    between atoms: C9_9  and  C10_10 
REMARK    8  A    between atoms: C10_10  and  C11_11 
REMARK    9  A    between atoms: C11_11  and  C12_12 
REMARK   10  A    between atoms: C12_12  and  C13_13 
REMARK   11  A    between atoms: C13_13  and  C14_14 
ROOT
HETATM    1  C10 UNL     1     -16.421  -9.275 157.928  1.00  0.00     0.000 C 
ENDROOT
BRANCH   1   2
HETATM    2  C9  UNL     1     -16.702  -8.178 156.943  1.00  0.00     0.004 C 
BRANCH   2   3
HETATM    3  C8  UNL     1     -16.276  -8.600 155.570  1.00  0.00     0.027 C 
BRANCH   3   4
HETATM    4  C7  UNL     1     -16.624 -10.034 155.305  1.00  0.00    -0.031 C 
HETATM    5  C6  UNL     1     -16.244 -10.582 154.159  1.00  0.00    -0.031 C 
BRANCH   5   6
HETATM    6  C5  UNL     1     -16.579 -12.004 153.875  1.00  0.00     0.027 C 
BRANCH   6   7
HETATM    7  C4  UNL     1     -17.946 -12.315 154.396  1.00  0.00     0.007 C 
BRANCH   7   8
HETATM    8  C3  UNL     1     -18.265 -13.777 154.191  1.00  0.00     0.026 C 
BRANCH   8   9
HETATM    9  C2  UNL     1     -18.965 -13.999 152.922  1.00  0.00    -0.037 C 
HETATM   10  C1  UNL     1     -19.918 -13.171 152.535  1.00  0.00     0.007 C 
ENDBRANCH   8   9
ENDBRANCH   7   8
ENDBRANCH   6   7
ENDBRANCH   5   6
ENDBRANCH   3   4
ENDBRANCH   2   3
ENDBRANCH   1   2
BRANCH   1  11
HETATM   11  C11 UNL     1     -16.878  -8.973 159.314  1.00  0.00     0.000 C 
BRANCH  11  12
HETATM   12  C12 UNL     1     -17.021  -7.488 159.529  1.00  0.00     0.008 C 
BRANCH  12  13
HETATM   13  C13 UNL     1     -18.214  -7.110 160.340  1.00  0.00     0.084 C 
BRANCH  13  14
HETATM   14  C14 UNL     1     -17.859  -6.023 161.332  1.00  0.00     0.113 C 
HETATM   15  N1  UNL     1     -17.382  -4.872 161.073  1.00  0.00    -0.372 N 
HETATM   16  C15 UNL     1     -17.161  -4.081 162.273  1.00  0.00     0.148 C 
ATOM     17  H1  UNL     1     -17.177  -4.541 160.130  1.00  0.00     0.161 HD
HETATM   18  C16 UNL     1     -18.027  -4.834 163.274  1.00  0.00     0.196 C 
HETATM   19  O1  UNL     1     -18.007  -6.126 162.703  1.00  0.00    -0.338 OA
ENDBRANCH  13  14
ENDBRANCH  12  13
ENDBRANCH  11  12
ENDBRANCH   1  11
TORSDOF 11
ENDMDL
MODEL 4
REMARK VINA RESULT: -7.424889692      1.796      2.655
REMARK  11 active torsions:
REMARK  status: ('A' for Active; 'I' for Inactive)
REMARK    1  A    between atoms: C2_2  and  C3_3 
REMARK    2  A    between atoms: C3_3  and  C4_4 
REMARK    3  A    between atoms: C4_4  and  C5_5 
REMARK    4  A    between atoms: C5_5  and  C6_6 
REMARK    5  A    between atoms: C7_7  and  C8_8 
REMARK    6  A    between atoms: C8_8  and  C9_9 
REMARK    7  A    between atoms: C9_9  and  C10_10 
REMARK    8  A    between atoms: C10_10  and  C11_11 
REMARK    9  A    between atoms: C11_11  and  C12_12 
REMARK   10  A    between atoms: C12_12  and  C13_13 
REMARK   11  A    between atoms: C13_13  and  C14_14 
ROOT
HETATM    1  C10 UNL     1     -16.623  -9.299 159.396  1.00  0.00     0.000 C 
ENDROOT
BRANCH   1   2
HETATM    2  C9  UNL     1     -16.267  -9.327 157.939  1.00  0.00     0.004 C 
BRANCH   2   3
HETATM    3  C8  UNL     1     -15.237 -10.384 157.682  1.00  0.00     0.027 C 
BRANCH   3   4
HETATM    4  C7  UNL     1     -15.284 -10.862 156.262  1.00  0.00    -0.031 C 
HETATM    5  C6  UNL     1     -16.115 -10.269 155.417  1.00  0.00    -0.031 C 
BRANCH   5   6
HETATM    6  C5  UNL     1     -16.179 -10.727 154.002  1.00  0.00     0.027 C 
BRANCH   6   7
HETATM    7  C4  UNL     1     -16.888 -12.041 153.928  1.00  0.00     0.007 C 
BRANCH   7   8
HETATM    8  C3  UNL     1     -18.329 -11.885 154.352  1.00  0.00     0.026 C 
BRANCH   8   9
HETATM    9  C2  UNL     1     -19.023 -13.176 154.376  1.00  0.00    -0.037 C 
HETATM   10  C1  UNL     1     -18.340 -14.300 154.259  1.00  0.00     0.007 C 
ENDBRANCH   8   9
ENDBRANCH   7   8
ENDBRANCH   6   7
ENDBRANCH   5   6
ENDBRANCH   3   4
ENDBRANCH   2   3
ENDBRANCH   1   2
BRANCH   1  11
HETATM   11  C11 UNL     1     -18.012  -8.833 159.669  1.00  0.00     0.000 C 
BRANCH  11  12
HETATM   12  C12 UNL     1     -18.321  -7.568 158.909  1.00  0.00     0.008 C 
BRANCH  12  13
HETATM   13  C13 UNL     1     -19.072  -6.556 159.707  1.00  0.00     0.084 C 
BRANCH  13  14
HETATM   14  C14 UNL     1     -18.249  -6.098 160.892  1.00  0.00     0.113 C 
HETATM   15  N1  UNL     1     -17.211  -5.362 160.868  1.00  0.00    -0.372 N 
HETATM   16  C15 UNL     1     -16.674  -5.120 162.198  1.00  0.00     0.148 C 
ATOM     17  H1  UNL     1     -16.802  -4.985 160.013  1.00  0.00     0.161 HD
HETATM   18  C16 UNL     1     -17.870  -5.496 163.061  1.00  0.00     0.196 C 
HETATM   19  O1  UNL     1     -18.515  -6.420 162.210  1.00  0.00    -0.338 OA
ENDBRANCH  13  14
ENDBRANCH  12  13
ENDBRANCH  11  12
ENDBRANCH   1  11
TORSDOF 11
ENDMDL
MODEL 5
REMARK VINA RESULT: -7.333341143      1.561      1.880
REMARK  11 active torsions:
REMARK  status: ('A' for Active; 'I' for Inactive)
REMARK    1  A    between atoms: C2_2  and  C3_3 
REMARK    2  A    between atoms: C3_3  and  C4_4 
REMARK    3  A    between atoms: C4_4  and  C5_5 
REMARK    4  A    between atoms: C5_5  and  C6_6 
REMARK    5  A    between atoms: C7_7  and  C8_8 
REMARK    6  A    between atoms: C8_8  and  C9_9 
REMARK    7  A    between atoms: C9_9  and  C10_10 
REMARK    8  A    between atoms: C10_10  and  C11_11 
REMARK    9  A    between atoms: C11_11  and  C12_12 
REMARK   10  A    between atoms: C12_12  and  C13_13 
REMARK   11  A    between atoms: C13_13  and  C14_14 
ROOT
HETATM    1  C10 UNL     1     -16.660  -8.509 157.948  1.00  0.00     0.000 C 
ENDROOT
BRANCH   1   2
HETATM    2  C9  UNL     1     -15.940  -9.324 156.916  1.00  0.00     0.004 C 
BRANCH   2   3
HETATM    3  C8  UNL     1     -16.265  -8.818 155.544  1.00  0.00     0.027 C 
BRANCH   3   4
HETATM    4  C7  UNL     1     -16.702  -9.931 154.639  1.00  0.00    -0.031 C 
HETATM    5  C6  UNL     1     -16.274 -11.161 154.888  1.00  0.00    -0.031 C 
BRANCH   5   6
HETATM    6  C5  UNL     1     -16.696 -12.281 154.003  1.00  0.00     0.027 C 
BRANCH   6   7
HETATM    7  C4  UNL     1     -18.054 -12.758 154.404  1.00  0.00     0.007 C 
BRANCH   7   8
HETATM    8  C3  UNL     1     -18.307 -14.143 153.855  1.00  0.00     0.026 C 
BRANCH   8   9
HETATM    9  C2  UNL     1     -19.180 -14.102 152.679  1.00  0.00    -0.037 C 
HETATM   10  C1  UNL     1     -20.003 -13.084 152.497  1.00  0.00     0.007 C 
ENDBRANCH   8   9
ENDBRANCH   7   8
ENDBRANCH   6   7
ENDBRANCH   5   6
ENDBRANCH   3   4
ENDBRANCH   2   3
ENDBRANCH   1   2
BRANCH   1  11
HETATM   11  C11 UNL     1     -17.445  -7.375 157.383  1.00  0.00     0.000 C 
BRANCH  11  12
HETATM   12  C12 UNL     1     -18.648  -7.065 158.237  1.00  0.00     0.008 C 
BRANCH  12  13
HETATM   13  C13 UNL     1     -18.495  -7.476 159.662  1.00  0.00     0.084 C 
BRANCH  13  14
HETATM   14  C14 UNL     1     -18.290  -6.263 160.545  1.00  0.00     0.113 C 
HETATM   15  N1  UNL     1     -17.192  -5.667 160.788  1.00  0.00    -0.372 N 
HETATM   16  C15 UNL     1     -17.364  -4.533 161.682  1.00  0.00     0.148 C 
ATOM     17  H1  UNL     1     -16.293  -5.952 160.400  1.00  0.00     0.161 HD
HETATM   18  C16 UNL     1     -18.865  -4.304 161.566  1.00  0.00     0.196 C 
HETATM   19  O1  UNL     1     -19.294  -5.608 161.233  1.00  0.00    -0.338 OA
ENDBRANCH  13  14
ENDBRANCH  12  13
ENDBRANCH  11  12
ENDBRANCH   1  11
TORSDOF 11
ENDMDL
