MODEL 1
REMARK VINA RESULT: -7.873321660      0.000      0.000
REMARK  11 active torsions:
REMARK  status: ('A' for Active; 'I' for Inactive)
REMARK    1  A    between atoms: C2_2  and  C3_3 
REMARK    2  A    between atoms: C3_3  and  C4_4 
REMARK    3  A    between atoms: C4_4  and  C5_5 
REMARK    4  A    between atoms: C5_5  and  C6_6 
REMARK    5  A    between atoms: C6_6  and  C7_7 
REMARK    6  A    between atoms: C7_7  and  C8_8 
REMARK    7  A    between atoms: C8_8  and  C9_9 
REMARK    8  A    between atoms: C10_10  and  C11_11 
REMARK    9  A    between atoms: C11_11  and  C12_12 
REMARK   10  A    between atoms: C12_12  and  C13_13 
REMARK   11  A    between atoms: C13_13  and  C14_14 
ROOT
HETATM    1  C9  UNL     1     -15.671 -10.223 157.786  1.00  0.00    -0.031 C 
HETATM    2  C10 UNL     1     -16.408  -9.201 158.156  1.00  0.00    -0.031 C 
ENDROOT
BRANCH   2   3
HETATM    3  C11 UNL     1     -16.741  -9.027 159.592  1.00  0.00     0.027 C 
BRANCH   3   4
HETATM    4  C12 UNL     1     -18.197  -8.672 159.662  1.00  0.00     0.011 C 
BRANCH   4   5
HETATM    5  C13 UNL     1     -18.541  -7.492 158.807  1.00  0.00     0.076 C 
BRANCH   5   6
HETATM    6  C14 UNL     1     -19.361  -6.452 159.495  1.00  0.00     0.072 C 
HETATM    7  N1  UNL     1     -18.959  -5.645 160.390  1.00  0.00    -0.378 N 
HETATM    8  C15 UNL     1     -19.982  -4.748 160.874  1.00  0.00     0.140 C 
ATOM      9  H1  UNL     1     -18.000  -5.633 160.737  1.00  0.00     0.160 HD
HETATM   10  C16 UNL     1     -21.058  -4.893 159.813  1.00  0.00     0.140 C 
HETATM   11  N2  UNL     1     -20.754  -6.205 159.285  1.00  0.00    -0.378 N 
ATOM     12  H2  UNL     1     -21.417  -6.842 158.841  1.00  0.00     0.160 HD
ENDBRANCH   5   6
ENDBRANCH   4   5
ENDBRANCH   3   4
ENDBRANCH   2   3
BRANCH   1  13
HETATM   13  C8  UNL     1     -15.326 -10.412 156.345  1.00  0.00     0.027 C 
BRANCH  13  14
HETATM   14  C7  UNL     1     -16.371  -9.699 155.531  1.00  0.00     0.004 C 
BRANCH  14  15
HETATM   15  C6  UNL     1     -16.391 -10.176 154.111  1.00  0.00     0.000 C 
BRANCH  15  16
HETATM   16  C5  UNL     1     -16.603 -11.642 154.047  1.00  0.00     0.000 C 
BRANCH  16  17
HETATM   17  C4  UNL     1     -18.021 -12.058 154.374  1.00  0.00     0.004 C 
BRANCH  17  18
HETATM   18  C3  UNL     1     -18.206 -13.550 154.319  1.00  0.00     0.026 C 
BRANCH  18  19
HETATM   19  C2  UNL     1     -18.932 -13.971 153.088  1.00  0.00    -0.037 C 
HETATM   20  C1  UNL     1     -19.846 -13.188 152.533  1.00  0.00     0.007 C 
ENDBRANCH  18  19
ENDBRANCH  17  18
ENDBRANCH  16  17
ENDBRANCH  15  16
ENDBRANCH  14  15
ENDBRANCH  13  14
ENDBRANCH   1  13
TORSDOF 11
ENDMDL
MODEL 2
REMARK VINA RESULT: -7.769535872      0.799      1.315
REMARK  11 active torsions:
REMARK  status: ('A' for Active; 'I' for Inactive)
REMARK    1  A    between atoms: C2_2  and  C3_3 
REMARK    2  A    between atoms: C3_3  and  C4_4 
REMARK    3  A    between atoms: C4_4  and  C5_5 
REMARK    4  A    between atoms: C5_5  and  C6_6 
REMARK    5  A    between atoms: C6_6  and  C7_7 
REMARK    6  A    between atoms: C7_7  and  C8_8 
REMARK    7  A    between atoms: C8_8  and  C9_9 
REMARK    8  A    between atoms: C10_10  and  C11_11 
REMARK    9  A    between atoms: C11_11  and  C12_12 
REMARK   10  A    between atoms: C12_12  and  C13_13 
REMARK   11  A    between atoms: C13_13  and  C14_14 
ROOT
HETATM    1  C9  UNL     1     -15.578 -10.410 157.720  1.00  0.00    -0.031 C 
HETATM    2  C10 UNL     1     -16.255  -9.360 158.122  1.00  0.00    -0.031 C 
ENDROOT
BRANCH   2   3
HETATM    3  C11 UNL     1     -16.562  -9.201 159.566  1.00  0.00     0.027 C 
BRANCH   3   4
HETATM    4  C12 UNL     1     -18.022  -8.871 159.667  1.00  0.00     0.011 C 
BRANCH   4   5
HETATM    5  C13 UNL     1     -18.360  -7.563 159.021  1.00  0.00     0.076 C 
BRANCH   5   6
HETATM    6  C14 UNL     1     -18.402  -6.405 159.962  1.00  0.00     0.072 C 
HETATM    7  N1  UNL     1     -19.444  -5.811 160.381  1.00  0.00    -0.378 N 
HETATM    8  C15 UNL     1     -19.173  -4.720 161.287  1.00  0.00     0.140 C 
ATOM      9  H1  UNL     1     -20.387  -6.080 160.101  1.00  0.00     0.160 HD
HETATM   10  C16 UNL     1     -17.727  -4.979 161.671  1.00  0.00     0.140 C 
HETATM   11  N2  UNL     1     -17.269  -5.744 160.532  1.00  0.00    -0.378 N 
ATOM     12  H2  UNL     1     -16.307  -5.802 160.196  1.00  0.00     0.160 HD
ENDBRANCH   5   6
ENDBRANCH   4   5
ENDBRANCH   3   4
ENDBRANCH   2   3
BRANCH   1  13
HETATM   13  C8  UNL     1     -15.260 -10.585 156.271  1.00  0.00     0.027 C 
BRANCH  13  14
HETATM   14  C7  UNL     1     -16.185  -9.689 155.493  1.00  0.00     0.004 C 
BRANCH  14  15
HETATM   15  C6  UNL     1     -16.430 -10.209 154.109  1.00  0.00     0.000 C 
BRANCH  15  16
HETATM   16  C5  UNL     1     -16.572 -11.685 154.115  1.00  0.00     0.000 C 
BRANCH  16  17
HETATM   17  C4  UNL     1     -17.981 -12.151 154.415  1.00  0.00     0.004 C 
BRANCH  17  18
HETATM   18  C3  UNL     1     -18.135 -13.639 154.262  1.00  0.00     0.026 C 
BRANCH  18  19
HETATM   19  C2  UNL     1     -18.902 -13.991 153.034  1.00  0.00    -0.037 C 
HETATM   20  C1  UNL     1     -19.864 -13.200 152.579  1.00  0.00     0.007 C 
ENDBRANCH  18  19
ENDBRANCH  17  18
ENDBRANCH  16  17
ENDBRANCH  15  16
ENDBRANCH  14  15
ENDBRANCH  13  14
ENDBRANCH   1  13
TORSDOF 11
ENDMDL
MODEL 3
REMARK VINA RESULT: -7.697648810      0.809      1.315
REMARK  11 active torsions:
REMARK  status: ('A' for Active; 'I' for Inactive)
REMARK    1  A    between atoms: C2_2  and  C3_3 
REMARK    2  A    between atoms: C3_3  and  C4_4 
REMARK    3  A    between atoms: C4_4  and  C5_5 
REMARK    4  A    between atoms: C5_5  and  C6_6 
REMARK    5  A    between atoms: C6_6  and  C7_7 
REMARK    6  A    between atoms: C7_7  and  C8_8 
REMARK    7  A    between atoms: C8_8  and  C9_9 
REMARK    8  A    between atoms: C10_10  and  C11_11 
REMARK    9  A    between atoms: C11_11  and  C12_12 
REMARK   10  A    between atoms: C12_12  and  C13_13 
REMARK   11  A    between atoms: C13_13  and  C14_14 
ROOT
HETATM    1  C9  UNL     1     -16.804  -8.445 157.094  1.00  0.00    -0.031 C 
HETATM    2  C10 UNL     1     -16.400  -9.300 158.005  1.00  0.00    -0.031 C 
ENDROOT
BRANCH   2   3
HETATM    3  C11 UNL     1     -16.873  -9.150 159.404  1.00  0.00     0.027 C 
BRANCH   3   4
HETATM    4  C12 UNL     1     -17.966  -8.123 159.387  1.00  0.00     0.011 C 
BRANCH   4   5
HETATM    5  C13 UNL     1     -17.796  -7.087 160.454  1.00  0.00     0.076 C 
BRANCH   5   6
HETATM    6  C14 UNL     1     -18.845  -6.024 160.451  1.00  0.00     0.072 C 
HETATM    7  N1  UNL     1     -20.021  -6.127 159.983  1.00  0.00    -0.378 N 
HETATM    8  C15 UNL     1     -20.815  -4.929 160.123  1.00  0.00     0.140 C 
ATOM      9  H1  UNL     1     -20.374  -6.979 159.546  1.00  0.00     0.160 HD
HETATM   10  C16 UNL     1     -20.014  -4.135 161.139  1.00  0.00     0.140 C 
HETATM   11  N2  UNL     1     -18.693  -4.693 160.950  1.00  0.00    -0.378 N 
ATOM     12  H2  UNL     1     -17.809  -4.219 161.140  1.00  0.00     0.160 HD
ENDBRANCH   5   6
ENDBRANCH   4   5
ENDBRANCH   3   4
ENDBRANCH   2   3
BRANCH   1  13
HETATM   13  C8  UNL     1     -16.338  -8.582 155.682  1.00  0.00     0.027 C 
BRANCH  13  14
HETATM   14  C7  UNL     1     -15.992 -10.029 155.457  1.00  0.00     0.004 C 
BRANCH  14  15
HETATM   15  C6  UNL     1     -16.287 -10.460 154.052  1.00  0.00     0.000 C 
BRANCH  15  16
HETATM   16  C5  UNL     1     -16.585 -11.911 153.993  1.00  0.00     0.000 C 
BRANCH  16  17
HETATM   17  C4  UNL     1     -17.984 -12.255 154.458  1.00  0.00     0.004 C 
BRANCH  17  18
HETATM   18  C3  UNL     1     -18.301 -13.715 154.282  1.00  0.00     0.026 C 
BRANCH  18  19
HETATM   19  C2  UNL     1     -18.960 -13.983 152.973  1.00  0.00    -0.037 C 
HETATM   20  C1  UNL     1     -19.923 -13.193 152.519  1.00  0.00     0.007 C 
ENDBRANCH  18  19
ENDBRANCH  17  18
ENDBRANCH  16  17
ENDBRANCH  15  16
ENDBRANCH  14  15
ENDBRANCH  13  14
ENDBRANCH   1  13
TORSDOF 11
ENDMDL
MODEL 4
REMARK VINA RESULT: -7.660312823      0.917      1.448
REMARK  11 active torsions:
REMARK  status: ('A' for Active; 'I' for Inactive)
REMARK    1  A    between atoms: C2_2  and  C3_3 
REMARK    2  A    between atoms: C3_3  and  C4_4 
REMARK    3  A    between atoms: C4_4  and  C5_5 
REMARK    4  A    between atoms: C5_5  and  C6_6 
REMARK    5  A    between atoms: C6_6  and  C7_7 
REMARK    6  A    between atoms: C7_7  and  C8_8 
REMARK    7  A    between atoms: C8_8  and  C9_9 
REMARK    8  A    between atoms: C10_10  and  C11_11 
REMARK    9  A    between atoms: C11_11  and  C12_12 
REMARK   10  A    between atoms: C12_12  and  C13_13 
REMARK   11  A    between atoms: C13_13  and  C14_14 
ROOT
HETATM    1  C9  UNL     1     -15.730 -10.067 157.904  1.00  0.00    -0.031 C 
HETATM    2  C10 UNL     1     -16.614  -9.176 158.288  1.00  0.00    -0.031 C 
ENDROOT
BRANCH   2   3
HETATM    3  C11 UNL     1     -17.062  -9.158 159.703  1.00  0.00     0.027 C 
BRANCH   3   4
HETATM    4  C12 UNL     1     -18.169  -8.150 159.798  1.00  0.00     0.011 C 
BRANCH   4   5
HETATM    5  C13 UNL     1     -17.735  -6.883 160.467  1.00  0.00     0.076 C 
BRANCH   5   6
HETATM    6  C14 UNL     1     -18.779  -5.817 160.500  1.00  0.00     0.072 C 
HETATM    7  N1  UNL     1     -19.938  -5.880 159.984  1.00  0.00    -0.378 N 
HETATM    8  C15 UNL     1     -20.733  -4.690 160.178  1.00  0.00     0.140 C 
ATOM      9  H1  UNL     1     -20.277  -6.698 159.477  1.00  0.00     0.160 HD
HETATM   10  C16 UNL     1     -19.967  -3.973 161.275  1.00  0.00     0.140 C 
HETATM   11  N2  UNL     1     -18.641  -4.524 161.096  1.00  0.00    -0.378 N 
ATOM     12  H2  UNL     1     -17.763  -4.070 161.350  1.00  0.00     0.160 HD
ENDBRANCH   5   6
ENDBRANCH   4   5
ENDBRANCH   3   4
ENDBRANCH   2   3
BRANCH   1  13
HETATM   13  C8  UNL     1     -15.269 -10.098 156.483  1.00  0.00     0.027 C 
BRANCH  13  14
HETATM   14  C7  UNL     1     -16.107  -9.114 155.713  1.00  0.00     0.004 C 
BRANCH  14  15
HETATM   15  C6  UNL     1     -16.707  -9.734 154.488  1.00  0.00     0.000 C 
BRANCH  15  16
HETATM   16  C5  UNL     1     -15.943 -10.935 154.072  1.00  0.00     0.000 C 
BRANCH  16  17
HETATM   17  C4  UNL     1     -16.799 -12.176 153.943  1.00  0.00     0.004 C 
BRANCH  17  18
HETATM   18  C3  UNL     1     -18.210 -11.949 154.411  1.00  0.00     0.026 C 
BRANCH  18  19
HETATM   19  C2  UNL     1     -19.023 -13.195 154.340  1.00  0.00    -0.037 C 
HETATM   20  C1  UNL     1     -18.444 -14.384 154.247  1.00  0.00     0.007 C 
ENDBRANCH  18  19
ENDBRANCH  17  18
ENDBRANCH  16  17
ENDBRANCH  15  16
ENDBRANCH  14  15
ENDBRANCH  13  14
ENDBRANCH   1  13
TORSDOF 11
ENDMDL
MODEL 5
REMARK VINA RESULT: -7.648676866      1.203      1.744
REMARK  11 active torsions:
REMARK  status: ('A' for Active; 'I' for Inactive)
REMARK    1  A    between atoms: C2_2  and  C3_3 
REMARK    2  A    between atoms: C3_3  and  C4_4 
REMARK    3  A    between atoms: C4_4  and  C5_5 
REMARK    4  A    between atoms: C5_5  and  C6_6 
REMARK    5  A    between atoms: C6_6  and  C7_7 
REMARK    6  A    between atoms: C7_7  and  C8_8 
REMARK    7  A    between atoms: C8_8  and  C9_9 
REMARK    8  A    between atoms: C10_10  and  C11_11 
REMARK    9  A    between atoms: C11_11  and  C12_12 
REMARK   10  A    between atoms: C12_12  and  C13_13 
REMARK   11  A    between atoms: C13_13  and  C14_14 
ROOT
HETATM    1  C9  UNL     1     -16.273  -8.983 156.990  1.00  0.00    -0.031 C 
HETATM    2  C10 UNL     1     -17.003  -7.940 156.671  1.00  0.00    -0.031 C 
ENDROOT
BRANCH   2   3
HETATM    3  C11 UNL     1     -17.448  -7.009 157.738  1.00  0.00     0.027 C 
BRANCH   3   4
HETATM    4  C12 UNL     1     -17.024  -7.610 159.046  1.00  0.00     0.011 C 
BRANCH   4   5
HETATM    5  C13 UNL     1     -18.094  -7.524 160.090  1.00  0.00     0.076 C 
BRANCH   5   6
HETATM    6  C14 UNL     1     -18.347  -6.143 160.597  1.00  0.00     0.072 C 
HETATM    7  N1  UNL     1     -19.480  -5.580 160.717  1.00  0.00    -0.378 N 
HETATM    8  C15 UNL     1     -19.414  -4.235 161.238  1.00  0.00     0.140 C 
ATOM      9  H1  UNL     1     -20.357  -6.037 160.467  1.00  0.00     0.160 HD
HETATM   10  C16 UNL     1     -18.003  -4.179 161.795  1.00  0.00     0.140 C 
HETATM   11  N2  UNL     1     -17.351  -5.202 161.007  1.00  0.00    -0.378 N 
ATOM     12  H2  UNL     1     -16.356  -5.244 160.783  1.00  0.00     0.160 HD
ENDBRANCH   5   6
ENDBRANCH   4   5
ENDBRANCH   3   4
ENDBRANCH   2   3
BRANCH   1  13
HETATM   13  C8  UNL     1     -15.816  -9.928 155.928  1.00  0.00     0.027 C 
BRANCH  13  14
HETATM   14  C7  UNL     1     -16.606  -9.628 154.683  1.00  0.00     0.004 C 
BRANCH  14  15
HETATM   15  C6  UNL     1     -16.419 -10.684 153.637  1.00  0.00     0.000 C 
BRANCH  15  16
HETATM   16  C5  UNL     1     -16.589 -12.039 154.215  1.00  0.00     0.000 C 
BRANCH  16  17
HETATM   17  C4  UNL     1     -18.039 -12.447 154.370  1.00  0.00     0.004 C 
BRANCH  17  18
HETATM   18  C3  UNL     1     -18.263 -13.897 154.041  1.00  0.00     0.026 C 
BRANCH  18  19
HETATM   19  C2  UNL     1     -19.097 -14.062 152.818  1.00  0.00    -0.037 C 
HETATM   20  C1  UNL     1     -19.969 -13.132 152.454  1.00  0.00     0.007 C 
ENDBRANCH  18  19
ENDBRANCH  17  18
ENDBRANCH  16  17
ENDBRANCH  15  16
ENDBRANCH  14  15
ENDBRANCH  13  14
ENDBRANCH   1  13
TORSDOF 11
ENDMDL
