MODEL 1
REMARK VINA RESULT: -6.633567641      0.000      0.000
REMARK  11 active torsions:
REMARK  status: ('A' for Active; 'I' for Inactive)
REMARK    1  A    between atoms: C2_2  and  C3_3 
REMARK    2  A    between atoms: C3_3  and  C4_4 
REMARK    3  A    between atoms: C4_4  and  N1_5 
REMARK    4  A    between atoms: C5_7  and  C6_8 
REMARK    5  A    between atoms: C6_8  and  C7_9 
REMARK    6  A    between atoms: C7_9  and  S1_10 
REMARK    7  A    between atoms: S1_10  and  C8_11 
REMARK    8  A    between atoms: C8_11  and  C9_12 
REMARK    9  A    between atoms: C9_12  and  C10_13 
REMARK   10  A    between atoms: C10_13  and  C11_14 
REMARK   11  A    between atoms: C11_14  and  C12_15 
ROOT
HETATM    1  C7  UNL     1     -16.333  -9.348 158.303  1.00  0.00     0.079 C 
ENDROOT
BRANCH   1   2
HETATM    2  C6  UNL     1     -17.362  -8.265 158.230  1.00  0.00     0.054 C 
BRANCH   2   3
HETATM    3  C5  UNL     1     -16.707  -6.964 158.536  1.00  0.00     0.056 C 
HETATM    4  N1  UNL     1     -17.073  -6.319 159.575  1.00  0.00    -0.402 N 
ATOM      5  H1  UNL     1     -16.635  -5.425 159.801  1.00  0.00     0.158 HD
BRANCH   4   6
HETATM    6  C4  UNL     1     -18.085  -6.846 160.414  1.00  0.00     0.118 C 
BRANCH   6   7
HETATM    7  C3  UNL     1     -19.093  -5.768 160.782  1.00  0.00     0.019 C 
BRANCH   7   8
HETATM    8  C2  UNL     1     -20.113  -5.711 159.651  1.00  0.00    -0.003 C 
HETATM    9  C1  UNL     1     -21.196  -4.748 160.030  1.00  0.00     0.005 C 
ENDBRANCH   7   8
ENDBRANCH   6   7
ENDBRANCH   4   6
ENDBRANCH   2   3
ENDBRANCH   1   2
BRANCH   1  10
HETATM   10  S1  UNL     1     -15.728  -9.814 156.674  1.00  0.00    -0.169 SA
BRANCH  10  11
HETATM   11  C8  UNL     1     -16.347  -8.715 155.374  1.00  0.00     0.074 C 
BRANCH  11  12
HETATM   12  C9  UNL     1     -16.571  -9.643 154.138  1.00  0.00     0.010 C 
BRANCH  12  13
HETATM   13  C10 UNL     1     -16.209 -11.003 154.632  1.00  0.00     0.001 C 
BRANCH  13  14
HETATM   14  C11 UNL     1     -16.784 -12.189 154.002  1.00  0.00     0.005 C 
BRANCH  14  15
HETATM   15  C12 UNL     1     -17.998 -12.845 154.483  1.00  0.00    -0.014 A 
HETATM   16  C13 UNL     1     -19.188 -13.049 153.544  1.00  0.00     0.005 A 
HETATM   17  C14 UNL     1     -18.396 -14.219 154.076  1.00  0.00     0.005 A 
ENDBRANCH  14  15
ENDBRANCH  13  14
ENDBRANCH  12  13
ENDBRANCH  11  12
ENDBRANCH  10  11
ENDBRANCH   1  10
TORSDOF 11
ENDMDL
MODEL 2
REMARK VINA RESULT: -6.592724136      0.952      1.287
REMARK  11 active torsions:
REMARK  status: ('A' for Active; 'I' for Inactive)
REMARK    1  A    between atoms: C2_2  and  C3_3 
REMARK    2  A    between atoms: C3_3  and  C4_4 
REMARK    3  A    between atoms: C4_4  and  N1_5 
REMARK    4  A    between atoms: C5_7  and  C6_8 
REMARK    5  A    between atoms: C6_8  and  C7_9 
REMARK    6  A    between atoms: C7_9  and  S1_10 
REMARK    7  A    between atoms: S1_10  and  C8_11 
REMARK    8  A    between atoms: C8_11  and  C9_12 
REMARK    9  A    between atoms: C9_12  and  C10_13 
REMARK   10  A    between atoms: C10_13  and  C11_14 
REMARK   11  A    between atoms: C11_14  and  C12_15 
ROOT
HETATM    1  C7  UNL     1     -17.434  -7.726 156.981  1.00  0.00     0.079 C 
ENDROOT
BRANCH   1   2
HETATM    2  C6  UNL     1     -17.300  -8.068 158.430  1.00  0.00     0.054 C 
BRANCH   2   3
HETATM    3  C5  UNL     1     -16.653  -6.925 159.132  1.00  0.00     0.056 C 
HETATM    4  N1  UNL     1     -17.342  -6.240 159.960  1.00  0.00    -0.402 N 
ATOM      5  H1  UNL     1     -16.915  -5.453 160.450  1.00  0.00     0.158 HD
BRANCH   4   6
HETATM    6  C4  UNL     1     -18.698  -6.573 160.197  1.00  0.00     0.118 C 
BRANCH   6   7
HETATM    7  C3  UNL     1     -19.486  -5.345 160.627  1.00  0.00     0.019 C 
BRANCH   7   8
HETATM    8  C2  UNL     1     -20.732  -5.290 159.751  1.00  0.00    -0.003 C 
HETATM    9  C1  UNL     1     -20.540  -6.212 158.586  1.00  0.00     0.005 C 
ENDBRANCH   7   8
ENDBRANCH   6   7
ENDBRANCH   4   6
ENDBRANCH   2   3
ENDBRANCH   1   2
BRANCH   1  10
HETATM   10  S1  UNL     1     -16.334  -8.710 155.952  1.00  0.00    -0.169 SA
BRANCH  10  11
HETATM   11  C8  UNL     1     -15.577 -10.075 156.871  1.00  0.00     0.074 C 
BRANCH  11  12
HETATM   12  C9  UNL     1     -15.212 -11.136 155.785  1.00  0.00     0.010 C 
BRANCH  12  13
HETATM   13  C10 UNL     1     -16.134 -10.829 154.652  1.00  0.00     0.001 C 
BRANCH  13  14
HETATM   14  C11 UNL     1     -16.841 -11.911 153.970  1.00  0.00     0.005 C 
BRANCH  14  15
HETATM   15  C12 UNL     1     -17.850 -12.745 154.620  1.00  0.00    -0.014 A 
HETATM   16  C13 UNL     1     -19.278 -12.794 154.073  1.00  0.00     0.005 A 
HETATM   17  C14 UNL     1     -18.374 -14.002 154.022  1.00  0.00     0.005 A 
ENDBRANCH  14  15
ENDBRANCH  13  14
ENDBRANCH  12  13
ENDBRANCH  11  12
ENDBRANCH  10  11
ENDBRANCH   1  10
TORSDOF 11
ENDMDL
MODEL 3
REMARK VINA RESULT: -6.581044907      1.607      2.051
REMARK  11 active torsions:
REMARK  status: ('A' for Active; 'I' for Inactive)
REMARK    1  A    between atoms: C2_2  and  C3_3 
REMARK    2  A    between atoms: C3_3  and  C4_4 
REMARK    3  A    between atoms: C4_4  and  N1_5 
REMARK    4  A    between atoms: C5_7  and  C6_8 
REMARK    5  A    between atoms: C6_8  and  C7_9 
REMARK    6  A    between atoms: C7_9  and  S1_10 
REMARK    7  A    between atoms: S1_10  and  C8_11 
REMARK    8  A    between atoms: C8_11  and  C9_12 
REMARK    9  A    between atoms: C9_12  and  C10_13 
REMARK   10  A    between atoms: C10_13  and  C11_14 
REMARK   11  A    between atoms: C11_14  and  C12_15 
ROOT
HETATM    1  C7  UNL     1     -16.601  -9.345 158.801  1.00  0.00     0.079 C 
ENDROOT
BRANCH   1   2
HETATM    2  C6  UNL     1     -17.096  -8.342 159.793  1.00  0.00     0.054 C 
BRANCH   2   3
HETATM    3  C5  UNL     1     -17.015  -6.987 159.182  1.00  0.00     0.056 C 
HETATM    4  N1  UNL     1     -17.309  -5.970 159.896  1.00  0.00    -0.402 N 
ATOM      5  H1  UNL     1     -17.259  -5.033 159.495  1.00  0.00     0.158 HD
BRANCH   4   6
HETATM    6  C4  UNL     1     -17.703  -6.144 161.245  1.00  0.00     0.118 C 
BRANCH   6   7
HETATM    7  C3  UNL     1     -17.556  -4.843 162.021  1.00  0.00     0.019 C 
BRANCH   7   8
HETATM    8  C2  UNL     1     -17.854  -5.163 163.481  1.00  0.00    -0.003 C 
HETATM    9  C1  UNL     1     -18.284  -3.904 164.169  1.00  0.00     0.005 C 
ENDBRANCH   7   8
ENDBRANCH   6   7
ENDBRANCH   4   6
ENDBRANCH   2   3
ENDBRANCH   1   2
BRANCH   1  10
HETATM   10  S1  UNL     1     -16.590  -8.689 157.127  1.00  0.00    -0.169 SA
BRANCH  10  11
HETATM   11  C8  UNL     1     -15.885  -9.859 155.938  1.00  0.00     0.074 C 
BRANCH  11  12
HETATM   12  C9  UNL     1     -16.532  -9.479 154.568  1.00  0.00     0.010 C 
BRANCH  12  13
HETATM   13  C10 UNL     1     -16.396 -10.717 153.746  1.00  0.00     0.001 C 
BRANCH  13  14
HETATM   14  C11 UNL     1     -16.810 -12.008 154.291  1.00  0.00     0.005 C 
BRANCH  14  15
HETATM   15  C12 UNL     1     -17.932 -12.780 153.762  1.00  0.00    -0.014 A 
HETATM   16  C13 UNL     1     -18.422 -14.029 154.496  1.00  0.00     0.005 A 
HETATM   17  C14 UNL     1     -19.280 -12.791 154.389  1.00  0.00     0.005 A 
ENDBRANCH  14  15
ENDBRANCH  13  14
ENDBRANCH  12  13
ENDBRANCH  11  12
ENDBRANCH  10  11
ENDBRANCH   1  10
TORSDOF 11
ENDMDL
MODEL 4
REMARK VINA RESULT: -6.468463215      1.301      1.686
REMARK  11 active torsions:
REMARK  status: ('A' for Active; 'I' for Inactive)
REMARK    1  A    between atoms: C2_2  and  C3_3 
REMARK    2  A    between atoms: C3_3  and  C4_4 
REMARK    3  A    between atoms: C4_4  and  N1_5 
REMARK    4  A    between atoms: C5_7  and  C6_8 
REMARK    5  A    between atoms: C6_8  and  C7_9 
REMARK    6  A    between atoms: C7_9  and  S1_10 
REMARK    7  A    between atoms: S1_10  and  C8_11 
REMARK    8  A    between atoms: C8_11  and  C9_12 
REMARK    9  A    between atoms: C9_12  and  C10_13 
REMARK   10  A    between atoms: C10_13  and  C11_14 
REMARK   11  A    between atoms: C11_14  and  C12_15 
ROOT
HETATM    1  C7  UNL     1     -16.754  -7.496 157.553  1.00  0.00     0.079 C 
ENDROOT
BRANCH   1   2
HETATM    2  C6  UNL     1     -18.194  -7.174 157.791  1.00  0.00     0.054 C 
BRANCH   2   3
HETATM    3  C5  UNL     1     -18.492  -7.363 159.238  1.00  0.00     0.056 C 
HETATM    4  N1  UNL     1     -19.484  -6.743 159.749  1.00  0.00    -0.402 N 
ATOM      5  H1  UNL     1     -19.704  -6.861 160.738  1.00  0.00     0.158 HD
BRANCH   4   6
HETATM    6  C4  UNL     1     -20.280  -5.894 158.942  1.00  0.00     0.118 C 
BRANCH   6   7
HETATM    7  C3  UNL     1     -20.977  -4.842 159.791  1.00  0.00     0.019 C 
BRANCH   7   8
HETATM    8  C2  UNL     1     -20.031  -4.501 160.936  1.00  0.00    -0.003 C 
HETATM    9  C1  UNL     1     -19.917  -3.010 161.036  1.00  0.00     0.005 C 
ENDBRANCH   7   8
ENDBRANCH   6   7
ENDBRANCH   4   6
ENDBRANCH   2   3
ENDBRANCH   1   2
BRANCH   1  10
HETATM   10  S1  UNL     1     -16.402  -9.241 157.806  1.00  0.00    -0.169 SA
BRANCH  10  11
HETATM   11  C8  UNL     1     -15.717 -10.023 156.323  1.00  0.00     0.074 C 
BRANCH  11  12
HETATM   12  C9  UNL     1     -16.763  -9.739 155.199  1.00  0.00     0.010 C 
BRANCH  12  13
HETATM   13  C10 UNL     1     -16.280 -10.545 154.040  1.00  0.00     0.001 C 
BRANCH  13  14
HETATM   14  C11 UNL     1     -16.701 -11.937 153.891  1.00  0.00     0.005 C 
BRANCH  14  15
HETATM   15  C12 UNL     1     -17.912 -12.479 154.501  1.00  0.00    -0.014 A 
HETATM   16  C13 UNL     1     -19.077 -12.941 153.624  1.00  0.00     0.005 A 
HETATM   17  C14 UNL     1     -18.276 -13.920 154.447  1.00  0.00     0.005 A 
ENDBRANCH  14  15
ENDBRANCH  13  14
ENDBRANCH  12  13
ENDBRANCH  11  12
ENDBRANCH  10  11
ENDBRANCH   1  10
TORSDOF 11
ENDMDL
MODEL 5
REMARK VINA RESULT: -6.400638437      1.346      1.676
REMARK  11 active torsions:
REMARK  status: ('A' for Active; 'I' for Inactive)
REMARK    1  A    between atoms: C2_2  and  C3_3 
REMARK    2  A    between atoms: C3_3  and  C4_4 
REMARK    3  A    between atoms: C4_4  and  N1_5 
REMARK    4  A    between atoms: C5_7  and  C6_8 
REMARK    5  A    between atoms: C6_8  and  C7_9 
REMARK    6  A    between atoms: C7_9  and  S1_10 
REMARK    7  A    between atoms: S1_10  and  C8_11 
REMARK    8  A    between atoms: C8_11  and  C9_12 
REMARK    9  A    between atoms: C9_12  and  C10_13 
REMARK   10  A    between atoms: C10_13  and  C11_14 
REMARK   11  A    between atoms: C11_14  and  C12_15 
ROOT
HETATM    1  C7  UNL     1     -16.377  -9.478 158.384  1.00  0.00     0.079 C 
ENDROOT
BRANCH   1   2
HETATM    2  C6  UNL     1     -16.900  -8.177 158.899  1.00  0.00     0.054 C 
BRANCH   2   3
HETATM    3  C5  UNL     1     -18.093  -8.445 159.748  1.00  0.00     0.056 C 
HETATM    4  N1  UNL     1     -19.173  -7.804 159.516  1.00  0.00    -0.402 N 
ATOM      5  H1  UNL     1     -20.000  -7.974 160.087  1.00  0.00     0.158 HD
BRANCH   4   6
HETATM    6  C4  UNL     1     -19.219  -6.857 158.463  1.00  0.00     0.118 C 
BRANCH   6   7
HETATM    7  C3  UNL     1     -20.525  -6.077 158.499  1.00  0.00     0.019 C 
BRANCH   7   8
HETATM    8  C2  UNL     1     -20.602  -5.407 159.866  1.00  0.00    -0.003 C 
HETATM    9  C1  UNL     1     -21.038  -3.986 159.680  1.00  0.00     0.005 C 
ENDBRANCH   7   8
ENDBRANCH   6   7
ENDBRANCH   4   6
ENDBRANCH   2   3
ENDBRANCH   1   2
BRANCH   1  10
HETATM   10  S1  UNL     1     -16.143  -9.453 156.600  1.00  0.00    -0.169 SA
BRANCH  10  11
HETATM   11  C8  UNL     1     -15.276 -10.927 156.003  1.00  0.00     0.074 C 
BRANCH  11  12
HETATM   12  C9  UNL     1     -15.819 -11.155 154.557  1.00  0.00     0.010 C 
BRANCH  12  13
HETATM   13  C10 UNL     1     -17.271 -10.825 154.658  1.00  0.00     0.001 C 
BRANCH  13  14
HETATM   14  C11 UNL     1     -18.275 -11.845 154.362  1.00  0.00     0.005 C 
BRANCH  14  15
HETATM   15  C12 UNL     1     -17.950 -13.150 153.790  1.00  0.00    -0.014 A 
HETATM   16  C13 UNL     1     -18.510 -14.427 154.417  1.00  0.00     0.005 A 
HETATM   17  C14 UNL     1     -18.932 -13.977 153.040  1.00  0.00     0.005 A 
ENDBRANCH  14  15
ENDBRANCH  13  14
ENDBRANCH  12  13
ENDBRANCH  11  12
ENDBRANCH  10  11
ENDBRANCH   1  10
TORSDOF 11
ENDMDL
