MODEL 1
REMARK VINA RESULT: -7.578281008      0.000      0.000
REMARK  11 active torsions:
REMARK  status: ('A' for Active; 'I' for Inactive)
REMARK    1  A    between atoms: C2_2  and  C3_3 
REMARK    2  A    between atoms: C3_3  and  C4_4 
REMARK    3  A    between atoms: C4_4  and  C5_5 
REMARK    4  A    between atoms: C5_5  and  C6_6 
REMARK    5  A    between atoms: C6_6  and  C7_7 
REMARK    6  A    between atoms: C7_7  and  C8_8 
REMARK    7  A    between atoms: C9_9  and  C10_10 
REMARK    8  A    between atoms: C10_10  and  C11_11 
REMARK    9  A    between atoms: C11_11  and  C12_12 
REMARK   10  A    between atoms: C12_12  and  C13_13 
REMARK   11  A    between atoms: C13_13  and  N1_14 
ROOT
HETATM    1  C10 UNL     1     -16.327  -9.026 157.812  1.00  0.00     0.027 C 
ENDROOT
BRANCH   1   2
HETATM    2  C9  UNL     1     -15.579 -10.131 157.208  1.00  0.00    -0.031 C 
HETATM    3  C8  UNL     1     -15.591 -10.333 155.906  1.00  0.00    -0.031 C 
BRANCH   3   4
HETATM    4  C7  UNL     1     -16.302  -9.554 154.889  1.00  0.00     0.027 C 
BRANCH   4   5
HETATM    5  C6  UNL     1     -16.684 -10.473 153.743  1.00  0.00     0.004 C 
BRANCH   5   6
HETATM    6  C5  UNL     1     -16.212 -11.877 153.930  1.00  0.00     0.001 C 
BRANCH   6   7
HETATM    7  C4  UNL     1     -17.412 -12.795 153.962  1.00  0.00     0.004 C 
BRANCH   7   8
HETATM    8  C3  UNL     1     -18.654 -12.106 154.457  1.00  0.00     0.026 C 
BRANCH   8   9
HETATM    9  C2  UNL     1     -19.834 -12.670 153.761  1.00  0.00    -0.037 C 
HETATM   10  C1  UNL     1     -19.690 -13.292 152.603  1.00  0.00     0.007 C 
ENDBRANCH   8   9
ENDBRANCH   7   8
ENDBRANCH   6   7
ENDBRANCH   5   6
ENDBRANCH   4   5
ENDBRANCH   3   4
ENDBRANCH   1   2
BRANCH   1  11
HETATM   11  C11 UNL     1     -16.681  -9.368 159.243  1.00  0.00     0.005 C 
BRANCH  11  12
HETATM   12  C12 UNL     1     -17.884  -8.590 159.644  1.00  0.00     0.021 C 
BRANCH  12  13
HETATM   13  C13 UNL     1     -18.356  -7.636 158.564  1.00  0.00     0.129 C 
BRANCH  13  14
HETATM   14  N1  UNL     1     -19.193  -6.651 159.202  1.00  0.00    -0.352 N 
HETATM   15  C14 UNL     1     -20.364  -6.141 158.759  1.00  0.00     0.108 A 
HETATM   16  C15 UNL     1     -20.845  -5.226 159.662  1.00  0.00     0.106 A 
HETATM   17  N2  UNL     1     -19.952  -5.188 160.655  1.00  0.00    -0.361 N 
HETATM   18  C16 UNL     1     -18.935  -6.061 160.378  1.00  0.00     0.182 A 
ATOM     19  H2  UNL     1     -20.018  -4.601 161.487  1.00  0.00     0.166 HD
ENDBRANCH  13  14
ENDBRANCH  12  13
ENDBRANCH  11  12
ENDBRANCH   1  11
TORSDOF 11
ENDMDL
MODEL 2
REMARK VINA RESULT: -7.477586546      0.982      1.282
REMARK  11 active torsions:
REMARK  status: ('A' for Active; 'I' for Inactive)
REMARK    1  A    between atoms: C2_2  and  C3_3 
REMARK    2  A    between atoms: C3_3  and  C4_4 
REMARK    3  A    between atoms: C4_4  and  C5_5 
REMARK    4  A    between atoms: C5_5  and  C6_6 
REMARK    5  A    between atoms: C6_6  and  C7_7 
REMARK    6  A    between atoms: C7_7  and  C8_8 
REMARK    7  A    between atoms: C9_9  and  C10_10 
REMARK    8  A    between atoms: C10_10  and  C11_11 
REMARK    9  A    between atoms: C11_11  and  C12_12 
REMARK   10  A    between atoms: C12_12  and  C13_13 
REMARK   11  A    between atoms: C13_13  and  N1_14 
ROOT
HETATM    1  C10 UNL     1     -16.493  -9.081 157.839  1.00  0.00     0.027 C 
ENDROOT
BRANCH   1   2
HETATM    2  C9  UNL     1     -15.593 -10.107 157.307  1.00  0.00    -0.031 C 
HETATM    3  C8  UNL     1     -15.537 -10.365 156.016  1.00  0.00    -0.031 C 
BRANCH   3   4
HETATM    4  C7  UNL     1     -16.306  -9.727 154.946  1.00  0.00     0.027 C 
BRANCH   4   5
HETATM    5  C6  UNL     1     -16.332 -10.649 153.741  1.00  0.00     0.004 C 
BRANCH   5   6
HETATM    6  C5  UNL     1     -16.936 -11.983 154.032  1.00  0.00     0.001 C 
BRANCH   6   7
HETATM    7  C4  UNL     1     -18.378 -11.787 154.441  1.00  0.00     0.004 C 
BRANCH   7   8
HETATM    8  C3  UNL     1     -19.215 -13.016 154.218  1.00  0.00     0.026 C 
BRANCH   8   9
HETATM    9  C2  UNL     1     -18.352 -14.217 154.320  1.00  0.00    -0.037 C 
HETATM   10  C1  UNL     1     -18.590 -15.273 153.561  1.00  0.00     0.007 C 
ENDBRANCH   8   9
ENDBRANCH   7   8
ENDBRANCH   6   7
ENDBRANCH   5   6
ENDBRANCH   4   5
ENDBRANCH   3   4
ENDBRANCH   1   2
BRANCH   1  11
HETATM   11  C11 UNL     1     -16.721  -9.314 159.317  1.00  0.00     0.005 C 
BRANCH  11  12
HETATM   12  C12 UNL     1     -17.846  -8.456 159.775  1.00  0.00     0.021 C 
BRANCH  12  13
HETATM   13  C13 UNL     1     -17.771  -7.045 159.227  1.00  0.00     0.129 C 
BRANCH  13  14
HETATM   14  N1  UNL     1     -19.061  -6.436 159.441  1.00  0.00    -0.352 N 
HETATM   15  C14 UNL     1     -19.426  -5.583 160.424  1.00  0.00     0.108 A 
HETATM   16  C15 UNL     1     -20.744  -5.234 160.273  1.00  0.00     0.106 A 
HETATM   17  N2  UNL     1     -21.173  -5.885 159.188  1.00  0.00    -0.361 N 
HETATM   18  C16 UNL     1     -20.144  -6.625 158.672  1.00  0.00     0.182 A 
ATOM     19  H2  UNL     1     -22.117  -5.838 158.804  1.00  0.00     0.166 HD
ENDBRANCH  13  14
ENDBRANCH  12  13
ENDBRANCH  11  12
ENDBRANCH   1  11
TORSDOF 11
ENDMDL
MODEL 3
REMARK VINA RESULT: -7.403642261      1.040      1.321
REMARK  11 active torsions:
REMARK  status: ('A' for Active; 'I' for Inactive)
REMARK    1  A    between atoms: C2_2  and  C3_3 
REMARK    2  A    between atoms: C3_3  and  C4_4 
REMARK    3  A    between atoms: C4_4  and  C5_5 
REMARK    4  A    between atoms: C5_5  and  C6_6 
REMARK    5  A    between atoms: C6_6  and  C7_7 
REMARK    6  A    between atoms: C7_7  and  C8_8 
REMARK    7  A    between atoms: C9_9  and  C10_10 
REMARK    8  A    between atoms: C10_10  and  C11_11 
REMARK    9  A    between atoms: C11_11  and  C12_12 
REMARK   10  A    between atoms: C12_12  and  C13_13 
REMARK   11  A    between atoms: C13_13  and  N1_14 
ROOT
HETATM    1  C10 UNL     1     -16.722  -8.413 158.398  1.00  0.00     0.027 C 
ENDROOT
BRANCH   1   2
HETATM    2  C9  UNL     1     -16.031  -9.593 157.872  1.00  0.00    -0.031 C 
HETATM    3  C8  UNL     1     -15.949  -9.815 156.576  1.00  0.00    -0.031 C 
BRANCH   3   4
HETATM    4  C7  UNL     1     -16.492  -8.990 155.494  1.00  0.00     0.027 C 
BRANCH   4   5
HETATM    5  C6  UNL     1     -16.584  -9.831 154.234  1.00  0.00     0.004 C 
BRANCH   5   6
HETATM    6  C5  UNL     1     -15.856 -11.131 154.337  1.00  0.00     0.001 C 
BRANCH   6   7
HETATM    7  C4  UNL     1     -16.788 -12.246 153.924  1.00  0.00     0.004 C 
BRANCH   7   8
HETATM    8  C3  UNL     1     -18.231 -11.923 154.195  1.00  0.00     0.026 C 
BRANCH   8   9
HETATM    9  C2  UNL     1     -18.963 -13.177 154.492  1.00  0.00    -0.037 C 
HETATM   10  C1  UNL     1     -18.411 -14.349 154.226  1.00  0.00     0.007 C 
ENDBRANCH   8   9
ENDBRANCH   7   8
ENDBRANCH   6   7
ENDBRANCH   5   6
ENDBRANCH   4   5
ENDBRANCH   3   4
ENDBRANCH   1   2
BRANCH   1  11
HETATM   11  C11 UNL     1     -17.554  -8.800 159.602  1.00  0.00     0.005 C 
BRANCH  11  12
HETATM   12  C12 UNL     1     -18.654  -7.813 159.768  1.00  0.00     0.021 C 
BRANCH  12  13
HETATM   13  C13 UNL     1     -18.333  -6.739 160.789  1.00  0.00     0.129 C 
BRANCH  13  14
HETATM   14  N1  UNL     1     -19.293  -5.678 160.609  1.00  0.00    -0.352 N 
HETATM   15  C14 UNL     1     -20.348  -5.645 159.764  1.00  0.00     0.108 A 
HETATM   16  C15 UNL     1     -21.015  -4.454 159.899  1.00  0.00     0.106 A 
HETATM   17  N2  UNL     1     -20.353  -3.767 160.834  1.00  0.00    -0.361 N 
HETATM   18  C16 UNL     1     -19.294  -4.514 161.274  1.00  0.00     0.182 A 
ATOM     19  H2  UNL     1     -20.597  -2.834 161.167  1.00  0.00     0.166 HD
ENDBRANCH  13  14
ENDBRANCH  12  13
ENDBRANCH  11  12
ENDBRANCH   1  11
TORSDOF 11
ENDMDL
MODEL 4
REMARK VINA RESULT: -7.338100918      1.050      1.656
REMARK  11 active torsions:
REMARK  status: ('A' for Active; 'I' for Inactive)
REMARK    1  A    between atoms: C2_2  and  C3_3 
REMARK    2  A    between atoms: C3_3  and  C4_4 
REMARK    3  A    between atoms: C4_4  and  C5_5 
REMARK    4  A    between atoms: C5_5  and  C6_6 
REMARK    5  A    between atoms: C6_6  and  C7_7 
REMARK    6  A    between atoms: C7_7  and  C8_8 
REMARK    7  A    between atoms: C9_9  and  C10_10 
REMARK    8  A    between atoms: C10_10  and  C11_11 
REMARK    9  A    between atoms: C11_11  and  C12_12 
REMARK   10  A    between atoms: C12_12  and  C13_13 
REMARK   11  A    between atoms: C13_13  and  N1_14 
ROOT
HETATM    1  C10 UNL     1     -15.497  -9.702 156.672  1.00  0.00     0.027 C 
ENDROOT
BRANCH   1   2
HETATM    2  C9  UNL     1     -16.413  -9.142 155.676  1.00  0.00    -0.031 C 
HETATM    3  C8  UNL     1     -16.576  -9.713 154.500  1.00  0.00    -0.031 C 
BRANCH   3   4
HETATM    4  C7  UNL     1     -15.923 -10.924 153.999  1.00  0.00     0.027 C 
BRANCH   4   5
HETATM    5  C6  UNL     1     -16.914 -12.072 154.041  1.00  0.00     0.004 C 
BRANCH   5   6
HETATM    6  C5  UNL     1     -18.301 -11.642 154.389  1.00  0.00     0.001 C 
BRANCH   6   7
HETATM    7  C4  UNL     1     -19.210 -12.849 154.352  1.00  0.00     0.004 C 
BRANCH   7   8
HETATM    8  C3  UNL     1     -18.491 -14.124 154.694  1.00  0.00     0.026 C 
BRANCH   8   9
HETATM    9  C2  UNL     1     -18.507 -15.023 153.516  1.00  0.00    -0.037 C 
HETATM   10  C1  UNL     1     -19.153 -14.670 152.418  1.00  0.00     0.007 C 
ENDBRANCH   8   9
ENDBRANCH   7   8
ENDBRANCH   6   7
ENDBRANCH   5   6
ENDBRANCH   4   5
ENDBRANCH   3   4
ENDBRANCH   1   2
BRANCH   1  11
HETATM   11  C11 UNL     1     -16.132  -9.642 158.045  1.00  0.00     0.005 C 
BRANCH  11  12
HETATM   12  C12 UNL     1     -16.948  -8.404 158.148  1.00  0.00     0.021 C 
BRANCH  12  13
HETATM   13  C13 UNL     1     -17.329  -8.066 159.577  1.00  0.00     0.129 C 
BRANCH  13  14
HETATM   14  N1  UNL     1     -18.459  -7.172 159.517  1.00  0.00    -0.352 N 
HETATM   15  C14 UNL     1     -19.387  -7.068 158.540  1.00  0.00     0.108 A 
HETATM   16  C15 UNL     1     -20.298  -6.095 158.864  1.00  0.00     0.106 A 
HETATM   17  N2  UNL     1     -19.911  -5.611 160.048  1.00  0.00    -0.361 N 
HETATM   18  C16 UNL     1     -18.781  -6.269 160.454  1.00  0.00     0.182 A 
ATOM     19  H2  UNL     1     -20.381  -4.869 160.567  1.00  0.00     0.166 HD
ENDBRANCH  13  14
ENDBRANCH  12  13
ENDBRANCH  11  12
ENDBRANCH   1  11
TORSDOF 11
ENDMDL
MODEL 5
REMARK VINA RESULT: -7.318453904      1.059      1.379
REMARK  11 active torsions:
REMARK  status: ('A' for Active; 'I' for Inactive)
REMARK    1  A    between atoms: C2_2  and  C3_3 
REMARK    2  A    between atoms: C3_3  and  C4_4 
REMARK    3  A    between atoms: C4_4  and  C5_5 
REMARK    4  A    between atoms: C5_5  and  C6_6 
REMARK    5  A    between atoms: C6_6  and  C7_7 
REMARK    6  A    between atoms: C7_7  and  C8_8 
REMARK    7  A    between atoms: C9_9  and  C10_10 
REMARK    8  A    between atoms: C10_10  and  C11_11 
REMARK    9  A    between atoms: C11_11  and  C12_12 
REMARK   10  A    between atoms: C12_12  and  C13_13 
REMARK   11  A    between atoms: C13_13  and  N1_14 
ROOT
HETATM    1  C10 UNL     1     -17.100  -7.779 156.988  1.00  0.00     0.027 C 
ENDROOT
BRANCH   1   2
HETATM    2  C9  UNL     1     -16.276  -8.991 156.976  1.00  0.00    -0.031 C 
HETATM    3  C8  UNL     1     -16.128  -9.705 155.879  1.00  0.00    -0.031 C 
BRANCH   3   4
HETATM    4  C7  UNL     1     -16.714  -9.449 154.562  1.00  0.00     0.027 C 
BRANCH   4   5
HETATM    5  C6  UNL     1     -16.455 -10.646 153.666  1.00  0.00     0.004 C 
BRANCH   5   6
HETATM    6  C5  UNL     1     -16.576 -11.953 154.378  1.00  0.00     0.001 C 
BRANCH   6   7
HETATM    7  C4  UNL     1     -18.036 -12.339 154.443  1.00  0.00     0.004 C 
BRANCH   7   8
HETATM    8  C3  UNL     1     -18.257 -13.808 154.212  1.00  0.00     0.026 C 
BRANCH   8   9
HETATM    9  C2  UNL     1     -19.021 -13.994 152.956  1.00  0.00    -0.037 C 
HETATM   10  C1  UNL     1     -19.891 -13.079 152.564  1.00  0.00     0.007 C 
ENDBRANCH   8   9
ENDBRANCH   7   8
ENDBRANCH   6   7
ENDBRANCH   5   6
ENDBRANCH   4   5
ENDBRANCH   3   4
ENDBRANCH   1   2
BRANCH   1  11
HETATM   11  C11 UNL     1     -17.014  -7.113 158.344  1.00  0.00     0.005 C 
BRANCH  11  12
HETATM   12  C12 UNL     1     -18.241  -7.435 159.120  1.00  0.00     0.021 C 
BRANCH  12  13
HETATM   13  C13 UNL     1     -18.259  -6.783 160.489  1.00  0.00     0.129 C 
BRANCH  13  14
HETATM   14  N1  UNL     1     -19.246  -5.733 160.447  1.00  0.00    -0.352 N 
HETATM   15  C14 UNL     1     -20.354  -5.661 159.676  1.00  0.00     0.108 A 
HETATM   16  C15 UNL     1     -21.030  -4.497 159.938  1.00  0.00     0.106 A 
HETATM   17  N2  UNL     1     -20.321  -3.864 160.877  1.00  0.00    -0.361 N 
HETATM   18  C16 UNL     1     -19.223  -4.619 161.194  1.00  0.00     0.182 A 
ATOM     19  H2  UNL     1     -20.558  -2.963 161.292  1.00  0.00     0.166 HD
ENDBRANCH  13  14
ENDBRANCH  12  13
ENDBRANCH  11  12
ENDBRANCH   1  11
TORSDOF 11
ENDMDL
