MODEL 1
REMARK VINA RESULT: -7.706745223      0.000      0.000
REMARK  11 active torsions:
REMARK  status: ('A' for Active; 'I' for Inactive)
REMARK    1  A    between atoms: C2_2  and  C3_3 
REMARK    2  A    between atoms: C3_3  and  C4_4 
REMARK    3  A    between atoms: C4_4  and  C5_5 
REMARK    4  A    between atoms: C5_5  and  C6_6 
REMARK    5  A    between atoms: C7_7  and  C8_8 
REMARK    6  A    between atoms: C8_8  and  C9_9 
REMARK    7  A    between atoms: C9_9  and  C10_10 
REMARK    8  A    between atoms: C10_10  and  C11_11 
REMARK    9  A    between atoms: C11_11  and  C12_12 
REMARK   10  A    between atoms: C12_12  and  C13_13 
REMARK   11  A    between atoms: C13_13  and  N1_14 
ROOT
HETATM    1  C10 UNL     1     -16.214  -9.424 157.996  1.00  0.00     0.000 C 
ENDROOT
BRANCH   1   2
HETATM    2  C9  UNL     1     -15.164 -10.467 157.727  1.00  0.00     0.004 C 
BRANCH   2   3
HETATM    3  C8  UNL     1     -15.155 -10.897 156.272  1.00  0.00     0.027 C 
BRANCH   3   4
HETATM    4  C7  UNL     1     -15.957 -10.003 155.446  1.00  0.00    -0.031 C 
HETATM    5  C6  UNL     1     -16.714 -10.279 154.416  1.00  0.00    -0.031 C 
BRANCH   5   6
HETATM    6  C5  UNL     1     -16.879 -11.652 153.897  1.00  0.00     0.027 C 
BRANCH   6   7
HETATM    7  C4  UNL     1     -18.156 -12.274 154.411  1.00  0.00     0.007 C 
BRANCH   7   8
HETATM    8  C3  UNL     1     -18.196 -13.750 154.143  1.00  0.00     0.026 C 
BRANCH   8   9
HETATM    9  C2  UNL     1     -18.989 -14.030 152.922  1.00  0.00    -0.037 C 
HETATM   10  C1  UNL     1     -19.907 -13.165 152.542  1.00  0.00     0.007 C 
ENDBRANCH   8   9
ENDBRANCH   7   8
ENDBRANCH   6   7
ENDBRANCH   5   6
ENDBRANCH   3   4
ENDBRANCH   2   3
ENDBRANCH   1   2
BRANCH   1  11
HETATM   11  C11 UNL     1     -16.630  -9.361 159.443  1.00  0.00     0.002 C 
BRANCH  11  12
HETATM   12  C12 UNL     1     -17.909  -8.595 159.538  1.00  0.00     0.020 C 
BRANCH  12  13
HETATM   13  C13 UNL     1     -17.696  -7.096 159.510  1.00  0.00     0.129 C 
BRANCH  13  14
HETATM   14  N1  UNL     1     -18.994  -6.471 159.562  1.00  0.00    -0.352 N 
HETATM   15  C14 UNL     1     -19.433  -5.565 160.481  1.00  0.00     0.108 A 
HETATM   16  C15 UNL     1     -20.728  -5.218 160.178  1.00  0.00     0.106 A 
HETATM   17  N2  UNL     1     -21.055  -5.913 159.087  1.00  0.00    -0.361 N 
HETATM   18  C16 UNL     1     -20.001  -6.682 158.704  1.00  0.00     0.182 A 
ATOM     19  H2  UNL     1     -21.958  -5.873 158.612  1.00  0.00     0.166 HD
ENDBRANCH  13  14
ENDBRANCH  12  13
ENDBRANCH  11  12
ENDBRANCH   1  11
TORSDOF 11
ENDMDL
MODEL 2
REMARK VINA RESULT: -7.558040160      1.242      1.926
REMARK  11 active torsions:
REMARK  status: ('A' for Active; 'I' for Inactive)
REMARK    1  A    between atoms: C2_2  and  C3_3 
REMARK    2  A    between atoms: C3_3  and  C4_4 
REMARK    3  A    between atoms: C4_4  and  C5_5 
REMARK    4  A    between atoms: C5_5  and  C6_6 
REMARK    5  A    between atoms: C7_7  and  C8_8 
REMARK    6  A    between atoms: C8_8  and  C9_9 
REMARK    7  A    between atoms: C9_9  and  C10_10 
REMARK    8  A    between atoms: C10_10  and  C11_11 
REMARK    9  A    between atoms: C11_11  and  C12_12 
REMARK   10  A    between atoms: C12_12  and  C13_13 
REMARK   11  A    between atoms: C13_13  and  N1_14 
ROOT
HETATM    1  C10 UNL     1     -16.674  -8.895 158.602  1.00  0.00     0.000 C 
ENDROOT
BRANCH   1   2
HETATM    2  C9  UNL     1     -17.006  -8.054 157.400  1.00  0.00     0.004 C 
BRANCH   2   3
HETATM    3  C8  UNL     1     -16.479  -8.671 156.117  1.00  0.00     0.027 C 
BRANCH   3   4
HETATM    4  C7  UNL     1     -15.764  -9.914 156.377  1.00  0.00    -0.031 C 
HETATM    5  C6  UNL     1     -15.545 -10.929 155.581  1.00  0.00    -0.031 C 
BRANCH   5   6
HETATM    6  C5  UNL     1     -16.032 -10.964 154.188  1.00  0.00     0.027 C 
BRANCH   6   7
HETATM    7  C4  UNL     1     -16.867 -12.198 153.937  1.00  0.00     0.007 C 
BRANCH   7   8
HETATM    8  C3  UNL     1     -18.307 -11.969 154.292  1.00  0.00     0.026 C 
BRANCH   8   9
HETATM    9  C2  UNL     1     -19.018 -13.264 154.418  1.00  0.00    -0.037 C 
HETATM   10  C1  UNL     1     -18.384 -14.376 154.109  1.00  0.00     0.007 C 
ENDBRANCH   8   9
ENDBRANCH   7   8
ENDBRANCH   6   7
ENDBRANCH   5   6
ENDBRANCH   3   4
ENDBRANCH   2   3
ENDBRANCH   1   2
BRANCH   1  11
HETATM   11  C11 UNL     1     -17.738  -8.849 159.669  1.00  0.00     0.002 C 
BRANCH  11  12
HETATM   12  C12 UNL     1     -18.489  -7.566 159.536  1.00  0.00     0.020 C 
BRANCH  12  13
HETATM   13  C13 UNL     1     -18.358  -6.682 160.759  1.00  0.00     0.129 C 
BRANCH  13  14
HETATM   14  N1  UNL     1     -19.286  -5.589 160.606  1.00  0.00    -0.352 N 
HETATM   15  C14 UNL     1     -20.358  -5.533 159.767  1.00  0.00     0.108 A 
HETATM   16  C15 UNL     1     -20.983  -4.319 159.926  1.00  0.00     0.106 A 
HETATM   17  N2  UNL     1     -20.287  -3.659 160.853  1.00  0.00    -0.361 N 
HETATM   18  C16 UNL     1     -19.248  -4.429 161.274  1.00  0.00     0.182 A 
ATOM     19  H2  UNL     1     -20.502  -2.722 161.195  1.00  0.00     0.166 HD
ENDBRANCH  13  14
ENDBRANCH  12  13
ENDBRANCH  11  12
ENDBRANCH   1  11
TORSDOF 11
ENDMDL
MODEL 3
REMARK VINA RESULT: -7.467363990      1.082      1.485
REMARK  11 active torsions:
REMARK  status: ('A' for Active; 'I' for Inactive)
REMARK    1  A    between atoms: C2_2  and  C3_3 
REMARK    2  A    between atoms: C3_3  and  C4_4 
REMARK    3  A    between atoms: C4_4  and  C5_5 
REMARK    4  A    between atoms: C5_5  and  C6_6 
REMARK    5  A    between atoms: C7_7  and  C8_8 
REMARK    6  A    between atoms: C8_8  and  C9_9 
REMARK    7  A    between atoms: C9_9  and  C10_10 
REMARK    8  A    between atoms: C10_10  and  C11_11 
REMARK    9  A    between atoms: C11_11  and  C12_12 
REMARK   10  A    between atoms: C12_12  and  C13_13 
REMARK   11  A    between atoms: C13_13  and  N1_14 
ROOT
HETATM    1  C10 UNL     1     -16.870  -8.056 157.081  1.00  0.00     0.000 C 
ENDROOT
BRANCH   1   2
HETATM    2  C9  UNL     1     -16.261  -9.366 157.503  1.00  0.00     0.004 C 
BRANCH   2   3
HETATM    3  C8  UNL     1     -15.684 -10.126 156.322  1.00  0.00     0.027 C 
BRANCH   3   4
HETATM    4  C7  UNL     1     -16.227  -9.642 155.060  1.00  0.00    -0.031 C 
HETATM    5  C6  UNL     1     -16.667 -10.319 154.030  1.00  0.00    -0.031 C 
BRANCH   5   6
HETATM    6  C5  UNL     1     -16.678 -11.795 153.997  1.00  0.00     0.027 C 
BRANCH   6   7
HETATM    7  C4  UNL     1     -18.031 -12.336 154.398  1.00  0.00     0.007 C 
BRANCH   7   8
HETATM    8  C3  UNL     1     -18.140 -13.806 154.120  1.00  0.00     0.026 C 
BRANCH   8   9
HETATM    9  C2  UNL     1     -18.993 -14.043 152.931  1.00  0.00    -0.037 C 
HETATM   10  C1  UNL     1     -19.882 -13.134 152.589  1.00  0.00     0.007 C 
ENDBRANCH   8   9
ENDBRANCH   7   8
ENDBRANCH   6   7
ENDBRANCH   5   6
ENDBRANCH   3   4
ENDBRANCH   2   3
ENDBRANCH   1   2
BRANCH   1  11
HETATM   11  C11 UNL     1     -17.014  -7.077 158.218  1.00  0.00     0.002 C 
BRANCH  11  12
HETATM   12  C12 UNL     1     -18.286  -7.373 158.942  1.00  0.00     0.020 C 
BRANCH  12  13
HETATM   13  C13 UNL     1     -18.297  -6.823 160.353  1.00  0.00     0.129 C 
BRANCH  13  14
HETATM   14  N1  UNL     1     -19.255  -5.746 160.392  1.00  0.00    -0.352 N 
HETATM   15  C14 UNL     1     -20.375  -5.614 159.626  1.00  0.00     0.108 A 
HETATM   16  C15 UNL     1     -21.014  -4.448 159.973  1.00  0.00     0.106 A 
HETATM   17  N2  UNL     1     -20.280  -3.891 160.937  1.00  0.00    -0.361 N 
HETATM   18  C16 UNL     1     -19.202  -4.678 161.199  1.00  0.00     0.182 A 
ATOM     19  H2  UNL     1     -20.494  -3.011 161.406  1.00  0.00     0.166 HD
ENDBRANCH  13  14
ENDBRANCH  12  13
ENDBRANCH  11  12
ENDBRANCH   1  11
TORSDOF 11
ENDMDL
MODEL 4
REMARK VINA RESULT: -7.413685357      1.483      2.144
REMARK  11 active torsions:
REMARK  status: ('A' for Active; 'I' for Inactive)
REMARK    1  A    between atoms: C2_2  and  C3_3 
REMARK    2  A    between atoms: C3_3  and  C4_4 
REMARK    3  A    between atoms: C4_4  and  C5_5 
REMARK    4  A    between atoms: C5_5  and  C6_6 
REMARK    5  A    between atoms: C7_7  and  C8_8 
REMARK    6  A    between atoms: C8_8  and  C9_9 
REMARK    7  A    between atoms: C9_9  and  C10_10 
REMARK    8  A    between atoms: C10_10  and  C11_11 
REMARK    9  A    between atoms: C11_11  and  C12_12 
REMARK   10  A    between atoms: C12_12  and  C13_13 
REMARK   11  A    between atoms: C13_13  and  N1_14 
ROOT
HETATM    1  C10 UNL     1     -16.786  -8.191 156.476  1.00  0.00     0.000 C 
ENDROOT
BRANCH   1   2
HETATM    2  C9  UNL     1     -16.143  -9.448 156.994  1.00  0.00     0.004 C 
BRANCH   2   3
HETATM    3  C8  UNL     1     -15.552 -10.283 155.872  1.00  0.00     0.027 C 
BRANCH   3   4
HETATM    4  C7  UNL     1     -16.244 -10.049 154.611  1.00  0.00    -0.031 C 
HETATM    5  C6  UNL     1     -16.769 -10.911 153.780  1.00  0.00    -0.031 C 
BRANCH   5   6
HETATM    6  C5  UNL     1     -16.735 -12.367 154.019  1.00  0.00     0.027 C 
BRANCH   6   7
HETATM    7  C4  UNL     1     -18.074 -12.866 154.511  1.00  0.00     0.007 C 
BRANCH   7   8
HETATM    8  C3  UNL     1     -18.377 -14.238 153.984  1.00  0.00     0.026 C 
BRANCH   8   9
HETATM    9  C2  UNL     1     -19.114 -14.144 152.701  1.00  0.00    -0.037 C 
HETATM   10  C1  UNL     1     -19.939 -13.136 152.507  1.00  0.00     0.007 C 
ENDBRANCH   8   9
ENDBRANCH   7   8
ENDBRANCH   6   7
ENDBRANCH   5   6
ENDBRANCH   3   4
ENDBRANCH   2   3
ENDBRANCH   1   2
BRANCH   1  11
HETATM   11  C11 UNL     1     -17.546  -7.434 157.535  1.00  0.00     0.002 C 
BRANCH  11  12
HETATM   12  C12 UNL     1     -17.404  -8.160 158.832  1.00  0.00     0.020 C 
BRANCH  12  13
HETATM   13  C13 UNL     1     -18.468  -7.774 159.838  1.00  0.00     0.129 C 
BRANCH  13  14
HETATM   14  N1  UNL     1     -17.912  -6.750 160.687  1.00  0.00    -0.352 N 
HETATM   15  C14 UNL     1     -18.553  -5.651 161.177  1.00  0.00     0.108 A 
HETATM   16  C15 UNL     1     -17.671  -4.927 161.943  1.00  0.00     0.106 A 
HETATM   17  N2  UNL     1     -16.514  -5.591 161.908  1.00  0.00    -0.361 N 
HETATM   18  C16 UNL     1     -16.653  -6.707 161.142  1.00  0.00     0.182 A 
ATOM     19  H2  UNL     1     -15.658  -5.306 162.384  1.00  0.00     0.166 HD
ENDBRANCH  13  14
ENDBRANCH  12  13
ENDBRANCH  11  12
ENDBRANCH   1  11
TORSDOF 11
ENDMDL
MODEL 5
REMARK VINA RESULT: -7.387425532      0.950      1.278
REMARK  11 active torsions:
REMARK  status: ('A' for Active; 'I' for Inactive)
REMARK    1  A    between atoms: C2_2  and  C3_3 
REMARK    2  A    between atoms: C3_3  and  C4_4 
REMARK    3  A    between atoms: C4_4  and  C5_5 
REMARK    4  A    between atoms: C5_5  and  C6_6 
REMARK    5  A    between atoms: C7_7  and  C8_8 
REMARK    6  A    between atoms: C8_8  and  C9_9 
REMARK    7  A    between atoms: C9_9  and  C10_10 
REMARK    8  A    between atoms: C10_10  and  C11_11 
REMARK    9  A    between atoms: C11_11  and  C12_12 
REMARK   10  A    between atoms: C12_12  and  C13_13 
REMARK   11  A    between atoms: C13_13  and  N1_14 
ROOT
HETATM    1  C10 UNL     1     -16.665  -8.969 158.216  1.00  0.00     0.000 C 
ENDROOT
BRANCH   1   2
HETATM    2  C9  UNL     1     -16.675  -8.616 156.754  1.00  0.00     0.004 C 
BRANCH   2   3
HETATM    3  C8  UNL     1     -15.969  -9.665 155.915  1.00  0.00     0.027 C 
BRANCH   3   4
HETATM    4  C7  UNL     1     -16.354  -9.573 154.512  1.00  0.00    -0.031 C 
HETATM    5  C6  UNL     1     -16.659 -10.527 153.670  1.00  0.00    -0.031 C 
BRANCH   5   6
HETATM    6  C5  UNL     1     -16.658 -11.953 154.051  1.00  0.00     0.027 C 
BRANCH   6   7
HETATM    7  C4  UNL     1     -18.049 -12.415 154.419  1.00  0.00     0.007 C 
BRANCH   7   8
HETATM    8  C3  UNL     1     -18.233 -13.878 154.144  1.00  0.00     0.026 C 
BRANCH   8   9
HETATM    9  C2  UNL     1     -19.038 -14.073 152.914  1.00  0.00    -0.037 C 
HETATM   10  C1  UNL     1     -19.887 -13.135 152.549  1.00  0.00     0.007 C 
ENDBRANCH   8   9
ENDBRANCH   7   8
ENDBRANCH   6   7
ENDBRANCH   5   6
ENDBRANCH   3   4
ENDBRANCH   2   3
ENDBRANCH   1   2
BRANCH   1  11
HETATM   11  C11 UNL     1     -16.871  -7.778 159.116  1.00  0.00     0.002 C 
BRANCH  11  12
HETATM   12  C12 UNL     1     -18.228  -7.877 159.732  1.00  0.00     0.020 C 
BRANCH  12  13
HETATM   13  C13 UNL     1     -19.284  -7.131 158.945  1.00  0.00     0.129 C 
BRANCH  13  14
HETATM   14  N1  UNL     1     -19.703  -6.003 159.740  1.00  0.00    -0.352 N 
HETATM   15  C14 UNL     1     -19.075  -5.493 160.837  1.00  0.00     0.108 A 
HETATM   16  C15 UNL     1     -19.796  -4.420 161.302  1.00  0.00     0.106 A 
HETATM   17  N2  UNL     1     -20.845  -4.293 160.488  1.00  0.00    -0.361 N 
HETATM   18  C16 UNL     1     -20.795  -5.258 159.530  1.00  0.00     0.182 A 
ATOM     19  H2  UNL     1     -21.572  -3.582 160.570  1.00  0.00     0.166 HD
ENDBRANCH  13  14
ENDBRANCH  12  13
ENDBRANCH  11  12
ENDBRANCH   1  11
TORSDOF 11
ENDMDL
