MODEL 1
REMARK VINA RESULT: -5.155170360      0.000      0.000
REMARK  4 active torsions:
REMARK  status: ('A' for Active; 'I' for Inactive)
REMARK    1  A    between atoms: C3_5  and  N2_6 
REMARK    2  A    between atoms: C4_11  and  C5_12 
REMARK    3  A    between atoms: C5_12  and  S2_13 
REMARK    4  A    between atoms: S2_13  and  C6_14 
ROOT
HETATM    1  N1  UNL     1      -2.138 -16.901 -51.069  1.00  0.00    -0.191 NA
HETATM    2  C1  UNL     1      -1.140 -16.436 -51.418  1.00  0.00     0.109 C 
HETATM    3  C2  UNL     1       0.114 -15.837 -51.865  1.00  0.00     0.112 A 
HETATM    4  S1  UNL     1       0.403 -14.244 -52.409  1.00  0.00    -0.041 SA
HETATM    5  C3  UNL     1       2.069 -14.385 -52.717  1.00  0.00     0.143 A 
HETATM    6  N3  UNL     1       2.340 -15.643 -52.393  1.00  0.00    -0.338 N 
ATOM      7  H3  UNL     1       3.287 -16.013 -52.481  1.00  0.00     0.168 HD
HETATM    8  C4  UNL     1       1.356 -16.403 -51.954  1.00  0.00     0.049 A 
ENDROOT
BRANCH   8   9
HETATM    9  C5  UNL     1       1.502 -17.866 -51.540  1.00  0.00     0.141 C 
BRANCH   9  10
HETATM   10  S2  UNL     1       1.801 -18.017 -49.783  1.00  0.00    -0.086 SA
BRANCH  10  11
HETATM   11  C6  UNL     1       0.294 -18.593 -49.015  1.00  0.00     0.163 A 
HETATM   12  N4  UNL     1      -0.644 -19.423 -49.552  1.00  0.00    -0.287 N 
HETATM   13  C7  UNL     1      -1.629 -19.617 -48.658  1.00  0.00     0.340 A 
ATOM     14  H4  UNL     1      -0.604 -19.832 -50.486  1.00  0.00     0.172 HD
HETATM   15  O1  UNL     1      -2.676 -20.297 -48.729  1.00  0.00    -0.245 OA
HETATM   16  N5  UNL     1      -1.313 -18.903 -47.548  1.00  0.00    -0.249 N 
HETATM   17  N6  UNL     1      -0.177 -18.313 -47.789  1.00  0.00    -0.276 N 
ATOM     18  H5  UNL     1      -1.859 -18.841 -46.690  1.00  0.00     0.192 HD
ATOM     19  H6  UNL     1       0.300 -17.706 -47.122  1.00  0.00     0.189 HD
ENDBRANCH  10  11
ENDBRANCH   9  10
ENDBRANCH   8   9
BRANCH   5  20
HETATM   20  N2  UNL     1       2.850 -13.447 -53.167  1.00  0.00    -0.380 N 
ATOM     21  H22 UNL     1       3.864 -13.355 -53.116  1.00  0.00     0.158 HD
ATOM     22  H21 UNL     1       2.557 -12.609 -53.670  1.00  0.00     0.158 HD
ENDBRANCH   5  20
TORSDOF 4
ENDMDL
MODEL 2
REMARK VINA RESULT: -5.040308706      1.179      1.211
REMARK  4 active torsions:
REMARK  status: ('A' for Active; 'I' for Inactive)
REMARK    1  A    between atoms: C3_5  and  N2_6 
REMARK    2  A    between atoms: C4_11  and  C5_12 
REMARK    3  A    between atoms: C5_12  and  S2_13 
REMARK    4  A    between atoms: S2_13  and  C6_14 
ROOT
HETATM    1  N1  UNL     1      -2.394 -16.815 -51.656  1.00  0.00    -0.191 NA
HETATM    2  C1  UNL     1      -1.300 -16.495 -51.842  1.00  0.00     0.109 C 
HETATM    3  C2  UNL     1       0.078 -16.079 -52.082  1.00  0.00     0.112 A 
HETATM    4  S1  UNL     1       0.667 -14.539 -52.527  1.00  0.00    -0.041 SA
HETATM    5  C3  UNL     1       2.324 -14.916 -52.594  1.00  0.00     0.143 A 
HETATM    6  N3  UNL     1       2.363 -16.203 -52.274  1.00  0.00    -0.338 N 
ATOM      7  H3  UNL     1       3.251 -16.704 -52.234  1.00  0.00     0.168 HD
HETATM    8  C4  UNL     1       1.227 -16.817 -52.007  1.00  0.00     0.049 A 
ENDROOT
BRANCH   8   9
HETATM    9  C5  UNL     1       1.102 -18.290 -51.622  1.00  0.00     0.141 C 
BRANCH   9  10
HETATM   10  S2  UNL     1       1.507 -18.549 -49.899  1.00  0.00    -0.086 SA
BRANCH  10  11
HETATM   11  C6  UNL     1       0.134 -17.961 -48.917  1.00  0.00     0.163 A 
HETATM   12  N4  UNL     1      -1.182 -18.285 -49.057  1.00  0.00    -0.287 N 
HETATM   13  C7  UNL     1      -1.900 -17.634 -48.125  1.00  0.00     0.340 A 
ATOM     14  H4  UNL     1      -1.562 -18.921 -49.757  1.00  0.00     0.172 HD
HETATM   15  O1  UNL     1      -3.128 -17.637 -47.889  1.00  0.00    -0.245 OA
HETATM   16  N5  UNL     1      -1.032 -16.893 -47.391  1.00  0.00    -0.249 N 
HETATM   17  N6  UNL     1       0.155 -17.106 -47.882  1.00  0.00    -0.276 N 
ATOM     18  H5  UNL     1      -1.265 -16.284 -46.607  1.00  0.00     0.192 HD
ATOM     19  H6  UNL     1       1.006 -16.673 -47.520  1.00  0.00     0.189 HD
ENDBRANCH  10  11
ENDBRANCH   9  10
ENDBRANCH   8   9
BRANCH   5  20
HETATM   20  N2  UNL     1       3.287 -14.095 -52.895  1.00  0.00    -0.380 N 
ATOM     21  H22 UNL     1       3.527 -13.188 -52.497  1.00  0.00     0.158 HD
ATOM     22  H21 UNL     1       3.995 -14.236 -53.616  1.00  0.00     0.158 HD
ENDBRANCH   5  20
TORSDOF 4
ENDMDL
MODEL 3
REMARK VINA RESULT: -5.002646177      1.986      2.997
REMARK  4 active torsions:
REMARK  status: ('A' for Active; 'I' for Inactive)
REMARK    1  A    between atoms: C3_5  and  N2_6 
REMARK    2  A    between atoms: C4_11  and  C5_12 
REMARK    3  A    between atoms: C5_12  and  S2_13 
REMARK    4  A    between atoms: S2_13  and  C6_14 
ROOT
HETATM    1  N1  UNL     1       4.460 -15.208 -52.654  1.00  0.00    -0.191 NA
HETATM    2  C1  UNL     1       3.334 -14.963 -52.580  1.00  0.00     0.109 C 
HETATM    3  C2  UNL     1       1.912 -14.645 -52.497  1.00  0.00     0.112 A 
HETATM    4  S1  UNL     1       0.945 -13.776 -53.605  1.00  0.00    -0.041 SA
HETATM    5  C3  UNL     1      -0.533 -13.866 -52.769  1.00  0.00     0.143 A 
HETATM    6  N3  UNL     1      -0.231 -14.555 -51.676  1.00  0.00    -0.338 N 
ATOM      7  H3  UNL     1      -0.944 -14.763 -50.977  1.00  0.00     0.168 HD
HETATM    8  C4  UNL     1       1.013 -14.964 -51.517  1.00  0.00     0.049 A 
ENDROOT
BRANCH   8   9
HETATM    9  C5  UNL     1       1.520 -15.766 -50.321  1.00  0.00     0.141 C 
BRANCH   9  10
HETATM   10  S2  UNL     1       1.050 -17.487 -50.445  1.00  0.00    -0.086 SA
BRANCH  10  11
HETATM   11  C6  UNL     1      -0.223 -17.800 -49.231  1.00  0.00     0.163 A 
HETATM   12  N4  UNL     1      -1.501 -17.327 -49.232  1.00  0.00    -0.287 N 
HETATM   13  C7  UNL     1      -2.146 -17.788 -48.146  1.00  0.00     0.340 A 
ATOM     14  H4  UNL     1      -1.905 -16.719 -49.945  1.00  0.00     0.172 HD
HETATM   15  O1  UNL     1      -3.319 -17.608 -47.753  1.00  0.00    -0.245 OA
HETATM   16  N5  UNL     1      -1.268 -18.557 -47.452  1.00  0.00    -0.249 N 
HETATM   17  N6  UNL     1      -0.148 -18.544 -48.115  1.00  0.00    -0.276 N 
ATOM     18  H5  UNL     1      -1.452 -19.051 -46.579  1.00  0.00     0.192 HD
ATOM     19  H6  UNL     1       0.693 -19.042 -47.821  1.00  0.00     0.189 HD
ENDBRANCH  10  11
ENDBRANCH   9  10
ENDBRANCH   8   9
BRANCH   5  20
HETATM   20  N2  UNL     1      -1.667 -13.358 -53.156  1.00  0.00    -0.380 N 
ATOM     21  H22 UNL     1      -2.525 -13.819 -53.458  1.00  0.00     0.158 HD
ATOM     22  H21 UNL     1      -1.891 -12.365 -53.221  1.00  0.00     0.158 HD
ENDBRANCH   5  20
TORSDOF 4
ENDMDL
MODEL 4
REMARK VINA RESULT: -4.873242387      3.295      4.963
REMARK  4 active torsions:
REMARK  status: ('A' for Active; 'I' for Inactive)
REMARK    1  A    between atoms: C3_5  and  N2_6 
REMARK    2  A    between atoms: C4_11  and  C5_12 
REMARK    3  A    between atoms: C5_12  and  S2_13 
REMARK    4  A    between atoms: S2_13  and  C6_14 
ROOT
HETATM    1  N1  UNL     1       0.265 -22.483 -52.551  1.00  0.00    -0.191 NA
HETATM    2  C1  UNL     1       1.095 -22.032 -51.886  1.00  0.00     0.109 C 
HETATM    3  C2  UNL     1       2.149 -21.476 -51.043  1.00  0.00     0.112 A 
HETATM    4  S1  UNL     1       3.445 -22.285 -50.280  1.00  0.00    -0.041 SA
HETATM    5  C3  UNL     1       4.166 -20.942 -49.526  1.00  0.00     0.143 A 
HETATM    6  N3  UNL     1       3.389 -19.928 -49.886  1.00  0.00    -0.338 N 
ATOM      7  H3  UNL     1       3.589 -18.980 -49.570  1.00  0.00     0.168 HD
HETATM    8  C4  UNL     1       2.352 -20.178 -50.662  1.00  0.00     0.049 A 
ENDROOT
BRANCH   8   9
HETATM    9  C5  UNL     1       1.366 -19.127 -51.164  1.00  0.00     0.141 C 
BRANCH   9  10
HETATM   10  S2  UNL     1       1.292 -17.723 -50.058  1.00  0.00    -0.086 SA
BRANCH  10  11
HETATM   11  C6  UNL     1      -0.130 -17.932 -48.996  1.00  0.00     0.163 A 
HETATM   12  N4  UNL     1      -1.339 -17.311 -49.101  1.00  0.00    -0.287 N 
HETATM   13  C7  UNL     1      -2.143 -17.737 -48.111  1.00  0.00     0.340 A 
ATOM     14  H4  UNL     1      -1.593 -16.630 -49.816  1.00  0.00     0.172 HD
HETATM   15  O1  UNL     1      -3.323 -17.436 -47.829  1.00  0.00    -0.245 OA
HETATM   16  N5  UNL     1      -1.438 -18.634 -47.376  1.00  0.00    -0.249 N 
HETATM   17  N6  UNL     1      -0.259 -18.726 -47.921  1.00  0.00    -0.276 N 
ATOM     18  H5  UNL     1      -1.768 -19.138 -46.553  1.00  0.00     0.192 HD
ATOM     19  H6  UNL     1       0.483 -19.333 -47.571  1.00  0.00     0.189 HD
ENDBRANCH  10  11
ENDBRANCH   9  10
ENDBRANCH   8   9
BRANCH   5  20
HETATM   20  N2  UNL     1       5.231 -20.960 -48.780  1.00  0.00    -0.380 N 
ATOM     21  H22 UNL     1       5.432 -20.471 -47.908  1.00  0.00     0.158 HD
ATOM     22  H21 UNL     1       6.082 -21.495 -48.956  1.00  0.00     0.158 HD
ENDBRANCH   5  20
TORSDOF 4
ENDMDL
MODEL 5
REMARK VINA RESULT: -4.846438784      1.906      2.098
REMARK  4 active torsions:
REMARK  status: ('A' for Active; 'I' for Inactive)
REMARK    1  A    between atoms: C3_5  and  N2_6 
REMARK    2  A    between atoms: C4_11  and  C5_12 
REMARK    3  A    between atoms: C5_12  and  S2_13 
REMARK    4  A    between atoms: S2_13  and  C6_14 
ROOT
HETATM    1  N1  UNL     1      -1.464 -13.330 -52.960  1.00  0.00    -0.191 NA
HETATM    2  C1  UNL     1      -0.373 -13.702 -52.882  1.00  0.00     0.109 C 
HETATM    3  C2  UNL     1       1.010 -14.161 -52.792  1.00  0.00     0.112 A 
HETATM    4  S1  UNL     1       2.426 -13.412 -53.386  1.00  0.00    -0.041 SA
HETATM    5  C3  UNL     1       3.556 -14.573 -52.871  1.00  0.00     0.143 A 
HETATM    6  N3  UNL     1       2.808 -15.488 -52.266  1.00  0.00    -0.338 N 
ATOM      7  H3  UNL     1       3.232 -16.318 -51.851  1.00  0.00     0.168 HD
HETATM    8  C4  UNL     1       1.504 -15.297 -52.213  1.00  0.00     0.049 A 
ENDROOT
BRANCH   8   9
HETATM    9  C5  UNL     1       0.510 -16.251 -51.555  1.00  0.00     0.141 C 
BRANCH   9  10
HETATM   10  S2  UNL     1       1.232 -17.067 -50.137  1.00  0.00    -0.086 SA
BRANCH  10  11
HETATM   11  C6  UNL     1      -0.098 -17.580 -49.059  1.00  0.00     0.163 A 
HETATM   12  N4  UNL     1      -1.393 -17.156 -49.085  1.00  0.00    -0.287 N 
HETATM   13  C7  UNL     1      -2.083 -17.777 -48.111  1.00  0.00     0.340 A 
ATOM     14  H4  UNL     1      -1.779 -16.475 -49.738  1.00  0.00     0.172 HD
HETATM   15  O1  UNL     1      -3.284 -17.691 -47.778  1.00  0.00    -0.245 OA
HETATM   16  N5  UNL     1      -1.217 -18.599 -47.466  1.00  0.00    -0.249 N 
HETATM   17  N6  UNL     1      -0.059 -18.460 -48.046  1.00  0.00    -0.276 N 
ATOM     18  H5  UNL     1      -1.431 -19.209 -46.677  1.00  0.00     0.192 HD
ATOM     19  H6  UNL     1       0.782 -18.963 -47.764  1.00  0.00     0.189 HD
ENDBRANCH  10  11
ENDBRANCH   9  10
ENDBRANCH   8   9
BRANCH   5  20
HETATM   20  N2  UNL     1       4.842 -14.527 -53.053  1.00  0.00    -0.380 N 
ATOM     21  H22 UNL     1       5.506 -13.773 -52.877  1.00  0.00     0.158 HD
ATOM     22  H21 UNL     1       5.426 -15.279 -53.422  1.00  0.00     0.158 HD
ENDBRANCH   5  20
TORSDOF 4
ENDMDL
