MODEL 1
REMARK VINA RESULT: -5.379097916      0.000      0.000
REMARK  4 active torsions:
REMARK  status: ('A' for Active; 'I' for Inactive)
REMARK    1  A    between atoms: C2_2  and  C4_4 
REMARK    2  A    between atoms: C5_9  and  C6_10 
REMARK    3  A    between atoms: C6_10  and  C7_11 
REMARK    4  A    between atoms: C10_24  and  N7_25 
ROOT
HETATM    1  C4  UNL     1      -1.032 -17.534 -49.140  1.00  0.00     0.096 A 
HETATM    2  N1  UNL     1      -1.502 -17.118 -50.344  1.00  0.00    -0.295 N 
ATOM      3  H1  UNL     1      -2.440 -17.400 -50.629  1.00  0.00     0.187 HD
HETATM    4  N2  UNL     1      -0.789 -16.363 -51.161  1.00  0.00    -0.288 N 
ATOM      5  H2  UNL     1      -1.187 -16.078 -52.056  1.00  0.00     0.188 HD
HETATM    6  C5  UNL     1       0.457 -15.962 -50.828  1.00  0.00     0.104 A 
HETATM    7  N6  UNL     1       0.920 -16.367 -49.648  1.00  0.00    -0.329 N 
ATOM      8  H6  UNL     1       1.860 -16.074 -49.381  1.00  0.00     0.168 HD
HETATM    9  C10 UNL     1       0.228 -17.143 -48.775  1.00  0.00     0.129 A 
ENDROOT
BRANCH   6  10
HETATM   10  C6  UNL     1       1.221 -15.114 -51.776  1.00  0.00     0.154 C 
BRANCH  10  11
HETATM   11  C7  UNL     1       0.351 -14.149 -52.484  1.00  0.00     0.096 A 
HETATM   12  N3  UNL     1      -0.510 -13.323 -51.866  1.00  0.00    -0.297 N 
HETATM   13  C8  UNL     1      -1.287 -12.455 -52.562  1.00  0.00     0.329 A 
ATOM     14  H3  UNL     1      -0.581 -13.349 -50.849  1.00  0.00     0.172 HD
HETATM   15  O1  UNL     1      -2.083 -11.697 -51.924  1.00  0.00    -0.246 OA
HETATM   16  N4  UNL     1      -1.220 -12.393 -53.903  1.00  0.00    -0.260 N 
HETATM   17  C9  UNL     1      -0.353 -13.224 -54.524  1.00  0.00     0.329 A 
ATOM     18  H4  UNL     1      -1.801 -11.744 -54.433  1.00  0.00     0.175 HD
HETATM   19  O2  UNL     1      -0.310 -13.147 -55.776  1.00  0.00    -0.246 OA
HETATM   20  N5  UNL     1       0.419 -14.087 -53.824  1.00  0.00    -0.297 N 
ATOM     21  H5  UNL     1       1.063 -14.701 -54.322  1.00  0.00     0.172 HD
ENDBRANCH  10  11
ENDBRANCH   6  10
BRANCH   9  22
HETATM   22  N7  UNL     1       0.696 -17.513 -47.657  1.00  0.00    -0.384 N 
ATOM     23  H72 UNL     1       0.393 -18.361 -47.179  1.00  0.00     0.157 HD
ATOM     24  H71 UNL     1       1.410 -16.946 -47.200  1.00  0.00     0.157 HD
ENDBRANCH   9  22
BRANCH   1  25
HETATM   25  C2  UNL     1      -1.876 -18.364 -48.296  1.00  0.00    -0.039 C 
HETATM   26  C1  UNL     1      -1.746 -19.674 -48.388  1.00  0.00     0.021 C 
HETATM   27  C3  UNL     1      -2.864 -17.829 -47.347  1.00  0.00     0.050 C 
ENDBRANCH   1  25
TORSDOF 4
ENDMDL
MODEL 2
REMARK VINA RESULT: -5.356958096      0.081      1.798
REMARK  4 active torsions:
REMARK  status: ('A' for Active; 'I' for Inactive)
REMARK    1  A    between atoms: C2_2  and  C4_4 
REMARK    2  A    between atoms: C5_9  and  C6_10 
REMARK    3  A    between atoms: C6_10  and  C7_11 
REMARK    4  A    between atoms: C10_24  and  N7_25 
ROOT
HETATM    1  C4  UNL     1      -1.023 -17.543 -49.151  1.00  0.00     0.096 A 
HETATM    2  N1  UNL     1      -1.481 -17.124 -50.359  1.00  0.00    -0.295 N 
ATOM      3  H1  UNL     1      -2.423 -17.390 -50.647  1.00  0.00     0.187 HD
HETATM    4  N2  UNL     1      -0.751 -16.386 -51.175  1.00  0.00    -0.288 N 
ATOM      5  H2  UNL     1      -1.140 -16.097 -52.073  1.00  0.00     0.188 HD
HETATM    6  C5  UNL     1       0.501 -16.006 -50.839  1.00  0.00     0.104 A 
HETATM    7  N6  UNL     1       0.952 -16.414 -49.656  1.00  0.00    -0.329 N 
ATOM      8  H6  UNL     1       1.895 -16.137 -49.386  1.00  0.00     0.168 HD
HETATM    9  C10 UNL     1       0.242 -17.174 -48.782  1.00  0.00     0.129 A 
ENDROOT
BRANCH   6  10
HETATM   10  C6  UNL     1       1.284 -15.176 -51.787  1.00  0.00     0.154 C 
BRANCH  10  11
HETATM   11  C7  UNL     1       0.426 -14.237 -52.544  1.00  0.00     0.096 A 
HETATM   12  N3  UNL     1       0.420 -14.142 -53.884  1.00  0.00    -0.297 N 
HETATM   13  C8  UNL     1      -0.385 -13.263 -54.531  1.00  0.00     0.329 A 
ATOM     14  H3  UNL     1       1.036 -14.746 -54.428  1.00  0.00     0.172 HD
HETATM   15  O1  UNL     1      -0.349 -13.217 -55.801  1.00  0.00    -0.246 OA
HETATM   16  N4  UNL     1      -1.210 -12.452 -53.847  1.00  0.00    -0.260 N 
HETATM   17  C9  UNL     1      -1.204 -12.548 -52.499  1.00  0.00     0.329 A 
ATOM     18  H4  UNL     1      -1.818 -11.788 -54.326  1.00  0.00     0.175 HD
HETATM   19  O2  UNL     1      -1.982 -11.780 -51.883  1.00  0.00    -0.246 OA
HETATM   20  N5  UNL     1      -0.398 -13.427 -51.859  1.00  0.00    -0.297 N 
ATOM     21  H5  UNL     1      -0.417 -13.475 -50.841  1.00  0.00     0.172 HD
ENDBRANCH  10  11
ENDBRANCH   6  10
BRANCH   9  22
HETATM   22  N7  UNL     1       0.698 -17.548 -47.661  1.00  0.00    -0.384 N 
ATOM     23  H72 UNL     1       1.012 -16.897 -46.942  1.00  0.00     0.157 HD
ATOM     24  H71 UNL     1       0.762 -18.544 -47.452  1.00  0.00     0.157 HD
ENDBRANCH   9  22
BRANCH   1  25
HETATM   25  C2  UNL     1      -1.886 -18.355 -48.307  1.00  0.00    -0.039 C 
HETATM   26  C1  UNL     1      -1.786 -19.667 -48.400  1.00  0.00     0.021 C 
HETATM   27  C3  UNL     1      -2.861 -17.797 -47.358  1.00  0.00     0.050 C 
ENDBRANCH   1  25
TORSDOF 4
ENDMDL
MODEL 3
REMARK VINA RESULT: -5.312249677      3.193      4.007
REMARK  4 active torsions:
REMARK  status: ('A' for Active; 'I' for Inactive)
REMARK    1  A    between atoms: C2_2  and  C4_4 
REMARK    2  A    between atoms: C5_9  and  C6_10 
REMARK    3  A    between atoms: C6_10  and  C7_11 
REMARK    4  A    between atoms: C10_24  and  N7_25 
ROOT
HETATM    1  C4  UNL     1      -0.926 -17.480 -49.155  1.00  0.00     0.096 A 
HETATM    2  N1  UNL     1      -1.383 -16.867 -50.277  1.00  0.00    -0.295 N 
ATOM      3  H1  UNL     1      -2.346 -17.033 -50.570  1.00  0.00     0.187 HD
HETATM    4  N2  UNL     1      -0.628 -16.063 -51.003  1.00  0.00    -0.288 N 
ATOM      5  H2  UNL     1      -1.017 -15.627 -51.839  1.00  0.00     0.188 HD
HETATM    6  C5  UNL     1       0.653 -15.809 -50.655  1.00  0.00     0.104 A 
HETATM    7  N6  UNL     1       1.104 -16.408 -49.556  1.00  0.00    -0.329 N 
ATOM      8  H6  UNL     1       2.069 -16.228 -49.279  1.00  0.00     0.168 HD
HETATM    9  C10 UNL     1       0.368 -17.242 -48.777  1.00  0.00     0.129 A 
ENDROOT
BRANCH   6  10
HETATM   10  C6  UNL     1       1.464 -14.899 -51.500  1.00  0.00     0.154 C 
BRANCH  10  11
HETATM   11  C7  UNL     1       2.462 -15.632 -52.310  1.00  0.00     0.096 A 
HETATM   12  N3  UNL     1       2.295 -16.893 -52.742  1.00  0.00    -0.297 N 
HETATM   13  C8  UNL     1       3.242 -17.522 -53.483  1.00  0.00     0.329 A 
ATOM     14  H3  UNL     1       1.436 -17.390 -52.507  1.00  0.00     0.172 HD
HETATM   15  O1  UNL     1       3.030 -18.716 -53.864  1.00  0.00    -0.246 OA
HETATM   16  N4  UNL     1       4.387 -16.899 -53.811  1.00  0.00    -0.260 N 
HETATM   17  C9  UNL     1       4.553 -15.630 -53.377  1.00  0.00     0.329 A 
ATOM     18  H4  UNL     1       5.103 -17.365 -54.367  1.00  0.00     0.175 HD
HETATM   19  O2  UNL     1       5.630 -15.070 -53.696  1.00  0.00    -0.246 OA
HETATM   20  N5  UNL     1       3.605 -15.008 -52.638  1.00  0.00    -0.297 N 
ATOM     21  H5  UNL     1       3.761 -14.050 -52.326  1.00  0.00     0.172 HD
ENDBRANCH  10  11
ENDBRANCH   6  10
BRANCH   9  22
HETATM   22  N7  UNL     1       0.825 -17.798 -47.734  1.00  0.00    -0.384 N 
ATOM     23  H72 UNL     1       0.432 -18.653 -47.341  1.00  0.00     0.157 HD
ATOM     24  H71 UNL     1       1.623 -17.383 -47.253  1.00  0.00     0.157 HD
ENDBRANCH   9  22
BRANCH   1  25
HETATM   25  C2  UNL     1      -1.819 -18.352 -48.408  1.00  0.00    -0.039 C 
HETATM   26  C1  UNL     1      -2.654 -17.795 -47.550  1.00  0.00     0.021 C 
HETATM   27  C3  UNL     1      -1.846 -19.815 -48.554  1.00  0.00     0.050 C 
ENDBRANCH   1  25
TORSDOF 4
ENDMDL
MODEL 4
REMARK VINA RESULT: -5.233083389      3.203      3.988
REMARK  4 active torsions:
REMARK  status: ('A' for Active; 'I' for Inactive)
REMARK    1  A    between atoms: C2_2  and  C4_4 
REMARK    2  A    between atoms: C5_9  and  C6_10 
REMARK    3  A    between atoms: C6_10  and  C7_11 
REMARK    4  A    between atoms: C10_24  and  N7_25 
ROOT
HETATM    1  C4  UNL     1      -0.924 -17.476 -49.162  1.00  0.00     0.096 A 
HETATM    2  N1  UNL     1      -1.389 -16.866 -50.282  1.00  0.00    -0.295 N 
ATOM      3  H1  UNL     1      -2.352 -17.037 -50.572  1.00  0.00     0.187 HD
HETATM    4  N2  UNL     1      -0.641 -16.057 -51.011  1.00  0.00    -0.288 N 
ATOM      5  H2  UNL     1      -1.036 -15.623 -51.845  1.00  0.00     0.188 HD
HETATM    6  C5  UNL     1       0.640 -15.796 -50.668  1.00  0.00     0.104 A 
HETATM    7  N6  UNL     1       1.098 -16.392 -49.571  1.00  0.00    -0.329 N 
ATOM      8  H6  UNL     1       2.063 -16.207 -49.297  1.00  0.00     0.168 HD
HETATM    9  C10 UNL     1       0.370 -17.231 -48.789  1.00  0.00     0.129 A 
ENDROOT
BRANCH   6  10
HETATM   10  C6  UNL     1       1.443 -14.881 -51.515  1.00  0.00     0.154 C 
BRANCH  10  11
HETATM   11  C7  UNL     1       2.459 -15.605 -52.310  1.00  0.00     0.096 A 
HETATM   12  N3  UNL     1       3.642 -15.079 -52.671  1.00  0.00    -0.297 N 
HETATM   13  C8  UNL     1       4.541 -15.785 -53.401  1.00  0.00     0.329 A 
ATOM     14  H3  UNL     1       3.869 -14.125 -52.388  1.00  0.00     0.172 HD
HETATM   15  O1  UNL     1       5.644 -15.236 -53.714  1.00  0.00    -0.246 OA
HETATM   16  N4  UNL     1       4.275 -17.044 -53.791  1.00  0.00    -0.260 N 
HETATM   17  C9  UNL     1       3.086 -17.572 -53.427  1.00  0.00     0.329 A 
ATOM     18  H4  UNL     1       4.946 -17.580 -54.341  1.00  0.00     0.175 HD
HETATM   19  O2  UNL     1       2.862 -18.748 -53.804  1.00  0.00    -0.246 OA
HETATM   20  N5  UNL     1       2.193 -16.862 -52.698  1.00  0.00    -0.297 N 
ATOM     21  H5  UNL     1       1.304 -17.290 -52.440  1.00  0.00     0.172 HD
ENDBRANCH  10  11
ENDBRANCH   6  10
BRANCH   9  22
HETATM   22  N7  UNL     1       0.834 -17.785 -47.748  1.00  0.00    -0.384 N 
ATOM     23  H72 UNL     1       0.462 -17.617 -46.814  1.00  0.00     0.157 HD
ATOM     24  H71 UNL     1       1.618 -18.433 -47.832  1.00  0.00     0.157 HD
ENDBRANCH   9  22
BRANCH   1  25
HETATM   25  C2  UNL     1      -1.809 -18.354 -48.412  1.00  0.00    -0.039 C 
HETATM   26  C1  UNL     1      -2.644 -17.803 -47.552  1.00  0.00     0.021 C 
HETATM   27  C3  UNL     1      -1.827 -19.817 -48.559  1.00  0.00     0.050 C 
ENDBRANCH   1  25
TORSDOF 4
ENDMDL
MODEL 5
REMARK VINA RESULT: -5.160307608      2.969      6.290
REMARK  4 active torsions:
REMARK  status: ('A' for Active; 'I' for Inactive)
REMARK    1  A    between atoms: C2_2  and  C4_4 
REMARK    2  A    between atoms: C5_9  and  C6_10 
REMARK    3  A    between atoms: C6_10  and  C7_11 
REMARK    4  A    between atoms: C10_24  and  N7_25 
ROOT
HETATM    1  C4  UNL     1      -2.476 -13.005 -53.510  1.00  0.00     0.096 A 
HETATM    2  N1  UNL     1      -2.011 -14.228 -53.873  1.00  0.00    -0.295 N 
ATOM      3  H1  UNL     1      -2.502 -14.743 -54.604  1.00  0.00     0.187 HD
HETATM    4  N2  UNL     1      -0.948 -14.776 -53.314  1.00  0.00    -0.288 N 
ATOM      5  H2  UNL     1      -0.639 -15.699 -53.620  1.00  0.00     0.188 HD
HETATM    6  C5  UNL     1      -0.263 -14.134 -52.342  1.00  0.00     0.104 A 
HETATM    7  N6  UNL     1      -0.715 -12.935 -51.986  1.00  0.00    -0.329 N 
ATOM      8  H6  UNL     1      -0.209 -12.435 -51.254  1.00  0.00     0.168 HD
HETATM    9  C10 UNL     1      -1.802 -12.329 -52.529  1.00  0.00     0.129 A 
ENDROOT
BRANCH   6  10
HETATM   10  C6  UNL     1       0.927 -14.788 -51.744  1.00  0.00     0.154 C 
BRANCH  10  11
HETATM   11  C7  UNL     1       0.555 -15.851 -50.784  1.00  0.00     0.096 A 
HETATM   12  N3  UNL     1      -0.701 -16.069 -50.358  1.00  0.00    -0.297 N 
HETATM   13  C8  UNL     1      -0.991 -17.058 -49.476  1.00  0.00     0.329 A 
ATOM     14  H3  UNL     1      -1.455 -15.476 -50.707  1.00  0.00     0.172 HD
HETATM   15  O1  UNL     1      -2.196 -17.218 -49.108  1.00  0.00    -0.246 OA
HETATM   16  N4  UNL     1      -0.023 -17.858 -48.996  1.00  0.00    -0.260 N 
HETATM   17  C9  UNL     1       1.239 -17.638 -49.426  1.00  0.00     0.329 A 
ATOM     18  H4  UNL     1      -0.233 -18.603 -48.332  1.00  0.00     0.175 HD
HETATM   19  O2  UNL     1       2.124 -18.398 -48.962  1.00  0.00    -0.246 OA
HETATM   20  N5  UNL     1       1.521 -16.650 -50.306  1.00  0.00    -0.297 N 
ATOM     21  H5  UNL     1       2.485 -16.510 -50.611  1.00  0.00     0.172 HD
ENDBRANCH  10  11
ENDBRANCH   6  10
BRANCH   9  22
HETATM   22  N7  UNL     1      -2.209 -11.185 -52.168  1.00  0.00    -0.384 N 
ATOM     23  H72 UNL     1      -3.142 -10.832 -52.381  1.00  0.00     0.157 HD
ATOM     24  H71 UNL     1      -1.586 -10.574 -51.639  1.00  0.00     0.157 HD
ENDBRANCH   9  22
BRANCH   1  25
HETATM   25  C2  UNL     1      -3.654 -12.467 -54.172  1.00  0.00    -0.039 C 
HETATM   26  C1  UNL     1      -3.481 -11.799 -55.298  1.00  0.00     0.021 C 
HETATM   27  C3  UNL     1      -5.024 -12.627 -53.662  1.00  0.00     0.050 C 
ENDBRANCH   1  25
TORSDOF 4
ENDMDL
