MODEL 1
REMARK VINA RESULT: -6.567852680      0.000      0.000
REMARK  9 active torsions:
REMARK  status: ('A' for Active; 'I' for Inactive)
REMARK    1  A    between atoms: C2_2  and  O1_3 
REMARK    2  A    between atoms: O1_3  and  C3_4 
REMARK    3  A    between atoms: C3_4  and  C4_5 
REMARK    4  A    between atoms: C4_5  and  C5_6 
REMARK    5  A    between atoms: C4_5  and  N3_23 
REMARK    6  A    between atoms: C5_6  and  N1_7 
REMARK       I    between atoms: N1_7  and  C6_9 
REMARK       I    between atoms: C6_9  and  N2_11 
REMARK    7  A    between atoms: N2_11  and  C7_13 
REMARK    8  A    between atoms: N3_23  and  O3_24 
REMARK    9  A    between atoms: N3_23  and  C17_26 
ROOT
HETATM    1  N1  UNL     1      13.145   7.768   4.240  1.00  0.00    -0.341 N 
ATOM      2  H1  UNL     1      13.812   8.527   4.097  1.00  0.00     0.164 HD
HETATM    3  C6  UNL     1      12.996   6.858   3.188  1.00  0.00     0.316 C 
HETATM    4  O2  UNL     1      12.205   5.905   3.296  1.00  0.00    -0.247 OA
HETATM    5  N2  UNL     1      13.751   7.014   1.982  1.00  0.00    -0.339 N 
ATOM      6  H2  UNL     1      14.397   7.797   1.884  1.00  0.00     0.164 HD
ENDROOT
BRANCH   1   7
HETATM    7  C5  UNL     1      12.452   7.745   5.505  1.00  0.00     0.154 C 
BRANCH   7   8
HETATM    8  C4  UNL     1      13.424   7.326   6.588  1.00  0.00     0.158 C 
BRANCH   8   9
HETATM    9  C3  UNL     1      14.805   7.917   6.322  1.00  0.00     0.197 C 
BRANCH   9  10
HETATM   10  O1  UNL     1      15.762   7.500   7.215  1.00  0.00    -0.389 OA
BRANCH  10  11
HETATM   11  C2  UNL     1      17.012   7.925   6.843  1.00  0.00     0.163 C 
HETATM   12  C1  UNL     1      17.626   7.035   5.767  1.00  0.00     0.033 C 
ENDBRANCH  10  11
ENDBRANCH   9  10
ENDBRANCH   8   9
BRANCH   8  13
HETATM   13  N3  UNL     1      13.533   5.885   6.649  1.00  0.00    -0.228 N 
BRANCH  13  14
HETATM   14  O3  UNL     1      14.501   5.283   5.925  1.00  0.00    -0.285 OA
ATOM     15  H3  UNL     1      14.246   4.628   5.286  1.00  0.00     0.245 HD
ENDBRANCH  13  14
BRANCH  13  16
HETATM   16  C17 UNL     1      12.663   5.088   7.436  1.00  0.00     0.377 C 
HETATM   17  O4  UNL     1      12.046   4.119   6.903  1.00  0.00    -0.281 OA
ENDBRANCH  13  16
ENDBRANCH   8  13
ENDBRANCH   7   8
ENDBRANCH   1   7
BRANCH   5  18
HETATM   18  C7  UNL     1      13.598   6.043   0.873  1.00  0.00     0.086 C 
HETATM   19  C8  UNL     1      14.957   5.958   0.310  1.00  0.00     0.025 C 
HETATM   20  C9  UNL     1      15.421   4.574  -0.192  1.00  0.00     0.002 C 
HETATM   21  C10 UNL     1      14.227   4.022  -0.824  1.00  0.00     0.000 C 
HETATM   22  C11 UNL     1      14.109   2.838  -1.668  1.00  0.00     0.000 C 
HETATM   23  C12 UNL     1      12.668   2.937  -2.223  1.00  0.00     0.000 C 
HETATM   24  C13 UNL     1      11.642   3.461  -1.295  1.00  0.00     0.000 C 
HETATM   25  C14 UNL     1      11.223   4.885  -1.406  1.00  0.00     0.000 C 
HETATM   26  C15 UNL     1      11.262   5.689  -0.101  1.00  0.00     0.002 C 
HETATM   27  C16 UNL     1      12.500   6.587  -0.014  1.00  0.00     0.025 C 
ENDBRANCH   5  18
TORSDOF 9
ENDMDL
MODEL 2
REMARK VINA RESULT: -6.310088813      1.284      1.705
REMARK  9 active torsions:
REMARK  status: ('A' for Active; 'I' for Inactive)
REMARK    1  A    between atoms: C2_2  and  O1_3 
REMARK    2  A    between atoms: O1_3  and  C3_4 
REMARK    3  A    between atoms: C3_4  and  C4_5 
REMARK    4  A    between atoms: C4_5  and  C5_6 
REMARK    5  A    between atoms: C4_5  and  N3_23 
REMARK    6  A    between atoms: C5_6  and  N1_7 
REMARK       I    between atoms: N1_7  and  C6_9 
REMARK       I    between atoms: C6_9  and  N2_11 
REMARK    7  A    between atoms: N2_11  and  C7_13 
REMARK    8  A    between atoms: N3_23  and  O3_24 
REMARK    9  A    between atoms: N3_23  and  C17_26 
ROOT
HETATM    1  N1  UNL     1      13.188   7.838   4.136  1.00  0.00    -0.341 N 
ATOM      2  H1  UNL     1      13.545   8.756   3.872  1.00  0.00     0.164 HD
HETATM    3  C6  UNL     1      13.135   6.872   3.126  1.00  0.00     0.316 C 
HETATM    4  O2  UNL     1      12.716   5.728   3.378  1.00  0.00    -0.247 OA
HETATM    5  N2  UNL     1      13.560   7.189   1.796  1.00  0.00    -0.339 N 
ATOM      6  H2  UNL     1      13.898   8.127   1.581  1.00  0.00     0.164 HD
ENDROOT
BRANCH   1   7
HETATM    7  C5  UNL     1      12.790   7.669   5.512  1.00  0.00     0.154 C 
BRANCH   7   8
HETATM    8  C4  UNL     1      13.867   8.245   6.408  1.00  0.00     0.158 C 
BRANCH   8   9
HETATM    9  C3  UNL     1      14.715   9.254   5.639  1.00  0.00     0.197 C 
BRANCH   9  10
HETATM   10  O1  UNL     1      15.753   8.682   4.944  1.00  0.00    -0.389 OA
BRANCH  10  11
HETATM   11  C2  UNL     1      16.894   9.437   5.040  1.00  0.00     0.163 C 
HETATM   12  C1  UNL     1      18.112   8.595   5.408  1.00  0.00     0.033 C 
ENDBRANCH  10  11
ENDBRANCH   9  10
ENDBRANCH   8   9
BRANCH   8  13
HETATM   13  N3  UNL     1      14.727   7.198   6.914  1.00  0.00    -0.228 N 
BRANCH  13  14
HETATM   14  O3  UNL     1      14.992   6.142   6.116  1.00  0.00    -0.285 OA
ATOM     15  H3  UNL     1      15.345   6.308   5.250  1.00  0.00     0.245 HD
ENDBRANCH  13  14
BRANCH  13  16
HETATM   16  C17 UNL     1      15.296   7.242   8.213  1.00  0.00     0.377 C 
HETATM   17  O4  UNL     1      16.511   7.570   8.354  1.00  0.00    -0.281 OA
ENDBRANCH  13  16
ENDBRANCH   8  13
ENDBRANCH   7   8
ENDBRANCH   1   7
BRANCH   5  18
HETATM   18  C7  UNL     1      13.510   6.161   0.730  1.00  0.00     0.086 C 
HETATM   19  C8  UNL     1      14.872   6.192   0.168  1.00  0.00     0.025 C 
HETATM   20  C9  UNL     1      15.477   4.843  -0.275  1.00  0.00     0.002 C 
HETATM   21  C10 UNL     1      14.348   4.146  -0.881  1.00  0.00     0.000 C 
HETATM   22  C11 UNL     1      14.354   2.921  -1.674  1.00  0.00     0.000 C 
HETATM   23  C12 UNL     1      12.913   2.848  -2.230  1.00  0.00     0.000 C 
HETATM   24  C13 UNL     1      11.836   3.303  -1.324  1.00  0.00     0.000 C 
HETATM   25  C14 UNL     1      11.273   4.670  -1.495  1.00  0.00     0.000 C 
HETATM   26  C15 UNL     1      11.225   5.528  -0.225  1.00  0.00     0.002 C 
HETATM   27  C16 UNL     1      12.364   6.552  -0.178  1.00  0.00     0.025 C 
ENDBRANCH   5  18
TORSDOF 9
ENDMDL
MODEL 3
REMARK VINA RESULT: -6.151384837      1.645      2.159
REMARK  9 active torsions:
REMARK  status: ('A' for Active; 'I' for Inactive)
REMARK    1  A    between atoms: C2_2  and  O1_3 
REMARK    2  A    between atoms: O1_3  and  C3_4 
REMARK    3  A    between atoms: C3_4  and  C4_5 
REMARK    4  A    between atoms: C4_5  and  C5_6 
REMARK    5  A    between atoms: C4_5  and  N3_23 
REMARK    6  A    between atoms: C5_6  and  N1_7 
REMARK       I    between atoms: N1_7  and  C6_9 
REMARK       I    between atoms: C6_9  and  N2_11 
REMARK    7  A    between atoms: N2_11  and  C7_13 
REMARK    8  A    between atoms: N3_23  and  O3_24 
REMARK    9  A    between atoms: N3_23  and  C17_26 
ROOT
HETATM    1  N1  UNL     1      11.655   7.693   3.944  1.00  0.00    -0.341 N 
ATOM      2  H1  UNL     1      11.823   8.671   3.707  1.00  0.00     0.164 HD
HETATM    3  C6  UNL     1      11.986   6.746   2.970  1.00  0.00     0.316 C 
HETATM    4  O2  UNL     1      11.813   5.535   3.194  1.00  0.00    -0.247 OA
HETATM    5  N2  UNL     1      12.524   7.159   1.709  1.00  0.00    -0.339 N 
ATOM      6  H2  UNL     1      12.662   8.151   1.517  1.00  0.00     0.164 HD
ENDROOT
BRANCH   1   7
HETATM    7  C5  UNL     1      11.100   7.430   5.250  1.00  0.00     0.154 C 
BRANCH   7   8
HETATM    8  C4  UNL     1      12.213   7.491   6.276  1.00  0.00     0.158 C 
BRANCH   8   9
HETATM    9  C3  UNL     1      13.201   8.599   5.925  1.00  0.00     0.197 C 
BRANCH   9  10
HETATM   10  O1  UNL     1      12.673   9.861   6.037  1.00  0.00    -0.389 OA
BRANCH  10  11
HETATM   11  C2  UNL     1      13.211  10.713   5.106  1.00  0.00     0.163 C 
HETATM   12  C1  UNL     1      12.162  11.236   4.130  1.00  0.00     0.033 C 
ENDBRANCH  10  11
ENDBRANCH   9  10
ENDBRANCH   8   9
BRANCH   8  13
HETATM   13  N3  UNL     1      12.921   6.231   6.337  1.00  0.00    -0.228 N 
BRANCH  13  14
HETATM   14  O3  UNL     1      13.922   6.013   5.457  1.00  0.00    -0.285 OA
ATOM     15  H3  UNL     1      13.698   5.710   4.585  1.00  0.00     0.245 HD
ENDBRANCH  13  14
BRANCH  13  16
HETATM   16  C17 UNL     1      12.602   5.223   7.283  1.00  0.00     0.377 C 
HETATM   17  O4  UNL     1      12.080   4.138   6.891  1.00  0.00    -0.281 OA
ENDBRANCH  13  16
ENDBRANCH   8  13
ENDBRANCH   7   8
ENDBRANCH   1   7
BRANCH   5  18
HETATM   18  C7  UNL     1      12.883   6.153   0.683  1.00  0.00     0.086 C 
HETATM   19  C8  UNL     1      14.288   6.471   0.374  1.00  0.00     0.025 C 
HETATM   20  C9  UNL     1      15.228   5.281   0.087  1.00  0.00     0.002 C 
HETATM   21  C10 UNL     1      14.396   4.369  -0.691  1.00  0.00     0.000 C 
HETATM   22  C11 UNL     1      14.798   3.180  -1.433  1.00  0.00     0.000 C 
HETATM   23  C12 UNL     1      13.528   2.813  -2.237  1.00  0.00     0.000 C 
HETATM   24  C13 UNL     1      12.234   3.027  -1.553  1.00  0.00     0.000 C 
HETATM   25  C14 UNL     1      11.443   4.249  -1.862  1.00  0.00     0.000 C 
HETATM   26  C15 UNL     1      10.989   5.068  -0.648  1.00  0.00     0.002 C 
HETATM   27  C16 UNL     1      11.865   6.305  -0.427  1.00  0.00     0.025 C 
ENDBRANCH   5  18
TORSDOF 9
ENDMDL
MODEL 4
REMARK VINA RESULT: -6.108191423      2.105      3.466
REMARK  9 active torsions:
REMARK  status: ('A' for Active; 'I' for Inactive)
REMARK    1  A    between atoms: C2_2  and  O1_3 
REMARK    2  A    between atoms: O1_3  and  C3_4 
REMARK    3  A    between atoms: C3_4  and  C4_5 
REMARK    4  A    between atoms: C4_5  and  C5_6 
REMARK    5  A    between atoms: C4_5  and  N3_23 
REMARK    6  A    between atoms: C5_6  and  N1_7 
REMARK       I    between atoms: N1_7  and  C6_9 
REMARK       I    between atoms: C6_9  and  N2_11 
REMARK    7  A    between atoms: N2_11  and  C7_13 
REMARK    8  A    between atoms: N3_23  and  O3_24 
REMARK    9  A    between atoms: N3_23  and  C17_26 
ROOT
HETATM    1  N1  UNL     1      15.280   7.885   4.085  1.00  0.00    -0.341 N 
ATOM      2  H1  UNL     1      15.928   7.098   4.107  1.00  0.00     0.164 HD
HETATM    3  C6  UNL     1      14.095   7.702   3.365  1.00  0.00     0.316 C 
HETATM    4  O2  UNL     1      13.256   8.619   3.301  1.00  0.00    -0.247 OA
HETATM    5  N2  UNL     1      13.836   6.464   2.696  1.00  0.00    -0.339 N 
ATOM      6  H2  UNL     1      14.523   5.710   2.738  1.00  0.00     0.164 HD
ENDROOT
BRANCH   1   7
HETATM    7  C5  UNL     1      15.680   9.072   4.800  1.00  0.00     0.154 C 
BRANCH   7   8
HETATM    8  C4  UNL     1      16.150   8.676   6.185  1.00  0.00     0.158 C 
BRANCH   8   9
HETATM    9  C3  UNL     1      17.661   8.851   6.305  1.00  0.00     0.197 C 
BRANCH   9  10
HETATM   10  O1  UNL     1      18.336   8.608   5.134  1.00  0.00    -0.389 OA
BRANCH  10  11
HETATM   11  C2  UNL     1      19.598   8.127   5.375  1.00  0.00     0.163 C 
HETATM   12  C1  UNL     1      20.668   8.922   4.635  1.00  0.00     0.033 C 
ENDBRANCH  10  11
ENDBRANCH   9  10
ENDBRANCH   8   9
BRANCH   8  13
HETATM   13  N3  UNL     1      15.813   7.297   6.464  1.00  0.00    -0.228 N 
BRANCH  13  14
HETATM   14  O3  UNL     1      16.675   6.334   6.076  1.00  0.00    -0.285 OA
ATOM     15  H3  UNL     1      17.525   6.291   6.498  1.00  0.00     0.245 HD
ENDBRANCH  13  14
BRANCH  13  16
HETATM   16  C17 UNL     1      14.615   6.925   7.126  1.00  0.00     0.377 C 
HETATM   17  O4  UNL     1      13.793   6.154   6.549  1.00  0.00    -0.281 OA
ENDBRANCH  13  16
ENDBRANCH   8  13
ENDBRANCH   7   8
ENDBRANCH   1   7
BRANCH   5  18
HETATM   18  C7  UNL     1      12.576   6.269   1.941  1.00  0.00     0.086 C 
HETATM   19  C8  UNL     1      11.631   5.813   2.975  1.00  0.00     0.025 C 
HETATM   20  C9  UNL     1      10.173   6.308   2.858  1.00  0.00     0.002 C 
HETATM   21  C10 UNL     1       9.913   6.266   1.423  1.00  0.00     0.000 C 
HETATM   22  C11 UNL     1       8.641   6.409   0.724  1.00  0.00     0.000 C 
HETATM   23  C12 UNL     1       8.986   6.017  -0.732  1.00  0.00     0.000 C 
HETATM   24  C13 UNL     1      10.314   6.441  -1.228  1.00  0.00     0.000 C 
HETATM   25  C14 UNL     1      11.429   5.454  -1.252  1.00  0.00     0.000 C 
HETATM   26  C15 UNL     1      12.731   5.913  -0.585  1.00  0.00     0.002 C 
HETATM   27  C16 UNL     1      12.904   5.314   0.814  1.00  0.00     0.025 C 
ENDBRANCH   5  18
TORSDOF 9
ENDMDL
MODEL 5
REMARK VINA RESULT: -6.062635429      1.930      2.274
REMARK  9 active torsions:
REMARK  status: ('A' for Active; 'I' for Inactive)
REMARK    1  A    between atoms: C2_2  and  O1_3 
REMARK    2  A    between atoms: O1_3  and  C3_4 
REMARK    3  A    between atoms: C3_4  and  C4_5 
REMARK    4  A    between atoms: C4_5  and  C5_6 
REMARK    5  A    between atoms: C4_5  and  N3_23 
REMARK    6  A    between atoms: C5_6  and  N1_7 
REMARK       I    between atoms: N1_7  and  C6_9 
REMARK       I    between atoms: C6_9  and  N2_11 
REMARK    7  A    between atoms: N2_11  and  C7_13 
REMARK    8  A    between atoms: N3_23  and  O3_24 
REMARK    9  A    between atoms: N3_23  and  C17_26 
ROOT
HETATM    1  N1  UNL     1      10.817   7.771   3.434  1.00  0.00    -0.341 N 
ATOM      2  H1  UNL     1      11.064   8.742   3.246  1.00  0.00     0.164 HD
HETATM    3  C6  UNL     1      11.328   6.812   2.554  1.00  0.00     0.316 C 
HETATM    4  O2  UNL     1      11.072   5.607   2.727  1.00  0.00    -0.247 OA
HETATM    5  N2  UNL     1      12.148   7.205   1.448  1.00  0.00    -0.339 N 
ATOM      6  H2  UNL     1      12.356   8.192   1.297  1.00  0.00     0.164 HD
ENDROOT
BRANCH   1   7
HETATM    7  C5  UNL     1       9.976   7.528   4.581  1.00  0.00     0.154 C 
BRANCH   7   8
HETATM    8  C4  UNL     1      10.855   7.238   5.780  1.00  0.00     0.158 C 
BRANCH   8   9
HETATM    9  C3  UNL     1      12.287   7.694   5.514  1.00  0.00     0.197 C 
BRANCH   9  10
HETATM   10  O1  UNL     1      12.414   9.055   5.385  1.00  0.00    -0.389 OA
BRANCH  10  11
HETATM   11  C2  UNL     1      13.673   9.402   4.967  1.00  0.00     0.163 C 
HETATM   12  C1  UNL     1      14.354   8.276   4.195  1.00  0.00     0.033 C 
ENDBRANCH  10  11
ENDBRANCH   9  10
ENDBRANCH   8   9
BRANCH   8  13
HETATM   13  N3  UNL     1      10.861   5.822   6.080  1.00  0.00    -0.228 N 
BRANCH  13  14
HETATM   14  O3  UNL     1      10.104   5.002   5.321  1.00  0.00    -0.285 OA
ATOM     15  H3  UNL     1       9.840   4.165   5.685  1.00  0.00     0.245 HD
ENDBRANCH  13  14
BRANCH  13  16
HETATM   16  C17 UNL     1      11.629   5.272   7.138  1.00  0.00     0.377 C 
HETATM   17  O4  UNL     1      12.169   4.135   6.994  1.00  0.00    -0.281 OA
ENDBRANCH  13  16
ENDBRANCH   8  13
ENDBRANCH   7   8
ENDBRANCH   1   7
BRANCH   5  18
HETATM   18  C7  UNL     1      12.695   6.186   0.522  1.00  0.00     0.086 C 
HETATM   19  C8  UNL     1      14.076   6.646   0.293  1.00  0.00     0.025 C 
HETATM   20  C9  UNL     1      15.163   5.558   0.157  1.00  0.00     0.002 C 
HETATM   21  C10 UNL     1      14.501   4.510  -0.613  1.00  0.00     0.000 C 
HETATM   22  C11 UNL     1      15.090   3.332  -1.239  1.00  0.00     0.000 C 
HETATM   23  C12 UNL     1      13.936   2.771  -2.103  1.00  0.00     0.000 C 
HETATM   24  C13 UNL     1      12.577   2.875  -1.529  1.00  0.00     0.000 C 
HETATM   25  C14 UNL     1      11.681   3.975  -1.979  1.00  0.00     0.000 C 
HETATM   26  C15 UNL     1      11.045   4.808  -0.860  1.00  0.00     0.002 C 
HETATM   27  C16 UNL     1      11.757   6.151  -0.665  1.00  0.00     0.025 C 
ENDBRANCH   5  18
TORSDOF 9
ENDMDL
