MODEL 1
REMARK VINA RESULT: -6.737210817      0.000      0.000
REMARK  9 active torsions:
REMARK  status: ('A' for Active; 'I' for Inactive)
REMARK    1  A    between atoms: O1_2  and  C2_3 
REMARK    2  A    between atoms: C2_3  and  C3_4 
REMARK    3  A    between atoms: C3_4  and  C4_5 
REMARK    4  A    between atoms: C3_4  and  N2_14 
REMARK    5  A    between atoms: C4_5  and  C5_6 
REMARK    6  A    between atoms: C5_6  and  C6_7 
REMARK    7  A    between atoms: C6_7  and  N1_10 
REMARK    8  A    between atoms: N2_14  and  C9_16 
REMARK    9  A    between atoms: N5_22  and  C11_24 
ROOT
HETATM    1  C9  UNL     1       8.476   6.826  -2.772  1.00  0.00     0.163 A 
HETATM    2  N3  UNL     1       9.515   6.323  -3.438  1.00  0.00    -0.278 N 
ATOM      3  H3  UNL     1       9.560   6.390  -4.454  1.00  0.00     0.189 HD
HETATM    4  N4  UNL     1      10.452   5.755  -2.785  1.00  0.00    -0.278 N 
ATOM      5  H4  UNL     1      11.256   5.363  -3.273  1.00  0.00     0.189 HD
HETATM    6  C10 UNL     1      10.366   5.681  -1.458  1.00  0.00     0.163 A 
HETATM    7  N5  UNL     1      11.209   5.146  -0.607  1.00  0.00    -0.365 N 
ATOM      8  H5  UNL     1      11.021   5.157   0.396  1.00  0.00     0.162 HD
HETATM    9  S1  UNL     1       8.876   6.460  -1.152  1.00  0.00    -0.016 SA
ENDROOT
BRANCH   1  10
HETATM   10  N2  UNL     1       7.421   7.443  -3.261  1.00  0.00    -0.363 N 
ATOM     11  H2  UNL     1       7.459   7.958  -4.141  1.00  0.00     0.162 HD
BRANCH  10  12
HETATM   12  C3  UNL     1       6.184   7.350  -2.471  1.00  0.00     0.107 C 
BRANCH  12  13
HETATM   13  C2  UNL     1       5.710   8.760  -2.261  1.00  0.00     0.192 C 
BRANCH  13  14
HETATM   14  O1  UNL     1       6.489   9.468  -1.377  1.00  0.00    -0.394 OA
HETATM   15  C1  UNL     1       6.198   9.111  -0.062  1.00  0.00     0.201 C 
ENDBRANCH  13  14
ENDBRANCH  12  13
BRANCH  12  16
HETATM   16  C4  UNL     1       5.234   6.507  -3.247  1.00  0.00     0.030 C 
BRANCH  16  17
HETATM   17  C5  UNL     1       3.980   7.212  -3.653  1.00  0.00     0.040 C 
BRANCH  17  18
HETATM   18  C6  UNL     1       3.048   6.192  -4.282  1.00  0.00     0.116 C 
HETATM   19  C7  UNL     1       2.113   6.960  -5.215  1.00  0.00     0.045 C 
HETATM   20  C8  UNL     1       2.237   5.469  -3.210  1.00  0.00     0.045 C 
BRANCH  18  21
HETATM   21  N1  UNL     1       3.744   5.187  -5.033  1.00  0.00    -0.071 N 
ATOM     22  H13 UNL     1       3.628   5.335  -6.036  1.00  0.00     0.275 HD
ATOM     23  H12 UNL     1       4.754   5.313  -4.961  1.00  0.00     0.275 HD
ATOM     24  H11 UNL     1       3.476   4.239  -4.770  1.00  0.00     0.275 HD
ENDBRANCH  18  21
ENDBRANCH  17  18
ENDBRANCH  16  17
ENDBRANCH  12  16
ENDBRANCH  10  12
ENDBRANCH   1  10
BRANCH   7  25
HETATM   25  C11 UNL     1      12.395   4.549  -1.125  1.00  0.00     0.083 C 
HETATM   26  C12 UNL     1      12.244   3.076  -1.423  1.00  0.00     0.025 C 
HETATM   27  C13 UNL     1      13.449   2.655  -2.243  1.00  0.00     0.002 C 
HETATM   28  C14 UNL     1      14.637   3.478  -1.834  1.00  0.00     0.000 C 
HETATM   29  C15 UNL     1      14.651   3.792  -0.354  1.00  0.00     0.002 C 
HETATM   30  C16 UNL     1      13.472   4.661  -0.041  1.00  0.00     0.025 C 
ENDBRANCH   7  25
TORSDOF 9
ENDMDL
MODEL 2
REMARK VINA RESULT: -6.429983057      2.727      8.990
REMARK  9 active torsions:
REMARK  status: ('A' for Active; 'I' for Inactive)
REMARK    1  A    between atoms: O1_2  and  C2_3 
REMARK    2  A    between atoms: C2_3  and  C3_4 
REMARK    3  A    between atoms: C3_4  and  C4_5 
REMARK    4  A    between atoms: C3_4  and  N2_14 
REMARK    5  A    between atoms: C4_5  and  C5_6 
REMARK    6  A    between atoms: C5_6  and  C6_7 
REMARK    7  A    between atoms: C6_7  and  N1_10 
REMARK    8  A    between atoms: N2_14  and  C9_16 
REMARK    9  A    between atoms: N5_22  and  C11_24 
ROOT
HETATM    1  C9  UNL     1       9.699   6.160  -2.395  1.00  0.00     0.163 A 
HETATM    2  N3  UNL     1       8.800   6.104  -1.414  1.00  0.00    -0.278 N 
ATOM      3  H3  UNL     1       8.973   5.538  -0.585  1.00  0.00     0.189 HD
HETATM    4  N4  UNL     1       7.718   6.770  -1.528  1.00  0.00    -0.278 N 
ATOM      5  H4  UNL     1       7.015   6.743  -0.790  1.00  0.00     0.189 HD
HETATM    6  C10 UNL     1       7.518   7.501  -2.623  1.00  0.00     0.163 A 
HETATM    7  N5  UNL     1       6.487   8.251  -2.937  1.00  0.00    -0.365 N 
ATOM      8  H5  UNL     1       6.460   8.765  -3.818  1.00  0.00     0.162 HD
HETATM    9  S1  UNL     1       8.947   7.210  -3.514  1.00  0.00    -0.016 SA
ENDROOT
BRANCH   1  10
HETATM   10  N2  UNL     1      10.864   5.551  -2.463  1.00  0.00    -0.363 N 
ATOM     11  H2  UNL     1      11.315   5.351  -3.356  1.00  0.00     0.162 HD
BRANCH  10  12
HETATM   12  C3  UNL     1      11.482   5.175  -1.182  1.00  0.00     0.107 C 
BRANCH  12  13
HETATM   13  C2  UNL     1      12.121   3.833  -1.400  1.00  0.00     0.192 C 
BRANCH  13  14
HETATM   14  O1  UNL     1      13.294   3.672  -0.701  1.00  0.00    -0.394 OA
HETATM   15  C1  UNL     1      14.209   2.917  -1.432  1.00  0.00     0.201 C 
ENDBRANCH  13  14
ENDBRANCH  12  13
BRANCH  12  16
HETATM   16  C4  UNL     1      12.450   6.251  -0.833  1.00  0.00     0.030 C 
BRANCH  16  17
HETATM   17  C5  UNL     1      12.304   6.779   0.558  1.00  0.00     0.040 C 
BRANCH  17  18
HETATM   18  C6  UNL     1      13.566   6.436   1.328  1.00  0.00     0.116 C 
HETATM   19  C7  UNL     1      13.662   7.427   2.487  1.00  0.00     0.045 C 
HETATM   20  C8  UNL     1      14.795   6.560   0.431  1.00  0.00     0.045 C 
BRANCH  18  21
HETATM   21  N1  UNL     1      13.557   5.100   1.849  1.00  0.00    -0.071 N 
ATOM     22  H13 UNL     1      12.742   4.944   2.442  1.00  0.00     0.275 HD
ATOM     23  H12 UNL     1      13.358   4.423   1.111  1.00  0.00     0.275 HD
ATOM     24  H11 UNL     1      14.418   4.860   2.341  1.00  0.00     0.275 HD
ENDBRANCH  18  21
ENDBRANCH  17  18
ENDBRANCH  16  17
ENDBRANCH  12  16
ENDBRANCH  10  12
ENDBRANCH   1  10
BRANCH   7  25
HETATM   25  C11 UNL     1       5.408   8.325  -2.009  1.00  0.00     0.083 C 
HETATM   26  C12 UNL     1       4.049   8.314  -2.668  1.00  0.00     0.025 C 
HETATM   27  C13 UNL     1       3.020   8.083  -1.578  1.00  0.00     0.002 C 
HETATM   28  C14 UNL     1       3.508   8.701  -0.299  1.00  0.00     0.000 C 
HETATM   29  C15 UNL     1       4.272   9.987  -0.524  1.00  0.00     0.002 C 
HETATM   30  C16 UNL     1       5.523   9.670  -1.285  1.00  0.00     0.025 C 
ENDBRANCH   7  25
TORSDOF 9
ENDMDL
MODEL 3
REMARK VINA RESULT: -6.306942772      1.813      3.231
REMARK  9 active torsions:
REMARK  status: ('A' for Active; 'I' for Inactive)
REMARK    1  A    between atoms: O1_2  and  C2_3 
REMARK    2  A    between atoms: C2_3  and  C3_4 
REMARK    3  A    between atoms: C3_4  and  C4_5 
REMARK    4  A    between atoms: C3_4  and  N2_14 
REMARK    5  A    between atoms: C4_5  and  C5_6 
REMARK    6  A    between atoms: C5_6  and  C6_7 
REMARK    7  A    between atoms: C6_7  and  N1_10 
REMARK    8  A    between atoms: N2_14  and  C9_16 
REMARK    9  A    between atoms: N5_22  and  C11_24 
ROOT
HETATM    1  C9  UNL     1       8.578   6.585  -1.006  1.00  0.00     0.163 A 
HETATM    2  N3  UNL     1       9.225   5.993  -2.009  1.00  0.00    -0.278 N 
ATOM      3  H3  UNL     1       8.816   5.962  -2.942  1.00  0.00     0.189 HD
HETATM    4  N4  UNL     1      10.365   5.466  -1.785  1.00  0.00    -0.278 N 
ATOM      5  H4  UNL     1      10.878   5.008  -2.537  1.00  0.00     0.189 HD
HETATM    6  C10 UNL     1      10.875   5.521  -0.555  1.00  0.00     0.163 A 
HETATM    7  N5  UNL     1      12.017   5.048  -0.116  1.00  0.00    -0.365 N 
ATOM      8  H5  UNL     1      12.291   5.160   0.861  1.00  0.00     0.162 HD
HETATM    9  S1  UNL     1       9.659   6.365   0.299  1.00  0.00    -0.016 SA
ENDROOT
BRANCH   1  10
HETATM   10  N2  UNL     1       7.404   7.180  -1.037  1.00  0.00    -0.363 N 
ATOM     11  H2  UNL     1       6.802   7.224  -0.214  1.00  0.00     0.162 HD
BRANCH  10  12
HETATM   12  C3  UNL     1       7.007   7.779  -2.321  1.00  0.00     0.107 C 
BRANCH  12  13
HETATM   13  C2  UNL     1       5.931   6.894  -2.884  1.00  0.00     0.192 C 
BRANCH  13  14
HETATM   14  O1  UNL     1       4.837   7.593  -3.334  1.00  0.00    -0.394 OA
HETATM   15  C1  UNL     1       3.849   6.726  -3.797  1.00  0.00     0.201 C 
ENDBRANCH  13  14
ENDBRANCH  12  13
BRANCH  12  16
HETATM   16  C4  UNL     1       6.553   9.167  -2.032  1.00  0.00     0.030 C 
BRANCH  16  17
HETATM   17  C5  UNL     1       6.250   9.425  -0.591  1.00  0.00     0.040 C 
BRANCH  17  18
HETATM   18  C6  UNL     1       4.835   9.966  -0.496  1.00  0.00     0.116 C 
HETATM   19  C7  UNL     1       4.932  11.358   0.126  1.00  0.00     0.045 C 
HETATM   20  C8  UNL     1       3.969   9.062   0.377  1.00  0.00     0.045 C 
BRANCH  18  21
HETATM   21  N1  UNL     1       4.188  10.064  -1.773  1.00  0.00    -0.071 N 
ATOM     22  H13 UNL     1       4.191   9.164  -2.254  1.00  0.00     0.275 HD
ATOM     23  H12 UNL     1       3.181  10.190  -1.663  1.00  0.00     0.275 HD
ATOM     24  H11 UNL     1       4.584  10.794  -2.364  1.00  0.00     0.275 HD
ENDBRANCH  18  21
ENDBRANCH  17  18
ENDBRANCH  16  17
ENDBRANCH  12  16
ENDBRANCH  10  12
ENDBRANCH   1  10
BRANCH   7  25
HETATM   25  C11 UNL     1      12.863   4.374  -1.043  1.00  0.00     0.083 C 
HETATM   26  C12 UNL     1      12.390   2.980  -1.383  1.00  0.00     0.025 C 
HETATM   27  C13 UNL     1      13.186   2.514  -2.587  1.00  0.00     0.002 C 
HETATM   28  C14 UNL     1      14.559   3.121  -2.538  1.00  0.00     0.000 C 
HETATM   29  C15 UNL     1      15.094   3.246  -1.129  1.00  0.00     0.002 C 
HETATM   30  C16 UNL     1      14.233   4.212  -0.375  1.00  0.00     0.025 C 
ENDBRANCH   7  25
TORSDOF 9
ENDMDL
MODEL 4
REMARK VINA RESULT: -6.296972428      2.888      8.827
REMARK  9 active torsions:
REMARK  status: ('A' for Active; 'I' for Inactive)
REMARK    1  A    between atoms: O1_2  and  C2_3 
REMARK    2  A    between atoms: C2_3  and  C3_4 
REMARK    3  A    between atoms: C3_4  and  C4_5 
REMARK    4  A    between atoms: C3_4  and  N2_14 
REMARK    5  A    between atoms: C4_5  and  C5_6 
REMARK    6  A    between atoms: C5_6  and  C6_7 
REMARK    7  A    between atoms: C6_7  and  N1_10 
REMARK    8  A    between atoms: N2_14  and  C9_16 
REMARK    9  A    between atoms: N5_22  and  C11_24 
ROOT
HETATM    1  C9  UNL     1       9.712   6.186  -2.229  1.00  0.00     0.163 A 
HETATM    2  N3  UNL     1       8.702   6.050  -1.370  1.00  0.00    -0.278 N 
ATOM      3  H3  UNL     1       8.807   5.475  -0.535  1.00  0.00     0.189 HD
HETATM    4  N4  UNL     1       7.602   6.649  -1.609  1.00  0.00    -0.278 N 
ATOM      5  H4  UNL     1       6.815   6.560  -0.967  1.00  0.00     0.189 HD
HETATM    6  C10 UNL     1       7.493   7.394  -2.708  1.00  0.00     0.163 A 
HETATM    7  N5  UNL     1       6.463   8.085  -3.137  1.00  0.00    -0.365 N 
ATOM      8  H5  UNL     1       6.513   8.618  -4.005  1.00  0.00     0.162 HD
HETATM    9  S1  UNL     1       9.039   7.215  -3.416  1.00  0.00    -0.016 SA
ENDROOT
BRANCH   1  10
HETATM   10  N2  UNL     1      10.913   5.653  -2.159  1.00  0.00    -0.363 N 
ATOM     11  H2  UNL     1      11.569   5.703  -2.939  1.00  0.00     0.162 HD
BRANCH  10  12
HETATM   12  C3  UNL     1      11.260   4.982  -0.897  1.00  0.00     0.107 C 
BRANCH  12  13
HETATM   13  C2  UNL     1      12.274   3.929  -1.243  1.00  0.00     0.192 C 
BRANCH  13  14
HETATM   14  O1  UNL     1      13.448   4.056  -0.539  1.00  0.00    -0.394 OA
HETATM   15  C1  UNL     1      14.494   3.413  -1.198  1.00  0.00     0.201 C 
ENDBRANCH  13  14
ENDBRANCH  12  13
BRANCH  12  16
HETATM   16  C4  UNL     1      11.774   6.030   0.027  1.00  0.00     0.030 C 
BRANCH  16  17
HETATM   17  C5  UNL     1      11.142   6.016   1.382  1.00  0.00     0.040 C 
BRANCH  17  18
HETATM   18  C6  UNL     1      12.219   6.317   2.408  1.00  0.00     0.116 C 
HETATM   19  C7  UNL     1      11.657   5.920   3.772  1.00  0.00     0.045 C 
HETATM   20  C8  UNL     1      12.572   7.802   2.400  1.00  0.00     0.045 C 
BRANCH  18  21
HETATM   21  N1  UNL     1      13.435   5.594   2.169  1.00  0.00    -0.071 N 
ATOM     22  H13 UNL     1      13.403   5.113   1.270  1.00  0.00     0.275 HD
ATOM     23  H12 UNL     1      14.210   6.233   1.989  1.00  0.00     0.275 HD
ATOM     24  H11 UNL     1      13.665   4.945   2.922  1.00  0.00     0.275 HD
ENDBRANCH  18  21
ENDBRANCH  17  18
ENDBRANCH  16  17
ENDBRANCH  12  16
ENDBRANCH  10  12
ENDBRANCH   1  10
BRANCH   7  25
HETATM   25  C11 UNL     1       5.274   8.069  -2.352  1.00  0.00     0.083 C 
HETATM   26  C12 UNL     1       4.011   7.993  -3.178  1.00  0.00     0.025 C 
HETATM   27  C13 UNL     1       2.871   7.671  -2.232  1.00  0.00     0.002 C 
HETATM   28  C14 UNL     1       3.154   8.282  -0.889  1.00  0.00     0.000 C 
HETATM   29  C15 UNL     1       3.858   9.617  -0.990  1.00  0.00     0.002 C 
HETATM   30  C16 UNL     1       5.212   9.398  -1.592  1.00  0.00     0.025 C 
ENDBRANCH   7  25
TORSDOF 9
ENDMDL
MODEL 5
REMARK VINA RESULT: -6.135911999      6.229     10.073
REMARK  9 active torsions:
REMARK  status: ('A' for Active; 'I' for Inactive)
REMARK    1  A    between atoms: O1_2  and  C2_3 
REMARK    2  A    between atoms: C2_3  and  C3_4 
REMARK    3  A    between atoms: C3_4  and  C4_5 
REMARK    4  A    between atoms: C3_4  and  N2_14 
REMARK    5  A    between atoms: C4_5  and  C5_6 
REMARK    6  A    between atoms: C5_6  and  C6_7 
REMARK    7  A    between atoms: C6_7  and  N1_10 
REMARK    8  A    between atoms: N2_14  and  C9_16 
REMARK    9  A    between atoms: N5_22  and  C11_24 
ROOT
HETATM    1  C9  UNL     1      12.973   7.435   3.672  1.00  0.00     0.163 A 
HETATM    2  N3  UNL     1      13.614   6.296   3.414  1.00  0.00    -0.278 N 
ATOM      3  H3  UNL     1      14.234   5.882   4.109  1.00  0.00     0.189 HD
HETATM    4  N4  UNL     1      13.441   5.731   2.283  1.00  0.00    -0.278 N 
ATOM      5  H4  UNL     1      13.920   4.859   2.063  1.00  0.00     0.189 HD
HETATM    6  C10 UNL     1      12.625   6.295   1.394  1.00  0.00     0.163 A 
HETATM    7  N5  UNL     1      12.311   5.885   0.188  1.00  0.00    -0.365 N 
ATOM      8  H5  UNL     1      11.666   6.417  -0.397  1.00  0.00     0.162 HD
HETATM    9  S1  UNL     1      12.095   7.689   2.229  1.00  0.00    -0.016 SA
ENDROOT
BRANCH   1  10
HETATM   10  N2  UNL     1      13.020   8.162   4.769  1.00  0.00    -0.363 N 
ATOM     11  H2  UNL     1      12.530   7.884   5.620  1.00  0.00     0.162 HD
BRANCH  10  12
HETATM   12  C3  UNL     1      13.817   9.396   4.702  1.00  0.00     0.107 C 
BRANCH  12  13
HETATM   13  C2  UNL     1      12.897  10.515   5.100  1.00  0.00     0.192 C 
BRANCH  13  14
HETATM   14  O1  UNL     1      12.393  11.209   4.025  1.00  0.00    -0.394 OA
HETATM   15  C1  UNL     1      11.000  11.172   4.019  1.00  0.00     0.201 C 
ENDBRANCH  13  14
ENDBRANCH  12  13
BRANCH  12  16
HETATM   16  C4  UNL     1      14.975   9.217   5.620  1.00  0.00     0.030 C 
BRANCH  16  17
HETATM   17  C5  UNL     1      16.186   8.628   4.971  1.00  0.00     0.040 C 
BRANCH  17  18
HETATM   18  C6  UNL     1      16.756   7.575   5.903  1.00  0.00     0.116 C 
HETATM   19  C7  UNL     1      16.914   8.233   7.273  1.00  0.00     0.045 C 
HETATM   20  C8  UNL     1      18.111   7.085   5.400  1.00  0.00     0.045 C 
BRANCH  18  21
HETATM   21  N1  UNL     1      15.911   6.422   6.027  1.00  0.00    -0.071 N 
ATOM     22  H13 UNL     1      15.717   6.011   5.114  1.00  0.00     0.275 HD
ATOM     23  H12 UNL     1      16.415   5.645   6.456  1.00  0.00     0.275 HD
ATOM     24  H11 UNL     1      15.046   6.617   6.530  1.00  0.00     0.275 HD
ENDBRANCH  18  21
ENDBRANCH  17  18
ENDBRANCH  16  17
ENDBRANCH  12  16
ENDBRANCH  10  12
ENDBRANCH   1  10
BRANCH   7  25
HETATM   25  C11 UNL     1      12.898   4.673  -0.280  1.00  0.00     0.083 C 
HETATM   26  C12 UNL     1      14.224   4.878  -0.974  1.00  0.00     0.025 C 
HETATM   27  C13 UNL     1      14.867   3.514  -1.133  1.00  0.00     0.002 C 
HETATM   28  C14 UNL     1      13.792   2.479  -1.311  1.00  0.00     0.000 C 
HETATM   29  C15 UNL     1      12.613   2.990  -2.109  1.00  0.00     0.002 C 
HETATM   30  C16 UNL     1      11.950   4.084  -1.330  1.00  0.00     0.025 C 
ENDBRANCH   7  25
TORSDOF 9
ENDMDL
