MODEL 1
REMARK VINA RESULT: -6.593692077      0.000      0.000
REMARK  9 active torsions:
REMARK  status: ('A' for Active; 'I' for Inactive)
REMARK    1  A    between atoms: C2_2  and  C3_3 
REMARK    2  A    between atoms: C3_3  and  N1_4 
REMARK       I    between atoms: N1_4  and  C4_6 
REMARK    3  A    between atoms: C4_6  and  C5_8 
REMARK    4  A    between atoms: C8_12  and  C9_13 
REMARK    5  A    between atoms: C9_13  and  C10_14 
REMARK    6  A    between atoms: C10_14  and  C11_15 
REMARK    7  A    between atoms: C16_20  and  O2_21 
REMARK    8  A    between atoms: C17_23  and  C18_24 
REMARK    9  A    between atoms: C22_28  and  O3_29 
ROOT
HETATM    1  C5  UNL     1       4.694  62.328  28.148  1.00  0.00     0.149 C 
HETATM    2  C6  UNL     1       4.411  62.599  29.612  1.00  0.00     0.057 C 
HETATM    3  C7  UNL     1       5.336  63.575  27.547  1.00  0.00     0.122 C 
HETATM    4  S1  UNL     1       4.129  64.696  26.866  1.00  0.00    -0.156 SA
HETATM    5  C8  UNL     1       2.586  63.841  26.464  1.00  0.00     0.102 C 
HETATM    6  C22 UNL     1       2.502  62.661  27.439  1.00  0.00     0.272 C 
HETATM    7  O4  UNL     1       3.613  61.886  27.454  1.00  0.00    -0.339 OA
ENDROOT
BRANCH   5   8
HETATM    8  C9  UNL     1       2.502  63.317  25.082  1.00  0.00     0.021 C 
BRANCH   8   9
HETATM    9  C10 UNL     1       3.643  63.365  24.184  1.00  0.00     0.011 C 
BRANCH   9  10
HETATM   10  C11 UNL     1       4.283  62.178  23.621  1.00  0.00    -0.037 C 
HETATM   11  C12 UNL     1       5.319  61.565  24.519  1.00  0.00     0.016 C 
HETATM   12  C13 UNL     1       3.183  61.128  23.439  1.00  0.00    -0.008 C 
HETATM   13  C14 UNL     1       3.174  60.116  24.565  1.00  0.00     0.011 C 
HETATM   14  C15 UNL     1       3.204  60.434  22.130  1.00  0.00     0.037 C 
HETATM   15  C16 UNL     1       4.604  60.058  21.636  1.00  0.00     0.126 C 
HETATM   16  C17 UNL     1       5.567  61.152  21.731  1.00  0.00     0.041 C 
HETATM   17  C20 UNL     1       4.979  62.443  22.297  1.00  0.00    -0.000 C 
HETATM   18  C21 UNL     1       4.124  63.068  21.257  1.00  0.00     0.011 C 
BRANCH  15  19
HETATM   19  O2  UNL     1       4.404  59.444  20.427  1.00  0.00    -0.395 OA
ATOM     20  H2  UNL     1       5.259  59.125  20.166  1.00  0.00     0.210 HD
ENDBRANCH  15  19
BRANCH  16  21
HETATM   21  C18 UNL     1       6.368  61.549  20.580  1.00  0.00    -0.029 C 
HETATM   22  C19 UNL     1       7.447  61.066  20.056  1.00  0.00     0.007 C 
ENDBRANCH  16  21
ENDBRANCH   9  10
ENDBRANCH   8   9
ENDBRANCH   5   8
BRANCH   6  23
HETATM   23  O3  UNL     1       2.067  63.144  28.644  1.00  0.00    -0.370 OA
ATOM     24  H3  UNL     1       1.120  63.210  28.607  1.00  0.00     0.212 HD
ENDBRANCH   6  23
BRANCH   1  25
HETATM   25  C4  UNL     1       5.743  61.273  28.108  1.00  0.00     0.253 C 
HETATM   26  N1  UNL     1       5.443  59.914  27.821  1.00  0.00    -0.355 N 
ATOM     27  H1  UNL     1       4.470  59.667  27.638  1.00  0.00     0.162 HD
HETATM   28  O1  UNL     1       6.958  61.541  28.331  1.00  0.00    -0.270 OA
BRANCH  26  29
HETATM   29  C3  UNL     1       6.417  58.872  27.774  1.00  0.00     0.149 C 
BRANCH  29  30
HETATM   30  C2  UNL     1       6.794  58.580  26.362  1.00  0.00    -0.018 C 
HETATM   31  C1  UNL     1       6.009  57.886  25.578  1.00  0.00     0.008 C 
ENDBRANCH  29  30
ENDBRANCH  26  29
ENDBRANCH   1  25
TORSDOF 9
ENDMDL
MODEL 2
REMARK VINA RESULT: -6.473323184      3.231      7.035
REMARK  9 active torsions:
REMARK  status: ('A' for Active; 'I' for Inactive)
REMARK    1  A    between atoms: C2_2  and  C3_3 
REMARK    2  A    between atoms: C3_3  and  N1_4 
REMARK       I    between atoms: N1_4  and  C4_6 
REMARK    3  A    between atoms: C4_6  and  C5_8 
REMARK    4  A    between atoms: C8_12  and  C9_13 
REMARK    5  A    between atoms: C9_13  and  C10_14 
REMARK    6  A    between atoms: C10_14  and  C11_15 
REMARK    7  A    between atoms: C16_20  and  O2_21 
REMARK    8  A    between atoms: C17_23  and  C18_24 
REMARK    9  A    between atoms: C22_28  and  O3_29 
ROOT
HETATM    1  C5  UNL     1       5.586  62.330  21.707  1.00  0.00     0.149 C 
HETATM    2  C6  UNL     1       4.974  63.692  21.446  1.00  0.00     0.057 C 
HETATM    3  C7  UNL     1       4.610  61.265  21.217  1.00  0.00     0.122 C 
HETATM    4  S1  UNL     1       3.479  60.745  22.494  1.00  0.00    -0.156 SA
HETATM    5  C8  UNL     1       4.145  61.080  24.143  1.00  0.00     0.102 C 
HETATM    6  C22 UNL     1       5.067  62.293  23.977  1.00  0.00     0.272 C 
HETATM    7  O4  UNL     1       5.988  62.148  22.993  1.00  0.00    -0.339 OA
ENDROOT
BRANCH   5   8
HETATM    8  C9  UNL     1       4.927  59.973  24.739  1.00  0.00     0.021 C 
BRANCH   8   9
HETATM    9  C10 UNL     1       5.690  60.160  25.962  1.00  0.00     0.011 C 
BRANCH   9  10
HETATM   10  C11 UNL     1       5.572  59.292  27.132  1.00  0.00    -0.037 C 
HETATM   11  C12 UNL     1       5.656  60.024  28.440  1.00  0.00     0.016 C 
HETATM   12  C13 UNL     1       4.179  58.657  27.072  1.00  0.00    -0.008 C 
HETATM   13  C14 UNL     1       3.195  59.365  27.979  1.00  0.00     0.011 C 
HETATM   14  C15 UNL     1       4.154  57.199  27.333  1.00  0.00     0.037 C 
HETATM   15  C16 UNL     1       5.070  56.746  28.474  1.00  0.00     0.126 C 
HETATM   16  C17 UNL     1       6.418  57.300  28.392  1.00  0.00     0.041 C 
HETATM   17  C20 UNL     1       6.638  58.211  27.186  1.00  0.00    -0.000 C 
HETATM   18  C21 UNL     1       6.735  57.368  25.969  1.00  0.00     0.011 C 
BRANCH  15  19
HETATM   19  O2  UNL     1       4.907  55.386  28.544  1.00  0.00    -0.395 OA
ATOM     20  H2  UNL     1       4.634  55.214  29.438  1.00  0.00     0.210 HD
ENDBRANCH  15  19
BRANCH  16  21
HETATM   21  C18 UNL     1       7.590  56.436  28.458  1.00  0.00    -0.029 C 
HETATM   22  C19 UNL     1       8.237  55.912  29.449  1.00  0.00     0.007 C 
ENDBRANCH  16  21
ENDBRANCH   9  10
ENDBRANCH   8   9
ENDBRANCH   5   8
BRANCH   6  23
HETATM   23  O3  UNL     1       4.281  63.413  23.929  1.00  0.00    -0.370 OA
ATOM     24  H3  UNL     1       4.303  63.745  23.039  1.00  0.00     0.212 HD
ENDBRANCH   6  23
BRANCH   1  25
HETATM   25  C4  UNL     1       6.778  62.225  20.823  1.00  0.00     0.253 C 
HETATM   26  N1  UNL     1       6.943  61.164  19.892  1.00  0.00    -0.355 N 
ATOM     27  H1  UNL     1       6.210  60.457  19.839  1.00  0.00     0.162 HD
HETATM   28  O1  UNL     1       7.707  63.083  20.863  1.00  0.00    -0.270 OA
BRANCH  26  29
HETATM   29  C3  UNL     1       8.070  61.027  19.027  1.00  0.00     0.149 C 
BRANCH  29  30
HETATM   30  C2  UNL     1       7.786  61.651  17.705  1.00  0.00    -0.018 C 
HETATM   31  C1  UNL     1       8.753  62.017  16.903  1.00  0.00     0.008 C 
ENDBRANCH  29  30
ENDBRANCH  26  29
ENDBRANCH   1  25
TORSDOF 9
ENDMDL
MODEL 3
REMARK VINA RESULT: -6.191440308      2.543      4.585
REMARK  9 active torsions:
REMARK  status: ('A' for Active; 'I' for Inactive)
REMARK    1  A    between atoms: C2_2  and  C3_3 
REMARK    2  A    between atoms: C3_3  and  N1_4 
REMARK       I    between atoms: N1_4  and  C4_6 
REMARK    3  A    between atoms: C4_6  and  C5_8 
REMARK    4  A    between atoms: C8_12  and  C9_13 
REMARK    5  A    between atoms: C9_13  and  C10_14 
REMARK    6  A    between atoms: C10_14  and  C11_15 
REMARK    7  A    between atoms: C16_20  and  O2_21 
REMARK    8  A    between atoms: C17_23  and  C18_24 
REMARK    9  A    between atoms: C22_28  and  O3_29 
ROOT
HETATM    1  C5  UNL     1       4.766  63.788  28.326  1.00  0.00     0.149 C 
HETATM    2  C6  UNL     1       5.142  64.486  29.617  1.00  0.00     0.057 C 
HETATM    3  C7  UNL     1       3.596  62.851  28.612  1.00  0.00     0.122 C 
HETATM    4  S1  UNL     1       4.136  61.214  29.067  1.00  0.00    -0.156 SA
HETATM    5  C8  UNL     1       5.809  60.879  28.465  1.00  0.00     0.102 C 
HETATM    6  C22 UNL     1       6.506  62.242  28.400  1.00  0.00     0.272 C 
HETATM    7  O4  UNL     1       5.811  63.178  27.708  1.00  0.00    -0.339 OA
ENDROOT
BRANCH   5   8
HETATM    8  C9  UNL     1       5.879  60.251  27.125  1.00  0.00     0.021 C 
BRANCH   8   9
HETATM    9  C10 UNL     1       4.679  60.007  26.341  1.00  0.00     0.011 C 
BRANCH   9  10
HETATM   10  C11 UNL     1       4.673  59.888  24.885  1.00  0.00    -0.037 C 
HETATM   11  C12 UNL     1       5.466  58.722  24.369  1.00  0.00     0.016 C 
HETATM   12  C13 UNL     1       3.218  59.648  24.468  1.00  0.00    -0.008 C 
HETATM   13  C14 UNL     1       2.939  58.184  24.203  1.00  0.00     0.011 C 
HETATM   14  C15 UNL     1       2.763  60.469  23.323  1.00  0.00     0.037 C 
HETATM   15  C16 UNL     1       3.789  60.606  22.195  1.00  0.00     0.126 C 
HETATM   16  C17 UNL     1       5.127  60.955  22.665  1.00  0.00     0.041 C 
HETATM   17  C20 UNL     1       5.224  61.116  24.181  1.00  0.00    -0.000 C 
HETATM   18  C21 UNL     1       4.579  62.397  24.562  1.00  0.00     0.011 C 
BRANCH  15  19
HETATM   19  O2  UNL     1       3.183  61.397  21.252  1.00  0.00    -0.395 OA
ATOM     20  H2  UNL     1       3.651  62.223  21.282  1.00  0.00     0.210 HD
ENDBRANCH  15  19
BRANCH  16  21
HETATM   21  C18 UNL     1       5.852  62.084  22.097  1.00  0.00    -0.029 C 
HETATM   22  C19 UNL     1       6.553  62.221  21.019  1.00  0.00     0.007 C 
ENDBRANCH  16  21
ENDBRANCH   9  10
ENDBRANCH   8   9
ENDBRANCH   5   8
BRANCH   6  23
HETATM   23  O3  UNL     1       6.894  62.575  29.670  1.00  0.00    -0.370 OA
ATOM     24  H3  UNL     1       7.464  63.333  29.611  1.00  0.00     0.212 HD
ENDBRANCH   6  23
BRANCH   1  25
HETATM   25  C4  UNL     1       4.230  64.838  27.417  1.00  0.00     0.253 C 
HETATM   26  N1  UNL     1       4.939  66.038  27.142  1.00  0.00    -0.355 N 
ATOM     27  H1  UNL     1       5.846  66.172  27.590  1.00  0.00     0.162 HD
HETATM   28  O1  UNL     1       3.110  64.708  26.846  1.00  0.00    -0.270 OA
BRANCH  26  29
HETATM   29  C3  UNL     1       4.462  67.069  26.278  1.00  0.00     0.149 C 
BRANCH  29  30
HETATM   30  C2  UNL     1       5.017  68.389  26.692  1.00  0.00    -0.018 C 
HETATM   31  C1  UNL     1       4.305  69.483  26.606  1.00  0.00     0.008 C 
ENDBRANCH  29  30
ENDBRANCH  26  29
ENDBRANCH   1  25
TORSDOF 9
ENDMDL
MODEL 4
REMARK VINA RESULT: -6.190159168      2.813      5.008
REMARK  9 active torsions:
REMARK  status: ('A' for Active; 'I' for Inactive)
REMARK    1  A    between atoms: C2_2  and  C3_3 
REMARK    2  A    between atoms: C3_3  and  N1_4 
REMARK       I    between atoms: N1_4  and  C4_6 
REMARK    3  A    between atoms: C4_6  and  C5_8 
REMARK    4  A    between atoms: C8_12  and  C9_13 
REMARK    5  A    between atoms: C9_13  and  C10_14 
REMARK    6  A    between atoms: C10_14  and  C11_15 
REMARK    7  A    between atoms: C16_20  and  O2_21 
REMARK    8  A    between atoms: C17_23  and  C18_24 
REMARK    9  A    between atoms: C22_28  and  O3_29 
ROOT
HETATM    1  C5  UNL     1       5.086  63.714  28.927  1.00  0.00     0.149 C 
HETATM    2  C6  UNL     1       6.043  63.453  30.073  1.00  0.00     0.057 C 
HETATM    3  C7  UNL     1       3.809  62.918  29.179  1.00  0.00     0.122 C 
HETATM    4  S1  UNL     1       3.871  61.292  28.450  1.00  0.00    -0.156 SA
HETATM    5  C8  UNL     1       5.072  61.219  27.098  1.00  0.00     0.102 C 
HETATM    6  C22 UNL     1       6.137  62.268  27.435  1.00  0.00     0.272 C 
HETATM    7  O4  UNL     1       5.629  63.496  27.700  1.00  0.00    -0.339 OA
ENDROOT
BRANCH   5   8
HETATM    8  C9  UNL     1       4.523  61.519  25.757  1.00  0.00     0.021 C 
BRANCH   8   9
HETATM    9  C10 UNL     1       5.139  60.990  24.551  1.00  0.00     0.011 C 
BRANCH   9  10
HETATM   10  C11 UNL     1       4.404  60.266  23.517  1.00  0.00    -0.037 C 
HETATM   11  C12 UNL     1       3.016  60.788  23.280  1.00  0.00     0.016 C 
HETATM   12  C13 UNL     1       5.176  60.462  22.208  1.00  0.00    -0.008 C 
HETATM   13  C14 UNL     1       4.561  61.543  21.345  1.00  0.00     0.011 C 
HETATM   14  C15 UNL     1       5.369  59.225  21.415  1.00  0.00     0.037 C 
HETATM   15  C16 UNL     1       4.142  58.311  21.361  1.00  0.00     0.126 C 
HETATM   16  C17 UNL     1       3.534  58.076  22.668  1.00  0.00     0.041 C 
HETATM   17  C20 UNL     1       4.249  58.785  23.816  1.00  0.00    -0.000 C 
HETATM   18  C21 UNL     1       5.519  58.068  24.096  1.00  0.00     0.011 C 
BRANCH  15  19
HETATM   19  O2  UNL     1       4.528  57.238  20.598  1.00  0.00    -0.395 OA
ATOM     20  H2  UNL     1       3.976  56.520  20.882  1.00  0.00     0.210 HD
ENDBRANCH  15  19
BRANCH  16  21
HETATM   21  C18 UNL     1       3.267  56.723  23.139  1.00  0.00    -0.029 C 
HETATM   22  C19 UNL     1       2.270  55.916  22.966  1.00  0.00     0.007 C 
ENDBRANCH  16  21
ENDBRANCH   9  10
ENDBRANCH   8   9
ENDBRANCH   5   8
BRANCH   6  23
HETATM   23  O3  UNL     1       6.974  61.729  28.375  1.00  0.00    -0.370 OA
ATOM     24  H3  UNL     1       7.441  62.443  28.791  1.00  0.00     0.212 HD
ENDBRANCH   6  23
BRANCH   1  25
HETATM   25  C4  UNL     1       4.695  65.147  29.020  1.00  0.00     0.253 C 
HETATM   26  N1  UNL     1       4.598  65.984  27.875  1.00  0.00    -0.355 N 
ATOM     27  H1  UNL     1       4.805  65.575  26.964  1.00  0.00     0.162 HD
HETATM   28  O1  UNL     1       4.432  65.689  30.132  1.00  0.00    -0.270 OA
BRANCH  26  29
HETATM   29  C3  UNL     1       4.227  67.362  27.921  1.00  0.00     0.149 C 
BRANCH  29  30
HETATM   30  C2  UNL     1       4.733  68.074  26.714  1.00  0.00    -0.018 C 
HETATM   31  C1  UNL     1       4.657  69.376  26.611  1.00  0.00     0.008 C 
ENDBRANCH  29  30
ENDBRANCH  26  29
ENDBRANCH   1  25
TORSDOF 9
ENDMDL
MODEL 5
REMARK VINA RESULT: -6.151388904      2.968      7.168
REMARK  9 active torsions:
REMARK  status: ('A' for Active; 'I' for Inactive)
REMARK    1  A    between atoms: C2_2  and  C3_3 
REMARK    2  A    between atoms: C3_3  and  N1_4 
REMARK       I    between atoms: N1_4  and  C4_6 
REMARK    3  A    between atoms: C4_6  and  C5_8 
REMARK    4  A    between atoms: C8_12  and  C9_13 
REMARK    5  A    between atoms: C9_13  and  C10_14 
REMARK    6  A    between atoms: C10_14  and  C11_15 
REMARK    7  A    between atoms: C16_20  and  O2_21 
REMARK    8  A    between atoms: C17_23  and  C18_24 
REMARK    9  A    between atoms: C22_28  and  O3_29 
ROOT
HETATM    1  C5  UNL     1       4.863  61.381  21.884  1.00  0.00     0.149 C 
HETATM    2  C6  UNL     1       4.393  62.587  21.096  1.00  0.00     0.057 C 
HETATM    3  C7  UNL     1       3.665  60.465  22.116  1.00  0.00     0.122 C 
HETATM    4  S1  UNL     1       2.814  60.837  23.637  1.00  0.00    -0.156 SA
HETATM    5  C8  UNL     1       3.893  61.702  24.804  1.00  0.00     0.102 C 
HETATM    6  C22 UNL     1       4.901  62.469  23.943  1.00  0.00     0.272 C 
HETATM    7  O4  UNL     1       5.532  61.698  23.024  1.00  0.00    -0.339 OA
ENDROOT
BRANCH   5   8
HETATM    8  C9  UNL     1       4.639  60.825  25.735  1.00  0.00     0.021 C 
BRANCH   8   9
HETATM    9  C10 UNL     1       3.964  59.806  26.520  1.00  0.00     0.011 C 
BRANCH   9  10
HETATM   10  C11 UNL     1       4.555  58.511  26.848  1.00  0.00    -0.037 C 
HETATM   11  C12 UNL     1       3.786  57.340  26.308  1.00  0.00     0.016 C 
HETATM   12  C13 UNL     1       5.935  58.474  26.183  1.00  0.00    -0.008 C 
HETATM   13  C14 UNL     1       5.915  57.702  24.881  1.00  0.00     0.011 C 
HETATM   14  C15 UNL     1       7.026  57.978  27.053  1.00  0.00     0.037 C 
HETATM   15  C16 UNL     1       6.646  56.773  27.918  1.00  0.00     0.126 C 
HETATM   16  C17 UNL     1       5.373  56.936  28.615  1.00  0.00     0.041 C 
HETATM   17  C20 UNL     1       4.688  58.274  28.342  1.00  0.00    -0.000 C 
HETATM   18  C21 UNL     1       5.415  59.336  29.081  1.00  0.00     0.011 C 
BRANCH  15  19
HETATM   19  O2  UNL     1       7.774  56.481  28.641  1.00  0.00    -0.395 OA
ATOM     20  H2  UNL     1       7.544  56.662  29.545  1.00  0.00     0.210 HD
ENDBRANCH  15  19
BRANCH  16  21
HETATM   21  C18 UNL     1       5.272  56.722  30.053  1.00  0.00    -0.029 C 
HETATM   22  C19 UNL     1       4.644  55.843  30.766  1.00  0.00     0.007 C 
ENDBRANCH  16  21
ENDBRANCH   9  10
ENDBRANCH   8   9
ENDBRANCH   5   8
BRANCH   6  23
HETATM   23  O3  UNL     1       4.284  63.600  23.481  1.00  0.00    -0.370 OA
ATOM     24  H3  UNL     1       4.891  64.048  22.904  1.00  0.00     0.212 HD
ENDBRANCH   6  23
BRANCH   1  25
HETATM   25  C4  UNL     1       5.784  60.625  20.993  1.00  0.00     0.253 C 
HETATM   26  N1  UNL     1       6.761  61.270  20.187  1.00  0.00    -0.355 N 
ATOM     27  H1  UNL     1       6.822  62.287  20.231  1.00  0.00     0.162 HD
HETATM   28  O1  UNL     1       5.737  59.364  20.911  1.00  0.00    -0.270 OA
BRANCH  26  29
HETATM   29  C3  UNL     1       7.663  60.583  19.320  1.00  0.00     0.149 C 
BRANCH  29  30
HETATM   30  C2  UNL     1       8.016  61.442  18.155  1.00  0.00    -0.018 C 
HETATM   31  C1  UNL     1       8.389  60.922  17.014  1.00  0.00     0.008 C 
ENDBRANCH  29  30
ENDBRANCH  26  29
ENDBRANCH   1  25
TORSDOF 9
ENDMDL
