MODEL 1
REMARK VINA RESULT: -7.631120772      0.000      0.000
REMARK  11 active torsions:
REMARK  status: ('A' for Active; 'I' for Inactive)
REMARK    1  A    between atoms: C2_2  and  O1_3 
REMARK    2  A    between atoms: O1_3  and  C3_4 
REMARK    3  A    between atoms: C3_4  and  C4_6 
REMARK    4  A    between atoms: C4_6  and  C5_7 
REMARK    5  A    between atoms: C5_7  and  C6_8 
REMARK    6  A    between atoms: C7_9  and  C8_10 
REMARK    7  A    between atoms: C8_10  and  C9_11 
REMARK    8  A    between atoms: C11_13  and  C12_14 
REMARK    9  A    between atoms: C12_14  and  O3_15 
REMARK   10  A    between atoms: C15_19  and  O4_20 
REMARK   11  A    between atoms: C16_22  and  O5_23 
ROOT
HETATM    1  C9  UNL     1       4.434  60.821  23.829  1.00  0.00    -0.004 C 
HETATM    2  C10 UNL     1       4.710  59.986  25.055  1.00  0.00     0.012 C 
HETATM    3  C11 UNL     1       5.047  58.566  24.545  1.00  0.00     0.014 C 
HETATM    4  C13 UNL     1       4.353  58.619  23.204  1.00  0.00     0.003 C 
HETATM    5  C14 UNL     1       4.976  59.941  22.733  1.00  0.00     0.026 C 
HETATM    6  C15 UNL     1       4.522  60.247  21.380  1.00  0.00     0.152 C 
HETATM    7  C16 UNL     1       4.966  59.142  20.456  1.00  0.00     0.152 C 
HETATM    8  C17 UNL     1       4.590  57.779  20.846  1.00  0.00     0.026 C 
HETATM    9  C18 UNL     1       3.141  57.418  20.647  1.00  0.00    -0.003 C 
HETATM   10  C19 UNL     1       2.891  56.530  19.482  1.00  0.00     0.005 C 
HETATM   11  C20 UNL     1       2.108  55.286  19.863  1.00  0.00     0.000 C 
HETATM   12  C21 UNL     1       3.031  54.552  20.813  1.00  0.00     0.000 C 
HETATM   13  C22 UNL     1       3.128  55.332  22.066  1.00  0.00     0.005 C 
HETATM   14  C23 UNL     1       3.160  56.799  21.996  1.00  0.00    -0.005 C 
HETATM   15  C24 UNL     1       4.494  57.490  22.306  1.00  0.00     0.002 C 
ENDROOT
BRANCH   1  16
HETATM   16  C8  UNL     1       5.088  62.171  23.881  1.00  0.00     0.031 C 
BRANCH  16  17
HETATM   17  C7  UNL     1       4.494  63.161  23.003  1.00  0.00    -0.030 C 
HETATM   18  C6  UNL     1       5.023  63.606  21.882  1.00  0.00    -0.030 C 
BRANCH  18  19
HETATM   19  C5  UNL     1       6.317  63.177  21.316  1.00  0.00     0.037 C 
BRANCH  19  20
HETATM   20  C4  UNL     1       6.091  62.767  19.877  1.00  0.00     0.115 C 
BRANCH  20  21
HETATM   21  C3  UNL     1       7.361  62.772  19.129  1.00  0.00     0.259 C 
HETATM   22  O2  UNL     1       7.928  63.817  18.733  1.00  0.00    -0.265 OA
BRANCH  21  23
HETATM   23  O1  UNL     1       7.958  61.530  18.851  1.00  0.00    -0.322 OA
BRANCH  23  24
HETATM   24  C2  UNL     1       8.351  61.264  17.515  1.00  0.00     0.174 C 
HETATM   25  C1  UNL     1       7.837  59.925  17.079  1.00  0.00     0.034 C 
ENDBRANCH  23  24
ENDBRANCH  21  23
ENDBRANCH  20  21
ENDBRANCH  19  20
ENDBRANCH  18  19
ENDBRANCH  16  17
ENDBRANCH   1  16
BRANCH   3  26
HETATM   26  C12 UNL     1       4.548  57.536  25.490  1.00  0.00     0.169 C 
BRANCH  26  27
HETATM   27  O3  UNL     1       3.171  57.589  25.603  1.00  0.00    -0.400 OA
ATOM     28  H3  UNL     1       2.762  57.698  24.753  1.00  0.00     0.209 HD
ENDBRANCH  26  27
ENDBRANCH   3  26
BRANCH   6  29
HETATM   29  O4  UNL     1       3.183  60.541  21.239  1.00  0.00    -0.393 OA
ATOM     30  H4  UNL     1       2.592  59.798  21.206  1.00  0.00     0.210 HD
ENDBRANCH   6  29
BRANCH   7  31
HETATM   31  O5  UNL     1       6.335  59.202  20.192  1.00  0.00    -0.393 OA
ATOM     32  H5  UNL     1       6.527  59.732  19.428  1.00  0.00     0.210 HD
ENDBRANCH   7  31
TORSDOF 11
ENDMDL
MODEL 2
REMARK VINA RESULT: -7.499044848      2.832      7.829
REMARK  11 active torsions:
REMARK  status: ('A' for Active; 'I' for Inactive)
REMARK    1  A    between atoms: C2_2  and  O1_3 
REMARK    2  A    between atoms: O1_3  and  C3_4 
REMARK    3  A    between atoms: C3_4  and  C4_6 
REMARK    4  A    between atoms: C4_6  and  C5_7 
REMARK    5  A    between atoms: C5_7  and  C6_8 
REMARK    6  A    between atoms: C7_9  and  C8_10 
REMARK    7  A    between atoms: C8_10  and  C9_11 
REMARK    8  A    between atoms: C11_13  and  C12_14 
REMARK    9  A    between atoms: C12_14  and  O3_15 
REMARK   10  A    between atoms: C15_19  and  O4_20 
REMARK   11  A    between atoms: C16_22  and  O5_23 
ROOT
HETATM    1  C9  UNL     1       2.481  56.112  22.205  1.00  0.00    -0.004 C 
HETATM    2  C10 UNL     1       2.805  55.995  20.736  1.00  0.00     0.012 C 
HETATM    3  C11 UNL     1       3.997  56.945  20.478  1.00  0.00     0.014 C 
HETATM    4  C13 UNL     1       3.809  57.890  21.641  1.00  0.00     0.003 C 
HETATM    5  C14 UNL     1       3.705  56.813  22.731  1.00  0.00     0.026 C 
HETATM    6  C15 UNL     1       3.571  57.446  24.040  1.00  0.00     0.152 C 
HETATM    7  C16 UNL     1       4.792  58.289  24.301  1.00  0.00     0.152 C 
HETATM    8  C17 UNL     1       5.136  59.273  23.269  1.00  0.00     0.026 C 
HETATM    9  C18 UNL     1       4.256  60.495  23.212  1.00  0.00    -0.003 C 
HETATM   10  C19 UNL     1       4.883  61.722  23.767  1.00  0.00     0.005 C 
HETATM   11  C20 UNL     1       4.844  62.883  22.788  1.00  0.00     0.000 C 
HETATM   12  C21 UNL     1       5.699  62.411  21.631  1.00  0.00     0.000 C 
HETATM   13  C22 UNL     1       4.984  61.314  20.940  1.00  0.00     0.005 C 
HETATM   14  C23 UNL     1       4.223  60.343  21.735  1.00  0.00    -0.005 C 
HETATM   15  C24 UNL     1       4.799  58.927  21.858  1.00  0.00     0.002 C 
ENDROOT
BRANCH   1  16
HETATM   16  C8  UNL     1       2.236  54.782  22.858  1.00  0.00     0.031 C 
BRANCH  16  17
HETATM   17  C7  UNL     1       1.038  54.102  22.406  1.00  0.00    -0.030 C 
HETATM   18  C6  UNL     1       0.912  52.802  22.239  1.00  0.00    -0.030 C 
BRANCH  18  19
HETATM   19  C5  UNL     1       1.969  51.801  22.483  1.00  0.00     0.037 C 
BRANCH  19  20
HETATM   20  C4  UNL     1       2.180  51.016  21.207  1.00  0.00     0.115 C 
BRANCH  20  21
HETATM   21  C3  UNL     1       2.876  51.836  20.201  1.00  0.00     0.259 C 
HETATM   22  O2  UNL     1       3.868  52.557  20.460  1.00  0.00    -0.265 OA
BRANCH  21  23
HETATM   23  O1  UNL     1       2.393  51.798  18.881  1.00  0.00    -0.322 OA
BRANCH  23  24
HETATM   24  C2  UNL     1       1.060  52.221  18.647  1.00  0.00     0.174 C 
HETATM   25  C1  UNL     1       1.010  53.708  18.470  1.00  0.00     0.034 C 
ENDBRANCH  23  24
ENDBRANCH  21  23
ENDBRANCH  20  21
ENDBRANCH  19  20
ENDBRANCH  18  19
ENDBRANCH  16  17
ENDBRANCH   1  16
BRANCH   3  26
HETATM   26  C12 UNL     1       3.901  57.554  19.128  1.00  0.00     0.169 C 
BRANCH  26  27
HETATM   27  O3  UNL     1       4.379  56.694  18.158  1.00  0.00    -0.400 OA
ATOM     28  H3  UNL     1       4.441  57.128  17.315  1.00  0.00     0.209 HD
ENDBRANCH  26  27
ENDBRANCH   3  26
BRANCH   6  29
HETATM   29  O4  UNL     1       2.400  58.138  24.264  1.00  0.00    -0.393 OA
ATOM     30  H4  UNL     1       2.332  58.588  25.098  1.00  0.00     0.210 HD
ENDBRANCH   6  29
BRANCH   7  31
HETATM   31  O5  UNL     1       5.909  57.509  24.605  1.00  0.00    -0.393 OA
ATOM     32  H5  UNL     1       5.755  56.947  25.355  1.00  0.00     0.210 HD
ENDBRANCH   7  31
TORSDOF 11
ENDMDL
MODEL 3
REMARK VINA RESULT: -7.495072019      2.526      5.659
REMARK  11 active torsions:
REMARK  status: ('A' for Active; 'I' for Inactive)
REMARK    1  A    between atoms: C2_2  and  O1_3 
REMARK    2  A    between atoms: O1_3  and  C3_4 
REMARK    3  A    between atoms: C3_4  and  C4_6 
REMARK    4  A    between atoms: C4_6  and  C5_7 
REMARK    5  A    between atoms: C5_7  and  C6_8 
REMARK    6  A    between atoms: C7_9  and  C8_10 
REMARK    7  A    between atoms: C8_10  and  C9_11 
REMARK    8  A    between atoms: C11_13  and  C12_14 
REMARK    9  A    between atoms: C12_14  and  O3_15 
REMARK   10  A    between atoms: C15_19  and  O4_20 
REMARK   11  A    between atoms: C16_22  and  O5_23 
ROOT
HETATM    1  C9  UNL     1       5.050  59.672  23.105  1.00  0.00    -0.004 C 
HETATM    2  C10 UNL     1       5.089  58.310  23.752  1.00  0.00     0.012 C 
HETATM    3  C11 UNL     1       4.596  58.507  25.204  1.00  0.00     0.014 C 
HETATM    4  C13 UNL     1       4.913  59.975  25.370  1.00  0.00     0.003 C 
HETATM    5  C14 UNL     1       4.218  60.452  24.087  1.00  0.00     0.026 C 
HETATM    6  C15 UNL     1       4.305  61.907  23.990  1.00  0.00     0.152 C 
HETATM    7  C16 UNL     1       3.608  62.517  25.178  1.00  0.00     0.152 C 
HETATM    8  C17 UNL     1       4.041  62.046  26.498  1.00  0.00     0.026 C 
HETATM    9  C18 UNL     1       5.377  62.559  26.968  1.00  0.00    -0.003 C 
HETATM   10  C19 UNL     1       5.290  63.610  28.015  1.00  0.00     0.005 C 
HETATM   11  C20 UNL     1       6.117  63.270  29.243  1.00  0.00     0.000 C 
HETATM   12  C21 UNL     1       5.461  62.019  29.789  1.00  0.00     0.000 C 
HETATM   13  C22 UNL     1       5.717  60.909  28.845  1.00  0.00     0.005 C 
HETATM   14  C23 UNL     1       5.702  61.177  27.402  1.00  0.00    -0.005 C 
HETATM   15  C24 UNL     1       4.513  60.635  26.597  1.00  0.00     0.002 C 
ENDROOT
BRANCH   1  16
HETATM   16  C8  UNL     1       4.465  59.646  21.722  1.00  0.00     0.031 C 
BRANCH  16  17
HETATM   17  C7  UNL     1       5.410  59.310  20.675  1.00  0.00    -0.030 C 
HETATM   18  C6  UNL     1       6.277  60.139  20.132  1.00  0.00    -0.030 C 
BRANCH  18  19
HETATM   19  C5  UNL     1       6.445  61.561  20.492  1.00  0.00     0.037 C 
BRANCH  19  20
HETATM   20  C4  UNL     1       7.824  62.001  20.051  1.00  0.00     0.115 C 
BRANCH  20  21
HETATM   21  C3  UNL     1       7.738  62.874  18.867  1.00  0.00     0.259 C 
HETATM   22  O2  UNL     1       7.755  64.125  18.926  1.00  0.00    -0.265 OA
BRANCH  21  23
HETATM   23  O1  UNL     1       7.630  62.256  17.608  1.00  0.00    -0.322 OA
BRANCH  23  24
HETATM   24  C2  UNL     1       8.590  61.271  17.265  1.00  0.00     0.174 C 
HETATM   25  C1  UNL     1       7.908  60.028  16.780  1.00  0.00     0.034 C 
ENDBRANCH  23  24
ENDBRANCH  21  23
ENDBRANCH  20  21
ENDBRANCH  19  20
ENDBRANCH  18  19
ENDBRANCH  16  17
ENDBRANCH   1  16
BRANCH   3  26
HETATM   26  C12 UNL     1       5.303  57.586  26.129  1.00  0.00     0.169 C 
BRANCH  26  27
HETATM   27  O3  UNL     1       6.665  57.588  25.890  1.00  0.00    -0.400 OA
ATOM     28  H3  UNL     1       7.109  58.216  26.447  1.00  0.00     0.209 HD
ENDBRANCH  26  27
ENDBRANCH   3  26
BRANCH   6  29
HETATM   29  O4  UNL     1       5.565  62.429  23.798  1.00  0.00    -0.393 OA
ATOM     30  H4  UNL     1       5.619  63.203  23.248  1.00  0.00     0.210 HD
ENDBRANCH   6  29
BRANCH   7  31
HETATM   31  O5  UNL     1       2.219  62.423  25.072  1.00  0.00    -0.393 OA
ATOM     32  H5  UNL     1       1.866  61.735  25.624  1.00  0.00     0.210 HD
ENDBRANCH   7  31
TORSDOF 11
ENDMDL
MODEL 4
REMARK VINA RESULT: -7.429886395      1.984      3.792
REMARK  11 active torsions:
REMARK  status: ('A' for Active; 'I' for Inactive)
REMARK    1  A    between atoms: C2_2  and  O1_3 
REMARK    2  A    between atoms: O1_3  and  C3_4 
REMARK    3  A    between atoms: C3_4  and  C4_6 
REMARK    4  A    between atoms: C4_6  and  C5_7 
REMARK    5  A    between atoms: C5_7  and  C6_8 
REMARK    6  A    between atoms: C7_9  and  C8_10 
REMARK    7  A    between atoms: C8_10  and  C9_11 
REMARK    8  A    between atoms: C11_13  and  C12_14 
REMARK    9  A    between atoms: C12_14  and  O3_15 
REMARK   10  A    between atoms: C15_19  and  O4_20 
REMARK   11  A    between atoms: C16_22  and  O5_23 
ROOT
HETATM    1  C9  UNL     1       5.268  60.871  22.874  1.00  0.00    -0.004 C 
HETATM    2  C10 UNL     1       5.217  60.131  21.560  1.00  0.00     0.012 C 
HETATM    3  C11 UNL     1       3.959  59.234  21.617  1.00  0.00     0.014 C 
HETATM    4  C13 UNL     1       3.809  59.123  23.116  1.00  0.00     0.003 C 
HETATM    5  C14 UNL     1       3.884  60.628  23.414  1.00  0.00     0.026 C 
HETATM    6  C15 UNL     1       3.703  60.858  24.844  1.00  0.00     0.152 C 
HETATM    7  C16 UNL     1       2.346  60.347  25.252  1.00  0.00     0.152 C 
HETATM    8  C17 UNL     1       2.040  58.958  24.896  1.00  0.00     0.026 C 
HETATM    9  C18 UNL     1       2.729  57.904  25.724  1.00  0.00    -0.003 C 
HETATM   10  C19 UNL     1       1.846  57.233  26.712  1.00  0.00     0.005 C 
HETATM   11  C20 UNL     1       1.878  55.721  26.581  1.00  0.00     0.000 C 
HETATM   12  C21 UNL     1       1.308  55.463  25.202  1.00  0.00     0.000 C 
HETATM   13  C22 UNL     1       2.281  55.946  24.198  1.00  0.00     0.005 C 
HETATM   14  C23 UNL     1       3.032  57.180  24.464  1.00  0.00    -0.005 C 
HETATM   15  C24 UNL     1       2.656  58.424  23.648  1.00  0.00     0.002 C 
ENDROOT
BRANCH   1  16
HETATM   16  C8  UNL     1       5.592  62.329  22.712  1.00  0.00     0.031 C 
BRANCH  16  17
HETATM   17  C7  UNL     1       5.186  62.897  21.441  1.00  0.00    -0.030 C 
HETATM   18  C6  UNL     1       5.985  63.149  20.425  1.00  0.00    -0.030 C 
BRANCH  18  19
HETATM   19  C5  UNL     1       7.440  62.897  20.397  1.00  0.00     0.037 C 
BRANCH  19  20
HETATM   20  C4  UNL     1       7.715  61.830  19.360  1.00  0.00     0.115 C 
BRANCH  20  21
HETATM   21  C3  UNL     1       7.955  62.436  18.039  1.00  0.00     0.259 C 
HETATM   22  O2  UNL     1       8.373  63.607  17.880  1.00  0.00    -0.265 OA
BRANCH  21  23
HETATM   23  O1  UNL     1       7.696  61.649  16.904  1.00  0.00    -0.322 OA
BRANCH  23  24
HETATM   24  C2  UNL     1       8.417  60.438  16.755  1.00  0.00     0.174 C 
HETATM   25  C1  UNL     1       7.486  59.321  16.389  1.00  0.00     0.034 C 
ENDBRANCH  23  24
ENDBRANCH  21  23
ENDBRANCH  20  21
ENDBRANCH  19  20
ENDBRANCH  18  19
ENDBRANCH  16  17
ENDBRANCH   1  16
BRANCH   3  26
HETATM   26  C12 UNL     1       4.190  57.958  20.896  1.00  0.00     0.169 C 
BRANCH  26  27
HETATM   27  O3  UNL     1       4.584  58.188  19.590  1.00  0.00    -0.400 OA
ATOM     28  H3  UNL     1       4.879  57.386  19.176  1.00  0.00     0.209 HD
ENDBRANCH  26  27
ENDBRANCH   3  26
BRANCH   6  29
HETATM   29  O4  UNL     1       4.706  60.393  25.667  1.00  0.00    -0.393 OA
ATOM     30  H4  UNL     1       5.583  60.390  25.300  1.00  0.00     0.210 HD
ENDBRANCH   6  29
BRANCH   7  31
HETATM   31  O5  UNL     1       1.320  61.187  24.815  1.00  0.00    -0.393 OA
ATOM     32  H5  UNL     1       0.964  61.711  25.523  1.00  0.00     0.210 HD
ENDBRANCH   7  31
TORSDOF 11
ENDMDL
MODEL 5
REMARK VINA RESULT: -7.384400631      2.904      7.494
REMARK  11 active torsions:
REMARK  status: ('A' for Active; 'I' for Inactive)
REMARK    1  A    between atoms: C2_2  and  O1_3 
REMARK    2  A    between atoms: O1_3  and  C3_4 
REMARK    3  A    between atoms: C3_4  and  C4_6 
REMARK    4  A    between atoms: C4_6  and  C5_7 
REMARK    5  A    between atoms: C5_7  and  C6_8 
REMARK    6  A    between atoms: C7_9  and  C8_10 
REMARK    7  A    between atoms: C8_10  and  C9_11 
REMARK    8  A    between atoms: C11_13  and  C12_14 
REMARK    9  A    between atoms: C12_14  and  O3_15 
REMARK   10  A    between atoms: C15_19  and  O4_20 
REMARK   11  A    between atoms: C16_22  and  O5_23 
ROOT
HETATM    1  C9  UNL     1       2.366  56.396  23.376  1.00  0.00    -0.004 C 
HETATM    2  C10 UNL     1       2.754  56.017  21.968  1.00  0.00     0.012 C 
HETATM    3  C11 UNL     1       3.981  56.886  21.608  1.00  0.00     0.014 C 
HETATM    4  C13 UNL     1       3.763  58.025  22.577  1.00  0.00     0.003 C 
HETATM    5  C14 UNL     1       3.581  57.158  23.832  1.00  0.00     0.026 C 
HETATM    6  C15 UNL     1       3.402  58.014  25.001  1.00  0.00     0.152 C 
HETATM    7  C16 UNL     1       4.631  58.869  25.172  1.00  0.00     0.152 C 
HETATM    8  C17 UNL     1       5.047  59.650  24.003  1.00  0.00     0.026 C 
HETATM    9  C18 UNL     1       4.202  60.857  23.688  1.00  0.00    -0.003 C 
HETATM   10  C19 UNL     1       4.834  62.152  24.051  1.00  0.00     0.005 C 
HETATM   11  C20 UNL     1       4.870  63.123  22.883  1.00  0.00     0.000 C 
HETATM   12  C21 UNL     1       5.765  62.440  21.871  1.00  0.00     0.000 C 
HETATM   13  C22 UNL     1       5.056  61.252  21.348  1.00  0.00     0.005 C 
HETATM   14  C23 UNL     1       4.234  60.448  22.261  1.00  0.00    -0.005 C 
HETATM   15  C24 UNL     1       4.768  59.066  22.659  1.00  0.00     0.002 C 
ENDROOT
BRANCH   1  16
HETATM   16  C8  UNL     1       2.057  55.206  24.238  1.00  0.00     0.031 C 
BRANCH  16  17
HETATM   17  C7  UNL     1       0.853  54.488  23.864  1.00  0.00    -0.030 C 
HETATM   18  C6  UNL     1       0.816  53.332  23.235  1.00  0.00    -0.030 C 
BRANCH  18  19
HETATM   19  C5  UNL     1       1.993  52.557  22.797  1.00  0.00     0.037 C 
BRANCH  19  20
HETATM   20  C4  UNL     1       1.762  52.112  21.369  1.00  0.00     0.115 C 
BRANCH  20  21
HETATM   21  C3  UNL     1       2.840  52.600  20.492  1.00  0.00     0.259 C 
HETATM   22  O2  UNL     1       3.976  52.074  20.432  1.00  0.00    -0.265 OA
BRANCH  21  23
HETATM   23  O1  UNL     1       2.568  53.717  19.683  1.00  0.00    -0.322 OA
BRANCH  23  24
HETATM   24  C2  UNL     1       1.359  53.724  18.942  1.00  0.00     0.174 C 
HETATM   25  C1  UNL     1       1.160  55.057  18.284  1.00  0.00     0.034 C 
ENDBRANCH  23  24
ENDBRANCH  21  23
ENDBRANCH  20  21
ENDBRANCH  19  20
ENDBRANCH  18  19
ENDBRANCH  16  17
ENDBRANCH   1  16
BRANCH   3  26
HETATM   26  C12 UNL     1       3.963  57.250  20.169  1.00  0.00     0.169 C 
BRANCH  26  27
HETATM   27  O3  UNL     1       4.285  56.164  19.377  1.00  0.00    -0.400 OA
ATOM     28  H3  UNL     1       5.076  55.738  19.685  1.00  0.00     0.209 HD
ENDBRANCH  26  27
ENDBRANCH   3  26
BRANCH   6  29
HETATM   29  O4  UNL     1       2.240  58.753  25.042  1.00  0.00    -0.393 OA
ATOM     30  H4  UNL     1       2.075  59.317  24.295  1.00  0.00     0.210 HD
ENDBRANCH   6  29
BRANCH   7  31
HETATM   31  O5  UNL     1       5.712  58.136  25.664  1.00  0.00    -0.393 OA
ATOM     32  H5  UNL     1       6.536  58.425  25.290  1.00  0.00     0.210 HD
ENDBRANCH   7  31
TORSDOF 11
ENDMDL
