MODEL 1
REMARK VINA RESULT: -7.653403633      0.000      0.000
REMARK  9 active torsions:
REMARK  status: ('A' for Active; 'I' for Inactive)
REMARK    1  A    between atoms: O1_1  and  C1_3 
REMARK    2  A    between atoms: N1_6  and  C4_7 
REMARK    3  A    between atoms: C7_10  and  N2_11 
REMARK    4  A    between atoms: C9_13  and  O2_14 
REMARK    5  A    between atoms: C10_16  and  C11_17 
REMARK    6  A    between atoms: C11_17  and  C12_18 
REMARK    7  A    between atoms: C20_26  and  C21_27 
REMARK    8  A    between atoms: C21_27  and  N3_28 
REMARK    9  A    between atoms: N3_28  and  C22_30 
ROOT
HETATM    1  C4  UNL     1       4.982  61.138  25.857  1.00  0.00     0.030 A 
HETATM    2  C5  UNL     1       4.847  59.774  25.809  1.00  0.00     0.031 A 
HETATM    3  C6  UNL     1       4.802  59.144  24.594  1.00  0.00     0.031 A 
HETATM    4  C7  UNL     1       4.890  59.870  23.438  1.00  0.00     0.030 A 
HETATM    5  C18 UNL     1       5.025  61.239  23.489  1.00  0.00     0.031 A 
HETATM    6  C19 UNL     1       5.070  61.871  24.719  1.00  0.00     0.031 A 
ENDROOT
BRANCH   1   7
HETATM    7  N1  UNL     1       5.007  61.794  27.124  1.00  0.00    -0.371 N 
HETATM    8  C3  UNL     1       4.218  61.294  28.204  1.00  0.00     0.126 C 
HETATM    9  C2  UNL     1       4.984  61.095  29.480  1.00  0.00     0.051 C 
HETATM   10  C1  UNL     1       6.091  62.046  29.723  1.00  0.00     0.122 C 
HETATM   11  C25 UNL     1       6.747  62.614  28.529  1.00  0.00     0.062 C 
HETATM   12  C20 UNL     1       5.837  62.971  27.392  1.00  0.00     0.125 C 
BRANCH  10  13
HETATM   13  O1  UNL     1       5.691  63.099  30.577  1.00  0.00    -0.395 OA
ATOM     14  H1  UNL     1       5.306  63.817  30.088  1.00  0.00     0.210 HD
ENDBRANCH  10  13
BRANCH  12  15
HETATM   15  C21 UNL     1       4.956  64.130  27.645  1.00  0.00     0.081 C 
BRANCH  15  16
HETATM   16  N3  UNL     1       4.424  64.840  26.555  1.00  0.00    -0.396 N 
ATOM     17  H3  UNL     1       5.048  65.344  25.924  1.00  0.00     0.159 HD
BRANCH  16  18
HETATM   18  C22 UNL     1       3.031  64.858  26.327  1.00  0.00     0.081 A 
HETATM   19  C23 UNL     1       2.147  63.709  26.160  1.00  0.00     0.027 A 
HETATM   20  C24 UNL     1       2.583  64.445  24.933  1.00  0.00     0.027 A 
ENDBRANCH  16  18
ENDBRANCH  15  16
ENDBRANCH  12  15
ENDBRANCH   1   7
BRANCH   4  21
HETATM   21  N2  UNL     1       4.845  59.213  22.188  1.00  0.00    -0.371 N 
HETATM   22  C8  UNL     1       4.626  57.904  21.647  1.00  0.00     0.157 C 
HETATM   23  C9  UNL     1       4.125  58.581  20.379  1.00  0.00     0.159 C 
HETATM   24  C10 UNL     1       5.038  59.668  20.791  1.00  0.00     0.119 C 
BRANCH  23  25
HETATM   25  O2  UNL     1       4.365  57.893  19.225  1.00  0.00    -0.392 OA
ATOM     26  H2  UNL     1       3.608  57.456  18.854  1.00  0.00     0.210 HD
ENDBRANCH  23  25
BRANCH  24  27
HETATM   27  C11 UNL     1       6.484  59.618  20.471  1.00  0.00     0.066 C 
BRANCH  27  28
HETATM   28  C12 UNL     1       7.029  60.810  19.802  1.00  0.00    -0.056 A 
HETATM   29  C13 UNL     1       7.684  60.732  18.590  1.00  0.00     0.007 A 
HETATM   30  C14 UNL     1       8.163  61.874  17.981  1.00  0.00     0.001 A 
HETATM   31  C15 UNL     1       8.017  63.124  18.540  1.00  0.00     0.000 A 
HETATM   32  C16 UNL     1       7.366  63.191  19.743  1.00  0.00     0.001 A 
HETATM   33  C17 UNL     1       6.874  62.082  20.379  1.00  0.00     0.007 A 
ENDBRANCH  27  28
ENDBRANCH  24  27
ENDBRANCH   4  21
TORSDOF 9
ENDMDL
MODEL 2
REMARK VINA RESULT: -7.558999847      0.894      1.633
REMARK  9 active torsions:
REMARK  status: ('A' for Active; 'I' for Inactive)
REMARK    1  A    between atoms: O1_1  and  C1_3 
REMARK    2  A    between atoms: N1_6  and  C4_7 
REMARK    3  A    between atoms: C7_10  and  N2_11 
REMARK    4  A    between atoms: C9_13  and  O2_14 
REMARK    5  A    between atoms: C10_16  and  C11_17 
REMARK    6  A    between atoms: C11_17  and  C12_18 
REMARK    7  A    between atoms: C20_26  and  C21_27 
REMARK    8  A    between atoms: C21_27  and  N3_28 
REMARK    9  A    between atoms: N3_28  and  C22_30 
ROOT
HETATM    1  C4  UNL     1       4.921  61.119  25.872  1.00  0.00     0.030 A 
HETATM    2  C5  UNL     1       4.840  61.853  24.716  1.00  0.00     0.031 A 
HETATM    3  C6  UNL     1       4.810  61.208  23.509  1.00  0.00     0.031 A 
HETATM    4  C7  UNL     1       4.863  59.842  23.456  1.00  0.00     0.030 A 
HETATM    5  C18 UNL     1       4.946  59.107  24.618  1.00  0.00     0.031 A 
HETATM    6  C19 UNL     1       4.976  59.765  25.835  1.00  0.00     0.031 A 
ENDROOT
BRANCH   1   7
HETATM    7  N1  UNL     1       4.973  61.796  27.127  1.00  0.00    -0.371 N 
HETATM    8  C3  UNL     1       4.238  61.291  28.243  1.00  0.00     0.126 C 
HETATM    9  C2  UNL     1       5.055  61.135  29.493  1.00  0.00     0.051 C 
HETATM   10  C1  UNL     1       6.141  62.122  29.681  1.00  0.00     0.122 C 
HETATM   11  C25 UNL     1       6.736  62.690  28.455  1.00  0.00     0.062 C 
HETATM   12  C20 UNL     1       5.775  63.001  27.347  1.00  0.00     0.125 C 
BRANCH  10  13
HETATM   13  O1  UNL     1       5.740  63.177  30.532  1.00  0.00    -0.395 OA
ATOM     14  H1  UNL     1       4.811  63.356  30.451  1.00  0.00     0.210 HD
ENDBRANCH  10  13
BRANCH  12  15
HETATM   15  C21 UNL     1       4.869  64.138  27.614  1.00  0.00     0.081 C 
BRANCH  15  16
HETATM   16  N3  UNL     1       5.241  65.426  27.192  1.00  0.00    -0.396 N 
ATOM     17  H3  UNL     1       6.183  65.593  26.839  1.00  0.00     0.159 HD
BRANCH  16  18
HETATM   18  C22 UNL     1       4.316  66.490  27.254  1.00  0.00     0.081 A 
HETATM   19  C23 UNL     1       3.372  66.905  26.220  1.00  0.00     0.027 A 
HETATM   20  C24 UNL     1       4.633  67.695  26.380  1.00  0.00     0.027 A 
ENDBRANCH  16  18
ENDBRANCH  15  16
ENDBRANCH  12  15
ENDBRANCH   1   7
BRANCH   4  21
HETATM   21  N2  UNL     1       4.830  59.183  22.208  1.00  0.00    -0.371 N 
HETATM   22  C8  UNL     1       4.635  57.868  21.668  1.00  0.00     0.157 C 
HETATM   23  C9  UNL     1       4.122  58.535  20.400  1.00  0.00     0.159 C 
HETATM   24  C10 UNL     1       5.014  59.639  20.809  1.00  0.00     0.119 C 
BRANCH  23  25
HETATM   25  O2  UNL     1       4.374  57.849  19.246  1.00  0.00    -0.392 OA
ATOM     26  H2  UNL     1       3.648  57.331  18.921  1.00  0.00     0.210 HD
ENDBRANCH  23  25
BRANCH  24  27
HETATM   27  C11 UNL     1       6.461  59.615  20.489  1.00  0.00     0.066 C 
BRANCH  27  28
HETATM   28  C12 UNL     1       6.986  60.822  19.832  1.00  0.00    -0.056 A 
HETATM   29  C13 UNL     1       6.839  62.077  20.386  1.00  0.00     0.007 A 
HETATM   30  C14 UNL     1       7.364  63.186  19.751  1.00  0.00     0.001 A 
HETATM   31  C15 UNL     1       8.046  63.098  18.558  1.00  0.00     0.000 A 
HETATM   32  C16 UNL     1       8.186  61.848  18.017  1.00  0.00     0.001 A 
HETATM   33  C17 UNL     1       7.681  60.723  18.615  1.00  0.00     0.007 A 
ENDBRANCH  27  28
ENDBRANCH  24  27
ENDBRANCH   4  21
TORSDOF 9
ENDMDL
MODEL 3
REMARK VINA RESULT: -7.414419237      3.899      7.587
REMARK  9 active torsions:
REMARK  status: ('A' for Active; 'I' for Inactive)
REMARK    1  A    between atoms: O1_1  and  C1_3 
REMARK    2  A    between atoms: N1_6  and  C4_7 
REMARK    3  A    between atoms: C7_10  and  N2_11 
REMARK    4  A    between atoms: C9_13  and  O2_14 
REMARK    5  A    between atoms: C10_16  and  C11_17 
REMARK    6  A    between atoms: C11_17  and  C12_18 
REMARK    7  A    between atoms: C20_26  and  C21_27 
REMARK    8  A    between atoms: C21_27  and  N3_28 
REMARK    9  A    between atoms: N3_28  and  C22_30 
ROOT
HETATM    1  C4  UNL     1       4.633  58.758  20.964  1.00  0.00     0.030 A 
HETATM    2  C5  UNL     1       4.528  57.881  22.014  1.00  0.00     0.031 A 
HETATM    3  C6  UNL     1       3.852  56.703  21.842  1.00  0.00     0.031 A 
HETATM    4  C7  UNL     1       3.285  56.404  20.633  1.00  0.00     0.030 A 
HETATM    5  C18 UNL     1       3.391  57.286  19.582  1.00  0.00     0.031 A 
HETATM    6  C19 UNL     1       4.076  58.475  19.761  1.00  0.00     0.031 A 
ENDROOT
BRANCH   1   7
HETATM    7  N1  UNL     1       5.321  59.994  21.153  1.00  0.00    -0.371 N 
HETATM    8  C3  UNL     1       6.669  60.139  20.704  1.00  0.00     0.126 C 
HETATM    9  C2  UNL     1       6.904  61.356  19.856  1.00  0.00     0.051 C 
HETATM   10  C1  UNL     1       6.080  62.540  20.186  1.00  0.00     0.122 C 
HETATM   11  C25 UNL     1       4.755  62.278  20.780  1.00  0.00     0.062 C 
HETATM   12  C20 UNL     1       4.697  61.161  21.781  1.00  0.00     0.125 C 
BRANCH  10  13
HETATM   13  O1  UNL     1       6.785  63.448  21.009  1.00  0.00    -0.395 OA
ATOM     14  H1  UNL     1       7.583  63.749  20.591  1.00  0.00     0.210 HD
ENDBRANCH  10  13
BRANCH  12  15
HETATM   15  C21 UNL     1       5.383  61.441  23.060  1.00  0.00     0.081 C 
BRANCH  15  16
HETATM   16  N3  UNL     1       5.156  62.669  23.705  1.00  0.00    -0.396 N 
ATOM     17  H3  UNL     1       5.656  63.504  23.398  1.00  0.00     0.159 HD
BRANCH  16  18
HETATM   18  C22 UNL     1       4.241  62.752  24.776  1.00  0.00     0.081 A 
HETATM   19  C23 UNL     1       2.833  62.367  24.770  1.00  0.00     0.027 A 
HETATM   20  C24 UNL     1       3.165  63.820  24.646  1.00  0.00     0.027 A 
ENDBRANCH  16  18
ENDBRANCH  15  16
ENDBRANCH  12  15
ENDBRANCH   1   7
BRANCH   4  21
HETATM   21  N2  UNL     1       2.591  55.186  20.462  1.00  0.00    -0.371 N 
HETATM   22  C8  UNL     1       1.786  54.512  19.485  1.00  0.00     0.157 C 
HETATM   23  C9  UNL     1       2.268  53.200  20.087  1.00  0.00     0.159 C 
HETATM   24  C10 UNL     1       2.391  53.997  21.325  1.00  0.00     0.119 C 
BRANCH  23  25
HETATM   25  O2  UNL     1       1.368  52.174  20.026  1.00  0.00    -0.392 OA
ATOM     26  H2  UNL     1       1.316  51.736  19.185  1.00  0.00     0.210 HD
ENDBRANCH  23  25
BRANCH  24  27
HETATM   27  C11 UNL     1       1.222  54.239  22.202  1.00  0.00     0.066 C 
BRANCH  27  28
HETATM   28  C12 UNL     1       1.469  54.096  23.645  1.00  0.00    -0.056 A 
HETATM   29  C13 UNL     1       1.556  52.860  24.252  1.00  0.00     0.007 A 
HETATM   30  C14 UNL     1       1.810  52.763  25.605  1.00  0.00     0.001 A 
HETATM   31  C15 UNL     1       1.986  53.871  26.403  1.00  0.00     0.000 A 
HETATM   32  C16 UNL     1       1.897  55.094  25.791  1.00  0.00     0.001 A 
HETATM   33  C17 UNL     1       1.647  55.232  24.451  1.00  0.00     0.007 A 
ENDBRANCH  27  28
ENDBRANCH  24  27
ENDBRANCH   4  21
TORSDOF 9
ENDMDL
MODEL 4
REMARK VINA RESULT: -7.288611518      2.237      4.716
REMARK  9 active torsions:
REMARK  status: ('A' for Active; 'I' for Inactive)
REMARK    1  A    between atoms: O1_1  and  C1_3 
REMARK    2  A    between atoms: N1_6  and  C4_7 
REMARK    3  A    between atoms: C7_10  and  N2_11 
REMARK    4  A    between atoms: C9_13  and  O2_14 
REMARK    5  A    between atoms: C10_16  and  C11_17 
REMARK    6  A    between atoms: C11_17  and  C12_18 
REMARK    7  A    between atoms: C20_26  and  C21_27 
REMARK    8  A    between atoms: C21_27  and  N3_28 
REMARK    9  A    between atoms: N3_28  and  C22_30 
ROOT
HETATM    1  C4  UNL     1       4.044  62.956  24.612  1.00  0.00     0.030 A 
HETATM    2  C5  UNL     1       3.889  63.530  23.376  1.00  0.00     0.031 A 
HETATM    3  C6  UNL     1       4.467  62.941  22.283  1.00  0.00     0.031 A 
HETATM    4  C7  UNL     1       5.194  61.791  22.423  1.00  0.00     0.030 A 
HETATM    5  C18 UNL     1       5.349  61.218  23.665  1.00  0.00     0.031 A 
HETATM    6  C19 UNL     1       4.763  61.817  24.767  1.00  0.00     0.031 A 
ENDROOT
BRANCH   1   7
HETATM    7  N1  UNL     1       3.458  63.584  25.752  1.00  0.00    -0.371 N 
HETATM    8  C3  UNL     1       4.252  63.854  26.907  1.00  0.00     0.126 C 
HETATM    9  C2  UNL     1       4.154  65.269  27.399  1.00  0.00     0.051 C 
HETATM   10  C1  UNL     1       2.845  65.930  27.204  1.00  0.00     0.122 C 
HETATM   11  C25 UNL     1       2.039  65.472  26.055  1.00  0.00     0.062 C 
HETATM   12  C20 UNL     1       2.053  63.995  25.796  1.00  0.00     0.125 C 
BRANCH  10  13
HETATM   13  O1  UNL     1       2.056  65.873  28.375  1.00  0.00    -0.395 OA
ATOM     14  H1  UNL     1       1.754  64.989  28.549  1.00  0.00     0.210 HD
ENDBRANCH  10  13
BRANCH  12  15
HETATM   15  C21 UNL     1       1.347  63.182  26.809  1.00  0.00     0.081 C 
BRANCH  15  16
HETATM   16  N3  UNL     1       1.222  61.796  26.611  1.00  0.00    -0.396 N 
ATOM     17  H3  UNL     1       1.632  61.148  27.283  1.00  0.00     0.159 HD
BRANCH  16  18
HETATM   18  C22 UNL     1       0.530  61.297  25.487  1.00  0.00     0.081 A 
HETATM   19  C23 UNL     1       0.088  59.925  25.256  1.00  0.00     0.027 A 
HETATM   20  C24 UNL     1       1.331  60.389  24.566  1.00  0.00     0.027 A 
ENDBRANCH  16  18
ENDBRANCH  15  16
ENDBRANCH  12  15
ENDBRANCH   1   7
BRANCH   4  21
HETATM   21  N2  UNL     1       5.786  61.188  21.292  1.00  0.00    -0.371 N 
HETATM   22  C8  UNL     1       6.372  61.556  20.036  1.00  0.00     0.157 C 
HETATM   23  C9  UNL     1       7.200  60.282  20.121  1.00  0.00     0.159 C 
HETATM   24  C10 UNL     1       6.055  59.781  20.911  1.00  0.00     0.119 C 
BRANCH  23  25
HETATM   25  O2  UNL     1       7.499  59.708  18.919  1.00  0.00    -0.392 OA
ATOM     26  H2  UNL     1       8.096  58.971  18.965  1.00  0.00     0.210 HD
ENDBRANCH  23  25
BRANCH  24  27
HETATM   27  C11 UNL     1       4.850  59.230  20.249  1.00  0.00     0.066 C 
BRANCH  27  28
HETATM   28  C12 UNL     1       4.197  58.111  20.946  1.00  0.00    -0.056 A 
HETATM   29  C13 UNL     1       4.005  58.116  22.313  1.00  0.00     0.007 A 
HETATM   30  C14 UNL     1       3.369  57.058  22.932  1.00  0.00     0.001 A 
HETATM   31  C15 UNL     1       2.904  55.967  22.233  1.00  0.00     0.000 A 
HETATM   32  C16 UNL     1       3.100  55.972  20.878  1.00  0.00     0.001 A 
HETATM   33  C17 UNL     1       3.724  57.002  20.226  1.00  0.00     0.007 A 
ENDBRANCH  27  28
ENDBRANCH  24  27
ENDBRANCH   4  21
TORSDOF 9
ENDMDL
MODEL 5
REMARK VINA RESULT: -7.148605321      4.139      7.983
REMARK  9 active torsions:
REMARK  status: ('A' for Active; 'I' for Inactive)
REMARK    1  A    between atoms: O1_1  and  C1_3 
REMARK    2  A    between atoms: N1_6  and  C4_7 
REMARK    3  A    between atoms: C7_10  and  N2_11 
REMARK    4  A    between atoms: C9_13  and  O2_14 
REMARK    5  A    between atoms: C10_16  and  C11_17 
REMARK    6  A    between atoms: C11_17  and  C12_18 
REMARK    7  A    between atoms: C20_26  and  C21_27 
REMARK    8  A    between atoms: C21_27  and  N3_28 
REMARK    9  A    between atoms: N3_28  and  C22_30 
ROOT
HETATM    1  C4  UNL     1       4.342  58.344  21.085  1.00  0.00     0.030 A 
HETATM    2  C5  UNL     1       4.149  57.415  22.075  1.00  0.00     0.031 A 
HETATM    3  C6  UNL     1       3.497  56.246  21.785  1.00  0.00     0.031 A 
HETATM    4  C7  UNL     1       3.040  56.009  20.517  1.00  0.00     0.030 A 
HETATM    5  C18 UNL     1       3.234  56.944  19.525  1.00  0.00     0.031 A 
HETATM    6  C19 UNL     1       3.894  58.123  19.824  1.00  0.00     0.031 A 
ENDROOT
BRANCH   1   7
HETATM    7  N1  UNL     1       5.004  59.569  21.396  1.00  0.00    -0.371 N 
HETATM    8  C3  UNL     1       6.335  59.801  20.933  1.00  0.00     0.126 C 
HETATM    9  C2  UNL     1       6.516  61.112  20.224  1.00  0.00     0.051 C 
HETATM   10  C1  UNL     1       5.673  62.228  20.707  1.00  0.00     0.122 C 
HETATM   11  C25 UNL     1       4.371  61.864  21.300  1.00  0.00     0.062 C 
HETATM   12  C20 UNL     1       4.369  60.640  22.168  1.00  0.00     0.125 C 
BRANCH  10  13
HETATM   13  O1  UNL     1       6.377  63.057  21.610  1.00  0.00    -0.395 OA
ATOM     14  H1  UNL     1       7.054  62.574  22.070  1.00  0.00     0.210 HD
ENDBRANCH  10  13
BRANCH  12  15
HETATM   15  C21 UNL     1       5.083  60.793  23.453  1.00  0.00     0.081 C 
BRANCH  15  16
HETATM   16  N3  UNL     1       4.595  60.129  24.592  1.00  0.00    -0.396 N 
ATOM     17  H3  UNL     1       3.616  60.230  24.858  1.00  0.00     0.159 HD
BRANCH  16  18
HETATM   18  C22 UNL     1       5.454  59.323  25.369  1.00  0.00     0.081 A 
HETATM   19  C23 UNL     1       5.823  57.931  25.126  1.00  0.00     0.027 A 
HETATM   20  C24 UNL     1       4.782  58.212  26.163  1.00  0.00     0.027 A 
ENDBRANCH  16  18
ENDBRANCH  15  16
ENDBRANCH  12  15
ENDBRANCH   1   7
BRANCH   4  21
HETATM   21  N2  UNL     1       2.370  54.801  20.224  1.00  0.00    -0.371 N 
HETATM   22  C8  UNL     1       1.551  54.224  19.198  1.00  0.00     0.157 C 
HETATM   23  C9  UNL     1       2.083  52.864  19.627  1.00  0.00     0.159 C 
HETATM   24  C10 UNL     1       2.227  53.514  20.946  1.00  0.00     0.119 C 
BRANCH  23  25
HETATM   25  O2  UNL     1       1.207  51.828  19.472  1.00  0.00    -0.392 OA
ATOM     26  H2  UNL     1       1.430  51.215  18.782  1.00  0.00     0.210 HD
ENDBRANCH  23  25
BRANCH  24  27
HETATM   27  C11 UNL     1       1.080  53.619  21.879  1.00  0.00     0.066 C 
BRANCH  27  28
HETATM   28  C12 UNL     1       1.399  53.425  23.302  1.00  0.00    -0.056 A 
HETATM   29  C13 UNL     1       1.755  52.191  23.808  1.00  0.00     0.007 A 
HETATM   30  C14 UNL     1       2.068  52.050  25.145  1.00  0.00     0.001 A 
HETATM   31  C15 UNL     1       2.041  53.109  26.025  1.00  0.00     0.000 A 
HETATM   32  C16 UNL     1       1.686  54.329  25.512  1.00  0.00     0.001 A 
HETATM   33  C17 UNL     1       1.369  54.511  24.192  1.00  0.00     0.007 A 
ENDBRANCH  27  28
ENDBRANCH  24  27
ENDBRANCH   4  21
TORSDOF 9
ENDMDL
