MODEL 1
REMARK VINA RESULT: -6.900483674      0.000      0.000
REMARK  12 active torsions:
REMARK  status: ('A' for Active; 'I' for Inactive)
REMARK    1  A    between atoms: N1_6  and  C6_8 
REMARK    2  A    between atoms: C6_8  and  C7_9 
REMARK    3  A    between atoms: C7_9  and  C8_10 
REMARK    4  A    between atoms: C8_10  and  C9_11 
REMARK    5  A    between atoms: C9_11  and  O2_12 
REMARK    6  A    between atoms: O2_12  and  C10_13 
REMARK       I    between atoms: C10_13  and  N2_15 
REMARK    7  A    between atoms: C13_18  and  O4_19 
REMARK    8  A    between atoms: C14_21  and  O5_22 
REMARK    9  A    between atoms: C14_21  and  C15_24 
REMARK   10  A    between atoms: C15_24  and  N3_25 
REMARK   11  A    between atoms: N3_25  and  C16_27 
REMARK   12  A    between atoms: C16_27  and  C17_31 
ROOT
HETATM    1  C10 UNL     1       4.713  58.898  22.301  1.00  0.00     0.362 C 
HETATM    2  O3  UNL     1       4.888  58.087  21.359  1.00  0.00    -0.238 OA
HETATM    3  N2  UNL     1       5.184  60.259  22.197  1.00  0.00    -0.325 N 
HETATM    4  C11 UNL     1       4.973  61.163  23.284  1.00  0.00     0.131 C 
HETATM    5  C12 UNL     1       4.678  62.566  22.877  1.00  0.00     0.055 C 
HETATM    6  C13 UNL     1       4.976  62.866  21.446  1.00  0.00     0.157 C 
HETATM    7  C14 UNL     1       6.204  62.119  21.017  1.00  0.00     0.115 C 
HETATM    8  C20 UNL     1       5.860  60.647  20.974  1.00  0.00     0.170 C 
ENDROOT
BRANCH   1   9
HETATM    9  O2  UNL     1       4.062  58.448  23.427  1.00  0.00    -0.304 OA
BRANCH   9  10
HETATM   10  C9  UNL     1       3.990  57.124  23.884  1.00  0.00     0.180 C 
BRANCH  10  11
HETATM   11  C8  UNL     1       2.590  56.642  24.186  1.00  0.00     0.029 C 
BRANCH  11  12
HETATM   12  C7  UNL     1       2.216  55.651  23.119  1.00  0.00     0.038 C 
BRANCH  12  13
HETATM   13  C6  UNL     1       3.316  55.356  22.152  1.00  0.00     0.312 C 
BRANCH  13  14
HETATM   14  N1  UNL     1       2.912  54.728  20.939  1.00  0.00     0.014 N 
HETATM   15  C5  UNL     1       3.043  53.302  20.923  1.00  0.00     0.312 C 
HETATM   16  C4  UNL     1       1.773  52.607  20.424  1.00  0.00     0.037 C 
HETATM   17  C3  UNL     1       1.369  53.252  19.120  1.00  0.00     0.008 C 
HETATM   18  C2  UNL     1       0.973  54.682  19.431  1.00  0.00     0.015 C 
HETATM   19  C1  UNL     1      -0.552  54.702  19.491  1.00  0.00     0.012 C 
HETATM   20  C21 UNL     1       1.473  55.018  20.802  1.00  0.00     0.316 C 
HETATM   21  O1  UNL     1       3.480  55.307  19.833  1.00  0.00    -0.064 OA
ENDBRANCH  13  14
ENDBRANCH  12  13
ENDBRANCH  11  12
ENDBRANCH  10  11
ENDBRANCH   9  10
ENDBRANCH   1   9
BRANCH   7  22
HETATM   22  O5  UNL     1       7.223  62.277  21.953  1.00  0.00    -0.384 OA
ATOM     23  H5  UNL     1       7.454  61.440  22.339  1.00  0.00     0.210 HD
ENDBRANCH   7  22
BRANCH   7  24
HETATM   24  C15 UNL     1       6.690  62.559  19.659  1.00  0.00     0.163 C 
BRANCH  24  25
HETATM   25  N3  UNL     1       7.591  61.591  19.106  1.00  0.00    -0.377 N 
ATOM     26  H3  UNL     1       7.808  60.754  19.647  1.00  0.00     0.160 HD
BRANCH  25  27
HETATM   27  C16 UNL     1       8.191  61.761  17.834  1.00  0.00     0.074 C 
HETATM   28  N4  UNL     1       8.876  62.841  17.639  1.00  0.00    -0.389 N 
ATOM     29  H42 UNL     1       8.962  63.524  18.391  1.00  0.00     0.157 HD
ATOM     30  H41 UNL     1       9.308  62.963  16.722  1.00  0.00     0.157 HD
BRANCH  27  31
HETATM   31  C17 UNL     1       8.066  60.769  16.740  1.00  0.00     0.044 C 
HETATM   32  C18 UNL     1       7.020  61.176  15.725  1.00  0.00     0.017 C 
HETATM   33  C19 UNL     1       7.734  59.419  17.370  1.00  0.00     0.017 C 
ENDBRANCH  27  31
ENDBRANCH  25  27
ENDBRANCH  24  25
ENDBRANCH   7  24
BRANCH   6  34
HETATM   34  O4  UNL     1       3.922  62.430  20.621  1.00  0.00    -0.392 OA
ATOM     35  H4  UNL     1       4.246  62.210  19.755  1.00  0.00     0.210 HD
ENDBRANCH   6  34
TORSDOF 12
ENDMDL
MODEL 2
REMARK VINA RESULT: -6.841632564      1.392      1.811
REMARK  12 active torsions:
REMARK  status: ('A' for Active; 'I' for Inactive)
REMARK    1  A    between atoms: N1_6  and  C6_8 
REMARK    2  A    between atoms: C6_8  and  C7_9 
REMARK    3  A    between atoms: C7_9  and  C8_10 
REMARK    4  A    between atoms: C8_10  and  C9_11 
REMARK    5  A    between atoms: C9_11  and  O2_12 
REMARK    6  A    between atoms: O2_12  and  C10_13 
REMARK       I    between atoms: C10_13  and  N2_15 
REMARK    7  A    between atoms: C13_18  and  O4_19 
REMARK    8  A    between atoms: C14_21  and  O5_22 
REMARK    9  A    between atoms: C14_21  and  C15_24 
REMARK   10  A    between atoms: C15_24  and  N3_25 
REMARK   11  A    between atoms: N3_25  and  C16_27 
REMARK   12  A    between atoms: C16_27  and  C17_31 
ROOT
HETATM    1  C10 UNL     1       4.039  59.000  22.988  1.00  0.00     0.362 C 
HETATM    2  O3  UNL     1       4.436  58.113  22.195  1.00  0.00    -0.238 OA
HETATM    3  N2  UNL     1       4.453  60.374  22.823  1.00  0.00    -0.325 N 
HETATM    4  C11 UNL     1       3.986  61.366  23.740  1.00  0.00     0.131 C 
HETATM    5  C12 UNL     1       3.709  62.697  23.128  1.00  0.00     0.055 C 
HETATM    6  C13 UNL     1       4.269  62.871  21.756  1.00  0.00     0.157 C 
HETATM    7  C14 UNL     1       5.593  62.172  21.658  1.00  0.00     0.115 C 
HETATM    8  C20 UNL     1       5.337  60.683  21.717  1.00  0.00     0.170 C 
ENDROOT
BRANCH   1   9
HETATM    9  O2  UNL     1       3.201  58.622  24.012  1.00  0.00    -0.304 OA
BRANCH   9  10
HETATM   10  C9  UNL     1       3.332  57.493  24.833  1.00  0.00     0.180 C 
BRANCH  10  11
HETATM   11  C8  UNL     1       2.215  56.486  24.697  1.00  0.00     0.029 C 
BRANCH  11  12
HETATM   12  C7  UNL     1       2.479  55.685  23.452  1.00  0.00     0.038 C 
BRANCH  12  13
HETATM   13  C6  UNL     1       1.525  54.556  23.243  1.00  0.00     0.312 C 
BRANCH  13  14
HETATM   14  N1  UNL     1       1.348  54.147  21.889  1.00  0.00     0.014 N 
HETATM   15  C5  UNL     1      -0.014  53.971  21.483  1.00  0.00     0.312 C 
HETATM   16  C4  UNL     1      -0.322  54.679  20.160  1.00  0.00     0.037 C 
HETATM   17  C3  UNL     1       0.730  54.271  19.156  1.00  0.00     0.008 C 
HETATM   18  C2  UNL     1       2.052  54.834  19.638  1.00  0.00     0.015 C 
HETATM   19  C1  UNL     1       2.297  56.106  18.830  1.00  0.00     0.012 C 
HETATM   20  C21 UNL     1       1.891  55.246  21.069  1.00  0.00     0.316 C 
HETATM   21  O1  UNL     1       2.124  53.065  21.562  1.00  0.00    -0.064 OA
ENDBRANCH  13  14
ENDBRANCH  12  13
ENDBRANCH  11  12
ENDBRANCH  10  11
ENDBRANCH   9  10
ENDBRANCH   1   9
BRANCH   7  22
HETATM   22  O5  UNL     1       6.397  62.496  22.748  1.00  0.00    -0.384 OA
ATOM     23  H5  UNL     1       7.096  61.860  22.847  1.00  0.00     0.210 HD
ENDBRANCH   7  22
BRANCH   7  24
HETATM   24  C15 UNL     1       6.316  62.506  20.377  1.00  0.00     0.163 C 
BRANCH  24  25
HETATM   25  N3  UNL     1       7.449  61.647  20.198  1.00  0.00    -0.377 N 
ATOM     26  H3  UNL     1       8.184  61.646  20.905  1.00  0.00     0.160 HD
BRANCH  25  27
HETATM   27  C16 UNL     1       7.581  60.799  19.070  1.00  0.00     0.074 C 
HETATM   28  N4  UNL     1       7.410  59.530  19.257  1.00  0.00    -0.389 N 
ATOM     29  H42 UNL     1       7.189  59.186  20.191  1.00  0.00     0.157 HD
ATOM     30  H41 UNL     1       7.505  58.920  18.445  1.00  0.00     0.157 HD
BRANCH  27  31
HETATM   31  C17 UNL     1       7.901  61.300  17.713  1.00  0.00     0.044 C 
HETATM   32  C18 UNL     1       8.216  60.172  16.754  1.00  0.00     0.017 C 
HETATM   33  C19 UNL     1       9.074  62.268  17.837  1.00  0.00     0.017 C 
ENDBRANCH  27  31
ENDBRANCH  25  27
ENDBRANCH  24  25
ENDBRANCH   7  24
BRANCH   6  34
HETATM   34  O4  UNL     1       3.422  62.280  20.799  1.00  0.00    -0.392 OA
ATOM     35  H4  UNL     1       3.834  62.283  19.943  1.00  0.00     0.210 HD
ENDBRANCH   6  34
TORSDOF 12
ENDMDL
MODEL 3
REMARK VINA RESULT: -6.802799530      1.667      2.284
REMARK  12 active torsions:
REMARK  status: ('A' for Active; 'I' for Inactive)
REMARK    1  A    between atoms: N1_6  and  C6_8 
REMARK    2  A    between atoms: C6_8  and  C7_9 
REMARK    3  A    between atoms: C7_9  and  C8_10 
REMARK    4  A    between atoms: C8_10  and  C9_11 
REMARK    5  A    between atoms: C9_11  and  O2_12 
REMARK    6  A    between atoms: O2_12  and  C10_13 
REMARK       I    between atoms: C10_13  and  N2_15 
REMARK    7  A    between atoms: C13_18  and  O4_19 
REMARK    8  A    between atoms: C14_21  and  O5_22 
REMARK    9  A    between atoms: C14_21  and  C15_24 
REMARK   10  A    between atoms: C15_24  and  N3_25 
REMARK   11  A    between atoms: N3_25  and  C16_27 
REMARK   12  A    between atoms: C16_27  and  C17_31 
ROOT
HETATM    1  C10 UNL     1       4.525  59.706  25.165  1.00  0.00     0.362 C 
HETATM    2  O3  UNL     1       5.581  59.897  25.816  1.00  0.00    -0.238 OA
HETATM    3  N2  UNL     1       4.252  60.464  23.966  1.00  0.00    -0.325 N 
HETATM    4  C11 UNL     1       3.042  60.227  23.244  1.00  0.00     0.131 C 
HETATM    5  C12 UNL     1       3.173  60.325  21.762  1.00  0.00     0.055 C 
HETATM    6  C13 UNL     1       4.437  60.968  21.299  1.00  0.00     0.157 C 
HETATM    7  C14 UNL     1       4.817  62.072  22.240  1.00  0.00     0.115 C 
HETATM    8  C20 UNL     1       5.236  61.443  23.549  1.00  0.00     0.170 C 
ENDROOT
BRANCH   1   9
HETATM    9  O2  UNL     1       3.644  58.757  25.630  1.00  0.00    -0.304 OA
BRANCH   9  10
HETATM   10  C9  UNL     1       3.663  57.382  25.353  1.00  0.00     0.180 C 
BRANCH  10  11
HETATM   11  C8  UNL     1       4.338  57.016  24.052  1.00  0.00     0.029 C 
BRANCH  11  12
HETATM   12  C7  UNL     1       3.260  56.613  23.084  1.00  0.00     0.038 C 
BRANCH  12  13
HETATM   13  C6  UNL     1       3.777  56.099  21.780  1.00  0.00     0.312 C 
BRANCH  13  14
HETATM   14  N1  UNL     1       3.073  54.984  21.240  1.00  0.00     0.014 N 
HETATM   15  C5  UNL     1       2.056  54.440  22.089  1.00  0.00     0.312 C 
HETATM   16  C4  UNL     1       0.729  54.241  21.352  1.00  0.00     0.037 C 
HETATM   17  C3  UNL     1       1.012  53.477  20.081  1.00  0.00     0.008 C 
HETATM   18  C2  UNL     1       1.854  54.374  19.196  1.00  0.00     0.015 C 
HETATM   19  C1  UNL     1       0.899  54.994  18.179  1.00  0.00     0.012 C 
HETATM   20  C21 UNL     1       2.388  55.493  20.038  1.00  0.00     0.316 C 
HETATM   21  O1  UNL     1       3.915  54.013  20.763  1.00  0.00    -0.064 OA
ENDBRANCH  13  14
ENDBRANCH  12  13
ENDBRANCH  11  12
ENDBRANCH  10  11
ENDBRANCH   9  10
ENDBRANCH   1   9
BRANCH   7  22
HETATM   22  O5  UNL     1       3.719  62.886  22.506  1.00  0.00    -0.384 OA
ATOM     23  H5  UNL     1       2.984  62.646  21.954  1.00  0.00     0.210 HD
ENDBRANCH   7  22
BRANCH   7  24
HETATM   24  C15 UNL     1       5.951  62.910  21.702  1.00  0.00     0.163 C 
BRANCH  24  25
HETATM   25  N3  UNL     1       6.877  62.097  20.970  1.00  0.00    -0.377 N 
ATOM     26  H3  UNL     1       7.064  61.148  21.295  1.00  0.00     0.160 HD
BRANCH  25  27
HETATM   27  C16 UNL     1       7.539  62.569  19.810  1.00  0.00     0.074 C 
HETATM   28  N4  UNL     1       7.384  63.816  19.502  1.00  0.00    -0.389 N 
ATOM     29  H42 UNL     1       6.801  64.410  20.092  1.00  0.00     0.157 HD
ATOM     30  H41 UNL     1       7.861  64.156  18.667  1.00  0.00     0.157 HD
BRANCH  27  31
HETATM   31  C17 UNL     1       8.386  61.706  18.952  1.00  0.00     0.044 C 
HETATM   32  C18 UNL     1       8.809  62.412  17.683  1.00  0.00     0.017 C 
HETATM   33  C19 UNL     1       7.597  60.435  18.647  1.00  0.00     0.017 C 
ENDBRANCH  27  31
ENDBRANCH  25  27
ENDBRANCH  24  25
ENDBRANCH   7  24
BRANCH   6  34
HETATM   34  O4  UNL     1       5.496  60.040  21.309  1.00  0.00    -0.392 OA
ATOM     35  H4  UNL     1       5.263  59.275  21.822  1.00  0.00     0.210 HD
ENDBRANCH   6  34
TORSDOF 12
ENDMDL
MODEL 4
REMARK VINA RESULT: -6.670387002      4.592      8.109
REMARK  12 active torsions:
REMARK  status: ('A' for Active; 'I' for Inactive)
REMARK    1  A    between atoms: N1_6  and  C6_8 
REMARK    2  A    between atoms: C6_8  and  C7_9 
REMARK    3  A    between atoms: C7_9  and  C8_10 
REMARK    4  A    between atoms: C8_10  and  C9_11 
REMARK    5  A    between atoms: C9_11  and  O2_12 
REMARK    6  A    between atoms: O2_12  and  C10_13 
REMARK       I    between atoms: C10_13  and  N2_15 
REMARK    7  A    between atoms: C13_18  and  O4_19 
REMARK    8  A    between atoms: C14_21  and  O5_22 
REMARK    9  A    between atoms: C14_21  and  C15_24 
REMARK   10  A    between atoms: C15_24  and  N3_25 
REMARK   11  A    between atoms: N3_25  and  C16_27 
REMARK   12  A    between atoms: C16_27  and  C17_31 
ROOT
HETATM    1  C10 UNL     1       3.964  60.321  26.788  1.00  0.00     0.362 C 
HETATM    2  O3  UNL     1       2.779  60.407  26.385  1.00  0.00    -0.238 OA
HETATM    3  N2  UNL     1       4.665  61.490  27.267  1.00  0.00    -0.325 N 
HETATM    4  C11 UNL     1       6.015  61.365  27.720  1.00  0.00     0.131 C 
HETATM    5  C12 UNL     1       6.364  62.234  28.880  1.00  0.00     0.055 C 
HETATM    6  C13 UNL     1       5.371  63.311  29.161  1.00  0.00     0.157 C 
HETATM    7  C14 UNL     1       4.814  63.835  27.871  1.00  0.00     0.115 C 
HETATM    8  C20 UNL     1       3.953  62.752  27.263  1.00  0.00     0.170 C 
ENDROOT
BRANCH   1   9
HETATM    9  O2  UNL     1       4.567  59.085  26.758  1.00  0.00    -0.304 OA
BRANCH   9  10
HETATM   10  C9  UNL     1       4.182  57.979  25.987  1.00  0.00     0.180 C 
BRANCH  10  11
HETATM   11  C8  UNL     1       4.975  57.797  24.714  1.00  0.00     0.029 C 
BRANCH  11  12
HETATM   12  C7  UNL     1       4.079  58.175  23.567  1.00  0.00     0.038 C 
BRANCH  12  13
HETATM   13  C6  UNL     1       4.802  58.772  22.404  1.00  0.00     0.312 C 
BRANCH  13  14
HETATM   14  N1  UNL     1       4.521  60.145  22.150  1.00  0.00     0.014 N 
HETATM   15  C5  UNL     1       4.417  60.968  23.317  1.00  0.00     0.312 C 
HETATM   16  C4  UNL     1       5.250  62.249  23.201  1.00  0.00     0.037 C 
HETATM   17  C3  UNL     1       4.906  62.911  21.888  1.00  0.00     0.008 C 
HETATM   18  C2  UNL     1       5.390  61.992  20.783  1.00  0.00     0.015 C 
HETATM   19  C1  UNL     1       6.722  62.562  20.303  1.00  0.00     0.012 C 
HETATM   20  C21 UNL     1       5.674  60.650  21.382  1.00  0.00     0.316 C 
HETATM   21  O1  UNL     1       3.453  60.316  21.307  1.00  0.00    -0.064 OA
ENDBRANCH  13  14
ENDBRANCH  12  13
ENDBRANCH  11  12
ENDBRANCH  10  11
ENDBRANCH   9  10
ENDBRANCH   1   9
BRANCH   7  22
HETATM   22  O5  UNL     1       5.842  64.101  26.968  1.00  0.00    -0.384 OA
ATOM     23  H5  UNL     1       6.168  63.294  26.588  1.00  0.00     0.210 HD
ENDBRANCH   7  22
BRANCH   7  24
HETATM   24  C15 UNL     1       3.985  65.079  28.075  1.00  0.00     0.163 C 
BRANCH  24  25
HETATM   25  N3  UNL     1       3.508  65.580  26.820  1.00  0.00    -0.377 N 
ATOM     26  H3  UNL     1       2.844  65.019  26.285  1.00  0.00     0.160 HD
BRANCH  25  27
HETATM   27  C16 UNL     1       3.927  66.829  26.298  1.00  0.00     0.074 C 
HETATM   28  N4  UNL     1       5.162  67.166  26.486  1.00  0.00    -0.389 N 
ATOM     29  H42 UNL     1       5.784  66.536  26.993  1.00  0.00     0.157 HD
ATOM     30  H41 UNL     1       5.465  68.066  26.110  1.00  0.00     0.157 HD
BRANCH  27  31
HETATM   31  C17 UNL     1       3.025  67.744  25.562  1.00  0.00     0.044 C 
HETATM   32  C18 UNL     1       3.365  69.197  25.813  1.00  0.00     0.017 C 
HETATM   33  C19 UNL     1       1.592  67.427  25.984  1.00  0.00     0.017 C 
ENDBRANCH  27  31
ENDBRANCH  25  27
ENDBRANCH  24  25
ENDBRANCH   7  24
BRANCH   6  34
HETATM   34  O4  UNL     1       4.285  62.801  29.898  1.00  0.00    -0.392 OA
ATOM     35  H4  UNL     1       4.560  62.064  30.430  1.00  0.00     0.210 HD
ENDBRANCH   6  34
TORSDOF 12
ENDMDL
MODEL 5
REMARK VINA RESULT: -6.602829386      3.492      6.098
REMARK  12 active torsions:
REMARK  status: ('A' for Active; 'I' for Inactive)
REMARK    1  A    between atoms: N1_6  and  C6_8 
REMARK    2  A    between atoms: C6_8  and  C7_9 
REMARK    3  A    between atoms: C7_9  and  C8_10 
REMARK    4  A    between atoms: C8_10  and  C9_11 
REMARK    5  A    between atoms: C9_11  and  O2_12 
REMARK    6  A    between atoms: O2_12  and  C10_13 
REMARK       I    between atoms: C10_13  and  N2_15 
REMARK    7  A    between atoms: C13_18  and  O4_19 
REMARK    8  A    between atoms: C14_21  and  O5_22 
REMARK    9  A    between atoms: C14_21  and  C15_24 
REMARK   10  A    between atoms: C15_24  and  N3_25 
REMARK   11  A    between atoms: N3_25  and  C16_27 
REMARK   12  A    between atoms: C16_27  and  C17_31 
ROOT
HETATM    1  C10 UNL     1       4.486  59.192  23.054  1.00  0.00     0.362 C 
HETATM    2  O3  UNL     1       4.563  58.262  22.215  1.00  0.00    -0.238 OA
HETATM    3  N2  UNL     1       4.977  60.513  22.735  1.00  0.00    -0.325 N 
HETATM    4  C11 UNL     1       4.877  61.555  23.708  1.00  0.00     0.131 C 
HETATM    5  C12 UNL     1       4.581  62.903  23.147  1.00  0.00     0.055 C 
HETATM    6  C13 UNL     1       4.763  63.008  21.670  1.00  0.00     0.157 C 
HETATM    7  C14 UNL     1       5.933  62.172  21.245  1.00  0.00     0.115 C 
HETATM    8  C20 UNL     1       5.555  60.719  21.422  1.00  0.00     0.170 C 
ENDROOT
BRANCH   1   9
HETATM    9  O2  UNL     1       3.923  58.912  24.277  1.00  0.00    -0.304 OA
BRANCH   9  10
HETATM   10  C9  UNL     1       2.669  58.330  24.513  1.00  0.00     0.180 C 
BRANCH  10  11
HETATM   11  C8  UNL     1       1.576  59.316  24.854  1.00  0.00     0.029 C 
BRANCH  11  12
HETATM   12  C7  UNL     1       2.190  60.391  25.708  1.00  0.00     0.038 C 
BRANCH  12  13
HETATM   13  C6  UNL     1       2.228  60.062  27.164  1.00  0.00     0.312 C 
BRANCH  13  14
HETATM   14  N1  UNL     1       3.430  60.418  27.840  1.00  0.00     0.014 N 
HETATM   15  C5  UNL     1       4.529  59.524  27.633  1.00  0.00     0.312 C 
HETATM   16  C4  UNL     1       5.816  60.264  27.255  1.00  0.00     0.037 C 
HETATM   17  C3  UNL     1       6.036  61.364  28.265  1.00  0.00     0.008 C 
HETATM   18  C2  UNL     1       4.909  62.364  28.092  1.00  0.00     0.015 C 
HETATM   19  C1  UNL     1       5.477  63.512  27.262  1.00  0.00     0.012 C 
HETATM   20  C21 UNL     1       3.833  61.718  27.273  1.00  0.00     0.316 C 
HETATM   21  O1  UNL     1       3.226  60.679  29.171  1.00  0.00    -0.064 OA
ENDBRANCH  13  14
ENDBRANCH  12  13
ENDBRANCH  11  12
ENDBRANCH  10  11
ENDBRANCH   9  10
ENDBRANCH   1   9
BRANCH   7  22
HETATM   22  O5  UNL     1       7.032  62.415  22.066  1.00  0.00    -0.384 OA
ATOM     23  H5  UNL     1       7.834  62.136  21.642  1.00  0.00     0.210 HD
ENDBRANCH   7  22
BRANCH   7  24
HETATM   24  C15 UNL     1       6.312  62.418  19.806  1.00  0.00     0.163 C 
BRANCH  24  25
HETATM   25  N3  UNL     1       7.555  61.775  19.493  1.00  0.00    -0.377 N 
ATOM     26  H3  UNL     1       8.410  62.112  19.936  1.00  0.00     0.160 HD
BRANCH  25  27
HETATM   27  C16 UNL     1       7.634  60.688  18.588  1.00  0.00     0.074 C 
HETATM   28  N4  UNL     1       7.506  59.497  19.077  1.00  0.00    -0.389 N 
ATOM     29  H42 UNL     1       7.354  59.379  20.078  1.00  0.00     0.157 HD
ATOM     30  H41 UNL     1       7.562  58.714  18.425  1.00  0.00     0.157 HD
BRANCH  27  31
HETATM   31  C17 UNL     1       7.854  60.859  17.132  1.00  0.00     0.044 C 
HETATM   32  C18 UNL     1       8.160  59.544  16.448  1.00  0.00     0.017 C 
HETATM   33  C19 UNL     1       8.991  61.861  16.947  1.00  0.00     0.017 C 
ENDBRANCH  27  31
ENDBRANCH  25  27
ENDBRANCH  24  25
ENDBRANCH   7  24
BRANCH   6  34
HETATM   34  O4  UNL     1       3.634  62.504  20.997  1.00  0.00    -0.392 OA
ATOM     35  H4  UNL     1       3.898  61.979  20.250  1.00  0.00     0.210 HD
ENDBRANCH   6  34
TORSDOF 12
ENDMDL
