MODEL 1
REMARK VINA RESULT: -7.680824657      0.000      0.000
REMARK  9 active torsions:
REMARK  status: ('A' for Active; 'I' for Inactive)
REMARK    1  A    between atoms: C2_2  and  C4_4 
REMARK    2  A    between atoms: C4_4  and  N1_5 
REMARK    3  A    between atoms: C4_4  and  C22_31 
REMARK       I    between atoms: N1_5  and  C5_7 
REMARK    4  A    between atoms: C5_7  and  C6_9 
REMARK    5  A    between atoms: C6_9  and  N2_10 
REMARK    6  A    between atoms: C6_9  and  C19_28 
REMARK       I    between atoms: N2_10  and  C7_12 
REMARK    7  A    between atoms: C7_12  and  C8_14 
REMARK    8  A    between atoms: C8_14  and  C9_15 
REMARK    9  A    between atoms: C13_19  and  O3_20 
ROOT
HETATM    1  N2  UNL     1       5.026  59.956  20.527  1.00  0.00    -0.326 N 
ATOM      2  H2  UNL     1       4.596  60.086  19.611  1.00  0.00     0.168 HD
HETATM    3  C7  UNL     1       4.551  58.871  21.315  1.00  0.00     0.222 C 
HETATM    4  O2  UNL     1       5.096  58.724  22.442  1.00  0.00    -0.273 OA
ENDROOT
BRANCH   1   5
HETATM    5  C6  UNL     1       6.054  60.885  20.900  1.00  0.00     0.083 C 
BRANCH   5   6
HETATM    6  C5  UNL     1       7.121  60.994  19.908  1.00  0.00     0.265 C 
HETATM    7  N1  UNL     1       7.012  60.964  18.501  1.00  0.00    -0.341 N 
ATOM      8  H1  UNL     1       6.086  60.852  18.088  1.00  0.00     0.163 HD
HETATM    9  O1  UNL     1       8.336  61.134  20.329  1.00  0.00    -0.266 OA
BRANCH   7  10
HETATM   10  C4  UNL     1       8.153  61.087  17.614  1.00  0.00     0.189 C 
BRANCH  10  11
HETATM   11  C2  UNL     1       7.945  60.281  16.333  1.00  0.00     0.011 C 
HETATM   12  C1  UNL     1       8.256  58.818  16.582  1.00  0.00     0.012 C 
HETATM   13  C3  UNL     1       6.559  60.416  15.785  1.00  0.00     0.012 C 
ENDBRANCH  10  11
BRANCH  10  14
HETATM   14  C22 UNL     1       8.447  62.461  17.228  1.00  0.00     0.197 C 
HETATM   15  O5  UNL     1       8.499  63.403  18.041  1.00  0.00    -0.646 OA
HETATM   16  O6  UNL     1       8.684  62.745  15.880  1.00  0.00    -0.646 OA
ENDBRANCH  10  14
ENDBRANCH   7  10
ENDBRANCH   5   6
BRANCH   5  17
HETATM   17  C19 UNL     1       5.576  62.144  21.535  1.00  0.00     0.033 C 
HETATM   18  C20 UNL     1       5.551  62.163  23.017  1.00  0.00     0.016 C 
HETATM   19  C21 UNL     1       4.240  62.540  20.974  1.00  0.00     0.016 C 
ENDBRANCH   5  17
ENDBRANCH   1   5
BRANCH   3  20
HETATM   20  C8  UNL     1       3.468  57.977  20.813  1.00  0.00     0.110 C 
BRANCH  20  21
HETATM   21  C9  UNL     1       3.827  56.555  20.815  1.00  0.00     0.026 C 
HETATM   22  C10 UNL     1       3.220  55.745  21.981  1.00  0.00     0.045 C 
HETATM   23  C11 UNL     1       2.565  54.710  21.221  1.00  0.00     0.064 C 
HETATM   24  C12 UNL     1       2.294  53.333  21.653  1.00  0.00     0.069 C 
HETATM   25  O4  UNL     1       3.520  54.486  20.198  1.00  0.00    -0.374 OA
HETATM   26  C18 UNL     1       1.223  55.213  20.777  1.00  0.00     0.043 C 
HETATM   27  C13 UNL     1       1.595  52.675  20.466  1.00  0.00     0.121 C 
HETATM   28  C14 UNL     1       1.477  53.454  19.206  1.00  0.00     0.036 C 
HETATM   29  C15 UNL     1       1.237  54.908  19.281  1.00  0.00    -0.007 C 
HETATM   30  C16 UNL     1       2.357  55.832  18.822  1.00  0.00     0.037 C 
HETATM   31  C17 UNL     1       3.594  55.769  19.607  1.00  0.00     0.127 C 
BRANCH  27  32
HETATM   32  O3  UNL     1       0.368  52.093  20.858  1.00  0.00    -0.395 OA
ATOM     33  H3  UNL     1       0.076  51.450  20.223  1.00  0.00     0.210 HD
ENDBRANCH  27  32
ENDBRANCH  20  21
ENDBRANCH   3  20
TORSDOF 9
ENDMDL
MODEL 2
REMARK VINA RESULT: -7.569891533      2.192      8.120
REMARK  9 active torsions:
REMARK  status: ('A' for Active; 'I' for Inactive)
REMARK    1  A    between atoms: C2_2  and  C4_4 
REMARK    2  A    between atoms: C4_4  and  N1_5 
REMARK    3  A    between atoms: C4_4  and  C22_31 
REMARK       I    between atoms: N1_5  and  C5_7 
REMARK    4  A    between atoms: C5_7  and  C6_9 
REMARK    5  A    between atoms: C6_9  and  N2_10 
REMARK    6  A    between atoms: C6_9  and  C19_28 
REMARK       I    between atoms: N2_10  and  C7_12 
REMARK    7  A    between atoms: C7_12  and  C8_14 
REMARK    8  A    between atoms: C8_14  and  C9_15 
REMARK    9  A    between atoms: C13_19  and  O3_20 
ROOT
HETATM    1  N2  UNL     1       4.545  58.855  23.059  1.00  0.00    -0.326 N 
ATOM      2  H2  UNL     1       5.536  58.639  22.945  1.00  0.00     0.168 HD
HETATM    3  C7  UNL     1       4.183  60.231  23.070  1.00  0.00     0.222 C 
HETATM    4  O2  UNL     1       2.954  60.480  23.208  1.00  0.00    -0.273 OA
ENDROOT
BRANCH   1   5
HETATM    5  C6  UNL     1       3.648  57.744  23.192  1.00  0.00     0.083 C 
BRANCH   5   6
HETATM    6  C5  UNL     1       3.622  56.879  22.014  1.00  0.00     0.265 C 
HETATM    7  N1  UNL     1       2.713  55.843  21.711  1.00  0.00    -0.341 N 
ATOM      8  H1  UNL     1       1.966  55.643  22.377  1.00  0.00     0.163 HD
HETATM    9  O1  UNL     1       4.532  57.049  21.111  1.00  0.00    -0.266 OA
BRANCH   7  10
HETATM   10  C4  UNL     1       2.788  55.050  20.499  1.00  0.00     0.189 C 
BRANCH  10  11
HETATM   11  C2  UNL     1       1.923  53.797  20.605  1.00  0.00     0.011 C 
HETATM   12  C1  UNL     1       2.800  52.570  20.767  1.00  0.00     0.012 C 
HETATM   13  C3  UNL     1       0.941  53.867  21.733  1.00  0.00     0.012 C 
ENDBRANCH  10  11
BRANCH  10  14
HETATM   14  C22 UNL     1       2.375  55.773  19.303  1.00  0.00     0.197 C 
HETATM   15  O5  UNL     1       1.200  56.129  19.090  1.00  0.00    -0.646 OA
HETATM   16  O6  UNL     1       3.339  56.084  18.339  1.00  0.00    -0.646 OA
ENDBRANCH  10  14
ENDBRANCH   7  10
ENDBRANCH   5   6
BRANCH   5  17
HETATM   17  C19 UNL     1       3.642  57.086  24.527  1.00  0.00     0.033 C 
HETATM   18  C20 UNL     1       2.509  57.425  25.420  1.00  0.00     0.016 C 
HETATM   19  C21 UNL     1       4.954  57.303  25.225  1.00  0.00     0.016 C 
ENDBRANCH   5  17
ENDBRANCH   1   5
BRANCH   3  20
HETATM   20  C8  UNL     1       5.217  61.297  22.928  1.00  0.00     0.110 C 
BRANCH  20  21
HETATM   21  C9  UNL     1       5.225  61.940  21.610  1.00  0.00     0.026 C 
HETATM   22  C10 UNL     1       6.282  63.054  21.450  1.00  0.00     0.045 C 
HETATM   23  C11 UNL     1       6.957  62.559  20.276  1.00  0.00     0.064 C 
HETATM   24  C12 UNL     1       7.652  63.353  19.255  1.00  0.00     0.069 C 
HETATM   25  O4  UNL     1       5.860  62.065  19.527  1.00  0.00    -0.374 OA
HETATM   26  C18 UNL     1       7.982  61.549  20.698  1.00  0.00     0.043 C 
HETATM   27  C13 UNL     1       8.169  62.334  18.243  1.00  0.00     0.121 C 
HETATM   28  C14 UNL     1       7.776  60.912  18.421  1.00  0.00     0.036 C 
HETATM   29  C15 UNL     1       7.667  60.363  19.787  1.00  0.00    -0.007 C 
HETATM   30  C16 UNL     1       6.279  59.990  20.289  1.00  0.00     0.037 C 
HETATM   31  C17 UNL     1       5.331  61.102  20.419  1.00  0.00     0.127 C 
BRANCH  27  32
HETATM   32  O3  UNL     1       9.559  62.488  18.033  1.00  0.00    -0.395 OA
ATOM     33  H3  UNL     1       9.810  62.180  17.170  1.00  0.00     0.210 HD
ENDBRANCH  27  32
ENDBRANCH  20  21
ENDBRANCH   3  20
TORSDOF 9
ENDMDL
MODEL 3
REMARK VINA RESULT: -7.318596753      5.591      9.311
REMARK  9 active torsions:
REMARK  status: ('A' for Active; 'I' for Inactive)
REMARK    1  A    between atoms: C2_2  and  C4_4 
REMARK    2  A    between atoms: C4_4  and  N1_5 
REMARK    3  A    between atoms: C4_4  and  C22_31 
REMARK       I    between atoms: N1_5  and  C5_7 
REMARK    4  A    between atoms: C5_7  and  C6_9 
REMARK    5  A    between atoms: C6_9  and  N2_10 
REMARK    6  A    between atoms: C6_9  and  C19_28 
REMARK       I    between atoms: N2_10  and  C7_12 
REMARK    7  A    between atoms: C7_12  and  C8_14 
REMARK    8  A    between atoms: C8_14  and  C9_15 
REMARK    9  A    between atoms: C13_19  and  O3_20 
ROOT
HETATM    1  N2  UNL     1       3.871  64.866  26.063  1.00  0.00    -0.326 N 
ATOM      2  H2  UNL     1       4.680  65.085  25.481  1.00  0.00     0.168 HD
HETATM    3  C7  UNL     1       2.951  63.908  25.554  1.00  0.00     0.222 C 
HETATM    4  O2  UNL     1       1.959  63.648  26.288  1.00  0.00    -0.273 OA
ENDROOT
BRANCH   1   5
HETATM    5  C6  UNL     1       3.768  65.553  27.318  1.00  0.00     0.083 C 
BRANCH   5   6
HETATM    6  C5  UNL     1       4.234  64.757  28.451  1.00  0.00     0.265 C 
HETATM    7  N1  UNL     1       4.383  63.355  28.532  1.00  0.00    -0.341 N 
ATOM      8  H1  UNL     1       4.143  62.794  27.715  1.00  0.00     0.163 HD
HETATM    9  O1  UNL     1       4.558  65.374  29.539  1.00  0.00    -0.266 OA
BRANCH   7  10
HETATM   10  C4  UNL     1       4.862  62.675  29.719  1.00  0.00     0.189 C 
BRANCH  10  11
HETATM   11  C2  UNL     1       4.121  61.358  29.938  1.00  0.00     0.011 C 
HETATM   12  C1  UNL     1       3.119  61.504  31.066  1.00  0.00     0.012 C 
HETATM   13  C3  UNL     1       3.425  60.876  28.703  1.00  0.00     0.012 C 
ENDBRANCH  10  11
BRANCH  10  14
HETATM   14  C22 UNL     1       6.289  62.380  29.688  1.00  0.00     0.197 C 
HETATM   15  O5  UNL     1       7.024  62.449  30.691  1.00  0.00    -0.646 OA
HETATM   16  O6  UNL     1       6.870  62.002  28.474  1.00  0.00    -0.646 OA
ENDBRANCH  10  14
ENDBRANCH   7  10
ENDBRANCH   5   6
BRANCH   5  17
HETATM   17  C19 UNL     1       4.146  66.993  27.289  1.00  0.00     0.033 C 
HETATM   18  C20 UNL     1       3.194  67.933  27.929  1.00  0.00     0.016 C 
HETATM   19  C21 UNL     1       4.461  67.426  25.886  1.00  0.00     0.016 C 
ENDBRANCH   5  17
ENDBRANCH   1   5
BRANCH   3  20
HETATM   20  C8  UNL     1       3.169  63.266  24.225  1.00  0.00     0.110 C 
BRANCH  20  21
HETATM   21  C9  UNL     1       3.885  61.988  24.297  1.00  0.00     0.026 C 
HETATM   22  C10 UNL     1       3.047  60.762  23.875  1.00  0.00     0.045 C 
HETATM   23  C11 UNL     1       3.922  60.229  22.860  1.00  0.00     0.064 C 
HETATM   24  C12 UNL     1       4.054  58.824  22.456  1.00  0.00     0.069 C 
HETATM   25  O4  UNL     1       5.188  60.456  23.453  1.00  0.00    -0.374 OA
HETATM   26  C18 UNL     1       3.655  60.945  21.569  1.00  0.00     0.043 C 
HETATM   27  C13 UNL     1       5.115  58.823  21.360  1.00  0.00     0.121 C 
HETATM   28  C14 UNL     1       5.815  60.101  21.065  1.00  0.00     0.036 C 
HETATM   29  C15 UNL     1       5.057  61.366  21.132  1.00  0.00    -0.007 C 
HETATM   30  C16 UNL     1       5.412  62.341  22.246  1.00  0.00     0.037 C 
HETATM   31  C17 UNL     1       5.168  61.862  23.611  1.00  0.00     0.127 C 
BRANCH  27  32
HETATM   32  O3  UNL     1       4.638  58.187  20.191  1.00  0.00    -0.395 OA
ATOM     33  H3  UNL     1       5.172  57.433  19.970  1.00  0.00     0.210 HD
ENDBRANCH  27  32
ENDBRANCH  20  21
ENDBRANCH   3  20
TORSDOF 9
ENDMDL
MODEL 4
REMARK VINA RESULT: -7.251942815      3.713      5.312
REMARK  9 active torsions:
REMARK  status: ('A' for Active; 'I' for Inactive)
REMARK    1  A    between atoms: C2_2  and  C4_4 
REMARK    2  A    between atoms: C4_4  and  N1_5 
REMARK    3  A    between atoms: C4_4  and  C22_31 
REMARK       I    between atoms: N1_5  and  C5_7 
REMARK    4  A    between atoms: C5_7  and  C6_9 
REMARK    5  A    between atoms: C6_9  and  N2_10 
REMARK    6  A    between atoms: C6_9  and  C19_28 
REMARK       I    between atoms: N2_10  and  C7_12 
REMARK    7  A    between atoms: C7_12  and  C8_14 
REMARK    8  A    between atoms: C8_14  and  C9_15 
REMARK    9  A    between atoms: C13_19  and  O3_20 
ROOT
HETATM    1  N2  UNL     1       3.460  56.956  23.825  1.00  0.00    -0.326 N 
ATOM      2  H2  UNL     1       2.827  56.557  24.519  1.00  0.00     0.168 HD
HETATM    3  C7  UNL     1       3.390  56.425  22.507  1.00  0.00     0.222 C 
HETATM    4  O2  UNL     1       4.177  56.931  21.663  1.00  0.00    -0.273 OA
ENDROOT
BRANCH   1   5
HETATM    5  C6  UNL     1       4.337  58.000  24.269  1.00  0.00     0.083 C 
BRANCH   5   6
HETATM    6  C5  UNL     1       3.860  59.338  23.928  1.00  0.00     0.265 C 
HETATM    7  N1  UNL     1       4.622  60.474  23.578  1.00  0.00    -0.341 N 
ATOM      8  H1  UNL     1       5.638  60.388  23.551  1.00  0.00     0.163 HD
HETATM    9  O1  UNL     1       2.586  59.554  23.938  1.00  0.00    -0.266 OA
BRANCH   7  10
HETATM   10  C4  UNL     1       4.030  61.758  23.253  1.00  0.00     0.189 C 
BRANCH  10  11
HETATM   11  C2  UNL     1       4.218  62.756  24.393  1.00  0.00     0.011 C 
HETATM   12  C1  UNL     1       2.895  63.415  24.732  1.00  0.00     0.012 C 
HETATM   13  C3  UNL     1       4.798  62.127  25.621  1.00  0.00     0.012 C 
ENDBRANCH  10  11
BRANCH  10  14
HETATM   14  C22 UNL     1       4.572  62.361  22.043  1.00  0.00     0.197 C 
HETATM   15  O5  UNL     1       3.926  62.467  20.983  1.00  0.00    -0.646 OA
HETATM   16  O6  UNL     1       5.883  62.847  22.063  1.00  0.00    -0.646 OA
ENDBRANCH  10  14
ENDBRANCH   7  10
ENDBRANCH   5   6
BRANCH   5  17
HETATM   17  C19 UNL     1       4.926  57.806  25.624  1.00  0.00     0.033 C 
HETATM   18  C20 UNL     1       6.300  57.254  25.668  1.00  0.00     0.016 C 
HETATM   19  C21 UNL     1       3.999  56.999  26.488  1.00  0.00     0.016 C 
ENDBRANCH   5  17
ENDBRANCH   1   5
BRANCH   3  20
HETATM   20  C8  UNL     1       2.433  55.330  22.173  1.00  0.00     0.110 C 
BRANCH  20  21
HETATM   21  C9  UNL     1       2.689  54.698  20.874  1.00  0.00     0.026 C 
HETATM   22  C10 UNL     1       2.640  53.155  20.894  1.00  0.00     0.045 C 
HETATM   23  C11 UNL     1       1.664  52.946  19.853  1.00  0.00     0.064 C 
HETATM   24  C12 UNL     1       1.556  51.783  18.964  1.00  0.00     0.069 C 
HETATM   25  O4  UNL     1       2.041  53.953  18.930  1.00  0.00    -0.374 OA
HETATM   26  C18 UNL     1       0.292  53.068  20.446  1.00  0.00     0.043 C 
HETATM   27  C13 UNL     1       0.366  52.085  18.057  1.00  0.00     0.121 C 
HETATM   28  C14 UNL     1      -0.274  53.421  18.169  1.00  0.00     0.036 C 
HETATM   29  C15 UNL     1      -0.388  54.054  19.498  1.00  0.00    -0.007 C 
HETATM   30  C16 UNL     1       0.443  55.303  19.756  1.00  0.00     0.037 C 
HETATM   31  C17 UNL     1       1.897  55.118  19.721  1.00  0.00     0.127 C 
BRANCH  27  32
HETATM   32  O3  UNL     1      -0.575  51.030  18.087  1.00  0.00    -0.395 OA
ATOM     33  H3  UNL     1      -0.888  50.828  17.213  1.00  0.00     0.210 HD
ENDBRANCH  27  32
ENDBRANCH  20  21
ENDBRANCH   3  20
TORSDOF 9
ENDMDL
MODEL 5
REMARK VINA RESULT: -7.186200436      3.642      8.373
REMARK  9 active torsions:
REMARK  status: ('A' for Active; 'I' for Inactive)
REMARK    1  A    between atoms: C2_2  and  C4_4 
REMARK    2  A    between atoms: C4_4  and  N1_5 
REMARK    3  A    between atoms: C4_4  and  C22_31 
REMARK       I    between atoms: N1_5  and  C5_7 
REMARK    4  A    between atoms: C5_7  and  C6_9 
REMARK    5  A    between atoms: C6_9  and  N2_10 
REMARK    6  A    between atoms: C6_9  and  C19_28 
REMARK       I    between atoms: N2_10  and  C7_12 
REMARK    7  A    between atoms: C7_12  and  C8_14 
REMARK    8  A    between atoms: C8_14  and  C9_15 
REMARK    9  A    between atoms: C13_19  and  O3_20 
ROOT
HETATM    1  N2  UNL     1       3.909  60.556  23.074  1.00  0.00    -0.326 N 
ATOM      2  H2  UNL     1       3.185  61.271  23.002  1.00  0.00     0.168 HD
HETATM    3  C7  UNL     1       3.908  59.753  24.248  1.00  0.00     0.222 C 
HETATM    4  O2  UNL     1       4.809  58.874  24.319  1.00  0.00    -0.273 OA
ENDROOT
BRANCH   1   5
HETATM    5  C6  UNL     1       4.833  60.454  21.982  1.00  0.00     0.083 C 
BRANCH   5   6
HETATM    6  C5  UNL     1       4.816  59.146  21.332  1.00  0.00     0.265 C 
HETATM    7  N1  UNL     1       3.749  58.225  21.249  1.00  0.00    -0.341 N 
ATOM      8  H1  UNL     1       2.862  58.469  21.690  1.00  0.00     0.163 HD
HETATM    9  O1  UNL     1       5.895  58.739  20.747  1.00  0.00    -0.266 OA
BRANCH   7  10
HETATM   10  C4  UNL     1       3.852  56.949  20.568  1.00  0.00     0.189 C 
BRANCH  10  11
HETATM   11  C2  UNL     1       3.067  55.866  21.303  1.00  0.00     0.011 C 
HETATM   12  C1  UNL     1       3.677  54.504  21.033  1.00  0.00     0.012 C 
HETATM   13  C3  UNL     1       2.997  56.104  22.779  1.00  0.00     0.012 C 
ENDBRANCH  10  11
BRANCH  10  14
HETATM   14  C22 UNL     1       3.377  56.983  19.191  1.00  0.00     0.197 C 
HETATM   15  O5  UNL     1       4.130  57.146  18.211  1.00  0.00    -0.646 OA
HETATM   16  O6  UNL     1       2.009  56.826  18.948  1.00  0.00    -0.646 OA
ENDBRANCH  10  14
ENDBRANCH   7  10
ENDBRANCH   5   6
BRANCH   5  17
HETATM   17  C19 UNL     1       4.920  61.655  21.105  1.00  0.00     0.033 C 
HETATM   18  C20 UNL     1       6.284  62.152  20.807  1.00  0.00     0.016 C 
HETATM   19  C21 UNL     1       4.055  62.760  21.642  1.00  0.00     0.016 C 
ENDBRANCH   5  17
ENDBRANCH   1   5
BRANCH   3  20
HETATM   20  C8  UNL     1       2.892  59.964  25.320  1.00  0.00     0.110 C 
BRANCH  20  21
HETATM   21  C9  UNL     1       3.401  60.702  26.480  1.00  0.00     0.026 C 
HETATM   22  C10 UNL     1       4.790  61.343  26.269  1.00  0.00     0.045 C 
HETATM   23  C11 UNL     1       4.464  62.706  26.609  1.00  0.00     0.064 C 
HETATM   24  C12 UNL     1       5.367  63.716  27.174  1.00  0.00     0.069 C 
HETATM   25  O4  UNL     1       3.576  62.505  27.695  1.00  0.00    -0.374 OA
HETATM   26  C18 UNL     1       3.890  63.381  25.399  1.00  0.00     0.043 C 
HETATM   27  C13 UNL     1       4.508  64.967  27.343  1.00  0.00     0.121 C 
HETATM   28  C14 UNL     1       3.054  64.859  27.056  1.00  0.00     0.036 C 
HETATM   29  C15 UNL     1       2.603  63.997  25.946  1.00  0.00    -0.007 C 
HETATM   30  C16 UNL     1       1.825  62.738  26.302  1.00  0.00     0.037 C 
HETATM   31  C17 UNL     1       2.560  61.735  27.080  1.00  0.00     0.127 C 
BRANCH  27  32
HETATM   32  O3  UNL     1       5.103  66.081  26.707  1.00  0.00    -0.395 OA
ATOM     33  H3  UNL     1       4.487  66.800  26.631  1.00  0.00     0.210 HD
ENDBRANCH  27  32
ENDBRANCH  20  21
ENDBRANCH   3  20
TORSDOF 9
ENDMDL
