MODEL 1
REMARK VINA RESULT: -7.863877098      0.000      0.000
REMARK  10 active torsions:
REMARK  status: ('A' for Active; 'I' for Inactive)
REMARK    1  A    between atoms: N1_2  and  C2_4 
REMARK    2  A    between atoms: C2_4  and  O1_5 
REMARK    3  A    between atoms: C2_4  and  C3_7 
REMARK    4  A    between atoms: C3_7  and  N2_9 
REMARK    5  A    between atoms: C5_11  and  C6_12 
REMARK    6  A    between atoms: C5_11  and  C14_20 
REMARK    7  A    between atoms: C6_12  and  C7_13 
REMARK    8  A    between atoms: C7_13  and  C8_14 
REMARK    9  A    between atoms: C14_20  and  O3_22 
REMARK   10  A    between atoms: O3_22  and  C15_23 
ROOT
HETATM    1  N2  UNL     1       7.029  62.118  20.853  1.00  0.00    -0.380 N 
ATOM      2  H2  UNL     1       7.819  62.191  21.494  1.00  0.00     0.160 HD
HETATM    3  C5  UNL     1       6.002  61.318  21.237  1.00  0.00     0.082 C 
ENDROOT
BRANCH   3   4
HETATM    4  C6  UNL     1       4.664  61.916  21.534  1.00  0.00     0.068 C 
BRANCH   4   5
HETATM    5  C7  UNL     1       4.693  62.410  22.968  1.00  0.00     0.044 C 
BRANCH   5   6
HETATM    6  C8  UNL     1       4.122  61.454  23.920  1.00  0.00    -0.058 A 
HETATM    7  C9  UNL     1       4.950  60.981  24.952  1.00  0.00     0.007 A 
HETATM    8  C10 UNL     1       4.429  60.076  25.865  1.00  0.00     0.001 A 
HETATM    9  C11 UNL     1       3.129  59.630  25.791  1.00  0.00     0.000 A 
HETATM   10  C12 UNL     1       2.318  60.096  24.781  1.00  0.00     0.001 A 
HETATM   11  C13 UNL     1       2.847  61.007  23.864  1.00  0.00     0.007 A 
ENDBRANCH   5   6
ENDBRANCH   4   5
ENDBRANCH   3   4
BRANCH   3  12
HETATM   12  C14 UNL     1       5.906  59.912  20.745  1.00  0.00     0.305 C 
HETATM   13  O2  UNL     1       6.949  59.412  20.258  1.00  0.00    -0.258 OA
BRANCH  12  14
HETATM   14  O3  UNL     1       4.789  59.150  20.784  1.00  0.00    -0.311 OA
BRANCH  14  15
HETATM   15  C15 UNL     1       4.613  57.838  21.248  1.00  0.00     0.138 C 
HETATM   16  C16 UNL     1       4.457  57.943  22.731  1.00  0.00     0.033 C 
HETATM   17  C17 UNL     1       3.916  56.794  23.477  1.00  0.00     0.003 C 
HETATM   18  C18 UNL     1       2.829  56.003  22.750  1.00  0.00     0.007 C 
HETATM   19  C19 UNL     1       3.342  55.808  21.365  1.00  0.00     0.027 C 
HETATM   20  C20 UNL     1       3.317  57.190  20.715  1.00  0.00     0.050 C 
HETATM   21  C24 UNL     1       2.575  54.987  20.431  1.00  0.00     0.229 C 
HETATM   22  C21 UNL     1       3.388  56.848  19.276  1.00  0.00     0.280 C 
HETATM   23  N3  UNL     1       2.743  55.577  19.112  1.00  0.00     0.094 N 
HETATM   24  C22 UNL     1       1.342  55.547  18.887  1.00  0.00     0.275 C 
HETATM   25  C23 UNL     1       1.097  55.087  20.325  1.00  0.00     0.066 C 
ENDBRANCH  14  15
ENDBRANCH  12  14
ENDBRANCH   3  12
BRANCH   1  26
HETATM   26  C3  UNL     1       7.112  62.854  19.662  1.00  0.00     0.126 C 
HETATM   27  C4  UNL     1       7.286  64.337  19.752  1.00  0.00     0.036 C 
BRANCH  26  28
HETATM   28  C2  UNL     1       8.265  62.286  18.836  1.00  0.00     0.235 C 
BRANCH  28  29
HETATM   29  N1  UNL     1       7.957  61.080  18.133  1.00  0.00    -0.400 N 
HETATM   30  C1  UNL     1       8.550  60.955  16.821  1.00  0.00     0.142 C 
ATOM     31  H1  UNL     1       7.359  60.356  18.531  1.00  0.00     0.155 HD
ENDBRANCH  28  29
BRANCH  28  32
HETATM   32  O1  UNL     1       8.625  63.256  17.904  1.00  0.00    -0.375 OA
ATOM     33  H1  UNL     1       9.079  63.954  18.360  1.00  0.00     0.212 HD
ENDBRANCH  28  32
ENDBRANCH  26  28
ENDBRANCH   1  26
TORSDOF 10
ENDMDL
MODEL 2
REMARK VINA RESULT: -7.371125066      0.893      1.354
REMARK  10 active torsions:
REMARK  status: ('A' for Active; 'I' for Inactive)
REMARK    1  A    between atoms: N1_2  and  C2_4 
REMARK    2  A    between atoms: C2_4  and  O1_5 
REMARK    3  A    between atoms: C2_4  and  C3_7 
REMARK    4  A    between atoms: C3_7  and  N2_9 
REMARK    5  A    between atoms: C5_11  and  C6_12 
REMARK    6  A    between atoms: C5_11  and  C14_20 
REMARK    7  A    between atoms: C6_12  and  C7_13 
REMARK    8  A    between atoms: C7_13  and  C8_14 
REMARK    9  A    between atoms: C14_20  and  O3_22 
REMARK   10  A    between atoms: O3_22  and  C15_23 
ROOT
HETATM    1  N2  UNL     1       6.653  61.249  20.860  1.00  0.00    -0.380 N 
ATOM      2  H2  UNL     1       7.470  60.783  21.254  1.00  0.00     0.160 HD
HETATM    3  C5  UNL     1       5.476  61.076  21.512  1.00  0.00     0.082 C 
ENDROOT
BRANCH   3   4
HETATM    4  C6  UNL     1       4.813  62.241  22.174  1.00  0.00     0.068 C 
BRANCH   4   5
HETATM    5  C7  UNL     1       5.208  62.220  23.639  1.00  0.00     0.044 C 
BRANCH   5   6
HETATM    6  C8  UNL     1       4.449  61.246  24.427  1.00  0.00    -0.058 A 
HETATM    7  C9  UNL     1       3.047  61.285  24.345  1.00  0.00     0.007 A 
HETATM    8  C10 UNL     1       2.309  60.371  25.082  1.00  0.00     0.001 A 
HETATM    9  C11 UNL     1       2.907  59.429  25.888  1.00  0.00     0.000 A 
HETATM   10  C12 UNL     1       4.280  59.389  25.966  1.00  0.00     0.001 A 
HETATM   11  C13 UNL     1       5.020  60.313  25.222  1.00  0.00     0.007 A 
ENDBRANCH   5   6
ENDBRANCH   4   5
ENDBRANCH   3   4
BRANCH   3  12
HETATM   12  C14 UNL     1       4.499  60.041  21.061  1.00  0.00     0.305 C 
HETATM   13  O2  UNL     1       3.283  60.346  21.126  1.00  0.00    -0.258 OA
BRANCH  12  14
HETATM   14  O3  UNL     1       4.826  58.813  20.596  1.00  0.00    -0.311 OA
BRANCH  14  15
HETATM   15  C15 UNL     1       4.546  57.548  21.132  1.00  0.00     0.138 C 
HETATM   16  C16 UNL     1       4.377  57.750  22.603  1.00  0.00     0.033 C 
HETATM   17  C17 UNL     1       3.741  56.690  23.404  1.00  0.00     0.003 C 
HETATM   18  C18 UNL     1       2.609  55.941  22.704  1.00  0.00     0.007 C 
HETATM   19  C19 UNL     1       3.125  55.627  21.341  1.00  0.00     0.027 C 
HETATM   20  C20 UNL     1       3.213  56.966  20.613  1.00  0.00     0.050 C 
HETATM   21  C24 UNL     1       2.312  54.811  20.442  1.00  0.00     0.229 C 
HETATM   22  C21 UNL     1       3.278  56.537  19.198  1.00  0.00     0.280 C 
HETATM   23  N3  UNL     1       2.542  55.310  19.095  1.00  0.00     0.094 N 
HETATM   24  C22 UNL     1       1.146  55.370  18.846  1.00  0.00     0.275 C 
HETATM   25  C23 UNL     1       0.847  55.014  20.304  1.00  0.00     0.066 C 
ENDBRANCH  14  15
ENDBRANCH  12  14
ENDBRANCH   3  12
BRANCH   1  26
HETATM   26  C3  UNL     1       6.858  62.005  19.696  1.00  0.00     0.126 C 
HETATM   27  C4  UNL     1       7.408  63.389  19.833  1.00  0.00     0.036 C 
BRANCH  26  28
HETATM   28  C2  UNL     1       7.783  61.210  18.775  1.00  0.00     0.235 C 
BRANCH  28  29
HETATM   29  N1  UNL     1       7.397  59.849  18.573  1.00  0.00    -0.400 N 
HETATM   30  C1  UNL     1       7.584  59.341  17.232  1.00  0.00     0.142 C 
ATOM     31  H1  UNL     1       7.016  59.274  19.324  1.00  0.00     0.155 HD
ENDBRANCH  28  29
BRANCH  28  32
HETATM   32  O1  UNL     1       7.788  61.852  17.539  1.00  0.00    -0.375 OA
ATOM     33  H1  UNL     1       8.145  62.724  17.657  1.00  0.00     0.212 HD
ENDBRANCH  28  32
ENDBRANCH  26  28
ENDBRANCH   1  26
TORSDOF 10
ENDMDL
MODEL 3
REMARK VINA RESULT: -7.331708425      2.803      7.196
REMARK  10 active torsions:
REMARK  status: ('A' for Active; 'I' for Inactive)
REMARK    1  A    between atoms: N1_2  and  C2_4 
REMARK    2  A    between atoms: C2_4  and  O1_5 
REMARK    3  A    between atoms: C2_4  and  C3_7 
REMARK    4  A    between atoms: C3_7  and  N2_9 
REMARK    5  A    between atoms: C5_11  and  C6_12 
REMARK    6  A    between atoms: C5_11  and  C14_20 
REMARK    7  A    between atoms: C6_12  and  C7_13 
REMARK    8  A    between atoms: C7_13  and  C8_14 
REMARK    9  A    between atoms: C14_20  and  O3_22 
REMARK   10  A    between atoms: O3_22  and  C15_23 
ROOT
HETATM    1  N2  UNL     1       4.281  56.829  20.558  1.00  0.00    -0.380 N 
ATOM      2  H2  UNL     1       5.136  56.360  20.260  1.00  0.00     0.160 HD
HETATM    3  C5  UNL     1       4.419  57.849  21.441  1.00  0.00     0.082 C 
ENDROOT
BRANCH   3   4
HETATM    4  C6  UNL     1       4.078  59.244  21.026  1.00  0.00     0.068 C 
BRANCH   4   5
HETATM    5  C7  UNL     1       5.005  60.184  21.775  1.00  0.00     0.044 C 
BRANCH   5   6
HETATM    6  C8  UNL     1       5.984  60.842  20.906  1.00  0.00    -0.058 A 
HETATM    7  C9  UNL     1       6.033  62.246  20.918  1.00  0.00     0.007 A 
HETATM    8  C10 UNL     1       6.953  62.889  20.104  1.00  0.00     0.001 A 
HETATM    9  C11 UNL     1       7.819  62.195  19.289  1.00  0.00     0.000 A 
HETATM   10  C12 UNL     1       7.773  60.820  19.281  1.00  0.00     0.001 A 
HETATM   11  C13 UNL     1       6.844  60.177  20.102  1.00  0.00     0.007 A 
ENDBRANCH   5   6
ENDBRANCH   4   5
ENDBRANCH   3   4
BRANCH   3  12
HETATM   12  C14 UNL     1       4.226  57.623  22.904  1.00  0.00     0.305 C 
HETATM   13  O2  UNL     1       3.062  57.347  23.284  1.00  0.00    -0.258 OA
BRANCH  12  14
HETATM   14  O3  UNL     1       5.203  57.696  23.838  1.00  0.00    -0.311 OA
BRANCH  14  15
HETATM   15  C15 UNL     1       5.109  57.912  25.220  1.00  0.00     0.138 C 
HETATM   16  C16 UNL     1       6.273  57.200  25.829  1.00  0.00     0.033 C 
HETATM   17  C17 UNL     1       6.659  57.513  27.216  1.00  0.00     0.003 C 
HETATM   18  C18 UNL     1       6.492  58.977  27.619  1.00  0.00     0.007 C 
HETATM   19  C19 UNL     1       5.145  59.374  27.121  1.00  0.00     0.027 C 
HETATM   20  C20 UNL     1       5.259  59.402  25.598  1.00  0.00     0.050 C 
HETATM   21  C24 UNL     1       4.631  60.704  27.441  1.00  0.00     0.229 C 
HETATM   22  C21 UNL     1       4.082  60.217  25.222  1.00  0.00     0.280 C 
HETATM   23  N3  UNL     1       3.850  61.142  26.294  1.00  0.00     0.094 N 
HETATM   24  C22 UNL     1       4.523  62.392  26.275  1.00  0.00     0.275 C 
HETATM   25  C23 UNL     1       5.485  61.917  27.366  1.00  0.00     0.066 C 
ENDBRANCH  14  15
ENDBRANCH  12  14
ENDBRANCH   3  12
BRANCH   1  26
HETATM   26  C3  UNL     1       3.079  56.355  20.012  1.00  0.00     0.126 C 
HETATM   27  C4  UNL     1       2.958  56.263  18.525  1.00  0.00     0.036 C 
BRANCH  26  28
HETATM   28  C2  UNL     1       2.808  54.971  20.602  1.00  0.00     0.235 C 
BRANCH  28  29
HETATM   29  N1  UNL     1       1.835  54.949  21.648  1.00  0.00    -0.400 N 
HETATM   30  C1  UNL     1       0.628  54.205  21.362  1.00  0.00     0.142 C 
ATOM     31  H1  UNL     1       1.982  55.425  22.538  1.00  0.00     0.155 HD
ENDBRANCH  28  29
BRANCH  28  32
HETATM   32  O1  UNL     1       2.352  54.161  19.564  1.00  0.00    -0.375 OA
ATOM     33  H1  UNL     1       1.638  54.610  19.128  1.00  0.00     0.212 HD
ENDBRANCH  28  32
ENDBRANCH  26  28
ENDBRANCH   1  26
TORSDOF 10
ENDMDL
MODEL 4
REMARK VINA RESULT: -7.320054124      3.128      7.365
REMARK  10 active torsions:
REMARK  status: ('A' for Active; 'I' for Inactive)
REMARK    1  A    between atoms: N1_2  and  C2_4 
REMARK    2  A    between atoms: C2_4  and  O1_5 
REMARK    3  A    between atoms: C2_4  and  C3_7 
REMARK    4  A    between atoms: C3_7  and  N2_9 
REMARK    5  A    between atoms: C5_11  and  C6_12 
REMARK    6  A    between atoms: C5_11  and  C14_20 
REMARK    7  A    between atoms: C6_12  and  C7_13 
REMARK    8  A    between atoms: C7_13  and  C8_14 
REMARK    9  A    between atoms: C14_20  and  O3_22 
REMARK   10  A    between atoms: O3_22  and  C15_23 
ROOT
HETATM    1  N2  UNL     1       4.030  56.510  21.104  1.00  0.00    -0.380 N 
ATOM      2  H2  UNL     1       4.779  55.818  21.104  1.00  0.00     0.160 HD
HETATM    3  C5  UNL     1       4.111  57.500  22.029  1.00  0.00     0.082 C 
ENDROOT
BRANCH   3   4
HETATM    4  C6  UNL     1       4.318  58.914  21.588  1.00  0.00     0.068 C 
BRANCH   4   5
HETATM    5  C7  UNL     1       5.619  58.964  20.808  1.00  0.00     0.044 C 
BRANCH   5   6
HETATM    6  C8  UNL     1       6.132  60.324  20.629  1.00  0.00    -0.058 A 
HETATM    7  C9  UNL     1       7.326  60.486  19.906  1.00  0.00     0.007 A 
HETATM    8  C10 UNL     1       7.828  61.765  19.723  1.00  0.00     0.001 A 
HETATM    9  C11 UNL     1       7.194  62.879  20.226  1.00  0.00     0.000 A 
HETATM   10  C12 UNL     1       6.023  62.720  20.932  1.00  0.00     0.001 A 
HETATM   11  C13 UNL     1       5.521  61.429  21.113  1.00  0.00     0.007 A 
ENDBRANCH   5   6
ENDBRANCH   4   5
ENDBRANCH   3   4
BRANCH   3  12
HETATM   12  C14 UNL     1       3.364  57.404  23.317  1.00  0.00     0.305 C 
HETATM   13  O2  UNL     1       2.547  56.458  23.427  1.00  0.00    -0.258 OA
BRANCH  12  14
HETATM   14  O3  UNL     1       3.500  58.255  24.360  1.00  0.00    -0.311 OA
BRANCH  14  15
HETATM   15  C15 UNL     1       4.219  58.104  25.555  1.00  0.00     0.138 C 
HETATM   16  C16 UNL     1       5.439  57.315  25.204  1.00  0.00     0.033 C 
HETATM   17  C17 UNL     1       6.565  57.278  26.153  1.00  0.00     0.003 C 
HETATM   18  C18 UNL     1       6.813  58.579  26.914  1.00  0.00     0.007 C 
HETATM   19  C19 UNL     1       5.471  59.027  27.380  1.00  0.00     0.027 C 
HETATM   20  C20 UNL     1       4.716  59.451  26.122  1.00  0.00     0.050 C 
HETATM   21  C24 UNL     1       5.371  60.203  28.241  1.00  0.00     0.229 C 
HETATM   22  C21 UNL     1       3.627  60.279  26.689  1.00  0.00     0.280 C 
HETATM   23  N3  UNL     1       4.136  60.884  27.886  1.00  0.00     0.094 N 
HETATM   24  C22 UNL     1       4.815  62.127  27.787  1.00  0.00     0.275 C 
HETATM   25  C23 UNL     1       6.164  61.433  27.987  1.00  0.00     0.066 C 
ENDBRANCH  14  15
ENDBRANCH  12  14
ENDBRANCH   3  12
BRANCH   1  26
HETATM   26  C3  UNL     1       3.017  56.343  20.149  1.00  0.00     0.126 C 
HETATM   27  C4  UNL     1       3.352  56.563  18.708  1.00  0.00     0.036 C 
BRANCH  26  28
HETATM   28  C2  UNL     1       2.456  54.929  20.300  1.00  0.00     0.235 C 
BRANCH  28  29
HETATM   29  N1  UNL     1       1.270  54.840  21.092  1.00  0.00    -0.400 N 
HETATM   30  C1  UNL     1       0.039  54.664  20.355  1.00  0.00     0.142 C 
ATOM     31  H1  UNL     1       1.290  54.896  22.110  1.00  0.00     0.155 HD
ENDBRANCH  28  29
BRANCH  28  32
HETATM   32  O1  UNL     1       2.163  54.461  19.021  1.00  0.00    -0.375 OA
ATOM     33  H1  UNL     1       1.786  53.593  19.101  1.00  0.00     0.212 HD
ENDBRANCH  28  32
ENDBRANCH  26  28
ENDBRANCH   1  26
TORSDOF 10
ENDMDL
MODEL 5
REMARK VINA RESULT: -7.314713876      3.000      7.002
REMARK  10 active torsions:
REMARK  status: ('A' for Active; 'I' for Inactive)
REMARK    1  A    between atoms: N1_2  and  C2_4 
REMARK    2  A    between atoms: C2_4  and  O1_5 
REMARK    3  A    between atoms: C2_4  and  C3_7 
REMARK    4  A    between atoms: C3_7  and  N2_9 
REMARK    5  A    between atoms: C5_11  and  C6_12 
REMARK    6  A    between atoms: C5_11  and  C14_20 
REMARK    7  A    between atoms: C6_12  and  C7_13 
REMARK    8  A    between atoms: C7_13  and  C8_14 
REMARK    9  A    between atoms: C14_20  and  O3_22 
REMARK   10  A    between atoms: O3_22  and  C15_23 
ROOT
HETATM    1  N2  UNL     1       3.669  55.937  20.568  1.00  0.00    -0.380 N 
ATOM      2  H2  UNL     1       4.381  55.284  20.241  1.00  0.00     0.160 HD
HETATM    3  C5  UNL     1       4.089  56.946  21.373  1.00  0.00     0.082 C 
ENDROOT
BRANCH   3   4
HETATM    4  C6  UNL     1       4.011  58.360  20.895  1.00  0.00     0.068 C 
BRANCH   4   5
HETATM    5  C7  UNL     1       5.405  58.953  20.990  1.00  0.00     0.044 C 
BRANCH   5   6
HETATM    6  C8  UNL     1       5.408  60.417  21.036  1.00  0.00    -0.058 A 
HETATM    7  C9  UNL     1       6.578  61.084  20.636  1.00  0.00     0.007 A 
HETATM    8  C10 UNL     1       6.602  62.470  20.671  1.00  0.00     0.001 A 
HETATM    9  C11 UNL     1       5.515  63.210  21.081  1.00  0.00     0.000 A 
HETATM   10  C12 UNL     1       4.368  62.556  21.469  1.00  0.00     0.001 A 
HETATM   11  C13 UNL     1       4.350  61.159  21.434  1.00  0.00     0.007 A 
ENDBRANCH   5   6
ENDBRANCH   4   5
ENDBRANCH   3   4
BRANCH   3  12
HETATM   12  C14 UNL     1       3.976  56.836  22.857  1.00  0.00     0.305 C 
HETATM   13  O2  UNL     1       2.861  56.484  23.314  1.00  0.00    -0.258 OA
BRANCH  12  14
HETATM   14  O3  UNL     1       4.975  57.088  23.734  1.00  0.00    -0.311 OA
BRANCH  14  15
HETATM   15  C15 UNL     1       4.919  57.621  25.030  1.00  0.00     0.138 C 
HETATM   16  C16 UNL     1       6.198  57.226  25.694  1.00  0.00     0.033 C 
HETATM   17  C17 UNL     1       6.604  57.912  26.933  1.00  0.00     0.003 C 
HETATM   18  C18 UNL     1       6.257  59.398  26.993  1.00  0.00     0.007 C 
HETATM   19  C19 UNL     1       4.846  59.495  26.524  1.00  0.00     0.027 C 
HETATM   20  C20 UNL     1       4.881  59.165  25.034  1.00  0.00     0.050 C 
HETATM   21  C24 UNL     1       4.170  60.790  26.563  1.00  0.00     0.229 C 
HETATM   22  C21 UNL     1       3.586  59.715  24.572  1.00  0.00     0.280 C 
HETATM   23  N3  UNL     1       3.281  60.837  25.412  1.00  0.00     0.094 N 
HETATM   24  C22 UNL     1       3.774  62.117  25.047  1.00  0.00     0.275 C 
HETATM   25  C23 UNL     1       4.844  62.043  26.138  1.00  0.00     0.066 C 
ENDBRANCH  14  15
ENDBRANCH  12  14
ENDBRANCH   3  12
BRANCH   1  26
HETATM   26  C3  UNL     1       2.354  55.703  20.142  1.00  0.00     0.126 C 
HETATM   27  C4  UNL     1       2.062  55.742  18.676  1.00  0.00     0.036 C 
BRANCH  26  28
HETATM   28  C2  UNL     1       1.920  54.340  20.681  1.00  0.00     0.235 C 
BRANCH  28  29
HETATM   29  N1  UNL     1       2.995  53.442  20.967  1.00  0.00    -0.400 N 
HETATM   30  C1  UNL     1       2.775  52.065  20.585  1.00  0.00     0.142 C 
ATOM     31  H1  UNL     1       3.859  53.752  21.411  1.00  0.00     0.155 HD
ENDBRANCH  28  29
BRANCH  28  32
HETATM   32  O1  UNL     1       1.214  54.566  21.860  1.00  0.00    -0.375 OA
ATOM     33  H1  UNL     1       0.693  53.795  22.048  1.00  0.00     0.212 HD
ENDBRANCH  28  32
ENDBRANCH  26  28
ENDBRANCH   1  26
TORSDOF 10
ENDMDL
