MODEL 1
REMARK VINA RESULT: -6.326109258      0.000      0.000
REMARK  15 active torsions:
REMARK  status: ('A' for Active; 'I' for Inactive)
REMARK    1  A    between atoms: N1_2  and  C2_5 
REMARK    2  A    between atoms: C4_7  and  N2_8 
REMARK    3  A    between atoms: C7_14  and  N3_15 
REMARK       I    between atoms: N3_15  and  C8_17 
REMARK    4  A    between atoms: C8_17  and  C9_19 
REMARK    5  A    between atoms: C9_19  and  N4_20 
REMARK       I    between atoms: N4_20  and  C10_22 
REMARK       I    between atoms: C10_22  and  N6_26 
REMARK    6  A    between atoms: N6_26  and  C11_28 
REMARK    7  A    between atoms: C11_28  and  C12_29 
REMARK    8  A    between atoms: C12_29  and  O2_30 
REMARK    9  A    between atoms: O2_30  and  C13_31 
REMARK   10  A    between atoms: C13_31  and  C14_32 
REMARK   11  A    between atoms: C14_32  and  O3_33 
REMARK   12  A    between atoms: O3_33  and  C15_34 
REMARK   13  A    between atoms: C15_34  and  C16_35 
REMARK   14  A    between atoms: C16_35  and  C17_36 
REMARK   15  A    between atoms: C17_36  and  O4_37 
ROOT
HETATM    1  C9  UNL     1      -0.192  25.209  -5.765  1.00  0.00     0.240 C 
ENDROOT
BRANCH   1   2
HETATM    2  C8  UNL     1      -0.475  25.977  -6.993  1.00  0.00     0.236 C 
HETATM    3  N3  UNL     1      -0.350  27.400  -6.985  1.00  0.00    -0.353 N 
ATOM      4  H3  UNL     1      -0.068  27.894  -6.139  1.00  0.00     0.163 HD
HETATM    5  O1  UNL     1      -0.830  25.403  -8.065  1.00  0.00    -0.272 OA
BRANCH   3   6
HETATM    6  C7  UNL     1      -0.632  28.120  -8.196  1.00  0.00     0.115 C 
HETATM    7  C2  UNL     1      -1.462  29.328  -7.917  1.00  0.00     0.209 C 
HETATM    8  C3  UNL     1      -1.789  30.089  -9.190  1.00  0.00     0.068 C 
HETATM    9  C4  UNL     1      -0.565  30.316 -10.040  1.00  0.00     0.185 C 
HETATM   10  C5  UNL     1       0.337  29.135 -10.168  1.00  0.00     0.035 C 
HETATM   11  C6  UNL     1       0.692  28.635  -8.763  1.00  0.00     0.029 C 
BRANCH   7  12
HETATM   12  N1  UNL     1      -0.781  30.186  -6.969  1.00  0.00    -0.073 N 
HETATM   13  C1  UNL     1      -1.632  31.308  -6.580  1.00  0.00     0.267 C 
ATOM     14  H12 UNL     1       0.121  30.502  -7.325  1.00  0.00     0.277 HD
ATOM     15  H11 UNL     1      -0.450  29.664  -6.157  1.00  0.00     0.277 HD
ENDBRANCH   7  12
BRANCH   9  16
HETATM   16  N2  UNL     1      -1.047  30.640 -11.386  1.00  0.00    -0.075 N 
ATOM     17  H23 UNL     1      -0.606  30.082 -12.119  1.00  0.00     0.274 HD
ATOM     18  H22 UNL     1      -2.007  30.336 -11.556  1.00  0.00     0.274 HD
ATOM     19  H21 UNL     1      -0.914  31.643 -11.507  1.00  0.00     0.274 HD
ENDBRANCH   9  16
ENDBRANCH   3   6
ENDBRANCH   1   2
BRANCH   1  20
HETATM   20  N4  UNL     1       0.463  23.976  -6.137  1.00  0.00    -0.218 N 
HETATM   21  C10 UNL     1       1.210  23.307  -5.115  1.00  0.00     0.667 C 
HETATM   22  N5  UNL     1       2.046  23.931  -4.385  1.00  0.00    -0.235 N 
HETATM   23  N6  UNL     1       0.993  21.925  -4.940  1.00  0.00    -0.225 N 
ATOM     24  H52 UNL     1       2.202  24.931  -4.512  1.00  0.00     0.174 HD
ATOM     25  H51 UNL     1       2.579  23.454  -3.657  1.00  0.00     0.174 HD
ATOM     26  H6  UNL     1       0.820  21.587  -3.994  1.00  0.00     0.177 HD
ATOM     27  H4  UNL     1       0.396  23.600  -7.082  1.00  0.00     0.178 HD
BRANCH  23  28
HETATM   28  C11 UNL     1       1.000  20.955  -6.010  1.00  0.00     0.164 C 
BRANCH  28  29
HETATM   29  C12 UNL     1      -0.417  20.525  -6.242  1.00  0.00     0.188 C 
BRANCH  29  30
HETATM   30  O2  UNL     1      -1.348  21.392  -6.532  1.00  0.00    -0.387 OA
BRANCH  30  31
HETATM   31  C13 UNL     1      -1.815  21.821  -7.681  1.00  0.00     0.193 C 
BRANCH  31  32
HETATM   32  C14 UNL     1      -2.248  20.753  -8.695  1.00  0.00     0.193 C 
BRANCH  32  33
HETATM   33  O3  UNL     1      -1.876  20.965  -9.974  1.00  0.00    -0.389 OA
BRANCH  33  34
HETATM   34  C15 UNL     1      -2.802  21.203 -10.921  1.00  0.00     0.169 C 
BRANCH  34  35
HETATM   35  C16 UNL     1      -3.272  22.592 -11.179  1.00  0.00     0.052 C 
BRANCH  35  36
HETATM   36  C17 UNL     1      -3.464  22.980 -12.598  1.00  0.00     0.169 C 
BRANCH  36  37
HETATM   37  O4  UNL     1      -2.629  23.851 -13.195  1.00  0.00    -0.396 OA
HETATM   38  C18 UNL     1      -1.675  23.358 -14.042  1.00  0.00     0.201 C 
ENDBRANCH  36  37
ENDBRANCH  35  36
ENDBRANCH  34  35
ENDBRANCH  33  34
ENDBRANCH  32  33
ENDBRANCH  31  32
ENDBRANCH  30  31
ENDBRANCH  29  30
ENDBRANCH  28  29
ENDBRANCH  23  28
ENDBRANCH   1  20
TORSDOF 15
ENDMDL
MODEL 2
REMARK VINA RESULT: -6.161109594      1.147      1.422
REMARK  15 active torsions:
REMARK  status: ('A' for Active; 'I' for Inactive)
REMARK    1  A    between atoms: N1_2  and  C2_5 
REMARK    2  A    between atoms: C4_7  and  N2_8 
REMARK    3  A    between atoms: C7_14  and  N3_15 
REMARK       I    between atoms: N3_15  and  C8_17 
REMARK    4  A    between atoms: C8_17  and  C9_19 
REMARK    5  A    between atoms: C9_19  and  N4_20 
REMARK       I    between atoms: N4_20  and  C10_22 
REMARK       I    between atoms: C10_22  and  N6_26 
REMARK    6  A    between atoms: N6_26  and  C11_28 
REMARK    7  A    between atoms: C11_28  and  C12_29 
REMARK    8  A    between atoms: C12_29  and  O2_30 
REMARK    9  A    between atoms: O2_30  and  C13_31 
REMARK   10  A    between atoms: C13_31  and  C14_32 
REMARK   11  A    between atoms: C14_32  and  O3_33 
REMARK   12  A    between atoms: O3_33  and  C15_34 
REMARK   13  A    between atoms: C15_34  and  C16_35 
REMARK   14  A    between atoms: C16_35  and  C17_36 
REMARK   15  A    between atoms: C17_36  and  O4_37 
ROOT
HETATM    1  C9  UNL     1      -0.246  25.216  -5.720  1.00  0.00     0.240 C 
ENDROOT
BRANCH   1   2
HETATM    2  C8  UNL     1      -0.497  25.975  -6.960  1.00  0.00     0.236 C 
HETATM    3  N3  UNL     1      -0.432  27.402  -6.945  1.00  0.00    -0.353 N 
ATOM      4  H3  UNL     1      -0.214  27.904  -6.084  1.00  0.00     0.163 HD
HETATM    5  O1  UNL     1      -0.773  25.390  -8.050  1.00  0.00    -0.272 OA
BRANCH   3   6
HETATM    6  C7  UNL     1      -0.680  28.113  -8.167  1.00  0.00     0.115 C 
HETATM    7  C2  UNL     1      -1.516  29.325  -7.918  1.00  0.00     0.209 C 
HETATM    8  C3  UNL     1      -1.809  30.077  -9.205  1.00  0.00     0.068 C 
HETATM    9  C4  UNL     1      -0.562  30.296 -10.024  1.00  0.00     0.185 C 
HETATM   10  C5  UNL     1       0.341  29.114 -10.120  1.00  0.00     0.035 C 
HETATM   11  C6  UNL     1       0.659  28.623  -8.704  1.00  0.00     0.029 C 
BRANCH   7  12
HETATM   12  N1  UNL     1      -0.858  30.188  -6.959  1.00  0.00    -0.073 N 
HETATM   13  C1  UNL     1      -1.711  31.323  -6.613  1.00  0.00     0.267 C 
ATOM     14  H12 UNL     1       0.058  30.491  -7.289  1.00  0.00     0.277 HD
ATOM     15  H11 UNL     1      -0.560  29.674  -6.130  1.00  0.00     0.277 HD
ENDBRANCH   7  12
BRANCH   9  16
HETATM   16  N2  UNL     1      -1.009  30.611 -11.385  1.00  0.00    -0.075 N 
ATOM     17  H23 UNL     1      -0.839  29.857 -12.051  1.00  0.00     0.274 HD
ATOM     18  H22 UNL     1      -2.024  30.640 -11.481  1.00  0.00     0.274 HD
ATOM     19  H21 UNL     1      -0.555  31.487 -11.643  1.00  0.00     0.274 HD
ENDBRANCH   9  16
ENDBRANCH   3   6
ENDBRANCH   1   2
BRANCH   1  20
HETATM   20  N4  UNL     1       0.448  23.996  -6.064  1.00  0.00    -0.218 N 
HETATM   21  C10 UNL     1       1.231  23.385  -5.032  1.00  0.00     0.667 C 
HETATM   22  N5  UNL     1       2.052  24.059  -4.331  1.00  0.00    -0.235 N 
HETATM   23  N6  UNL     1       1.065  22.002  -4.813  1.00  0.00    -0.225 N 
ATOM     24  H52 UNL     1       2.171  25.059  -4.489  1.00  0.00     0.174 HD
ATOM     25  H51 UNL     1       2.610  23.623  -3.596  1.00  0.00     0.174 HD
ATOM     26  H6  UNL     1       0.915  21.686  -3.855  1.00  0.00     0.177 HD
ATOM     27  H4  UNL     1       0.384  23.589  -6.996  1.00  0.00     0.178 HD
BRANCH  23  28
HETATM   28  C11 UNL     1       1.095  21.001  -5.854  1.00  0.00     0.164 C 
BRANCH  28  29
HETATM   29  C12 UNL     1      -0.320  20.580  -6.118  1.00  0.00     0.188 C 
BRANCH  29  30
HETATM   30  O2  UNL     1      -1.231  21.448  -6.460  1.00  0.00    -0.387 OA
BRANCH  30  31
HETATM   31  C13 UNL     1      -1.800  21.708  -7.614  1.00  0.00     0.193 C 
BRANCH  31  32
HETATM   32  C14 UNL     1      -2.553  20.554  -8.292  1.00  0.00     0.193 C 
BRANCH  32  33
HETATM   33  O3  UNL     1      -3.717  20.878  -8.891  1.00  0.00    -0.389 OA
BRANCH  33  34
HETATM   34  C15 UNL     1      -3.833  20.816 -10.230  1.00  0.00     0.169 C 
BRANCH  34  35
HETATM   35  C16 UNL     1      -3.007  21.701 -11.097  1.00  0.00     0.052 C 
BRANCH  35  36
HETATM   36  C17 UNL     1      -2.018  21.037 -11.980  1.00  0.00     0.169 C 
BRANCH  36  37
HETATM   37  O4  UNL     1      -0.972  20.363 -11.463  1.00  0.00    -0.396 OA
HETATM   38  C18 UNL     1      -0.873  19.024 -11.722  1.00  0.00     0.201 C 
ENDBRANCH  36  37
ENDBRANCH  35  36
ENDBRANCH  34  35
ENDBRANCH  33  34
ENDBRANCH  32  33
ENDBRANCH  31  32
ENDBRANCH  30  31
ENDBRANCH  29  30
ENDBRANCH  28  29
ENDBRANCH  23  28
ENDBRANCH   1  20
TORSDOF 15
ENDMDL
MODEL 3
REMARK VINA RESULT: -6.142143488      3.678      8.971
REMARK  15 active torsions:
REMARK  status: ('A' for Active; 'I' for Inactive)
REMARK    1  A    between atoms: N1_2  and  C2_5 
REMARK    2  A    between atoms: C4_7  and  N2_8 
REMARK    3  A    between atoms: C7_14  and  N3_15 
REMARK       I    between atoms: N3_15  and  C8_17 
REMARK    4  A    between atoms: C8_17  and  C9_19 
REMARK    5  A    between atoms: C9_19  and  N4_20 
REMARK       I    between atoms: N4_20  and  C10_22 
REMARK       I    between atoms: C10_22  and  N6_26 
REMARK    6  A    between atoms: N6_26  and  C11_28 
REMARK    7  A    between atoms: C11_28  and  C12_29 
REMARK    8  A    between atoms: C12_29  and  O2_30 
REMARK    9  A    between atoms: O2_30  and  C13_31 
REMARK   10  A    between atoms: C13_31  and  C14_32 
REMARK   11  A    between atoms: C14_32  and  O3_33 
REMARK   12  A    between atoms: O3_33  and  C15_34 
REMARK   13  A    between atoms: C15_34  and  C16_35 
REMARK   14  A    between atoms: C16_35  and  C17_36 
REMARK   15  A    between atoms: C17_36  and  O4_37 
ROOT
HETATM    1  C9  UNL     1       2.041  20.823  -4.659  1.00  0.00     0.240 C 
ENDROOT
BRANCH   1   2
HETATM    2  C8  UNL     1       1.916  19.464  -5.222  1.00  0.00     0.236 C 
HETATM    3  N3  UNL     1       1.154  19.256  -6.412  1.00  0.00    -0.353 N 
ATOM      4  H3  UNL     1       0.691  20.036  -6.878  1.00  0.00     0.163 HD
HETATM    5  O1  UNL     1       2.473  18.467  -4.673  1.00  0.00    -0.272 OA
BRANCH   3   6
HETATM    6  C7  UNL     1       1.051  17.923  -6.936  1.00  0.00     0.115 C 
HETATM    7  C2  UNL     1      -0.303  17.680  -7.515  1.00  0.00     0.209 C 
HETATM    8  C3  UNL     1      -0.436  16.266  -8.054  1.00  0.00     0.068 C 
HETATM    9  C4  UNL     1       0.731  15.886  -8.930  1.00  0.00     0.185 C 
HETATM   10  C5  UNL     1       2.066  16.288  -8.405  1.00  0.00     0.035 C 
HETATM   11  C6  UNL     1       2.040  17.789  -8.096  1.00  0.00     0.029 C 
BRANCH   7  12
HETATM   12  N1  UNL     1      -0.575  18.652  -8.555  1.00  0.00    -0.073 N 
HETATM   13  C1  UNL     1      -1.863  19.303  -8.331  1.00  0.00     0.267 C 
ATOM     14  H12 UNL     1      -0.518  18.237  -9.485  1.00  0.00     0.277 HD
ATOM     15  H11 UNL     1       0.180  19.331  -8.645  1.00  0.00     0.277 HD
ENDBRANCH   7  12
BRANCH   9  16
HETATM   16  N2  UNL     1       0.723  14.422  -9.019  1.00  0.00    -0.075 N 
ATOM     17  H23 UNL     1       1.440  13.978  -8.444  1.00  0.00     0.274 HD
ATOM     18  H22 UNL     1      -0.085  13.993  -8.569  1.00  0.00     0.274 HD
ATOM     19  H21 UNL     1       0.802  14.193 -10.010  1.00  0.00     0.274 HD
ENDBRANCH   9  16
ENDBRANCH   3   6
ENDBRANCH   1   2
BRANCH   1  20
HETATM   20  N4  UNL     1       0.885  21.592  -5.062  1.00  0.00    -0.218 N 
HETATM   21  C10 UNL     1       1.101  22.976  -5.357  1.00  0.00     0.667 C 
HETATM   22  N5  UNL     1       1.755  23.731  -4.570  1.00  0.00    -0.235 N 
HETATM   23  N6  UNL     1       0.561  23.484  -6.557  1.00  0.00    -0.225 N 
ATOM     24  H52 UNL     1       2.147  23.363  -3.702  1.00  0.00     0.174 HD
ATOM     25  H51 UNL     1       1.909  24.717  -4.781  1.00  0.00     0.174 HD
ATOM     26  H6  UNL     1       1.175  24.027  -7.163  1.00  0.00     0.177 HD
ATOM     27  H4  UNL     1      -0.040  21.169  -5.132  1.00  0.00     0.178 HD
BRANCH  23  28
HETATM   28  C11 UNL     1      -0.805  23.288  -6.986  1.00  0.00     0.164 C 
BRANCH  28  29
HETATM   29  C12 UNL     1      -1.663  24.249  -6.221  1.00  0.00     0.188 C 
BRANCH  29  30
HETATM   30  O2  UNL     1      -2.332  25.190  -6.829  1.00  0.00    -0.387 OA
BRANCH  30  31
HETATM   31  C13 UNL     1      -1.975  26.378  -7.260  1.00  0.00     0.193 C 
BRANCH  31  32
HETATM   32  C14 UNL     1      -0.645  26.935  -6.733  1.00  0.00     0.193 C 
BRANCH  32  33
HETATM   33  O3  UNL     1       0.375  26.966  -7.615  1.00  0.00    -0.389 OA
BRANCH  33  34
HETATM   34  C15 UNL     1       0.886  28.142  -8.024  1.00  0.00     0.169 C 
BRANCH  34  35
HETATM   35  C16 UNL     1       0.271  28.870  -9.167  1.00  0.00     0.052 C 
BRANCH  35  36
HETATM   36  C17 UNL     1      -0.192  30.254  -8.905  1.00  0.00     0.169 C 
BRANCH  36  37
HETATM   37  O4  UNL     1      -1.439  30.492  -8.453  1.00  0.00    -0.396 OA
HETATM   38  C18 UNL     1      -1.593  30.874  -7.149  1.00  0.00     0.201 C 
ENDBRANCH  36  37
ENDBRANCH  35  36
ENDBRANCH  34  35
ENDBRANCH  33  34
ENDBRANCH  32  33
ENDBRANCH  31  32
ENDBRANCH  30  31
ENDBRANCH  29  30
ENDBRANCH  28  29
ENDBRANCH  23  28
ENDBRANCH   1  20
TORSDOF 15
ENDMDL
MODEL 4
REMARK VINA RESULT: -6.131842637      2.433      3.892
REMARK  15 active torsions:
REMARK  status: ('A' for Active; 'I' for Inactive)
REMARK    1  A    between atoms: N1_2  and  C2_5 
REMARK    2  A    between atoms: C4_7  and  N2_8 
REMARK    3  A    between atoms: C7_14  and  N3_15 
REMARK       I    between atoms: N3_15  and  C8_17 
REMARK    4  A    between atoms: C8_17  and  C9_19 
REMARK    5  A    between atoms: C9_19  and  N4_20 
REMARK       I    between atoms: N4_20  and  C10_22 
REMARK       I    between atoms: C10_22  and  N6_26 
REMARK    6  A    between atoms: N6_26  and  C11_28 
REMARK    7  A    between atoms: C11_28  and  C12_29 
REMARK    8  A    between atoms: C12_29  and  O2_30 
REMARK    9  A    between atoms: O2_30  and  C13_31 
REMARK   10  A    between atoms: C13_31  and  C14_32 
REMARK   11  A    between atoms: C14_32  and  O3_33 
REMARK   12  A    between atoms: O3_33  and  C15_34 
REMARK   13  A    between atoms: C15_34  and  C16_35 
REMARK   14  A    between atoms: C16_35  and  C17_36 
REMARK   15  A    between atoms: C17_36  and  O4_37 
ROOT
HETATM    1  C9  UNL     1      -0.282  25.153  -5.705  1.00  0.00     0.240 C 
ENDROOT
BRANCH   1   2
HETATM    2  C8  UNL     1      -0.519  25.908  -6.950  1.00  0.00     0.236 C 
HETATM    3  N3  UNL     1      -0.440  27.334  -6.941  1.00  0.00    -0.353 N 
ATOM      4  H3  UNL     1      -0.222  27.839  -6.081  1.00  0.00     0.163 HD
HETATM    5  O1  UNL     1      -0.794  25.321  -8.039  1.00  0.00    -0.272 OA
BRANCH   3   6
HETATM    6  C7  UNL     1      -0.674  28.042  -8.168  1.00  0.00     0.115 C 
HETATM    7  C2  UNL     1      -1.485  29.272  -7.928  1.00  0.00     0.209 C 
HETATM    8  C3  UNL     1      -1.762  30.021  -9.220  1.00  0.00     0.068 C 
HETATM    9  C4  UNL     1      -0.511  30.209 -10.040  1.00  0.00     0.185 C 
HETATM   10  C5  UNL     1       0.367  29.008 -10.128  1.00  0.00     0.035 C 
HETATM   11  C6  UNL     1       0.675  28.521  -8.708  1.00  0.00     0.029 C 
BRANCH   7  12
HETATM   12  N1  UNL     1      -0.809  30.129  -6.974  1.00  0.00    -0.073 N 
HETATM   13  C1  UNL     1      -1.628  31.296  -6.656  1.00  0.00     0.267 C 
ATOM     14  H12 UNL     1       0.120  30.396  -7.299  1.00  0.00     0.277 HD
ATOM     15  H11 UNL     1      -0.536  29.618  -6.135  1.00  0.00     0.277 HD
ENDBRANCH   7  12
BRANCH   9  16
HETATM   16  N2  UNL     1      -0.952  30.524 -11.404  1.00  0.00    -0.075 N 
ATOM     17  H23 UNL     1      -0.373  30.093 -12.125  1.00  0.00     0.274 HD
ATOM     18  H22 UNL     1      -1.830  30.072 -11.659  1.00  0.00     0.274 HD
ATOM     19  H21 UNL     1      -0.988  31.541 -11.468  1.00  0.00     0.274 HD
ENDBRANCH   9  16
ENDBRANCH   3   6
ENDBRANCH   1   2
BRANCH   1  20
HETATM   20  N4  UNL     1       0.452  23.952  -6.031  1.00  0.00    -0.218 N 
HETATM   21  C10 UNL     1       1.267  23.391  -4.996  1.00  0.00     0.667 C 
HETATM   22  N5  UNL     1       2.070  24.109  -4.318  1.00  0.00    -0.235 N 
HETATM   23  N6  UNL     1       1.155  22.008  -4.747  1.00  0.00    -0.225 N 
ATOM     24  H52 UNL     1       2.151  25.110  -4.498  1.00  0.00     0.174 HD
ATOM     25  H51 UNL     1       2.651  23.709  -3.581  1.00  0.00     0.174 HD
ATOM     26  H6  UNL     1       1.026  21.707  -3.781  1.00  0.00     0.177 HD
ATOM     27  H4  UNL     1       0.393  23.524  -6.955  1.00  0.00     0.178 HD
BRANCH  23  28
HETATM   28  C11 UNL     1       1.210  20.987  -5.768  1.00  0.00     0.164 C 
BRANCH  28  29
HETATM   29  C12 UNL     1      -0.173  20.429  -5.926  1.00  0.00     0.188 C 
BRANCH  29  30
HETATM   30  O2  UNL     1      -1.163  21.179  -6.326  1.00  0.00    -0.387 OA
BRANCH  30  31
HETATM   31  C13 UNL     1      -1.734  21.320  -7.500  1.00  0.00     0.193 C 
BRANCH  31  32
HETATM   32  C14 UNL     1      -3.036  20.542  -7.735  1.00  0.00     0.193 C 
BRANCH  32  33
HETATM   33  O3  UNL     1      -4.029  20.769  -6.850  1.00  0.00    -0.389 OA
BRANCH  33  34
HETATM   34  C15 UNL     1      -5.097  19.951  -6.801  1.00  0.00     0.169 C 
BRANCH  34  35
HETATM   35  C16 UNL     1      -6.457  20.506  -6.562  1.00  0.00     0.052 C 
BRANCH  35  36
HETATM   36  C17 UNL     1      -7.090  20.184  -5.259  1.00  0.00     0.169 C 
BRANCH  36  37
HETATM   37  O4  UNL     1      -6.339  19.886  -4.181  1.00  0.00    -0.396 OA
HETATM   38  C18 UNL     1      -6.850  19.017  -3.256  1.00  0.00     0.201 C 
ENDBRANCH  36  37
ENDBRANCH  35  36
ENDBRANCH  34  35
ENDBRANCH  33  34
ENDBRANCH  32  33
ENDBRANCH  31  32
ENDBRANCH  30  31
ENDBRANCH  29  30
ENDBRANCH  28  29
ENDBRANCH  23  28
ENDBRANCH   1  20
TORSDOF 15
ENDMDL
MODEL 5
REMARK VINA RESULT: -6.125534997      1.899      2.752
REMARK  15 active torsions:
REMARK  status: ('A' for Active; 'I' for Inactive)
REMARK    1  A    between atoms: N1_2  and  C2_5 
REMARK    2  A    between atoms: C4_7  and  N2_8 
REMARK    3  A    between atoms: C7_14  and  N3_15 
REMARK       I    between atoms: N3_15  and  C8_17 
REMARK    4  A    between atoms: C8_17  and  C9_19 
REMARK    5  A    between atoms: C9_19  and  N4_20 
REMARK       I    between atoms: N4_20  and  C10_22 
REMARK       I    between atoms: C10_22  and  N6_26 
REMARK    6  A    between atoms: N6_26  and  C11_28 
REMARK    7  A    between atoms: C11_28  and  C12_29 
REMARK    8  A    between atoms: C12_29  and  O2_30 
REMARK    9  A    between atoms: O2_30  and  C13_31 
REMARK   10  A    between atoms: C13_31  and  C14_32 
REMARK   11  A    between atoms: C14_32  and  O3_33 
REMARK   12  A    between atoms: O3_33  and  C15_34 
REMARK   13  A    between atoms: C15_34  and  C16_35 
REMARK   14  A    between atoms: C16_35  and  C17_36 
REMARK   15  A    between atoms: C17_36  and  O4_37 
ROOT
HETATM    1  C9  UNL     1      -0.290  25.160  -5.758  1.00  0.00     0.240 C 
ENDROOT
BRANCH   1   2
HETATM    2  C8  UNL     1      -0.542  25.938  -6.987  1.00  0.00     0.236 C 
HETATM    3  N3  UNL     1      -0.421  27.361  -6.965  1.00  0.00    -0.353 N 
ATOM      4  H3  UNL     1      -0.163  27.848  -6.107  1.00  0.00     0.163 HD
HETATM    5  O1  UNL     1      -0.867  25.371  -8.073  1.00  0.00    -0.272 OA
BRANCH   3   6
HETATM    6  C7  UNL     1      -0.672  28.090  -8.176  1.00  0.00     0.115 C 
HETATM    7  C2  UNL     1      -1.476  29.317  -7.904  1.00  0.00     0.209 C 
HETATM    8  C3  UNL     1      -1.771  30.088  -9.179  1.00  0.00     0.068 C 
HETATM    9  C4  UNL     1      -0.532  30.288 -10.014  1.00  0.00     0.185 C 
HETATM   10  C5  UNL     1       0.342  29.086 -10.135  1.00  0.00     0.035 C 
HETATM   11  C6  UNL     1       0.670  28.575  -8.728  1.00  0.00     0.029 C 
BRANCH   7  12
HETATM   12  N1  UNL     1      -0.785  30.156  -6.946  1.00  0.00    -0.073 N 
HETATM   13  C1  UNL     1      -1.590  31.327  -6.607  1.00  0.00     0.267 C 
ATOM     14  H12 UNL     1       0.144  30.418  -7.274  1.00  0.00     0.277 HD
ATOM     15  H11 UNL     1      -0.511  29.633  -6.114  1.00  0.00     0.277 HD
ENDBRANCH   7  12
BRANCH   9  16
HETATM   16  N2  UNL     1      -0.992  30.626 -11.365  1.00  0.00    -0.075 N 
ATOM     17  H23 UNL     1      -1.813  30.095 -11.657  1.00  0.00     0.274 HD
ATOM     18  H22 UNL     1      -1.411  31.554 -11.429  1.00  0.00     0.274 HD
ATOM     19  H21 UNL     1      -0.190  30.502 -11.982  1.00  0.00     0.274 HD
ENDBRANCH   9  16
ENDBRANCH   3   6
ENDBRANCH   1   2
BRANCH   1  20
HETATM   20  N4  UNL     1       0.416  23.952  -6.118  1.00  0.00    -0.218 N 
HETATM   21  C10 UNL     1       1.193  23.328  -5.091  1.00  0.00     0.667 C 
HETATM   22  N5  UNL     1       2.003  23.994  -4.370  1.00  0.00    -0.235 N 
HETATM   23  N6  UNL     1       1.036  21.939  -4.899  1.00  0.00    -0.225 N 
ATOM     24  H52 UNL     1       2.117  24.998  -4.508  1.00  0.00     0.174 HD
ATOM     25  H51 UNL     1       2.557  23.549  -3.638  1.00  0.00     0.174 HD
ATOM     26  H6  UNL     1       0.879  21.605  -3.948  1.00  0.00     0.177 HD
ATOM     27  H4  UNL     1       0.363  23.563  -7.059  1.00  0.00     0.178 HD
BRANCH  23  28
HETATM   28  C11 UNL     1       1.082  20.958  -5.958  1.00  0.00     0.164 C 
BRANCH  28  29
HETATM   29  C12 UNL     1      -0.314  20.455  -6.170  1.00  0.00     0.188 C 
BRANCH  29  30
HETATM   30  O2  UNL     1      -1.286  21.267  -6.485  1.00  0.00    -0.387 OA
BRANCH  30  31
HETATM   31  C13 UNL     1      -1.795  21.612  -7.644  1.00  0.00     0.193 C 
BRANCH  31  32
HETATM   32  C14 UNL     1      -2.705  20.586  -8.335  1.00  0.00     0.193 C 
BRANCH  32  33
HETATM   33  O3  UNL     1      -3.653  21.090  -9.151  1.00  0.00    -0.389 OA
BRANCH  33  34
HETATM   34  C15 UNL     1      -4.429  20.268  -9.881  1.00  0.00     0.169 C 
BRANCH  34  35
HETATM   35  C16 UNL     1      -5.901  20.238  -9.664  1.00  0.00     0.052 C 
BRANCH  35  36
HETATM   36  C17 UNL     1      -6.367  20.107  -8.262  1.00  0.00     0.169 C 
BRANCH  36  37
HETATM   37  O4  UNL     1      -6.708  21.193  -7.542  1.00  0.00    -0.396 OA
HETATM   38  C18 UNL     1      -7.528  21.023  -6.461  1.00  0.00     0.201 C 
ENDBRANCH  36  37
ENDBRANCH  35  36
ENDBRANCH  34  35
ENDBRANCH  33  34
ENDBRANCH  32  33
ENDBRANCH  31  32
ENDBRANCH  30  31
ENDBRANCH  29  30
ENDBRANCH  28  29
ENDBRANCH  23  28
ENDBRANCH   1  20
TORSDOF 15
ENDMDL
