MODEL 1
REMARK VINA RESULT: -6.680950475      0.000      0.000
REMARK  16 active torsions:
REMARK  status: ('A' for Active; 'I' for Inactive)
REMARK    1  A    between atoms: N1_5  and  C5_7 
REMARK    2  A    between atoms: C5_7  and  C6_8 
REMARK    3  A    between atoms: C6_8  and  C7_9 
REMARK    4  A    between atoms: C7_9  and  C8_10 
REMARK    5  A    between atoms: C8_10  and  N2_11 
REMARK       I    between atoms: C9_13  and  N4_15 
REMARK    6  A    between atoms: N4_15  and  C10_17 
REMARK    7  A    between atoms: C10_17  and  C11_18 
REMARK    8  A    between atoms: C11_18  and  N5_19 
REMARK    9  A    between atoms: C12_25  and  N7_26 
REMARK   10  A    between atoms: N7_26  and  C13_28 
REMARK   11  A    between atoms: C13_28  and  C14_29 
REMARK   12  A    between atoms: C14_29  and  N8_30 
REMARK       I    between atoms: N8_30  and  C15_32 
REMARK   13  A    between atoms: C15_32  and  C16_34 
REMARK   14  A    between atoms: C16_34  and  C17_35 
REMARK   15  A    between atoms: C17_35  and  C18_36 
REMARK   16  A    between atoms: C18_36  and  N9_37 
ROOT
HETATM    1  C1  UNL     1       1.638  21.083  -4.725  1.00  0.00     0.069 C 
HETATM    2  C2  UNL     1       0.511  21.282  -5.690  1.00  0.00     0.026 A 
HETATM    3  C3  UNL     1       0.079  22.559  -6.026  1.00  0.00     0.073 A 
HETATM    4  C4  UNL     1      -0.944  22.822  -6.906  1.00  0.00     0.118 A 
HETATM    5  N1  UNL     1      -1.366  23.992  -7.234  1.00  0.00    -0.376 N 
ATOM      6  H1  UNL     1      -2.134  24.113  -7.894  1.00  0.00     0.161 HD
HETATM    7  N6  UNL     1      -1.541  21.717  -7.455  1.00  0.00    -0.177 N 
ATOM      8  H6  UNL     1      -2.308  21.836  -8.116  1.00  0.00     0.186 HD
HETATM    9  C12 UNL     1      -1.130  20.475  -7.135  1.00  0.00     0.683 A 
HETATM   10  N10 UNL     1      -0.129  20.247  -6.275  1.00  0.00    -0.196 N 
ATOM     11  H10 UNL     1       0.150  19.290  -6.061  1.00  0.00     0.184 HD
ENDROOT
BRANCH   5  12
HETATM   12  C5  UNL     1      -0.696  25.149  -6.616  1.00  0.00     0.121 C 
BRANCH  12  13
HETATM   13  C6  UNL     1      -0.430  26.208  -7.630  1.00  0.00     0.021 C 
BRANCH  13  14
HETATM   14  C7  UNL     1       0.622  27.200  -7.346  1.00  0.00     0.021 C 
BRANCH  14  15
HETATM   15  C8  UNL     1       0.425  28.559  -7.902  1.00  0.00     0.122 C 
BRANCH  15  16
HETATM   16  N2  UNL     1      -0.520  29.347  -7.197  1.00  0.00    -0.365 N 
HETATM   17  C9  UNL     1      -1.060  30.407  -7.677  1.00  0.00     0.184 C 
HETATM   18  N3  UNL     1      -1.999  31.112  -6.865  1.00  0.00    -0.064 NA
HETATM   19  N4  UNL     1      -0.750  30.893  -8.986  1.00  0.00    -0.363 N 
ATOM     20  H4  UNL     1       0.054  31.500  -9.139  1.00  0.00     0.162 HD
ATOM     21  H2  UNL     1      -0.785  29.055  -6.256  1.00  0.00     0.162 HD
BRANCH  19  22
HETATM   22  C10 UNL     1      -1.603  30.502 -10.090  1.00  0.00     0.149 C 
BRANCH  22  23
HETATM   23  C11 UNL     1      -0.872  30.573 -11.399  1.00  0.00     0.249 C 
BRANCH  23  24
HETATM   24  N5  UNL     1      -0.181  31.845 -11.466  1.00  0.00    -0.078 N 
ATOM     25  H53 UNL     1      -0.115  32.206 -12.418  1.00  0.00     0.274 HD
ATOM     26  H52 UNL     1      -0.725  32.609 -11.065  1.00  0.00     0.274 HD
ATOM     27  H51 UNL     1       0.732  31.738 -11.023  1.00  0.00     0.274 HD
ENDBRANCH  23  24
ENDBRANCH  22  23
ENDBRANCH  19  22
ENDBRANCH  15  16
ENDBRANCH  14  15
ENDBRANCH  13  14
ENDBRANCH  12  13
ENDBRANCH   5  12
BRANCH   9  28
HETATM   28  N7  UNL     1      -1.757  19.514  -7.719  1.00  0.00    -0.200 N 
ATOM     29  H7  UNL     1      -1.167  18.823  -8.183  1.00  0.00     0.183 HD
BRANCH  28  30
HETATM   30  C13 UNL     1      -3.141  19.284  -7.807  1.00  0.00     0.123 C 
BRANCH  30  31
HETATM   31  C14 UNL     1      -3.678  19.102  -9.188  1.00  0.00     0.108 C 
BRANCH  31  32
HETATM   32  N8  UNL     1      -3.876  20.272  -9.943  1.00  0.00    -0.336 N 
HETATM   33  C15 UNL     1      -2.959  21.098 -10.583  1.00  0.00     0.221 C 
HETATM   34  O1  UNL     1      -1.737  20.893 -10.587  1.00  0.00    -0.273 OA
ATOM     35  H8  UNL     1      -4.850  20.562 -10.035  1.00  0.00     0.168 HD
BRANCH  33  36
HETATM   36  C16 UNL     1      -3.419  22.312 -11.321  1.00  0.00     0.105 C 
BRANCH  36  37
HETATM   37  C17 UNL     1      -3.889  22.082 -12.701  1.00  0.00     0.036 C 
BRANCH  37  38
HETATM   38  C18 UNL     1      -3.296  22.920 -13.774  1.00  0.00     0.230 C 
BRANCH  38  39
HETATM   39  N9  UNL     1      -2.821  24.209 -13.304  1.00  0.00    -0.079 N 
ATOM     40  H93 UNL     1      -3.571  24.726 -12.846  1.00  0.00     0.274 HD
ATOM     41  H92 UNL     1      -2.187  24.094 -12.514  1.00  0.00     0.274 HD
ATOM     42  H91 UNL     1      -2.388  24.773 -14.035  1.00  0.00     0.274 HD
ENDBRANCH  38  39
ENDBRANCH  37  38
ENDBRANCH  36  37
ENDBRANCH  33  36
ENDBRANCH  31  32
ENDBRANCH  30  31
ENDBRANCH  28  30
ENDBRANCH   9  28
TORSDOF 16
ENDMDL
MODEL 2
REMARK VINA RESULT: -6.522142918      2.525      7.492
REMARK  16 active torsions:
REMARK  status: ('A' for Active; 'I' for Inactive)
REMARK    1  A    between atoms: N1_5  and  C5_7 
REMARK    2  A    between atoms: C5_7  and  C6_8 
REMARK    3  A    between atoms: C6_8  and  C7_9 
REMARK    4  A    between atoms: C7_9  and  C8_10 
REMARK    5  A    between atoms: C8_10  and  N2_11 
REMARK       I    between atoms: C9_13  and  N4_15 
REMARK    6  A    between atoms: N4_15  and  C10_17 
REMARK    7  A    between atoms: C10_17  and  C11_18 
REMARK    8  A    between atoms: C11_18  and  N5_19 
REMARK    9  A    between atoms: C12_25  and  N7_26 
REMARK   10  A    between atoms: N7_26  and  C13_28 
REMARK   11  A    between atoms: C13_28  and  C14_29 
REMARK   12  A    between atoms: C14_29  and  N8_30 
REMARK       I    between atoms: N8_30  and  C15_32 
REMARK   13  A    between atoms: C15_32  and  C16_34 
REMARK   14  A    between atoms: C16_34  and  C17_35 
REMARK   15  A    between atoms: C17_35  and  C18_36 
REMARK   16  A    between atoms: C18_36  and  N9_37 
ROOT
HETATM    1  C1  UNL     1       2.008  18.751  -5.287  1.00  0.00     0.069 C 
HETATM    2  C2  UNL     1       1.106  19.875  -5.691  1.00  0.00     0.026 A 
HETATM    3  C3  UNL     1       0.042  19.656  -6.558  1.00  0.00     0.073 A 
HETATM    4  C4  UNL     1      -0.831  20.635  -6.971  1.00  0.00     0.118 A 
HETATM    5  N1  UNL     1      -1.822  20.464  -7.773  1.00  0.00    -0.376 N 
ATOM      6  H1  UNL     1      -2.430  21.238  -8.038  1.00  0.00     0.161 HD
HETATM    7  N6  UNL     1      -0.587  21.886  -6.466  1.00  0.00    -0.177 N 
ATOM      8  H6  UNL     1      -1.195  22.661  -6.730  1.00  0.00     0.186 HD
HETATM    9  C12 UNL     1       0.441  22.108  -5.626  1.00  0.00     0.683 A 
HETATM   10  N10 UNL     1       1.277  21.135  -5.239  1.00  0.00    -0.196 N 
ATOM     11  H10 UNL     1       2.044  21.347  -4.601  1.00  0.00     0.184 HD
ENDROOT
BRANCH   5  12
HETATM   12  C5  UNL     1      -2.042  19.103  -8.292  1.00  0.00     0.121 C 
BRANCH  12  13
HETATM   13  C6  UNL     1      -2.126  19.112  -9.779  1.00  0.00     0.021 C 
BRANCH  13  14
HETATM   14  C7  UNL     1      -0.900  18.839 -10.551  1.00  0.00     0.021 C 
BRANCH  14  15
HETATM   15  C8  UNL     1      -1.002  18.945 -12.024  1.00  0.00     0.122 C 
BRANCH  15  16
HETATM   16  N2  UNL     1      -0.116  19.888 -12.605  1.00  0.00    -0.365 N 
HETATM   17  C9  UNL     1      -0.506  20.925 -13.252  1.00  0.00     0.184 C 
HETATM   18  N3  UNL     1       0.488  21.798 -13.788  1.00  0.00    -0.064 NA
HETATM   19  N4  UNL     1      -1.892  21.223 -13.446  1.00  0.00    -0.363 N 
ATOM     20  H4  UNL     1      -2.408  20.816 -14.225  1.00  0.00     0.162 HD
ATOM     21  H2  UNL     1       0.887  19.733 -12.502  1.00  0.00     0.162 HD
BRANCH  19  22
HETATM   22  C10 UNL     1      -2.546  22.117 -12.511  1.00  0.00     0.149 C 
BRANCH  22  23
HETATM   23  C11 UNL     1      -3.098  23.327 -13.206  1.00  0.00     0.249 C 
BRANCH  23  24
HETATM   24  N5  UNL     1      -1.991  24.082 -13.757  1.00  0.00    -0.078 N 
ATOM     25  H53 UNL     1      -1.413  24.515 -13.035  1.00  0.00     0.274 HD
ATOM     26  H52 UNL     1      -1.274  23.483 -14.167  1.00  0.00     0.274 HD
ATOM     27  H51 UNL     1      -2.363  24.760 -14.421  1.00  0.00     0.274 HD
ENDBRANCH  23  24
ENDBRANCH  22  23
ENDBRANCH  19  22
ENDBRANCH  15  16
ENDBRANCH  14  15
ENDBRANCH  13  14
ENDBRANCH  12  13
ENDBRANCH   5  12
BRANCH   9  28
HETATM   28  N7  UNL     1       0.567  23.319  -5.208  1.00  0.00    -0.200 N 
ATOM     29  H7  UNL     1       1.278  23.465  -4.491  1.00  0.00     0.183 HD
BRANCH  28  30
HETATM   30  C13 UNL     1      -0.138  24.469  -5.602  1.00  0.00     0.123 C 
BRANCH  30  31
HETATM   31  C14 UNL     1      -0.011  24.842  -7.042  1.00  0.00     0.108 C 
BRANCH  31  32
HETATM   32  N8  UNL     1       0.458  26.140  -7.315  1.00  0.00    -0.336 N 
HETATM   33  C15 UNL     1      -0.223  27.351  -7.368  1.00  0.00     0.221 C 
HETATM   34  O1  UNL     1      -1.437  27.466  -7.152  1.00  0.00    -0.273 OA
ATOM     35  H8  UNL     1       1.458  26.202  -7.505  1.00  0.00     0.168 HD
BRANCH  33  36
HETATM   36  C16 UNL     1       0.502  28.613  -7.699  1.00  0.00     0.105 C 
BRANCH  36  37
HETATM   37  C17 UNL     1       0.391  29.067  -9.099  1.00  0.00     0.036 C 
BRANCH  37  38
HETATM   38  C18 UNL     1      -0.415  30.286  -9.360  1.00  0.00     0.230 C 
BRANCH  38  39
HETATM   39  N9  UNL     1      -1.531  30.449  -8.446  1.00  0.00    -0.079 N 
ATOM     40  H93 UNL     1      -1.648  29.618  -7.866  1.00  0.00     0.274 HD
ATOM     41  H92 UNL     1      -1.308  31.131  -7.722  1.00  0.00     0.274 HD
ATOM     42  H91 UNL     1      -2.406  30.690  -8.912  1.00  0.00     0.274 HD
ENDBRANCH  38  39
ENDBRANCH  37  38
ENDBRANCH  36  37
ENDBRANCH  33  36
ENDBRANCH  31  32
ENDBRANCH  30  31
ENDBRANCH  28  30
ENDBRANCH   9  28
TORSDOF 16
ENDMDL
MODEL 3
REMARK VINA RESULT: -6.494499472      2.584      4.208
REMARK  16 active torsions:
REMARK  status: ('A' for Active; 'I' for Inactive)
REMARK    1  A    between atoms: N1_5  and  C5_7 
REMARK    2  A    between atoms: C5_7  and  C6_8 
REMARK    3  A    between atoms: C6_8  and  C7_9 
REMARK    4  A    between atoms: C7_9  and  C8_10 
REMARK    5  A    between atoms: C8_10  and  N2_11 
REMARK       I    between atoms: C9_13  and  N4_15 
REMARK    6  A    between atoms: N4_15  and  C10_17 
REMARK    7  A    between atoms: C10_17  and  C11_18 
REMARK    8  A    between atoms: C11_18  and  N5_19 
REMARK    9  A    between atoms: C12_25  and  N7_26 
REMARK   10  A    between atoms: N7_26  and  C13_28 
REMARK   11  A    between atoms: C13_28  and  C14_29 
REMARK   12  A    between atoms: C14_29  and  N8_30 
REMARK       I    between atoms: N8_30  and  C15_32 
REMARK   13  A    between atoms: C15_32  and  C16_34 
REMARK   14  A    between atoms: C16_34  and  C17_35 
REMARK   15  A    between atoms: C17_35  and  C18_36 
REMARK   16  A    between atoms: C18_36  and  N9_37 
ROOT
HETATM    1  C1  UNL     1      -2.676  20.401  -8.153  1.00  0.00     0.069 C 
HETATM    2  C2  UNL     1      -1.597  21.037  -7.333  1.00  0.00     0.026 A 
HETATM    3  C3  UNL     1      -1.337  22.399  -7.433  1.00  0.00     0.073 A 
HETATM    4  C4  UNL     1      -0.368  23.054  -6.711  1.00  0.00     0.118 A 
HETATM    5  N1  UNL     1      -0.103  24.311  -6.784  1.00  0.00    -0.376 N 
ATOM      6  H1  UNL     1       0.633  24.732  -6.218  1.00  0.00     0.161 HD
HETATM    7  N6  UNL     1       0.358  22.266  -5.856  1.00  0.00    -0.177 N 
ATOM      8  H6  UNL     1       1.094  22.686  -5.289  1.00  0.00     0.186 HD
HETATM    9  C12 UNL     1       0.114  20.946  -5.753  1.00  0.00     0.683 A 
HETATM   10  N10 UNL     1      -0.837  20.332  -6.468  1.00  0.00    -0.196 N 
ATOM     11  H10 UNL     1      -0.989  19.329  -6.359  1.00  0.00     0.184 HD
ENDROOT
BRANCH   5  12
HETATM   12  C5  UNL     1      -0.908  25.117  -7.719  1.00  0.00     0.121 C 
BRANCH  12  13
HETATM   13  C6  UNL     1      -0.823  26.564  -7.375  1.00  0.00     0.021 C 
BRANCH  13  14
HETATM   14  C7  UNL     1       0.499  27.215  -7.411  1.00  0.00     0.021 C 
BRANCH  14  15
HETATM   15  C8  UNL     1       0.524  28.655  -7.756  1.00  0.00     0.122 C 
BRANCH  15  16
HETATM   16  N2  UNL     1      -0.473  29.428  -7.108  1.00  0.00    -0.365 N 
HETATM   17  C9  UNL     1      -1.045  30.444  -7.645  1.00  0.00     0.184 C 
HETATM   18  N3  UNL     1      -2.035  31.138  -6.887  1.00  0.00    -0.064 NA
HETATM   19  N4  UNL     1      -0.721  30.889  -8.965  1.00  0.00    -0.363 N 
ATOM     20  H4  UNL     1       0.059  31.525  -9.123  1.00  0.00     0.162 HD
ATOM     21  H2  UNL     1      -0.751  29.163  -6.163  1.00  0.00     0.162 HD
BRANCH  19  22
HETATM   22  C10 UNL     1      -1.527  30.417 -10.073  1.00  0.00     0.149 C 
BRANCH  22  23
HETATM   23  C11 UNL     1      -0.803  30.567 -11.379  1.00  0.00     0.249 C 
BRANCH  23  24
HETATM   24  N5  UNL     1      -0.200  31.884 -11.417  1.00  0.00    -0.078 N 
ATOM     25  H53 UNL     1      -0.777  32.567 -11.908  1.00  0.00     0.274 HD
ATOM     26  H52 UNL     1      -0.194  32.339 -10.504  1.00  0.00     0.274 HD
ATOM     27  H51 UNL     1       0.734  31.798 -11.819  1.00  0.00     0.274 HD
ENDBRANCH  23  24
ENDBRANCH  22  23
ENDBRANCH  19  22
ENDBRANCH  15  16
ENDBRANCH  14  15
ENDBRANCH  13  14
ENDBRANCH  12  13
ENDBRANCH   5  12
BRANCH   9  28
HETATM   28  N7  UNL     1       0.851  20.308  -4.912  1.00  0.00    -0.200 N 
ATOM     29  H7  UNL     1       0.529  20.327  -3.944  1.00  0.00     0.183 HD
BRANCH  28  30
HETATM   30  C13 UNL     1       2.037  19.590  -5.141  1.00  0.00     0.123 C 
BRANCH  30  31
HETATM   31  C14 UNL     1       1.859  18.160  -5.532  1.00  0.00     0.108 C 
BRANCH  31  32
HETATM   32  N8  UNL     1       2.268  17.811  -6.832  1.00  0.00    -0.336 N 
HETATM   33  C15 UNL     1       1.569  17.836  -8.033  1.00  0.00     0.221 C 
HETATM   34  O1  UNL     1       0.393  18.212  -8.136  1.00  0.00    -0.273 OA
ATOM     35  H8  UNL     1       3.232  17.487  -6.904  1.00  0.00     0.168 HD
BRANCH  33  36
HETATM   36  C16 UNL     1       2.224  17.394  -9.300  1.00  0.00     0.105 C 
BRANCH  36  37
HETATM   37  C17 UNL     1       1.595  16.243  -9.978  1.00  0.00     0.036 C 
BRANCH  37  38
HETATM   38  C18 UNL     1       1.023  16.474 -11.328  1.00  0.00     0.230 C 
BRANCH  38  39
HETATM   39  N9  UNL     1       0.170  17.647 -11.402  1.00  0.00    -0.079 N 
ATOM     40  H93 UNL     1      -0.220  17.868 -10.486  1.00  0.00     0.274 HD
ATOM     41  H92 UNL     1       0.725  18.488 -11.557  1.00  0.00     0.274 HD
ATOM     42  H91 UNL     1      -0.569  17.568 -12.101  1.00  0.00     0.274 HD
ENDBRANCH  38  39
ENDBRANCH  37  38
ENDBRANCH  36  37
ENDBRANCH  33  36
ENDBRANCH  31  32
ENDBRANCH  30  31
ENDBRANCH  28  30
ENDBRANCH   9  28
TORSDOF 16
ENDMDL
MODEL 4
REMARK VINA RESULT: -6.281879025      3.258      9.013
REMARK  16 active torsions:
REMARK  status: ('A' for Active; 'I' for Inactive)
REMARK    1  A    between atoms: N1_5  and  C5_7 
REMARK    2  A    between atoms: C5_7  and  C6_8 
REMARK    3  A    between atoms: C6_8  and  C7_9 
REMARK    4  A    between atoms: C7_9  and  C8_10 
REMARK    5  A    between atoms: C8_10  and  N2_11 
REMARK       I    between atoms: C9_13  and  N4_15 
REMARK    6  A    between atoms: N4_15  and  C10_17 
REMARK    7  A    between atoms: C10_17  and  C11_18 
REMARK    8  A    between atoms: C11_18  and  N5_19 
REMARK    9  A    between atoms: C12_25  and  N7_26 
REMARK   10  A    between atoms: N7_26  and  C13_28 
REMARK   11  A    between atoms: C13_28  and  C14_29 
REMARK   12  A    between atoms: C14_29  and  N8_30 
REMARK       I    between atoms: N8_30  and  C15_32 
REMARK   13  A    between atoms: C15_32  and  C16_34 
REMARK   14  A    between atoms: C16_34  and  C17_35 
REMARK   15  A    between atoms: C17_35  and  C18_36 
REMARK   16  A    between atoms: C18_36  and  N9_37 
ROOT
HETATM    1  C1  UNL     1      -2.520  20.654  -7.871  1.00  0.00     0.069 C 
HETATM    2  C2  UNL     1      -1.351  21.230  -7.133  1.00  0.00     0.026 A 
HETATM    3  C3  UNL     1      -0.553  20.427  -6.327  1.00  0.00     0.073 A 
HETATM    4  C4  UNL     1       0.537  20.882  -5.624  1.00  0.00     0.118 A 
HETATM    5  N1  UNL     1       1.292  20.164  -4.869  1.00  0.00    -0.376 N 
ATOM      6  H1  UNL     1       2.086  20.569  -4.374  1.00  0.00     0.161 HD
HETATM    7  N6  UNL     1       0.806  22.218  -5.762  1.00  0.00    -0.177 N 
ATOM      8  H6  UNL     1       1.600  22.624  -5.268  1.00  0.00     0.186 HD
HETATM    9  C12 UNL     1       0.038  23.004  -6.540  1.00  0.00     0.683 A 
HETATM   10  N10 UNL     1      -1.019  22.535  -7.216  1.00  0.00    -0.196 N 
ATOM     11  H10 UNL     1      -1.574  23.166  -7.794  1.00  0.00     0.184 HD
ENDROOT
BRANCH   5  12
HETATM   12  C5  UNL     1       0.962  18.733  -4.750  1.00  0.00     0.121 C 
BRANCH  12  13
HETATM   13  C6  UNL     1       2.163  17.891  -5.012  1.00  0.00     0.021 C 
BRANCH  13  14
HETATM   14  C7  UNL     1       2.257  17.190  -6.305  1.00  0.00     0.021 C 
BRANCH  14  15
HETATM   15  C8  UNL     1       2.288  18.035  -7.521  1.00  0.00     0.122 C 
BRANCH  15  16
HETATM   16  N2  UNL     1       2.534  17.323  -8.722  1.00  0.00    -0.365 N 
HETATM   17  C9  UNL     1       1.610  16.968  -9.539  1.00  0.00     0.184 C 
HETATM   18  N3  UNL     1       1.990  16.254 -10.716  1.00  0.00    -0.064 NA
HETATM   19  N4  UNL     1       0.231  17.267  -9.305  1.00  0.00    -0.363 N 
ATOM     20  H4  UNL     1      -0.345  16.650  -8.734  1.00  0.00     0.162 HD
ATOM     21  H2  UNL     1       3.498  17.078  -8.949  1.00  0.00     0.162 HD
BRANCH  19  22
HETATM   22  C10 UNL     1      -0.329  18.465  -9.898  1.00  0.00     0.149 C 
BRANCH  22  23
HETATM   23  C11 UNL     1      -1.118  18.147 -11.134  1.00  0.00     0.249 C 
BRANCH  23  24
HETATM   24  N5  UNL     1      -0.204  18.095 -12.258  1.00  0.00    -0.078 N 
ATOM     25  H53 UNL     1       0.015  19.020 -12.628  1.00  0.00     0.274 HD
ATOM     26  H52 UNL     1       0.741  17.828 -11.982  1.00  0.00     0.274 HD
ATOM     27  H51 UNL     1      -0.598  17.473 -12.963  1.00  0.00     0.274 HD
ENDBRANCH  23  24
ENDBRANCH  22  23
ENDBRANCH  19  22
ENDBRANCH  15  16
ENDBRANCH  14  15
ENDBRANCH  13  14
ENDBRANCH  12  13
ENDBRANCH   5  12
BRANCH   9  28
HETATM   28  N7  UNL     1       0.391  24.241  -6.602  1.00  0.00    -0.200 N 
ATOM     29  H7  UNL     1       1.245  24.428  -7.129  1.00  0.00     0.183 HD
BRANCH  28  30
HETATM   30  C13 UNL     1      -0.235  25.369  -6.045  1.00  0.00     0.123 C 
BRANCH  30  31
HETATM   31  C14 UNL     1      -1.105  26.148  -6.975  1.00  0.00     0.108 C 
BRANCH  31  32
HETATM   32  N8  UNL     1      -0.451  27.032  -7.853  1.00  0.00    -0.336 N 
HETATM   33  C15 UNL     1      -0.385  28.420  -7.850  1.00  0.00     0.221 C 
HETATM   34  O1  UNL     1      -0.930  29.132  -6.995  1.00  0.00    -0.273 OA
ATOM     35  H8  UNL     1       0.056  26.580  -8.614  1.00  0.00     0.168 HD
BRANCH  33  36
HETATM   36  C16 UNL     1       0.370  29.145  -8.915  1.00  0.00     0.105 C 
BRANCH  36  37
HETATM   37  C17 UNL     1      -0.219  30.423  -9.360  1.00  0.00     0.036 C 
BRANCH  37  38
HETATM   38  C18 UNL     1      -0.869  30.448 -10.695  1.00  0.00     0.230 C 
BRANCH  38  39
HETATM   39  N9  UNL     1      -2.234  30.941 -10.664  1.00  0.00    -0.079 N 
ATOM     40  H93 UNL     1      -2.260  31.916 -10.364  1.00  0.00     0.274 HD
ATOM     41  H92 UNL     1      -2.602  31.045 -11.609  1.00  0.00     0.274 HD
ATOM     42  H91 UNL     1      -2.859  30.371 -10.094  1.00  0.00     0.274 HD
ENDBRANCH  38  39
ENDBRANCH  37  38
ENDBRANCH  36  37
ENDBRANCH  33  36
ENDBRANCH  31  32
ENDBRANCH  30  31
ENDBRANCH  28  30
ENDBRANCH   9  28
TORSDOF 16
ENDMDL
MODEL 5
REMARK VINA RESULT: -6.275551094      2.983      4.394
REMARK  16 active torsions:
REMARK  status: ('A' for Active; 'I' for Inactive)
REMARK    1  A    between atoms: N1_5  and  C5_7 
REMARK    2  A    between atoms: C5_7  and  C6_8 
REMARK    3  A    between atoms: C6_8  and  C7_9 
REMARK    4  A    between atoms: C7_9  and  C8_10 
REMARK    5  A    between atoms: C8_10  and  N2_11 
REMARK       I    between atoms: C9_13  and  N4_15 
REMARK    6  A    between atoms: N4_15  and  C10_17 
REMARK    7  A    between atoms: C10_17  and  C11_18 
REMARK    8  A    between atoms: C11_18  and  N5_19 
REMARK    9  A    between atoms: C12_25  and  N7_26 
REMARK   10  A    between atoms: N7_26  and  C13_28 
REMARK   11  A    between atoms: C13_28  and  C14_29 
REMARK   12  A    between atoms: C14_29  and  N8_30 
REMARK       I    between atoms: N8_30  and  C15_32 
REMARK   13  A    between atoms: C15_32  and  C16_34 
REMARK   14  A    between atoms: C16_34  and  C17_35 
REMARK   15  A    between atoms: C17_35  and  C18_36 
REMARK   16  A    between atoms: C18_36  and  N9_37 
ROOT
HETATM    1  C1  UNL     1       1.813  22.790  -4.915  1.00  0.00     0.069 C 
HETATM    2  C2  UNL     1       0.593  22.620  -5.765  1.00  0.00     0.026 A 
HETATM    3  C3  UNL     1      -0.141  23.723  -6.186  1.00  0.00     0.073 A 
HETATM    4  C4  UNL     1      -1.267  23.647  -6.970  1.00  0.00     0.118 A 
HETATM    5  N1  UNL     1      -1.967  24.649  -7.373  1.00  0.00    -0.376 N 
ATOM      6  H1  UNL     1      -2.795  24.518  -7.954  1.00  0.00     0.161 HD
HETATM    7  N6  UNL     1      -1.646  22.379  -7.328  1.00  0.00    -0.177 N 
ATOM      8  H6  UNL     1      -2.474  22.248  -7.909  1.00  0.00     0.186 HD
HETATM    9  C12 UNL     1      -0.942  21.304  -6.925  1.00  0.00     0.683 A 
HETATM   10  N10 UNL     1       0.153  21.407  -6.161  1.00  0.00    -0.196 N 
ATOM     11  H10 UNL     1       0.657  20.566  -5.878  1.00  0.00     0.184 HD
ENDROOT
BRANCH   5  12
HETATM   12  C5  UNL     1      -1.523  25.992  -6.961  1.00  0.00     0.121 C 
BRANCH  12  13
HETATM   13  C6  UNL     1      -0.590  26.571  -7.968  1.00  0.00     0.021 C 
BRANCH  13  14
HETATM   14  C7  UNL     1       0.590  27.310  -7.484  1.00  0.00     0.021 C 
BRANCH  14  15
HETATM   15  C8  UNL     1       0.620  28.767  -7.752  1.00  0.00     0.122 C 
BRANCH  15  16
HETATM   16  N2  UNL     1      -0.398  29.502  -7.094  1.00  0.00    -0.365 N 
HETATM   17  C9  UNL     1      -1.015  30.494  -7.627  1.00  0.00     0.184 C 
HETATM   18  N3  UNL     1      -2.022  31.152  -6.859  1.00  0.00    -0.064 NA
HETATM   19  N4  UNL     1      -0.724  30.948  -8.951  1.00  0.00    -0.363 N 
ATOM     20  H4  UNL     1       0.031  31.613  -9.119  1.00  0.00     0.162 HD
ATOM     21  H2  UNL     1      -0.655  29.229  -6.146  1.00  0.00     0.162 HD
BRANCH  19  22
HETATM   22  C10 UNL     1      -1.523  30.443 -10.050  1.00  0.00     0.149 C 
BRANCH  22  23
HETATM   23  C11 UNL     1      -0.761  30.476 -11.342  1.00  0.00     0.249 C 
BRANCH  23  24
HETATM   24  N5  UNL     1      -0.276  31.826 -11.550  1.00  0.00    -0.078 N 
ATOM     25  H53 UNL     1      -0.276  32.096 -12.533  1.00  0.00     0.274 HD
ATOM     26  H52 UNL     1      -0.928  32.534 -11.212  1.00  0.00     0.274 HD
ATOM     27  H51 UNL     1       0.646  31.905 -11.121  1.00  0.00     0.274 HD
ENDBRANCH  23  24
ENDBRANCH  22  23
ENDBRANCH  19  22
ENDBRANCH  15  16
ENDBRANCH  14  15
ENDBRANCH  13  14
ENDBRANCH  12  13
ENDBRANCH   5  12
BRANCH   9  28
HETATM   28  N7  UNL     1      -1.386  20.166  -7.330  1.00  0.00    -0.200 N 
ATOM     29  H7  UNL     1      -0.915  19.776  -8.147  1.00  0.00     0.183 HD
BRANCH  28  30
HETATM   30  C13 UNL     1      -2.428  19.384  -6.803  1.00  0.00     0.123 C 
BRANCH  30  31
HETATM   31  C14 UNL     1      -2.100  18.627  -5.558  1.00  0.00     0.108 C 
BRANCH  31  32
HETATM   32  N8  UNL     1      -0.812  18.067  -5.486  1.00  0.00    -0.336 N 
HETATM   33  C15 UNL     1       0.272  18.402  -4.683  1.00  0.00     0.221 C 
HETATM   34  O1  UNL     1       0.248  19.310  -3.840  1.00  0.00    -0.273 OA
ATOM     35  H8  UNL     1      -0.647  17.290  -6.126  1.00  0.00     0.168 HD
BRANCH  33  36
HETATM   36  C16 UNL     1       1.562  17.658  -4.802  1.00  0.00     0.105 C 
BRANCH  36  37
HETATM   37  C17 UNL     1       1.850  17.090  -6.133  1.00  0.00     0.036 C 
BRANCH  37  38
HETATM   38  C18 UNL     1       2.720  17.881  -7.040  1.00  0.00     0.230 C 
BRANCH  38  39
HETATM   39  N9  UNL     1       2.426  17.677  -8.447  1.00  0.00    -0.079 N 
ATOM     40  H93 UNL     1       2.917  18.362  -9.022  1.00  0.00     0.274 HD
ATOM     41  H92 UNL     1       2.866  16.823  -8.788  1.00  0.00     0.274 HD
ATOM     42  H91 UNL     1       1.428  17.679  -8.658  1.00  0.00     0.274 HD
ENDBRANCH  38  39
ENDBRANCH  37  38
ENDBRANCH  36  37
ENDBRANCH  33  36
ENDBRANCH  31  32
ENDBRANCH  30  31
ENDBRANCH  28  30
ENDBRANCH   9  28
TORSDOF 16
ENDMDL
