MODEL 1
REMARK VINA RESULT: -6.994471474      0.000      0.000
REMARK  14 active torsions:
REMARK  status: ('A' for Active; 'I' for Inactive)
REMARK       I    between atoms: C1_4  and  N3_6 
REMARK    1  A    between atoms: N3_6  and  C2_8 
REMARK    2  A    between atoms: C2_8  and  C3_9 
REMARK    3  A    between atoms: C3_9  and  C4_10 
REMARK    4  A    between atoms: C4_10  and  C5_11 
REMARK    5  A    between atoms: C5_11  and  C6_12 
REMARK    6  A    between atoms: C6_12  and  C7_13 
REMARK       I    between atoms: C7_13  and  N4_15 
REMARK    7  A    between atoms: N4_15  and  C8_17 
REMARK    8  A    between atoms: C8_17  and  C9_18 
REMARK    9  A    between atoms: C9_18  and  N5_19 
REMARK   10  A    between atoms: C11_21  and  C12_22 
REMARK   11  A    between atoms: C12_22  and  C13_23 
REMARK   12  A    between atoms: C16_30  and  N8_31 
REMARK   13  A    between atoms: C17_35  and  C18_36 
REMARK   14  A    between atoms: C18_36  and  N9_37 
ROOT
HETATM    1  N5  UNL     1      -0.008  18.985  -6.452  1.00  0.00     0.099 N 
HETATM    2  C10 UNL     1       0.077  17.641  -7.016  1.00  0.00     0.280 C 
HETATM    3  C11 UNL     1       1.533  17.435  -7.418  1.00  0.00     0.052 C 
HETATM    4  C16 UNL     1       2.280  18.302  -6.431  1.00  0.00     0.224 C 
HETATM    5  C17 UNL     1       1.288  19.428  -6.139  1.00  0.00     0.278 C 
ENDROOT
BRANCH   1   6
HETATM    6  C9  UNL     1      -0.772  19.751  -7.385  1.00  0.00     0.292 C 
BRANCH   6   7
HETATM    7  C8  UNL     1      -1.537  20.882  -6.782  1.00  0.00     0.152 C 
BRANCH   7   8
HETATM    8  N4  UNL     1      -1.012  22.174  -7.296  1.00  0.00    -0.359 N 
HETATM    9  C7  UNL     1      -0.410  23.022  -6.375  1.00  0.00     0.217 C 
HETATM   10  O1  UNL     1      -0.292  22.762  -5.181  1.00  0.00    -0.274 OA
ATOM     11  H4  UNL     1      -1.091  22.427  -8.280  1.00  0.00     0.162 HD
BRANCH   9  12
HETATM   12  C6  UNL     1       0.136  24.351  -6.878  1.00  0.00     0.103 C 
BRANCH  12  13
HETATM   13  C5  UNL     1      -0.908  25.076  -7.636  1.00  0.00     0.009 C 
BRANCH  13  14
HETATM   14  C4  UNL     1      -0.958  26.526  -7.483  1.00  0.00     0.002 C 
BRANCH  14  15
HETATM   15  C3  UNL     1       0.190  27.422  -7.605  1.00  0.00     0.020 C 
BRANCH  15  16
HETATM   16  C2  UNL     1       0.235  28.334  -8.776  1.00  0.00     0.122 C 
BRANCH  16  17
HETATM   17  N3  UNL     1       0.225  29.718  -8.346  1.00  0.00    -0.365 N 
HETATM   18  C1  UNL     1      -0.985  30.259  -7.802  1.00  0.00     0.181 C 
HETATM   19  N1  UNL     1      -1.945  30.539  -8.652  1.00  0.00    -0.374 N 
HETATM   20  N2  UNL     1      -1.212  30.516  -6.438  1.00  0.00    -0.064 NA
ATOM     21  H12 UNL     1      -2.806  30.924  -8.264  1.00  0.00     0.158 HD
ATOM     22  H11 UNL     1      -1.779  30.352  -9.641  1.00  0.00     0.158 HD
ATOM     23  H3  UNL     1       1.062  30.294  -8.428  1.00  0.00     0.162 HD
ENDBRANCH  16  17
ENDBRANCH  15  16
ENDBRANCH  14  15
ENDBRANCH  13  14
ENDBRANCH  12  13
ENDBRANCH   9  12
ENDBRANCH   7   8
ENDBRANCH   6   7
ENDBRANCH   1   6
BRANCH   5  24
HETATM   24  C18 UNL     1       1.517  19.755  -4.662  1.00  0.00     0.267 C 
BRANCH  24  25
HETATM   25  N9  UNL     1       1.949  21.105  -4.427  1.00  0.00    -0.077 N 
ATOM     26  H93 UNL     1       2.914  21.232  -4.733  1.00  0.00     0.274 HD
ATOM     27  H92 UNL     1       1.481  21.748  -5.066  1.00  0.00     0.274 HD
ATOM     28  H91 UNL     1       1.836  21.411  -3.461  1.00  0.00     0.274 HD
ENDBRANCH  24  25
ENDBRANCH   5  24
BRANCH   3  29
HETATM   29  C12 UNL     1       1.777  17.839  -8.838  1.00  0.00     0.067 C 
BRANCH  29  30
HETATM   30  C13 UNL     1       1.987  16.613  -9.671  1.00  0.00     0.026 A 
HETATM   31  C14 UNL     1       2.198  15.309  -9.306  1.00  0.00     0.114 A 
HETATM   32  N6  UNL     1       2.350  14.537 -10.424  1.00  0.00    -0.360 N 
HETATM   33  C15 UNL     1       2.233  15.358 -11.475  1.00  0.00     0.180 A 
ATOM     34  H6  UNL     1       2.519  13.531 -10.452  1.00  0.00     0.166 HD
HETATM   35  N7  UNL     1       2.016  16.607 -11.044  1.00  0.00    -0.355 N 
ATOM     36  H7  UNL     1       1.891  17.425 -11.641  1.00  0.00     0.166 HD
ENDBRANCH  29  30
ENDBRANCH   3  29
BRANCH   4  37
HETATM   37  N8  UNL     1       2.420  17.497  -5.213  1.00  0.00    -0.072 N 
ATOM     38  H83 UNL     1       1.618  16.895  -5.028  1.00  0.00     0.274 HD
ATOM     39  H82 UNL     1       3.115  16.754  -5.293  1.00  0.00     0.274 HD
ATOM     40  H81 UNL     1       2.616  18.158  -4.462  1.00  0.00     0.274 HD
ENDBRANCH   4  37
TORSDOF 14
ENDMDL
MODEL 2
REMARK VINA RESULT: -6.979583103      1.209      1.612
REMARK  14 active torsions:
REMARK  status: ('A' for Active; 'I' for Inactive)
REMARK       I    between atoms: C1_4  and  N3_6 
REMARK    1  A    between atoms: N3_6  and  C2_8 
REMARK    2  A    between atoms: C2_8  and  C3_9 
REMARK    3  A    between atoms: C3_9  and  C4_10 
REMARK    4  A    between atoms: C4_10  and  C5_11 
REMARK    5  A    between atoms: C5_11  and  C6_12 
REMARK    6  A    between atoms: C6_12  and  C7_13 
REMARK       I    between atoms: C7_13  and  N4_15 
REMARK    7  A    between atoms: N4_15  and  C8_17 
REMARK    8  A    between atoms: C8_17  and  C9_18 
REMARK    9  A    between atoms: C9_18  and  N5_19 
REMARK   10  A    between atoms: C11_21  and  C12_22 
REMARK   11  A    between atoms: C12_22  and  C13_23 
REMARK   12  A    between atoms: C16_30  and  N8_31 
REMARK   13  A    between atoms: C17_35  and  C18_36 
REMARK   14  A    between atoms: C18_36  and  N9_37 
ROOT
HETATM    1  N5  UNL     1      -0.242  20.434  -5.755  1.00  0.00     0.099 N 
HETATM    2  C10 UNL     1      -1.063  19.263  -6.055  1.00  0.00     0.280 C 
HETATM    3  C11 UNL     1      -0.169  18.299  -6.829  1.00  0.00     0.052 C 
HETATM    4  C16 UNL     1       1.208  18.614  -6.290  1.00  0.00     0.224 C 
HETATM    5  C17 UNL     1       1.109  20.097  -5.933  1.00  0.00     0.278 C 
ENDROOT
BRANCH   1   6
HETATM    6  C9  UNL     1      -0.779  21.498  -6.543  1.00  0.00     0.292 C 
BRANCH   6   7
HETATM    7  C8  UNL     1       0.034  22.749  -6.531  1.00  0.00     0.152 C 
BRANCH   7   8
HETATM    8  N4  UNL     1      -0.806  23.897  -6.965  1.00  0.00    -0.359 N 
HETATM    9  C7  UNL     1      -1.051  24.890  -6.026  1.00  0.00     0.217 C 
HETATM   10  O1  UNL     1      -0.618  24.867  -4.878  1.00  0.00    -0.274 OA
ATOM     11  H4  UNL     1      -1.184  23.952  -7.911  1.00  0.00     0.162 HD
BRANCH   9  12
HETATM   12  C6  UNL     1      -1.907  26.076  -6.448  1.00  0.00     0.103 C 
BRANCH  12  13
HETATM   13  C5  UNL     1      -1.204  26.870  -7.481  1.00  0.00     0.009 C 
BRANCH  13  14
HETATM   14  C4  UNL     1       0.187  27.222  -7.220  1.00  0.00     0.002 C 
BRANCH  14  15
HETATM   15  C3  UNL     1       0.907  28.323  -7.857  1.00  0.00     0.020 C 
BRANCH  15  16
HETATM   16  C2  UNL     1       0.222  29.057  -8.951  1.00  0.00     0.122 C 
BRANCH  16  17
HETATM   17  N3  UNL     1      -0.106  30.405  -8.534  1.00  0.00    -0.365 N 
HETATM   18  C1  UNL     1      -1.295  30.617  -7.764  1.00  0.00     0.181 C 
HETATM   19  N1  UNL     1      -2.438  30.561  -8.407  1.00  0.00    -0.374 N 
HETATM   20  N2  UNL     1      -1.326  30.883  -6.383  1.00  0.00    -0.064 NA
ATOM     21  H12 UNL     1      -3.284  30.712  -7.859  1.00  0.00     0.158 HD
ATOM     22  H11 UNL     1      -2.415  30.369  -9.409  1.00  0.00     0.158 HD
ATOM     23  H3  UNL     1       0.498  31.188  -8.783  1.00  0.00     0.162 HD
ENDBRANCH  16  17
ENDBRANCH  15  16
ENDBRANCH  14  15
ENDBRANCH  13  14
ENDBRANCH  12  13
ENDBRANCH   9  12
ENDBRANCH   7   8
ENDBRANCH   6   7
ENDBRANCH   1   6
BRANCH   5  24
HETATM   24  C18 UNL     1       1.978  20.237  -4.680  1.00  0.00     0.267 C 
BRANCH  24  25
HETATM   25  N9  UNL     1       1.705  21.422  -3.915  1.00  0.00    -0.077 N 
ATOM     26  H93 UNL     1       0.913  21.930  -4.310  1.00  0.00     0.274 HD
ATOM     27  H92 UNL     1       1.316  21.180  -3.004  1.00  0.00     0.274 HD
ATOM     28  H91 UNL     1       2.511  22.038  -3.809  1.00  0.00     0.274 HD
ENDBRANCH  24  25
ENDBRANCH   5  24
BRANCH   3  29
HETATM   29  C12 UNL     1      -0.272  18.514  -8.305  1.00  0.00     0.067 C 
BRANCH  29  30
HETATM   30  C13 UNL     1       0.474  17.427  -9.016  1.00  0.00     0.026 A 
HETATM   31  C14 UNL     1       0.372  16.064  -8.921  1.00  0.00     0.114 A 
HETATM   32  N6  UNL     1       1.276  15.475  -9.761  1.00  0.00    -0.360 N 
HETATM   33  C15 UNL     1       1.932  16.469 -10.373  1.00  0.00     0.180 A 
ATOM     34  H6  UNL     1       1.421  14.475  -9.896  1.00  0.00     0.166 HD
HETATM   35  N7  UNL     1       1.466  17.647  -9.939  1.00  0.00    -0.355 N 
ATOM     36  H7  UNL     1       1.796  18.563 -10.246  1.00  0.00     0.166 HD
ENDBRANCH  29  30
ENDBRANCH   3  29
BRANCH   4  37
HETATM   37  N8  UNL     1       1.336  17.855  -5.042  1.00  0.00    -0.072 N 
ATOM     38  H83 UNL     1       1.437  16.850  -5.184  1.00  0.00     0.274 HD
ATOM     39  H82 UNL     1       2.226  18.002  -4.565  1.00  0.00     0.274 HD
ATOM     40  H81 UNL     1       0.525  18.107  -4.478  1.00  0.00     0.274 HD
ENDBRANCH   4  37
TORSDOF 14
ENDMDL
MODEL 3
REMARK VINA RESULT: -6.860819539      2.144      2.760
REMARK  14 active torsions:
REMARK  status: ('A' for Active; 'I' for Inactive)
REMARK       I    between atoms: C1_4  and  N3_6 
REMARK    1  A    between atoms: N3_6  and  C2_8 
REMARK    2  A    between atoms: C2_8  and  C3_9 
REMARK    3  A    between atoms: C3_9  and  C4_10 
REMARK    4  A    between atoms: C4_10  and  C5_11 
REMARK    5  A    between atoms: C5_11  and  C6_12 
REMARK    6  A    between atoms: C6_12  and  C7_13 
REMARK       I    between atoms: C7_13  and  N4_15 
REMARK    7  A    between atoms: N4_15  and  C8_17 
REMARK    8  A    between atoms: C8_17  and  C9_18 
REMARK    9  A    between atoms: C9_18  and  N5_19 
REMARK   10  A    between atoms: C11_21  and  C12_22 
REMARK   11  A    between atoms: C12_22  and  C13_23 
REMARK   12  A    between atoms: C16_30  and  N8_31 
REMARK   13  A    between atoms: C17_35  and  C18_36 
REMARK   14  A    between atoms: C18_36  and  N9_37 
ROOT
HETATM    1  N5  UNL     1      -0.354  21.129  -5.929  1.00  0.00     0.099 N 
HETATM    2  C10 UNL     1      -0.216  19.784  -5.376  1.00  0.00     0.280 C 
HETATM    3  C11 UNL     1       1.281  19.526  -5.245  1.00  0.00     0.052 C 
HETATM    4  C16 UNL     1       1.842  20.911  -5.018  1.00  0.00     0.224 C 
HETATM    5  C17 UNL     1       0.865  21.809  -5.778  1.00  0.00     0.278 C 
ENDROOT
BRANCH   1   6
HETATM    6  C9  UNL     1      -0.867  20.955  -7.251  1.00  0.00     0.292 C 
BRANCH   6   7
HETATM    7  C8  UNL     1      -2.021  21.838  -7.590  1.00  0.00     0.152 C 
BRANCH   7   8
HETATM    8  N4  UNL     1      -1.522  23.157  -8.063  1.00  0.00    -0.359 N 
HETATM    9  C7  UNL     1      -1.821  24.263  -7.277  1.00  0.00     0.217 C 
HETATM   10  O1  UNL     1      -2.465  24.206  -6.233  1.00  0.00    -0.274 OA
ATOM     11  H4  UNL     1      -0.985  23.245  -8.924  1.00  0.00     0.162 HD
BRANCH   9  12
HETATM   12  C6  UNL     1      -1.321  25.624  -7.740  1.00  0.00     0.103 C 
BRANCH  12  13
HETATM   13  C5  UNL     1       0.094  25.807  -7.345  1.00  0.00     0.009 C 
BRANCH  13  14
HETATM   14  C4  UNL     1       0.632  27.162  -7.399  1.00  0.00     0.002 C 
BRANCH  14  15
HETATM   15  C3  UNL     1      -0.168  28.384  -7.356  1.00  0.00     0.020 C 
BRANCH  15  16
HETATM   16  C2  UNL     1      -0.238  29.209  -8.588  1.00  0.00     0.122 C 
BRANCH  16  17
HETATM   17  N3  UNL     1      -0.591  30.578  -8.267  1.00  0.00    -0.365 N 
HETATM   18  C1  UNL     1      -1.949  30.875  -7.922  1.00  0.00     0.181 C 
HETATM   19  N1  UNL     1      -2.818  30.905  -8.905  1.00  0.00    -0.374 N 
HETATM   20  N2  UNL     1      -2.411  31.141  -6.621  1.00  0.00    -0.064 NA
ATOM     21  H12 UNL     1      -3.785  31.117  -8.659  1.00  0.00     0.158 HD
ATOM     22  H11 UNL     1      -2.482  30.712  -9.848  1.00  0.00     0.158 HD
ATOM     23  H3  UNL     1       0.114  31.314  -8.286  1.00  0.00     0.162 HD
ENDBRANCH  16  17
ENDBRANCH  15  16
ENDBRANCH  14  15
ENDBRANCH  13  14
ENDBRANCH  12  13
ENDBRANCH   9  12
ENDBRANCH   7   8
ENDBRANCH   6   7
ENDBRANCH   1   6
BRANCH   5  24
HETATM   24  C18 UNL     1       0.792  23.081  -4.931  1.00  0.00     0.267 C 
BRANCH  24  25
HETATM   25  N9  UNL     1       2.040  23.787  -4.836  1.00  0.00    -0.077 N 
ATOM     26  H93 UNL     1       2.776  23.171  -4.492  1.00  0.00     0.274 HD
ATOM     27  H92 UNL     1       2.408  23.992  -5.765  1.00  0.00     0.274 HD
ATOM     28  H91 UNL     1       1.990  24.636  -4.274  1.00  0.00     0.274 HD
ENDBRANCH  24  25
ENDBRANCH   5  24
BRANCH   3  29
HETATM   29  C12 UNL     1       1.839  18.873  -6.470  1.00  0.00     0.067 C 
BRANCH  29  30
HETATM   30  C13 UNL     1       2.053  17.416  -6.200  1.00  0.00     0.026 A 
HETATM   31  C14 UNL     1       2.732  16.785  -5.191  1.00  0.00     0.114 A 
HETATM   32  N6  UNL     1       2.666  15.431  -5.368  1.00  0.00    -0.360 N 
HETATM   33  C15 UNL     1       1.949  15.225  -6.479  1.00  0.00     0.180 A 
ATOM     34  H6  UNL     1       3.081  14.717  -4.769  1.00  0.00     0.166 HD
HETATM   35  N7  UNL     1       1.572  16.404  -6.993  1.00  0.00    -0.355 N 
ATOM     36  H7  UNL     1       1.017  16.529  -7.839  1.00  0.00     0.166 HD
ENDBRANCH  29  30
ENDBRANCH   3  29
BRANCH   4  37
HETATM   37  N8  UNL     1       1.684  21.180  -3.585  1.00  0.00    -0.072 N 
ATOM     38  H83 UNL     1       1.099  20.497  -3.105  1.00  0.00     0.274 HD
ATOM     39  H82 UNL     1       2.533  21.018  -3.044  1.00  0.00     0.274 HD
ATOM     40  H81 UNL     1       1.334  22.136  -3.518  1.00  0.00     0.274 HD
ENDBRANCH   4  37
TORSDOF 14
ENDMDL
MODEL 4
REMARK VINA RESULT: -6.826920133      2.278      3.429
REMARK  14 active torsions:
REMARK  status: ('A' for Active; 'I' for Inactive)
REMARK       I    between atoms: C1_4  and  N3_6 
REMARK    1  A    between atoms: N3_6  and  C2_8 
REMARK    2  A    between atoms: C2_8  and  C3_9 
REMARK    3  A    between atoms: C3_9  and  C4_10 
REMARK    4  A    between atoms: C4_10  and  C5_11 
REMARK    5  A    between atoms: C5_11  and  C6_12 
REMARK    6  A    between atoms: C6_12  and  C7_13 
REMARK       I    between atoms: C7_13  and  N4_15 
REMARK    7  A    between atoms: N4_15  and  C8_17 
REMARK    8  A    between atoms: C8_17  and  C9_18 
REMARK    9  A    between atoms: C9_18  and  N5_19 
REMARK   10  A    between atoms: C11_21  and  C12_22 
REMARK   11  A    between atoms: C12_22  and  C13_23 
REMARK   12  A    between atoms: C16_30  and  N8_31 
REMARK   13  A    between atoms: C17_35  and  C18_36 
REMARK   14  A    between atoms: C18_36  and  N9_37 
ROOT
HETATM    1  N5  UNL     1       1.077  20.237  -6.019  1.00  0.00     0.099 N 
HETATM    2  C10 UNL     1       2.199  19.319  -6.193  1.00  0.00     0.280 C 
HETATM    3  C11 UNL     1       1.637  17.914  -6.000  1.00  0.00     0.052 C 
HETATM    4  C16 UNL     1       0.204  18.059  -6.461  1.00  0.00     0.224 C 
HETATM    5  C17 UNL     1      -0.122  19.513  -6.122  1.00  0.00     0.278 C 
ENDROOT
BRANCH   1   6
HETATM    6  C9  UNL     1       1.334  20.939  -4.801  1.00  0.00     0.292 C 
BRANCH   6   7
HETATM    7  C8  UNL     1       1.590  22.399  -4.968  1.00  0.00     0.152 C 
BRANCH   7   8
HETATM    8  N4  UNL     1       0.769  22.928  -6.089  1.00  0.00    -0.359 N 
HETATM    9  C7  UNL     1      -0.358  23.667  -5.754  1.00  0.00     0.217 C 
HETATM   10  O1  UNL     1      -0.703  23.901  -4.598  1.00  0.00    -0.274 OA
ATOM     11  H4  UNL     1       1.022  22.756  -7.062  1.00  0.00     0.162 HD
BRANCH   9  12
HETATM   12  C6  UNL     1      -1.213  24.220  -6.885  1.00  0.00     0.103 C 
BRANCH  12  13
HETATM   13  C5  UNL     1      -0.467  25.262  -7.625  1.00  0.00     0.009 C 
BRANCH  13  14
HETATM   14  C4  UNL     1      -0.153  26.494  -6.909  1.00  0.00     0.002 C 
BRANCH  14  15
HETATM   15  C3  UNL     1       0.689  27.571  -7.425  1.00  0.00     0.020 C 
BRANCH  15  16
HETATM   16  C2  UNL     1       0.224  28.295  -8.635  1.00  0.00     0.122 C 
BRANCH  16  17
HETATM   17  N3  UNL     1       0.169  29.721  -8.387  1.00  0.00    -0.365 N 
HETATM   18  C1  UNL     1      -1.004  30.268  -7.773  1.00  0.00     0.181 C 
HETATM   19  N1  UNL     1      -2.072  30.379  -8.526  1.00  0.00    -0.374 N 
HETATM   20  N2  UNL     1      -1.090  30.695  -6.435  1.00  0.00    -0.064 NA
ATOM     21  H12 UNL     1      -2.907  30.769  -8.088  1.00  0.00     0.158 HD
ATOM     22  H11 UNL     1      -2.010  30.070  -9.496  1.00  0.00     0.158 HD
ATOM     23  H3  UNL     1       0.950  30.324  -8.645  1.00  0.00     0.162 HD
ENDBRANCH  16  17
ENDBRANCH  15  16
ENDBRANCH  14  15
ENDBRANCH  13  14
ENDBRANCH  12  13
ENDBRANCH   9  12
ENDBRANCH   7   8
ENDBRANCH   6   7
ENDBRANCH   1   6
BRANCH   5  24
HETATM   24  C18 UNL     1      -1.048  19.961  -7.255  1.00  0.00     0.267 C 
BRANCH  24  25
HETATM   25  N9  UNL     1      -2.432  20.038  -6.877  1.00  0.00    -0.077 N 
ATOM     26  H93 UNL     1      -2.526  20.405  -5.929  1.00  0.00     0.274 HD
ATOM     27  H92 UNL     1      -2.906  20.779  -7.395  1.00  0.00     0.274 HD
ATOM     28  H91 UNL     1      -2.934  19.156  -6.972  1.00  0.00     0.274 HD
ENDBRANCH  24  25
ENDBRANCH   5  24
BRANCH   3  29
HETATM   29  C12 UNL     1       1.740  17.468  -4.576  1.00  0.00     0.067 C 
BRANCH  29  30
HETATM   30  C13 UNL     1       2.664  16.292  -4.493  1.00  0.00     0.026 A 
HETATM   31  C14 UNL     1       2.678  15.115  -5.194  1.00  0.00     0.114 A 
HETATM   32  N6  UNL     1       3.711  14.332  -4.759  1.00  0.00    -0.360 N 
HETATM   33  C15 UNL     1       4.334  15.022  -3.794  1.00  0.00     0.180 A 
ATOM     34  H6  UNL     1       3.960  13.405  -5.102  1.00  0.00     0.166 HD
HETATM   35  N7  UNL     1       3.720  16.200  -3.620  1.00  0.00    -0.355 N 
ATOM     36  H7  UNL     1       3.994  16.915  -2.946  1.00  0.00     0.166 HD
ENDBRANCH  29  30
ENDBRANCH   3  29
BRANCH   4  37
HETATM   37  N8  UNL     1       0.237  17.931  -7.922  1.00  0.00    -0.072 N 
ATOM     38  H83 UNL     1       1.180  17.897  -8.308  1.00  0.00     0.274 HD
ATOM     39  H82 UNL     1      -0.066  17.016  -8.258  1.00  0.00     0.274 HD
ATOM     40  H81 UNL     1      -0.324  18.703  -8.282  1.00  0.00     0.274 HD
ENDBRANCH   4  37
TORSDOF 14
ENDMDL
MODEL 5
REMARK VINA RESULT: -6.654325688      2.293      3.861
REMARK  14 active torsions:
REMARK  status: ('A' for Active; 'I' for Inactive)
REMARK       I    between atoms: C1_4  and  N3_6 
REMARK    1  A    between atoms: N3_6  and  C2_8 
REMARK    2  A    between atoms: C2_8  and  C3_9 
REMARK    3  A    between atoms: C3_9  and  C4_10 
REMARK    4  A    between atoms: C4_10  and  C5_11 
REMARK    5  A    between atoms: C5_11  and  C6_12 
REMARK    6  A    between atoms: C6_12  and  C7_13 
REMARK       I    between atoms: C7_13  and  N4_15 
REMARK    7  A    between atoms: N4_15  and  C8_17 
REMARK    8  A    between atoms: C8_17  and  C9_18 
REMARK    9  A    between atoms: C9_18  and  N5_19 
REMARK   10  A    between atoms: C11_21  and  C12_22 
REMARK   11  A    between atoms: C12_22  and  C13_23 
REMARK   12  A    between atoms: C16_30  and  N8_31 
REMARK   13  A    between atoms: C17_35  and  C18_36 
REMARK   14  A    between atoms: C18_36  and  N9_37 
ROOT
HETATM    1  N5  UNL     1       1.315  19.402  -5.456  1.00  0.00     0.099 N 
HETATM    2  C10 UNL     1      -0.051  19.726  -5.052  1.00  0.00     0.280 C 
HETATM    3  C11 UNL     1      -0.929  19.481  -6.274  1.00  0.00     0.052 C 
HETATM    4  C16 UNL     1      -0.189  18.383  -7.005  1.00  0.00     0.224 C 
HETATM    5  C17 UNL     1       1.271  18.648  -6.640  1.00  0.00     0.278 C 
ENDROOT
BRANCH   1   6
HETATM    6  C9  UNL     1       2.019  20.645  -5.478  1.00  0.00     0.292 C 
BRANCH   6   7
HETATM    7  C8  UNL     1       1.362  21.745  -4.714  1.00  0.00     0.152 C 
BRANCH   7   8
HETATM    8  N4  UNL     1       1.461  23.016  -5.477  1.00  0.00    -0.359 N 
HETATM    9  C7  UNL     1       0.421  23.926  -5.327  1.00  0.00     0.217 C 
HETATM   10  O1  UNL     1      -0.556  23.734  -4.609  1.00  0.00    -0.274 OA
ATOM     11  H4  UNL     1       2.256  23.213  -6.084  1.00  0.00     0.162 HD
BRANCH   9  12
HETATM   12  C6  UNL     1       0.501  25.235  -6.098  1.00  0.00     0.103 C 
BRANCH  12  13
HETATM   13  C5  UNL     1      -0.463  25.225  -7.222  1.00  0.00     0.009 C 
BRANCH  13  14
HETATM   14  C4  UNL     1      -0.620  26.462  -7.979  1.00  0.00     0.002 C 
BRANCH  14  15
HETATM   15  C3  UNL     1       0.283  27.608  -7.908  1.00  0.00     0.020 C 
BRANCH  15  16
HETATM   16  C2  UNL     1       0.269  28.570  -9.039  1.00  0.00     0.122 C 
BRANCH  16  17
HETATM   17  N3  UNL     1       0.195  29.932  -8.549  1.00  0.00    -0.365 N 
HETATM   18  C1  UNL     1      -0.974  30.342  -7.829  1.00  0.00     0.181 C 
HETATM   19  N1  UNL     1      -2.059  30.559  -8.533  1.00  0.00    -0.374 N 
HETATM   20  N2  UNL     1      -1.039  30.531  -6.437  1.00  0.00    -0.064 NA
ATOM     21  H12 UNL     1      -2.891  30.850  -8.020  1.00  0.00     0.158 HD
ATOM     22  H11 UNL     1      -2.012  30.422  -9.543  1.00  0.00     0.158 HD
ATOM     23  H3  UNL     1       0.960  30.586  -8.713  1.00  0.00     0.162 HD
ENDBRANCH  16  17
ENDBRANCH  15  16
ENDBRANCH  14  15
ENDBRANCH  13  14
ENDBRANCH  12  13
ENDBRANCH   9  12
ENDBRANCH   7   8
ENDBRANCH   6   7
ENDBRANCH   1   6
BRANCH   5  24
HETATM   24  C18 UNL     1       1.889  17.251  -6.536  1.00  0.00     0.267 C 
BRANCH  24  25
HETATM   25  N9  UNL     1       2.749  17.081  -5.398  1.00  0.00    -0.077 N 
ATOM     26  H93 UNL     1       2.224  17.195  -4.531  1.00  0.00     0.274 HD
ATOM     27  H92 UNL     1       3.028  16.104  -5.302  1.00  0.00     0.274 HD
ATOM     28  H91 UNL     1       3.567  17.689  -5.406  1.00  0.00     0.274 HD
ENDBRANCH  24  25
ENDBRANCH   5  24
BRANCH   3  29
HETATM   29  C12 UNL     1      -1.084  20.718  -7.101  1.00  0.00     0.067 C 
BRANCH  29  30
HETATM   30  C13 UNL     1      -2.260  20.558  -8.014  1.00  0.00     0.026 A 
HETATM   31  C14 UNL     1      -2.457  20.987  -9.301  1.00  0.00     0.114 A 
HETATM   32  N6  UNL     1      -3.702  20.614  -9.724  1.00  0.00    -0.360 N 
HETATM   33  C15 UNL     1      -4.272  19.958  -8.706  1.00  0.00     0.180 A 
ATOM     34  H6  UNL     1      -4.116  20.799 -10.638  1.00  0.00     0.166 HD
HETATM   35  N7  UNL     1      -3.423  19.914  -7.671  1.00  0.00    -0.355 N 
ATOM     36  H7  UNL     1      -3.611  19.472  -6.771  1.00  0.00     0.166 HD
ENDBRANCH  29  30
ENDBRANCH   3  29
BRANCH   4  37
HETATM   37  N8  UNL     1      -0.596  17.128  -6.364  1.00  0.00    -0.072 N 
ATOM     38  H83 UNL     1      -0.748  17.214  -5.359  1.00  0.00     0.274 HD
ATOM     39  H82 UNL     1      -1.542  16.834  -6.606  1.00  0.00     0.274 HD
ATOM     40  H81 UNL     1       0.119  16.444  -6.611  1.00  0.00     0.274 HD
ENDBRANCH   4  37
TORSDOF 14
ENDMDL
