MODEL 1
REMARK VINA RESULT: -7.464304726      0.000      0.000
REMARK  17 active torsions:
REMARK  status: ('A' for Active; 'I' for Inactive)
REMARK    1  A    between atoms: C2_2  and  C3_3 
REMARK    2  A    between atoms: C3_3  and  C4_4 
REMARK    3  A    between atoms: C4_4  and  O1_5 
REMARK    4  A    between atoms: O1_5  and  C5_6 
REMARK    5  A    between atoms: C7_8  and  N1_9 
REMARK    6  A    between atoms: N1_9  and  C8_11 
REMARK    7  A    between atoms: C8_11  and  C9_12 
REMARK    8  A    between atoms: C9_12  and  C10_13 
REMARK    9  A    between atoms: C10_13  and  N2_14 
REMARK   10  A    between atoms: C12_21  and  N6_22 
REMARK   11  A    between atoms: N6_22  and  C13_24 
REMARK   12  A    between atoms: C13_24  and  C14_28 
REMARK   13  A    between atoms: C14_28  and  N8_29 
REMARK   14  A    between atoms: C14_28  and  C15_33 
REMARK   15  A    between atoms: C15_33  and  C16_34 
REMARK   16  A    between atoms: C16_34  and  C17_35 
REMARK   17  A    between atoms: C17_35  and  N9_36 
ROOT
HETATM    1  C5  UNL     1      -1.205  23.608  -7.584  1.00  0.00     0.161 A 
HETATM    2  C6  UNL     1      -1.304  24.982  -7.620  1.00  0.00     0.105 A 
HETATM    3  C7  UNL     1      -0.378  25.740  -6.937  1.00  0.00     0.120 A 
HETATM    4  N5  UNL     1       0.586  25.091  -6.262  1.00  0.00    -0.177 N 
ATOM      5  H5  UNL     1       1.271  25.652  -5.755  1.00  0.00     0.186 HD
HETATM    6  C12 UNL     1       0.707  23.753  -6.210  1.00  0.00     0.687 A 
HETATM    7  N10 UNL     1      -0.217  23.033  -6.891  1.00  0.00    -0.170 N 
ATOM      8  H10 UNL     1      -0.157  22.016  -6.873  1.00  0.00     0.186 HD
ENDROOT
BRANCH   6   9
HETATM    9  N6  UNL     1       1.603  23.113  -5.585  1.00  0.00    -0.179 N 
ATOM     10  H6  UNL     1       2.503  23.573  -5.454  1.00  0.00     0.185 HD
BRANCH   9  11
HETATM   11  C13 UNL     1       1.456  21.808  -5.051  1.00  0.00     0.121 C 
HETATM   12  N7  UNL     1       1.670  21.694  -3.788  1.00  0.00    -0.387 N 
ATOM     13  H72 UNL     1       1.907  22.519  -3.237  1.00  0.00     0.157 HD
ATOM     14  H71 UNL     1       1.565  20.755  -3.404  1.00  0.00     0.157 HD
BRANCH  11  15
HETATM   15  C14 UNL     1       1.117  20.625  -5.840  1.00  0.00     0.250 C 
BRANCH  15  16
HETATM   16  N8  UNL     1      -0.130  20.008  -5.373  1.00  0.00    -0.068 N 
ATOM     17  H83 UNL     1      -0.658  20.641  -4.771  1.00  0.00     0.275 HD
ATOM     18  H82 UNL     1      -0.807  19.912  -6.130  1.00  0.00     0.275 HD
ATOM     19  H81 UNL     1       0.045  19.114  -4.913  1.00  0.00     0.275 HD
ENDBRANCH  15  16
BRANCH  15  20
HETATM   20  C15 UNL     1       2.144  19.525  -5.762  1.00  0.00     0.042 C 
BRANCH  20  21
HETATM   21  C16 UNL     1       1.841  18.394  -6.688  1.00  0.00     0.030 C 
BRANCH  21  22
HETATM   22  C17 UNL     1       3.017  18.131  -7.642  1.00  0.00     0.230 C 
BRANCH  22  23
HETATM   23  N9  UNL     1       2.428  17.728  -8.908  1.00  0.00    -0.079 N 
ATOM     24  H93 UNL     1       1.468  17.394  -8.821  1.00  0.00     0.274 HD
ATOM     25  H92 UNL     1       2.232  18.510  -9.532  1.00  0.00     0.274 HD
ATOM     26  H91 UNL     1       3.063  17.037  -9.309  1.00  0.00     0.274 HD
ENDBRANCH  22  23
ENDBRANCH  21  22
ENDBRANCH  20  21
ENDBRANCH  15  20
ENDBRANCH  11  15
ENDBRANCH   9  11
ENDBRANCH   6   9
BRANCH   3  27
HETATM   27  N1  UNL     1      -0.462  27.016  -6.964  1.00  0.00    -0.376 N 
ATOM     28  H1  UNL     1      -1.289  27.489  -6.597  1.00  0.00     0.161 HD
BRANCH  27  29
HETATM   29  C8  UNL     1       0.636  27.777  -7.523  1.00  0.00     0.123 C 
BRANCH  29  30
HETATM   30  C9  UNL     1       0.183  28.183  -8.937  1.00  0.00     0.039 C 
BRANCH  30  31
HETATM   31  C10 UNL     1       0.109  29.675  -8.929  1.00  0.00     0.123 C 
BRANCH  31  32
HETATM   32  N2  UNL     1      -1.093  30.249  -8.453  1.00  0.00    -0.367 N 
HETATM   33  C11 UNL     1      -1.389  30.813  -7.374  1.00  0.00     0.196 C 
HETATM   34  N3  UNL     1      -0.475  31.001  -6.312  1.00  0.00    -0.067 NA
HETATM   35  N4  UNL     1      -2.714  31.298  -7.188  1.00  0.00    -0.067 NA
ATOM     36  H2  UNL     1      -1.866  30.194  -9.116  1.00  0.00     0.161 HD
ENDBRANCH  31  32
ENDBRANCH  30  31
ENDBRANCH  29  30
ENDBRANCH  27  29
ENDBRANCH   3  27
BRANCH   1  37
HETATM   37  O1  UNL     1      -2.127  22.833  -8.266  1.00  0.00    -0.335 OA
BRANCH  37  38
HETATM   38  C4  UNL     1      -2.134  21.416  -8.166  1.00  0.00     0.177 C 
BRANCH  38  39
HETATM   39  C3  UNL     1      -2.512  20.769  -9.469  1.00  0.00     0.026 C 
BRANCH  39  40
HETATM   40  C2  UNL     1      -2.838  21.914 -10.440  1.00  0.00    -0.002 C 
HETATM   41  C1  UNL     1      -4.074  21.508 -11.200  1.00  0.00     0.005 C 
ENDBRANCH  39  40
ENDBRANCH  38  39
ENDBRANCH  37  38
ENDBRANCH   1  37
TORSDOF 17
ENDMDL
MODEL 2
REMARK VINA RESULT: -7.383182337      0.681      1.098
REMARK  17 active torsions:
REMARK  status: ('A' for Active; 'I' for Inactive)
REMARK    1  A    between atoms: C2_2  and  C3_3 
REMARK    2  A    between atoms: C3_3  and  C4_4 
REMARK    3  A    between atoms: C4_4  and  O1_5 
REMARK    4  A    between atoms: O1_5  and  C5_6 
REMARK    5  A    between atoms: C7_8  and  N1_9 
REMARK    6  A    between atoms: N1_9  and  C8_11 
REMARK    7  A    between atoms: C8_11  and  C9_12 
REMARK    8  A    between atoms: C9_12  and  C10_13 
REMARK    9  A    between atoms: C10_13  and  N2_14 
REMARK   10  A    between atoms: C12_21  and  N6_22 
REMARK   11  A    between atoms: N6_22  and  C13_24 
REMARK   12  A    between atoms: C13_24  and  C14_28 
REMARK   13  A    between atoms: C14_28  and  N8_29 
REMARK   14  A    between atoms: C14_28  and  C15_33 
REMARK   15  A    between atoms: C15_33  and  C16_34 
REMARK   16  A    between atoms: C16_34  and  C17_35 
REMARK   17  A    between atoms: C17_35  and  N9_36 
ROOT
HETATM    1  C5  UNL     1      -1.232  23.488  -7.529  1.00  0.00     0.161 A 
HETATM    2  C6  UNL     1      -1.352  24.861  -7.553  1.00  0.00     0.105 A 
HETATM    3  C7  UNL     1      -0.425  25.628  -6.881  1.00  0.00     0.120 A 
HETATM    4  N5  UNL     1       0.560  24.989  -6.228  1.00  0.00    -0.177 N 
ATOM      5  H5  UNL     1       1.247  25.555  -5.729  1.00  0.00     0.186 HD
HETATM    6  C12 UNL     1       0.702  23.652  -6.188  1.00  0.00     0.687 A 
HETATM    7  N10 UNL     1      -0.224  22.924  -6.858  1.00  0.00    -0.170 N 
ATOM      8  H10 UNL     1      -0.149  21.907  -6.849  1.00  0.00     0.186 HD
ENDROOT
BRANCH   6   9
HETATM    9  N6  UNL     1       1.618  23.020  -5.584  1.00  0.00    -0.179 N 
ATOM     10  H6  UNL     1       2.522  23.482  -5.490  1.00  0.00     0.185 HD
BRANCH   9  11
HETATM   11  C13 UNL     1       1.489  21.723  -5.027  1.00  0.00     0.121 C 
HETATM   12  N7  UNL     1       1.689  21.638  -3.759  1.00  0.00    -0.387 N 
ATOM     13  H72 UNL     1       1.902  22.478  -3.221  1.00  0.00     0.157 HD
ATOM     14  H71 UNL     1       1.596  20.704  -3.359  1.00  0.00     0.157 HD
BRANCH  11  15
HETATM   15  C14 UNL     1       1.184  20.519  -5.797  1.00  0.00     0.250 C 
BRANCH  15  16
HETATM   16  N8  UNL     1       0.170  19.696  -5.126  1.00  0.00    -0.068 N 
ATOM     17  H83 UNL     1      -0.157  20.134  -4.265  1.00  0.00     0.275 HD
ATOM     18  H82 UNL     1      -0.710  19.691  -5.643  1.00  0.00     0.275 HD
ATOM     19  H81 UNL     1       0.510  18.748  -4.959  1.00  0.00     0.275 HD
ENDBRANCH  15  16
BRANCH  15  20
HETATM   20  C15 UNL     1       2.363  19.600  -5.985  1.00  0.00     0.042 C 
BRANCH  20  21
HETATM   21  C16 UNL     1       1.953  18.178  -6.184  1.00  0.00     0.030 C 
BRANCH  21  22
HETATM   22  C17 UNL     1       2.399  17.662  -7.562  1.00  0.00     0.230 C 
BRANCH  22  23
HETATM   23  N9  UNL     1       3.548  18.465  -7.941  1.00  0.00    -0.079 N 
ATOM     24  H93 UNL     1       3.880  19.078  -7.195  1.00  0.00     0.274 HD
ATOM     25  H92 UNL     1       4.406  17.923  -8.047  1.00  0.00     0.274 HD
ATOM     26  H91 UNL     1       3.277  18.966  -8.787  1.00  0.00     0.274 HD
ENDBRANCH  22  23
ENDBRANCH  21  22
ENDBRANCH  20  21
ENDBRANCH  15  20
ENDBRANCH  11  15
ENDBRANCH   9  11
ENDBRANCH   6   9
BRANCH   3  27
HETATM   27  N1  UNL     1      -0.528  26.902  -6.896  1.00  0.00    -0.376 N 
ATOM     28  H1  UNL     1      -1.371  27.359  -6.545  1.00  0.00     0.161 HD
BRANCH  27  29
HETATM   29  C8  UNL     1       0.571  27.686  -7.421  1.00  0.00     0.123 C 
BRANCH  29  30
HETATM   30  C9  UNL     1       0.155  28.086  -8.848  1.00  0.00     0.039 C 
BRANCH  30  31
HETATM   31  C10 UNL     1       0.136  29.579  -8.864  1.00  0.00     0.123 C 
BRANCH  31  32
HETATM   32  N2  UNL     1      -1.068  30.204  -8.463  1.00  0.00    -0.367 N 
HETATM   33  C11 UNL     1      -1.399  30.800  -7.411  1.00  0.00     0.196 C 
HETATM   34  N3  UNL     1      -0.535  30.979  -6.307  1.00  0.00    -0.067 NA
HETATM   35  N4  UNL     1      -2.714  31.333  -7.304  1.00  0.00    -0.067 NA
ATOM     36  H2  UNL     1      -1.808  30.161  -9.164  1.00  0.00     0.161 HD
ENDBRANCH  31  32
ENDBRANCH  30  31
ENDBRANCH  29  30
ENDBRANCH  27  29
ENDBRANCH   3  27
BRANCH   1  37
HETATM   37  O1  UNL     1      -2.155  22.705  -8.200  1.00  0.00    -0.335 OA
BRANCH  37  38
HETATM   38  C4  UNL     1      -2.117  21.287  -8.140  1.00  0.00     0.177 C 
BRANCH  38  39
HETATM   39  C3  UNL     1      -2.739  20.662  -9.359  1.00  0.00     0.026 C 
BRANCH  39  40
HETATM   40  C2  UNL     1      -1.820  19.499  -9.762  1.00  0.00    -0.002 C 
HETATM   41  C1  UNL     1      -1.057  19.093  -8.528  1.00  0.00     0.005 C 
ENDBRANCH  39  40
ENDBRANCH  38  39
ENDBRANCH  37  38
ENDBRANCH   1  37
TORSDOF 17
ENDMDL
MODEL 3
REMARK VINA RESULT: -6.981199459      1.565      2.137
REMARK  17 active torsions:
REMARK  status: ('A' for Active; 'I' for Inactive)
REMARK    1  A    between atoms: C2_2  and  C3_3 
REMARK    2  A    between atoms: C3_3  and  C4_4 
REMARK    3  A    between atoms: C4_4  and  O1_5 
REMARK    4  A    between atoms: O1_5  and  C5_6 
REMARK    5  A    between atoms: C7_8  and  N1_9 
REMARK    6  A    between atoms: N1_9  and  C8_11 
REMARK    7  A    between atoms: C8_11  and  C9_12 
REMARK    8  A    between atoms: C9_12  and  C10_13 
REMARK    9  A    between atoms: C10_13  and  N2_14 
REMARK   10  A    between atoms: C12_21  and  N6_22 
REMARK   11  A    between atoms: N6_22  and  C13_24 
REMARK   12  A    between atoms: C13_24  and  C14_28 
REMARK   13  A    between atoms: C14_28  and  N8_29 
REMARK   14  A    between atoms: C14_28  and  C15_33 
REMARK   15  A    between atoms: C15_33  and  C16_34 
REMARK   16  A    between atoms: C16_34  and  C17_35 
REMARK   17  A    between atoms: C17_35  and  N9_36 
ROOT
HETATM    1  C5  UNL     1      -1.223  22.877  -7.174  1.00  0.00     0.161 A 
HETATM    2  C6  UNL     1      -1.171  24.253  -7.119  1.00  0.00     0.105 A 
HETATM    3  C7  UNL     1      -0.071  24.861  -6.553  1.00  0.00     0.120 A 
HETATM    4  N5  UNL     1       0.905  24.069  -6.078  1.00  0.00    -0.177 N 
ATOM      5  H5  UNL     1       1.719  24.519  -5.658  1.00  0.00     0.186 HD
HETATM    6  C12 UNL     1       0.880  22.725  -6.118  1.00  0.00     0.687 A 
HETATM    7  N10 UNL     1      -0.213  22.156  -6.680  1.00  0.00    -0.170 N 
ATOM      8  H10 UNL     1      -0.267  21.139  -6.728  1.00  0.00     0.186 HD
ENDROOT
BRANCH   6   9
HETATM    9  N6  UNL     1       1.783  21.953  -5.680  1.00  0.00    -0.179 N 
ATOM     10  H6  UNL     1       2.720  22.061  -6.067  1.00  0.00     0.185 HD
BRANCH   9  11
HETATM   11  C13 UNL     1       1.597  20.950  -4.696  1.00  0.00     0.121 C 
HETATM   12  N7  UNL     1       1.598  21.358  -3.476  1.00  0.00    -0.387 N 
ATOM     13  H72 UNL     1       1.707  22.352  -3.274  1.00  0.00     0.157 HD
ATOM     14  H71 UNL     1       1.465  20.637  -2.768  1.00  0.00     0.157 HD
BRANCH  11  15
HETATM   15  C14 UNL     1       1.442  19.526  -4.986  1.00  0.00     0.250 C 
BRANCH  15  16
HETATM   16  N8  UNL     1       2.052  19.171  -6.273  1.00  0.00    -0.068 N 
ATOM     17  H83 UNL     1       1.352  18.847  -6.942  1.00  0.00     0.275 HD
ATOM     18  H82 UNL     1       2.377  19.998  -6.774  1.00  0.00     0.275 HD
ATOM     19  H81 UNL     1       2.801  18.487  -6.155  1.00  0.00     0.275 HD
ENDBRANCH  15  16
BRANCH  15  20
HETATM   20  C15 UNL     1       0.007  19.082  -5.105  1.00  0.00     0.042 C 
BRANCH  20  21
HETATM   21  C16 UNL     1      -0.436  18.262  -3.938  1.00  0.00     0.030 C 
BRANCH  21  22
HETATM   22  C17 UNL     1      -1.835  17.672  -4.175  1.00  0.00     0.230 C 
BRANCH  22  23
HETATM   23  N9  UNL     1      -2.421  18.446  -5.257  1.00  0.00    -0.079 N 
ATOM     24  H93 UNL     1      -2.801  19.344  -4.955  1.00  0.00     0.274 HD
ATOM     25  H92 UNL     1      -1.731  18.816  -5.911  1.00  0.00     0.274 HD
ATOM     26  H91 UNL     1      -3.114  17.840  -5.696  1.00  0.00     0.274 HD
ENDBRANCH  22  23
ENDBRANCH  21  22
ENDBRANCH  20  21
ENDBRANCH  15  20
ENDBRANCH  11  15
ENDBRANCH   9  11
ENDBRANCH   6   9
BRANCH   3  27
HETATM   27  N1  UNL     1      -0.014  26.137  -6.497  1.00  0.00    -0.376 N 
ATOM     28  H1  UNL     1       0.110  26.612  -5.602  1.00  0.00     0.161 HD
BRANCH  27  29
HETATM   29  C8  UNL     1      -0.127  26.896  -7.725  1.00  0.00     0.123 C 
BRANCH  29  30
HETATM   30  C9  UNL     1       0.896  28.040  -7.604  1.00  0.00     0.039 C 
BRANCH  30  31
HETATM   31  C10 UNL     1       0.250  29.234  -8.227  1.00  0.00     0.123 C 
BRANCH  31  32
HETATM   32  N2  UNL     1      -0.638  29.974  -7.413  1.00  0.00    -0.367 N 
HETATM   33  C11 UNL     1      -1.699  30.591  -7.666  1.00  0.00     0.196 C 
HETATM   34  N3  UNL     1      -2.270  30.672  -8.956  1.00  0.00    -0.067 NA
HETATM   35  N4  UNL     1      -2.382  31.255  -6.607  1.00  0.00    -0.067 NA
ATOM     36  H2  UNL     1      -0.362  30.012  -6.431  1.00  0.00     0.161 HD
ENDBRANCH  31  32
ENDBRANCH  30  31
ENDBRANCH  29  30
ENDBRANCH  27  29
ENDBRANCH   3  27
BRANCH   1  37
HETATM   37  O1  UNL     1      -2.322  22.252  -7.741  1.00  0.00    -0.335 OA
BRANCH  37  38
HETATM   38  C4  UNL     1      -2.288  20.886  -8.126  1.00  0.00     0.177 C 
BRANCH  38  39
HETATM   39  C3  UNL     1      -3.138  20.630  -9.340  1.00  0.00     0.026 C 
BRANCH  39  40
HETATM   40  C2  UNL     1      -2.529  21.467 -10.476  1.00  0.00    -0.002 C 
HETATM   41  C1  UNL     1      -3.662  22.216 -11.127  1.00  0.00     0.005 C 
ENDBRANCH  39  40
ENDBRANCH  38  39
ENDBRANCH  37  38
ENDBRANCH   1  37
TORSDOF 17
ENDMDL
MODEL 4
REMARK VINA RESULT: -6.896886683      2.406      5.205
REMARK  17 active torsions:
REMARK  status: ('A' for Active; 'I' for Inactive)
REMARK    1  A    between atoms: C2_2  and  C3_3 
REMARK    2  A    between atoms: C3_3  and  C4_4 
REMARK    3  A    between atoms: C4_4  and  O1_5 
REMARK    4  A    between atoms: O1_5  and  C5_6 
REMARK    5  A    between atoms: C7_8  and  N1_9 
REMARK    6  A    between atoms: N1_9  and  C8_11 
REMARK    7  A    between atoms: C8_11  and  C9_12 
REMARK    8  A    between atoms: C9_12  and  C10_13 
REMARK    9  A    between atoms: C10_13  and  N2_14 
REMARK   10  A    between atoms: C12_21  and  N6_22 
REMARK   11  A    between atoms: N6_22  and  C13_24 
REMARK   12  A    between atoms: C13_24  and  C14_28 
REMARK   13  A    between atoms: C14_28  and  N8_29 
REMARK   14  A    between atoms: C14_28  and  C15_33 
REMARK   15  A    between atoms: C15_33  and  C16_34 
REMARK   16  A    between atoms: C16_34  and  C17_35 
REMARK   17  A    between atoms: C17_35  and  N9_36 
ROOT
HETATM    1  C5  UNL     1       0.482  22.838  -6.102  1.00  0.00     0.161 A 
HETATM    2  C6  UNL     1       0.421  24.119  -6.606  1.00  0.00     0.105 A 
HETATM    3  C7  UNL     1      -0.608  24.458  -7.456  1.00  0.00     0.120 A 
HETATM    4  N5  UNL     1      -1.512  23.509  -7.753  1.00  0.00    -0.177 N 
ATOM      5  H5  UNL     1      -2.275  23.759  -8.383  1.00  0.00     0.186 HD
HETATM    6  C12 UNL     1      -1.478  22.252  -7.276  1.00  0.00     0.687 A 
HETATM    7  N10 UNL     1      -0.454  21.947  -6.443  1.00  0.00    -0.170 N 
ATOM      8  H10 UNL     1      -0.395  21.003  -6.062  1.00  0.00     0.186 HD
ENDROOT
BRANCH   6   9
HETATM    9  N6  UNL     1      -2.313  21.336  -7.536  1.00  0.00    -0.179 N 
ATOM     10  H6  UNL     1      -3.034  21.149  -6.839  1.00  0.00     0.185 HD
BRANCH   9  11
HETATM   11  C13 UNL     1      -2.329  20.551  -8.716  1.00  0.00     0.121 C 
HETATM   12  N7  UNL     1      -1.461  19.603  -8.767  1.00  0.00    -0.387 N 
ATOM     13  H72 UNL     1      -0.835  19.445  -7.977  1.00  0.00     0.157 HD
ATOM     14  H71 UNL     1      -1.472  19.038  -9.616  1.00  0.00     0.157 HD
BRANCH  11  15
HETATM   15  C14 UNL     1      -3.226  20.777  -9.847  1.00  0.00     0.250 C 
BRANCH  15  16
HETATM   16  N8  UNL     1      -3.656  19.509 -10.452  1.00  0.00    -0.068 N 
ATOM     17  H83 UNL     1      -3.754  18.775  -9.750  1.00  0.00     0.275 HD
ATOM     18  H82 UNL     1      -4.625  19.555 -10.767  1.00  0.00     0.275 HD
ATOM     19  H81 UNL     1      -3.031  19.225 -11.206  1.00  0.00     0.275 HD
ENDBRANCH  15  16
BRANCH  15  20
HETATM   20  C15 UNL     1      -2.599  21.549 -10.979  1.00  0.00     0.042 C 
BRANCH  20  21
HETATM   21  C16 UNL     1      -3.448  22.692 -11.429  1.00  0.00     0.030 C 
BRANCH  21  22
HETATM   22  C17 UNL     1      -3.437  22.818 -12.961  1.00  0.00     0.230 C 
BRANCH  22  23
HETATM   23  N9  UNL     1      -2.971  24.164 -13.252  1.00  0.00    -0.079 N 
ATOM     24  H93 UNL     1      -3.726  24.824 -13.439  1.00  0.00     0.274 HD
ATOM     25  H92 UNL     1      -2.584  24.643 -12.439  1.00  0.00     0.274 HD
ATOM     26  H91 UNL     1      -2.310  24.074 -14.024  1.00  0.00     0.274 HD
ENDBRANCH  22  23
ENDBRANCH  21  22
ENDBRANCH  20  21
ENDBRANCH  15  20
ENDBRANCH  11  15
ENDBRANCH   9  11
ENDBRANCH   6   9
BRANCH   3  27
HETATM   27  N1  UNL     1      -0.673  25.644  -7.930  1.00  0.00    -0.376 N 
ATOM     28  H1  UNL     1      -0.706  25.799  -8.938  1.00  0.00     0.161 HD
BRANCH  27  29
HETATM   29  C8  UNL     1      -0.699  26.763  -7.010  1.00  0.00     0.123 C 
BRANCH  29  30
HETATM   30  C9  UNL     1       0.513  27.637  -7.381  1.00  0.00     0.039 C 
BRANCH  30  31
HETATM   31  C10 UNL     1      -0.039  28.799  -8.139  1.00  0.00     0.123 C 
BRANCH  31  32
HETATM   32  N2  UNL     1      -0.829  29.717  -7.409  1.00  0.00    -0.367 N 
HETATM   33  C11 UNL     1      -1.736  30.510  -7.753  1.00  0.00     0.196 C 
HETATM   34  N3  UNL     1      -2.191  30.650  -9.084  1.00  0.00    -0.067 NA
HETATM   35  N4  UNL     1      -2.356  31.323  -6.763  1.00  0.00    -0.067 NA
ATOM     36  H2  UNL     1      -0.620  29.738  -6.411  1.00  0.00     0.161 HD
ENDBRANCH  31  32
ENDBRANCH  30  31
ENDBRANCH  29  30
ENDBRANCH  27  29
ENDBRANCH   3  27
BRANCH   1  37
HETATM   37  O1  UNL     1       1.511  22.483  -5.246  1.00  0.00    -0.335 OA
BRANCH  37  38
HETATM   38  C4  UNL     1       1.517  21.241  -4.558  1.00  0.00     0.177 C 
BRANCH  38  39
HETATM   39  C3  UNL     1       2.070  20.134  -5.413  1.00  0.00     0.026 C 
BRANCH  39  40
HETATM   40  C2  UNL     1       1.303  18.862  -5.020  1.00  0.00    -0.002 C 
HETATM   41  C1  UNL     1       2.308  17.740  -4.976  1.00  0.00     0.005 C 
ENDBRANCH  39  40
ENDBRANCH  38  39
ENDBRANCH  37  38
ENDBRANCH   1  37
TORSDOF 17
ENDMDL
MODEL 5
REMARK VINA RESULT: -6.885574201      1.704      2.183
REMARK  17 active torsions:
REMARK  status: ('A' for Active; 'I' for Inactive)
REMARK    1  A    between atoms: C2_2  and  C3_3 
REMARK    2  A    between atoms: C3_3  and  C4_4 
REMARK    3  A    between atoms: C4_4  and  O1_5 
REMARK    4  A    between atoms: O1_5  and  C5_6 
REMARK    5  A    between atoms: C7_8  and  N1_9 
REMARK    6  A    between atoms: N1_9  and  C8_11 
REMARK    7  A    between atoms: C8_11  and  C9_12 
REMARK    8  A    between atoms: C9_12  and  C10_13 
REMARK    9  A    between atoms: C10_13  and  N2_14 
REMARK   10  A    between atoms: C12_21  and  N6_22 
REMARK   11  A    between atoms: N6_22  and  C13_24 
REMARK   12  A    between atoms: C13_24  and  C14_28 
REMARK   13  A    between atoms: C14_28  and  N8_29 
REMARK   14  A    between atoms: C14_28  and  C15_33 
REMARK   15  A    between atoms: C15_33  and  C16_34 
REMARK   16  A    between atoms: C16_34  and  C17_35 
REMARK   17  A    between atoms: C17_35  and  N9_36 
ROOT
HETATM    1  C5  UNL     1      -1.268  22.807  -6.953  1.00  0.00     0.161 A 
HETATM    2  C6  UNL     1      -1.210  24.184  -6.947  1.00  0.00     0.105 A 
HETATM    3  C7  UNL     1      -0.069  24.807  -6.490  1.00  0.00     0.120 A 
HETATM    4  N5  UNL     1       0.941  24.028  -6.068  1.00  0.00    -0.177 N 
ATOM      5  H5  UNL     1       1.787  24.488  -5.729  1.00  0.00     0.186 HD
HETATM    6  C12 UNL     1       0.913  22.684  -6.062  1.00  0.00     0.687 A 
HETATM    7  N10 UNL     1      -0.221  22.099  -6.517  1.00  0.00    -0.170 N 
ATOM      8  H10 UNL     1      -0.279  21.081  -6.527  1.00  0.00     0.186 HD
ENDROOT
BRANCH   6   9
HETATM    9  N6  UNL     1       1.847  21.923  -5.672  1.00  0.00    -0.179 N 
ATOM     10  H6  UNL     1       2.766  22.056  -6.094  1.00  0.00     0.185 HD
BRANCH   9  11
HETATM   11  C13 UNL     1       1.720  20.902  -4.697  1.00  0.00     0.121 C 
HETATM   12  N7  UNL     1       1.610  21.303  -3.480  1.00  0.00    -0.387 N 
ATOM     13  H72 UNL     1       1.597  22.302  -3.274  1.00  0.00     0.157 HD
ATOM     14  H71 UNL     1       1.519  20.568  -2.779  1.00  0.00     0.157 HD
BRANCH  11  15
HETATM   15  C14 UNL     1       1.738  19.471  -4.992  1.00  0.00     0.250 C 
BRANCH  15  16
HETATM   16  N8  UNL     1       2.127  19.215  -6.385  1.00  0.00    -0.068 N 
ATOM     17  H83 UNL     1       1.325  19.271  -7.014  1.00  0.00     0.275 HD
ATOM     18  H82 UNL     1       2.679  19.983  -6.767  1.00  0.00     0.275 HD
ATOM     19  H81 UNL     1       2.614  18.323  -6.479  1.00  0.00     0.275 HD
ENDBRANCH  15  16
BRANCH  15  20
HETATM   20  C15 UNL     1       0.398  18.799  -4.838  1.00  0.00     0.042 C 
BRANCH  20  21
HETATM   21  C16 UNL     1       0.519  17.377  -4.402  1.00  0.00     0.030 C 
BRANCH  21  22
HETATM   22  C17 UNL     1      -0.365  16.458  -5.260  1.00  0.00     0.230 C 
BRANCH  22  23
HETATM   23  N9  UNL     1       0.449  16.059  -6.395  1.00  0.00    -0.079 N 
ATOM     24  H93 UNL     1       1.209  15.425  -6.147  1.00  0.00     0.274 HD
ATOM     25  H92 UNL     1      -0.032  15.431  -7.039  1.00  0.00     0.274 HD
ATOM     26  H91 UNL     1       0.769  16.923  -6.834  1.00  0.00     0.274 HD
ENDBRANCH  22  23
ENDBRANCH  21  22
ENDBRANCH  20  21
ENDBRANCH  15  20
ENDBRANCH  11  15
ENDBRANCH   9  11
ENDBRANCH   6   9
BRANCH   3  27
HETATM   27  N1  UNL     1      -0.007  26.084  -6.481  1.00  0.00    -0.376 N 
ATOM     28  H1  UNL     1       0.109  26.591  -5.603  1.00  0.00     0.161 HD
BRANCH  27  29
HETATM   29  C8  UNL     1      -0.102  26.798  -7.737  1.00  0.00     0.123 C 
BRANCH  29  30
HETATM   30  C9  UNL     1       0.836  28.010  -7.600  1.00  0.00     0.039 C 
BRANCH  30  31
HETATM   31  C10 UNL     1       0.126  29.152  -8.250  1.00  0.00     0.123 C 
BRANCH  31  32
HETATM   32  N2  UNL     1      -0.721  29.927  -7.425  1.00  0.00    -0.367 N 
HETATM   33  C11 UNL     1      -1.755  30.592  -7.665  1.00  0.00     0.196 C 
HETATM   34  N3  UNL     1      -2.333  30.705  -8.950  1.00  0.00    -0.067 NA
HETATM   35  N4  UNL     1      -2.399  31.280  -6.598  1.00  0.00    -0.067 NA
ATOM     36  H2  UNL     1      -0.435  29.948  -6.445  1.00  0.00     0.161 HD
ENDBRANCH  31  32
ENDBRANCH  30  31
ENDBRANCH  29  30
ENDBRANCH  27  29
ENDBRANCH   3  27
BRANCH   1  37
HETATM   37  O1  UNL     1      -2.408  22.167  -7.410  1.00  0.00    -0.335 OA
BRANCH  37  38
HETATM   38  C4  UNL     1      -2.344  20.927  -8.098  1.00  0.00     0.177 C 
BRANCH  38  39
HETATM   39  C3  UNL     1      -2.991  19.821  -7.311  1.00  0.00     0.026 C 
BRANCH  39  40
HETATM   40  C2  UNL     1      -2.244  18.532  -7.686  1.00  0.00    -0.002 C 
HETATM   41  C1  UNL     1      -0.961  18.948  -8.358  1.00  0.00     0.005 C 
ENDBRANCH  39  40
ENDBRANCH  38  39
ENDBRANCH  37  38
ENDBRANCH   1  37
TORSDOF 17
ENDMDL
