MODEL 1
REMARK VINA RESULT: -7.426740589      0.000      0.000
REMARK  19 active torsions:
REMARK  status: ('A' for Active; 'I' for Inactive)
REMARK    1  A    between atoms: C2_2  and  C3_3 
REMARK    2  A    between atoms: C3_3  and  C4_4 
REMARK    3  A    between atoms: C4_4  and  C5_5 
REMARK    4  A    between atoms: C5_5  and  N1_6 
REMARK    5  A    between atoms: N1_6  and  C6_8 
REMARK    6  A    between atoms: C6_8  and  C7_9 
REMARK    7  A    between atoms: C7_9  and  C8_10 
REMARK    8  A    between atoms: C8_10  and  C9_11 
REMARK    9  A    between atoms: C10_12  and  C11_13 
REMARK   10  A    between atoms: C10_12  and  N3_16 
REMARK   11  A    between atoms: C13_18  and  N4_19 
REMARK       I    between atoms: N4_19  and  C14_21 
REMARK   12  A    between atoms: C14_21  and  C15_23 
REMARK   13  A    between atoms: C15_23  and  C17_25 
REMARK   14  A    between atoms: C17_25  and  C18_26 
REMARK   15  A    between atoms: C18_26  and  C19_27 
REMARK   16  A    between atoms: C19_27  and  C20_28 
REMARK   17  A    between atoms: C27_40  and  O5_41 
REMARK   18  A    between atoms: C28_43  and  O6_44 
REMARK   19  A    between atoms: C29_46  and  O7_47 
ROOT
HETATM    1  N3  UNL     1       8.771  27.705   1.842  1.00  0.00    -0.311 N 
HETATM    2  C12 UNL     1       8.465  28.089   0.458  1.00  0.00     0.157 C 
HETATM    3  C13 UNL     1       9.663  28.104  -0.449  1.00  0.00     0.102 C 
HETATM    4  C21 UNL     1       9.926  29.510  -0.946  1.00  0.00     0.027 C 
HETATM    5  C22 UNL     1       8.724  30.214  -1.471  1.00  0.00     0.004 C 
HETATM    6  C23 UNL     1       9.222  31.376  -2.345  1.00  0.00     0.020 C 
HETATM    7  C24 UNL     1       9.457  32.561  -1.415  1.00  0.00     0.125 C 
HETATM    8  N5  UNL     1       8.576  33.632  -1.820  1.00  0.00    -0.337 N 
ATOM      9  H5  UNL     1       8.217  33.632  -2.775  1.00  0.00     0.164 HD
HETATM   10  C25 UNL     1       8.185  34.693  -0.941  1.00  0.00     0.360 C 
HETATM   11  O3  UNL     1       8.058  35.859  -1.456  1.00  0.00    -0.239 OA
HETATM   12  O4  UNL     1       7.951  34.496   0.403  1.00  0.00    -0.301 OA
HETATM   13  C26 UNL     1       7.108  33.507   0.957  1.00  0.00     0.215 C 
HETATM   14  C27 UNL     1       7.632  33.051   2.315  1.00  0.00     0.173 C 
HETATM   15  C28 UNL     1       6.891  31.842   2.810  1.00  0.00     0.178 C 
HETATM   16  C29 UNL     1       7.800  30.890   3.589  1.00  0.00     0.162 C 
HETATM   17  C30 UNL     1       8.756  30.157   2.643  1.00  0.00     0.105 C 
HETATM   18  C31 UNL     1      10.168  30.558   3.018  1.00  0.00     0.022 C 
HETATM   19  C32 UNL     1       8.655  28.693   2.821  1.00  0.00     0.231 C 
HETATM   20  O8  UNL     1       8.440  28.363   4.009  1.00  0.00    -0.273 OA
ENDROOT
BRANCH   1  21
HETATM   21  C10 UNL     1       9.140  26.321   2.013  1.00  0.00     0.102 C 
HETATM   22  C9  UNL     1       9.628  25.880   3.301  1.00  0.00     0.031 C 
BRANCH  22  23
HETATM   23  C8  UNL     1       8.781  25.695   4.487  1.00  0.00    -0.023 C 
BRANCH  23  24
HETATM   24  C7  UNL     1       8.406  24.372   4.988  1.00  0.00     0.046 C 
BRANCH  24  25
HETATM   25  C6  UNL     1       7.098  23.805   4.498  1.00  0.00     0.117 C 
BRANCH  25  26
HETATM   26  N1  UNL     1       6.150  24.881   4.337  1.00  0.00    -0.421 N 
ATOM     27  H1  UNL     1       6.436  25.832   4.103  1.00  0.00     0.153 HD
BRANCH  26  28
HETATM   28  C5  UNL     1       4.782  24.516   4.529  1.00  0.00     0.113 C 
BRANCH  28  29
HETATM   29  C4  UNL     1       4.772  23.332   5.483  1.00  0.00     0.019 C 
BRANCH  29  30
HETATM   30  C3  UNL     1       3.396  22.914   5.878  1.00  0.00     0.001 C 
BRANCH  30  31
HETATM   31  C2  UNL     1       3.408  21.863   6.939  1.00  0.00    -0.004 C 
HETATM   32  C1  UNL     1       2.167  22.057   7.792  1.00  0.00     0.005 C 
ENDBRANCH  30  31
ENDBRANCH  29  30
ENDBRANCH  28  29
ENDBRANCH  26  28
ENDBRANCH  25  26
ENDBRANCH  24  25
ENDBRANCH  23  24
ENDBRANCH  22  23
BRANCH  21  33
HETATM   33  C11 UNL     1       8.153  25.429   1.381  1.00  0.00     0.281 C 
HETATM   34  N2  UNL     1       6.760  25.652   1.259  1.00  0.00    -0.056 NA
HETATM   35  O1  UNL     1       8.508  24.308   0.855  1.00  0.00    -0.269 OA
ENDBRANCH  21  33
ENDBRANCH   1  21
BRANCH   3  36
HETATM   36  N4  UNL     1       9.556  27.169  -1.546  1.00  0.00    -0.355 N 
HETATM   37  C14 UNL     1      10.219  25.937  -1.672  1.00  0.00     0.221 C 
HETATM   38  O2  UNL     1      10.993  25.553  -0.785  1.00  0.00    -0.273 OA
ATOM     39  H4  UNL     1       8.932  27.432  -2.310  1.00  0.00     0.162 HD
BRANCH  37  40
HETATM   40  C15 UNL     1       9.986  25.113  -2.864  1.00  0.00     0.074 C 
HETATM   41  C16 UNL     1      10.277  23.654  -2.520  1.00  0.00     0.020 C 
BRANCH  40  42
HETATM   42  C17 UNL     1      10.575  25.537  -4.138  1.00  0.00     0.013 C 
BRANCH  42  43
HETATM   43  C18 UNL     1      12.041  25.698  -4.244  1.00  0.00     0.003 C 
BRANCH  43  44
HETATM   44  C19 UNL     1      12.478  27.155  -4.171  1.00  0.00     0.031 C 
BRANCH  44  45
HETATM   45  C20 UNL     1      13.284  27.436  -2.927  1.00  0.00     0.222 C 
HETATM   46  F1  UNL     1      13.633  26.204  -2.393  1.00  0.00    -0.255 F 
ENDBRANCH  44  45
ENDBRANCH  43  44
ENDBRANCH  42  43
ENDBRANCH  40  42
ENDBRANCH  37  40
ENDBRANCH   3  36
BRANCH  16  47
HETATM   47  O7  UNL     1       8.475  31.643   4.529  1.00  0.00    -0.392 OA
ATOM     48  H7  UNL     1       8.666  31.073   5.265  1.00  0.00     0.210 HD
ENDBRANCH  16  47
BRANCH  15  49
HETATM   49  O6  UNL     1       6.368  31.170   1.710  1.00  0.00    -0.390 OA
ATOM     50  H6  UNL     1       5.425  31.283   1.713  1.00  0.00     0.210 HD
ENDBRANCH  15  49
BRANCH  14  51
HETATM   51  O5  UNL     1       7.442  34.060   3.274  1.00  0.00    -0.391 OA
ATOM     52  H5  UNL     1       7.387  33.680   4.144  1.00  0.00     0.210 HD
ENDBRANCH  14  51
TORSDOF 19
ENDMDL
MODEL 2
REMARK VINA RESULT: -7.371552352      1.414      1.583
REMARK  19 active torsions:
REMARK  status: ('A' for Active; 'I' for Inactive)
REMARK    1  A    between atoms: C2_2  and  C3_3 
REMARK    2  A    between atoms: C3_3  and  C4_4 
REMARK    3  A    between atoms: C4_4  and  C5_5 
REMARK    4  A    between atoms: C5_5  and  N1_6 
REMARK    5  A    between atoms: N1_6  and  C6_8 
REMARK    6  A    between atoms: C6_8  and  C7_9 
REMARK    7  A    between atoms: C7_9  and  C8_10 
REMARK    8  A    between atoms: C8_10  and  C9_11 
REMARK    9  A    between atoms: C10_12  and  C11_13 
REMARK   10  A    between atoms: C10_12  and  N3_16 
REMARK   11  A    between atoms: C13_18  and  N4_19 
REMARK       I    between atoms: N4_19  and  C14_21 
REMARK   12  A    between atoms: C14_21  and  C15_23 
REMARK   13  A    between atoms: C15_23  and  C17_25 
REMARK   14  A    between atoms: C17_25  and  C18_26 
REMARK   15  A    between atoms: C18_26  and  C19_27 
REMARK   16  A    between atoms: C19_27  and  C20_28 
REMARK   17  A    between atoms: C27_40  and  O5_41 
REMARK   18  A    between atoms: C28_43  and  O6_44 
REMARK   19  A    between atoms: C29_46  and  O7_47 
ROOT
HETATM    1  N3  UNL     1       8.787  27.549   2.031  1.00  0.00    -0.311 N 
HETATM    2  C12 UNL     1       8.302  27.826   0.672  1.00  0.00     0.157 C 
HETATM    3  C13 UNL     1       9.370  27.751  -0.383  1.00  0.00     0.102 C 
HETATM    4  C21 UNL     1       9.570  29.110  -1.021  1.00  0.00     0.027 C 
HETATM    5  C22 UNL     1       8.312  29.786  -1.440  1.00  0.00     0.004 C 
HETATM    6  C23 UNL     1       8.695  30.867  -2.462  1.00  0.00     0.020 C 
HETATM    7  C24 UNL     1       9.054  32.119  -1.670  1.00  0.00     0.125 C 
HETATM    8  N5  UNL     1       8.132  33.167  -2.042  1.00  0.00    -0.337 N 
ATOM      9  H5  UNL     1       7.649  33.096  -2.938  1.00  0.00     0.164 HD
HETATM   10  C25 UNL     1       7.864  34.301  -1.208  1.00  0.00     0.360 C 
HETATM   11  O3  UNL     1       7.675  35.424  -1.795  1.00  0.00    -0.239 OA
HETATM   12  O4  UNL     1       7.808  34.215   0.167  1.00  0.00    -0.301 OA
HETATM   13  C26 UNL     1       7.042  33.285   0.904  1.00  0.00     0.215 C 
HETATM   14  C27 UNL     1       7.739  32.931   2.215  1.00  0.00     0.173 C 
HETATM   15  C28 UNL     1       7.066  31.777   2.899  1.00  0.00     0.178 C 
HETATM   16  C29 UNL     1       8.066  30.877   3.626  1.00  0.00     0.162 C 
HETATM   17  C30 UNL     1       8.886  30.058   2.626  1.00  0.00     0.105 C 
HETATM   18  C31 UNL     1      10.337  30.466   2.779  1.00  0.00     0.022 C 
HETATM   19  C32 UNL     1       8.804  28.614   2.934  1.00  0.00     0.231 C 
HETATM   20  O8  UNL     1       8.747  28.383   4.162  1.00  0.00    -0.273 OA
ENDROOT
BRANCH   1  21
HETATM   21  C10 UNL     1       9.170  26.178   2.263  1.00  0.00     0.102 C 
HETATM   22  C9  UNL     1       9.501  25.762   3.609  1.00  0.00     0.031 C 
BRANCH  22  23
HETATM   23  C8  UNL     1       8.513  25.560   4.677  1.00  0.00    -0.023 C 
BRANCH  23  24
HETATM   24  C7  UNL     1       8.212  24.240   5.232  1.00  0.00     0.046 C 
BRANCH  24  25
HETATM   25  C6  UNL     1       6.961  23.562   4.733  1.00  0.00     0.117 C 
BRANCH  25  26
HETATM   26  N1  UNL     1       5.990  24.569   4.379  1.00  0.00    -0.421 N 
ATOM     27  H1  UNL     1       6.247  25.439   3.913  1.00  0.00     0.153 HD
BRANCH  26  28
HETATM   28  C5  UNL     1       4.640  24.258   4.731  1.00  0.00     0.113 C 
BRANCH  28  29
HETATM   29  C4  UNL     1       4.699  23.111   5.728  1.00  0.00     0.019 C 
BRANCH  29  30
HETATM   30  C3  UNL     1       3.369  22.478   5.966  1.00  0.00     0.001 C 
BRANCH  30  31
HETATM   31  C2  UNL     1       3.238  21.947   7.355  1.00  0.00    -0.004 C 
HETATM   32  C1  UNL     1       1.798  21.501   7.542  1.00  0.00     0.005 C 
ENDBRANCH  30  31
ENDBRANCH  29  30
ENDBRANCH  28  29
ENDBRANCH  26  28
ENDBRANCH  25  26
ENDBRANCH  24  25
ENDBRANCH  23  24
ENDBRANCH  22  23
BRANCH  21  33
HETATM   33  C11 UNL     1       8.299  25.252   1.519  1.00  0.00     0.281 C 
HETATM   34  N2  UNL     1       8.709  24.208   0.654  1.00  0.00    -0.056 NA
HETATM   35  O1  UNL     1       7.016  25.326   1.609  1.00  0.00    -0.269 OA
ENDBRANCH  21  33
ENDBRANCH   1  21
BRANCH   3  36
HETATM   36  N4  UNL     1       9.116  26.734  -1.377  1.00  0.00    -0.355 N 
HETATM   37  C14 UNL     1      10.044  25.822  -1.908  1.00  0.00     0.221 C 
HETATM   38  O2  UNL     1      11.222  25.841  -1.527  1.00  0.00    -0.273 OA
ATOM     39  H4  UNL     1       8.161  26.670  -1.730  1.00  0.00     0.162 HD
BRANCH  37  40
HETATM   40  C15 UNL     1       9.604  24.851  -2.916  1.00  0.00     0.074 C 
HETATM   41  C16 UNL     1      10.474  23.602  -2.811  1.00  0.00     0.020 C 
BRANCH  40  42
HETATM   42  C17 UNL     1       9.410  25.310  -4.295  1.00  0.00     0.013 C 
BRANCH  42  43
HETATM   43  C18 UNL     1      10.226  26.430  -4.810  1.00  0.00     0.003 C 
BRANCH  43  44
HETATM   44  C19 UNL     1       9.440  27.732  -4.908  1.00  0.00     0.031 C 
BRANCH  44  45
HETATM   45  C20 UNL     1       7.965  27.482  -5.098  1.00  0.00     0.222 C 
HETATM   46  F1  UNL     1       7.298  28.418  -4.320  1.00  0.00    -0.255 F 
ENDBRANCH  44  45
ENDBRANCH  43  44
ENDBRANCH  42  43
ENDBRANCH  40  42
ENDBRANCH  37  40
ENDBRANCH   3  36
BRANCH  16  47
HETATM   47  O7  UNL     1       8.862  31.693   4.406  1.00  0.00    -0.392 OA
ATOM     48  H7  UNL     1       9.563  32.016   3.853  1.00  0.00     0.210 HD
ENDBRANCH  16  47
BRANCH  15  49
HETATM   49  O6  UNL     1       6.400  31.026   1.935  1.00  0.00    -0.390 OA
ATOM     50  H6  UNL     1       5.961  31.625   1.342  1.00  0.00     0.210 HD
ENDBRANCH  15  49
BRANCH  14  51
HETATM   51  O5  UNL     1       7.680  34.016   3.105  1.00  0.00    -0.391 OA
ATOM     52  H5  UNL     1       7.859  33.723   3.992  1.00  0.00     0.210 HD
ENDBRANCH  14  51
TORSDOF 19
ENDMDL
MODEL 3
REMARK VINA RESULT: -7.319468918      4.024      7.305
REMARK  19 active torsions:
REMARK  status: ('A' for Active; 'I' for Inactive)
REMARK    1  A    between atoms: C2_2  and  C3_3 
REMARK    2  A    between atoms: C3_3  and  C4_4 
REMARK    3  A    between atoms: C4_4  and  C5_5 
REMARK    4  A    between atoms: C5_5  and  N1_6 
REMARK    5  A    between atoms: N1_6  and  C6_8 
REMARK    6  A    between atoms: C6_8  and  C7_9 
REMARK    7  A    between atoms: C7_9  and  C8_10 
REMARK    8  A    between atoms: C8_10  and  C9_11 
REMARK    9  A    between atoms: C10_12  and  C11_13 
REMARK   10  A    between atoms: C10_12  and  N3_16 
REMARK   11  A    between atoms: C13_18  and  N4_19 
REMARK       I    between atoms: N4_19  and  C14_21 
REMARK   12  A    between atoms: C14_21  and  C15_23 
REMARK   13  A    between atoms: C15_23  and  C17_25 
REMARK   14  A    between atoms: C17_25  and  C18_26 
REMARK   15  A    between atoms: C18_26  and  C19_27 
REMARK   16  A    between atoms: C19_27  and  C20_28 
REMARK   17  A    between atoms: C27_40  and  O5_41 
REMARK   18  A    between atoms: C28_43  and  O6_44 
REMARK   19  A    between atoms: C29_46  and  O7_47 
ROOT
HETATM    1  N3  UNL     1       8.665  27.443   3.850  1.00  0.00    -0.311 N 
HETATM    2  C12 UNL     1       9.066  28.686   4.520  1.00  0.00     0.157 C 
HETATM    3  C13 UNL     1       7.942  29.383   5.235  1.00  0.00     0.102 C 
HETATM    4  C21 UNL     1       7.675  30.732   4.602  1.00  0.00     0.027 C 
HETATM    5  C22 UNL     1       8.891  31.559   4.375  1.00  0.00     0.004 C 
HETATM    6  C23 UNL     1       8.427  33.013   4.198  1.00  0.00     0.020 C 
HETATM    7  C24 UNL     1       8.083  33.191   2.723  1.00  0.00     0.125 C 
HETATM    8  N5  UNL     1       8.958  34.202   2.176  1.00  0.00    -0.337 N 
ATOM      9  H5  UNL     1       9.391  34.869   2.815  1.00  0.00     0.164 HD
HETATM   10  C25 UNL     1       9.246  34.309   0.777  1.00  0.00     0.360 C 
HETATM   11  O3  UNL     1       9.375  35.490   0.297  1.00  0.00    -0.239 OA
HETATM   12  O4  UNL     1       9.380  33.207  -0.040  1.00  0.00    -0.301 OA
HETATM   13  C26 UNL     1      10.208  32.090   0.212  1.00  0.00     0.215 C 
HETATM   14  C27 UNL     1       9.594  30.821  -0.372  1.00  0.00     0.173 C 
HETATM   15  C28 UNL     1      10.332  29.596   0.084  1.00  0.00     0.178 C 
HETATM   16  C29 UNL     1       9.395  28.404   0.289  1.00  0.00     0.162 C 
HETATM   17  C30 UNL     1       8.539  28.594   1.544  1.00  0.00     0.105 C 
HETATM   18  C31 UNL     1       7.091  28.656   1.107  1.00  0.00     0.022 C 
HETATM   19  C32 UNL     1       8.673  27.436   2.454  1.00  0.00     0.231 C 
HETATM   20  O8  UNL     1       8.804  26.352   1.842  1.00  0.00    -0.273 OA
ENDROOT
BRANCH   1  21
HETATM   21  C10 UNL     1       8.327  26.362   4.743  1.00  0.00     0.102 C 
HETATM   22  C9  UNL     1       6.934  26.025   4.941  1.00  0.00     0.031 C 
BRANCH  22  23
HETATM   23  C8  UNL     1       6.103  25.330   3.949  1.00  0.00    -0.023 C 
BRANCH  23  24
HETATM   24  C7  UNL     1       4.916  24.558   4.319  1.00  0.00     0.046 C 
BRANCH  24  25
HETATM   25  C6  UNL     1       5.088  23.523   5.402  1.00  0.00     0.117 C 
BRANCH  25  26
HETATM   26  N1  UNL     1       3.794  22.993   5.756  1.00  0.00    -0.421 N 
ATOM     27  H1  UNL     1       2.931  23.316   5.318  1.00  0.00     0.153 HD
BRANCH  26  28
HETATM   28  C5  UNL     1       3.809  21.981   6.765  1.00  0.00     0.113 C 
BRANCH  28  29
HETATM   29  C4  UNL     1       2.715  22.337   7.760  1.00  0.00     0.019 C 
BRANCH  29  30
HETATM   30  C3  UNL     1       1.343  22.081   7.233  1.00  0.00     0.001 C 
BRANCH  30  31
HETATM   31  C2  UNL     1       0.557  21.176   8.124  1.00  0.00    -0.004 C 
HETATM   32  C1  UNL     1      -0.852  21.091   7.564  1.00  0.00     0.005 C 
ENDBRANCH  30  31
ENDBRANCH  29  30
ENDBRANCH  28  29
ENDBRANCH  26  28
ENDBRANCH  25  26
ENDBRANCH  24  25
ENDBRANCH  23  24
ENDBRANCH  22  23
BRANCH  21  33
HETATM   33  C11 UNL     1       9.225  25.211   4.544  1.00  0.00     0.281 C 
HETATM   34  N2  UNL     1       8.992  23.871   4.940  1.00  0.00    -0.056 NA
HETATM   35  O1  UNL     1      10.361  25.347   3.954  1.00  0.00    -0.269 OA
ENDBRANCH  21  33
ENDBRANCH   1  21
BRANCH   3  36
HETATM   36  N4  UNL     1       8.165  29.503   6.658  1.00  0.00    -0.355 N 
HETATM   37  C14 UNL     1       7.191  29.459   7.671  1.00  0.00     0.221 C 
HETATM   38  O2  UNL     1       5.998  29.304   7.380  1.00  0.00    -0.273 OA
ATOM     39  H4  UNL     1       9.131  29.634   6.960  1.00  0.00     0.162 HD
BRANCH  37  40
HETATM   40  C15 UNL     1       7.604  29.598   9.072  1.00  0.00     0.074 C 
HETATM   41  C16 UNL     1       9.064  30.040   9.115  1.00  0.00     0.020 C 
BRANCH  40  42
HETATM   42  C17 UNL     1       7.299  28.509  10.006  1.00  0.00     0.013 C 
BRANCH  42  43
HETATM   43  C18 UNL     1       7.714  28.627  11.420  1.00  0.00     0.003 C 
BRANCH  43  44
HETATM   44  C19 UNL     1       8.608  27.477  11.867  1.00  0.00     0.031 C 
BRANCH  44  45
HETATM   45  C20 UNL     1       9.811  27.968  12.633  1.00  0.00     0.222 C 
HETATM   46  F1  UNL     1      10.571  28.714  11.742  1.00  0.00    -0.255 F 
ENDBRANCH  44  45
ENDBRANCH  43  44
ENDBRANCH  42  43
ENDBRANCH  40  42
ENDBRANCH  37  40
ENDBRANCH   3  36
BRANCH  16  47
HETATM   47  O7  UNL     1       8.625  28.286  -0.852  1.00  0.00    -0.392 OA
ATOM     48  H7  UNL     1       7.909  27.696  -0.650  1.00  0.00     0.210 HD
ENDBRANCH  16  47
BRANCH  15  49
HETATM   49  O6  UNL     1      10.960  29.889   1.291  1.00  0.00    -0.390 OA
ATOM     50  H6  UNL     1      11.312  29.081   1.647  1.00  0.00     0.210 HD
ENDBRANCH  15  49
BRANCH  14  51
HETATM   51  O5  UNL     1       9.677  30.841  -1.774  1.00  0.00    -0.391 OA
ATOM     52  H5  UNL     1       8.849  30.572  -2.156  1.00  0.00     0.210 HD
ENDBRANCH  14  51
TORSDOF 19
ENDMDL
MODEL 4
REMARK VINA RESULT: -7.288352429      3.338      8.879
REMARK  19 active torsions:
REMARK  status: ('A' for Active; 'I' for Inactive)
REMARK    1  A    between atoms: C2_2  and  C3_3 
REMARK    2  A    between atoms: C3_3  and  C4_4 
REMARK    3  A    between atoms: C4_4  and  C5_5 
REMARK    4  A    between atoms: C5_5  and  N1_6 
REMARK    5  A    between atoms: N1_6  and  C6_8 
REMARK    6  A    between atoms: C6_8  and  C7_9 
REMARK    7  A    between atoms: C7_9  and  C8_10 
REMARK    8  A    between atoms: C8_10  and  C9_11 
REMARK    9  A    between atoms: C10_12  and  C11_13 
REMARK   10  A    between atoms: C10_12  and  N3_16 
REMARK   11  A    between atoms: C13_18  and  N4_19 
REMARK       I    between atoms: N4_19  and  C14_21 
REMARK   12  A    between atoms: C14_21  and  C15_23 
REMARK   13  A    between atoms: C15_23  and  C17_25 
REMARK   14  A    between atoms: C17_25  and  C18_26 
REMARK   15  A    between atoms: C18_26  and  C19_27 
REMARK   16  A    between atoms: C19_27  and  C20_28 
REMARK   17  A    between atoms: C27_40  and  O5_41 
REMARK   18  A    between atoms: C28_43  and  O6_44 
REMARK   19  A    between atoms: C29_46  and  O7_47 
ROOT
HETATM    1  N3  UNL     1       8.607  29.409   1.320  1.00  0.00    -0.311 N 
HETATM    2  C12 UNL     1       8.210  28.008   1.131  1.00  0.00     0.157 C 
HETATM    3  C13 UNL     1       9.121  27.021   1.805  1.00  0.00     0.102 C 
HETATM    4  C21 UNL     1       9.804  26.149   0.773  1.00  0.00     0.027 C 
HETATM    5  C22 UNL     1       8.889  25.571  -0.250  1.00  0.00     0.004 C 
HETATM    6  C23 UNL     1       9.617  24.380  -0.891  1.00  0.00     0.020 C 
HETATM    7  C24 UNL     1      10.466  24.938  -2.027  1.00  0.00     0.125 C 
HETATM    8  N5  UNL     1      10.006  24.349  -3.263  1.00  0.00    -0.337 N 
ATOM      9  H5  UNL     1       9.497  23.466  -3.222  1.00  0.00     0.164 HD
HETATM   10  C25 UNL     1      10.233  24.949  -4.544  1.00  0.00     0.360 C 
HETATM   11  O3  UNL     1      10.468  24.159  -5.525  1.00  0.00    -0.239 OA
HETATM   12  O4  UNL     1      10.206  26.313  -4.740  1.00  0.00    -0.301 OA
HETATM   13  C26 UNL     1       9.171  27.185  -4.333  1.00  0.00     0.215 C 
HETATM   14  C27 UNL     1       9.732  28.560  -3.982  1.00  0.00     0.173 C 
HETATM   15  C28 UNL     1       8.693  29.424  -3.326  1.00  0.00     0.178 C 
HETATM   16  C29 UNL     1       9.297  30.337  -2.258  1.00  0.00     0.162 C 
HETATM   17  C30 UNL     1       9.694  29.534  -1.016  1.00  0.00     0.105 C 
HETATM   18  C31 UNL     1      11.195  29.656  -0.851  1.00  0.00     0.022 C 
HETATM   19  C32 UNL     1       9.072  30.100   0.200  1.00  0.00     0.231 C 
HETATM   20  O8  UNL     1       8.982  31.348   0.161  1.00  0.00    -0.273 OA
ENDROOT
BRANCH   1  21
HETATM   21  C10 UNL     1       8.439  29.904   2.665  1.00  0.00     0.102 C 
HETATM   22  C9  UNL     1       9.613  30.267   3.429  1.00  0.00     0.031 C 
BRANCH  22  23
HETATM   23  C8  UNL     1      10.411  31.477   3.191  1.00  0.00    -0.023 C 
BRANCH  23  24
HETATM   24  C7  UNL     1      11.654  31.461   2.419  1.00  0.00     0.046 C 
BRANCH  24  25
HETATM   25  C6  UNL     1      12.736  32.418   2.852  1.00  0.00     0.117 C 
BRANCH  25  26
HETATM   26  N1  UNL     1      13.980  32.035   2.229  1.00  0.00    -0.421 N 
ATOM     27  H1  UNL     1      14.863  32.006   2.740  1.00  0.00     0.153 HD
BRANCH  26  28
HETATM   28  C5  UNL     1      13.884  31.700   0.843  1.00  0.00     0.113 C 
BRANCH  28  29
HETATM   29  C4  UNL     1      15.084  30.822   0.520  1.00  0.00     0.019 C 
BRANCH  29  30
HETATM   30  C3  UNL     1      14.893  30.009  -0.716  1.00  0.00     0.001 C 
BRANCH  30  31
HETATM   31  C2  UNL     1      15.601  28.696  -0.642  1.00  0.00    -0.004 C 
HETATM   32  C1  UNL     1      15.199  27.888  -1.863  1.00  0.00     0.005 C 
ENDBRANCH  30  31
ENDBRANCH  29  30
ENDBRANCH  28  29
ENDBRANCH  26  28
ENDBRANCH  25  26
ENDBRANCH  24  25
ENDBRANCH  23  24
ENDBRANCH  22  23
BRANCH  21  33
HETATM   33  C11 UNL     1       7.324  30.863   2.740  1.00  0.00     0.281 C 
HETATM   34  N2  UNL     1       6.234  30.973   1.841  1.00  0.00    -0.056 NA
HETATM   35  O1  UNL     1       7.251  31.728   3.692  1.00  0.00    -0.269 OA
ENDBRANCH  21  33
ENDBRANCH   1  21
BRANCH   3  36
HETATM   36  N4  UNL     1       8.451  26.224   2.808  1.00  0.00    -0.355 N 
HETATM   37  C14 UNL     1       8.731  26.191   4.185  1.00  0.00     0.221 C 
HETATM   38  O2  UNL     1       9.637  26.894   4.652  1.00  0.00    -0.273 OA
ATOM     39  H4  UNL     1       7.695  25.622   2.482  1.00  0.00     0.162 HD
BRANCH  37  40
HETATM   40  C15 UNL     1       7.941  25.317   5.059  1.00  0.00     0.074 C 
HETATM   41  C16 UNL     1       8.584  23.932   5.083  1.00  0.00     0.020 C 
BRANCH  40  42
HETATM   42  C17 UNL     1       6.486  25.278   4.884  1.00  0.00     0.013 C 
BRANCH  42  43
HETATM   43  C18 UNL     1       5.831  24.002   4.523  1.00  0.00     0.003 C 
BRANCH  43  44
HETATM   44  C19 UNL     1       4.539  23.766   5.296  1.00  0.00     0.031 C 
BRANCH  44  45
HETATM   45  C20 UNL     1       4.652  22.584   6.226  1.00  0.00     0.222 C 
HETATM   46  F1  UNL     1       5.977  22.526   6.636  1.00  0.00    -0.255 F 
ENDBRANCH  44  45
ENDBRANCH  43  44
ENDBRANCH  42  43
ENDBRANCH  40  42
ENDBRANCH  37  40
ENDBRANCH   3  36
BRANCH  16  47
HETATM   47  O7  UNL     1      10.379  30.979  -2.829  1.00  0.00    -0.392 OA
ATOM     48  H7  UNL     1      10.425  31.848  -2.450  1.00  0.00     0.210 HD
ENDBRANCH  16  47
BRANCH  15  49
HETATM   49  O6  UNL     1       7.749  28.593  -2.729  1.00  0.00    -0.390 OA
ATOM     50  H6  UNL     1       7.934  28.554  -1.798  1.00  0.00     0.210 HD
ENDBRANCH  15  49
BRANCH  14  51
HETATM   51  O5  UNL     1      10.135  29.233  -5.148  1.00  0.00    -0.391 OA
ATOM     52  H5  UNL     1      11.037  29.520  -5.066  1.00  0.00     0.210 HD
ENDBRANCH  14  51
TORSDOF 19
ENDMDL
MODEL 5
REMARK VINA RESULT: -7.013127432      3.539      6.891
REMARK  19 active torsions:
REMARK  status: ('A' for Active; 'I' for Inactive)
REMARK    1  A    between atoms: C2_2  and  C3_3 
REMARK    2  A    between atoms: C3_3  and  C4_4 
REMARK    3  A    between atoms: C4_4  and  C5_5 
REMARK    4  A    between atoms: C5_5  and  N1_6 
REMARK    5  A    between atoms: N1_6  and  C6_8 
REMARK    6  A    between atoms: C6_8  and  C7_9 
REMARK    7  A    between atoms: C7_9  and  C8_10 
REMARK    8  A    between atoms: C8_10  and  C9_11 
REMARK    9  A    between atoms: C10_12  and  C11_13 
REMARK   10  A    between atoms: C10_12  and  N3_16 
REMARK   11  A    between atoms: C13_18  and  N4_19 
REMARK       I    between atoms: N4_19  and  C14_21 
REMARK   12  A    between atoms: C14_21  and  C15_23 
REMARK   13  A    between atoms: C15_23  and  C17_25 
REMARK   14  A    between atoms: C17_25  and  C18_26 
REMARK   15  A    between atoms: C18_26  and  C19_27 
REMARK   16  A    between atoms: C19_27  and  C20_28 
REMARK   17  A    between atoms: C27_40  and  O5_41 
REMARK   18  A    between atoms: C28_43  and  O6_44 
REMARK   19  A    between atoms: C29_46  and  O7_47 
ROOT
HETATM    1  N3  UNL     1       8.714  27.420   3.657  1.00  0.00    -0.311 N 
HETATM    2  C12 UNL     1       9.220  28.663   4.254  1.00  0.00     0.157 C 
HETATM    3  C13 UNL     1       8.180  29.447   5.004  1.00  0.00     0.102 C 
HETATM    4  C21 UNL     1       7.950  30.786   4.335  1.00  0.00     0.027 C 
HETATM    5  C22 UNL     1       9.195  31.534   4.007  1.00  0.00     0.004 C 
HETATM    6  C23 UNL     1       8.800  33.004   3.799  1.00  0.00     0.020 C 
HETATM    7  C24 UNL     1       8.381  33.148   2.340  1.00  0.00     0.125 C 
HETATM    8  N5  UNL     1       9.276  34.087   1.706  1.00  0.00    -0.337 N 
ATOM      9  H5  UNL     1       9.781  34.751   2.292  1.00  0.00     0.164 HD
HETATM   10  C25 UNL     1       9.487  34.127   0.289  1.00  0.00     0.360 C 
HETATM   11  O3  UNL     1       9.652  35.281  -0.243  1.00  0.00    -0.239 OA
HETATM   12  O4  UNL     1       9.513  32.990  -0.490  1.00  0.00    -0.301 OA
HETATM   13  C26 UNL     1      10.292  31.839  -0.242  1.00  0.00     0.215 C 
HETATM   14  C27 UNL     1       9.576  30.586  -0.739  1.00  0.00     0.173 C 
HETATM   15  C28 UNL     1      10.272  29.338  -0.278  1.00  0.00     0.178 C 
HETATM   16  C29 UNL     1       9.286  28.209   0.026  1.00  0.00     0.162 C 
HETATM   17  C30 UNL     1       8.517  28.493   1.319  1.00  0.00     0.105 C 
HETATM   18  C31 UNL     1       7.050  28.621   0.962  1.00  0.00     0.022 C 
HETATM   19  C32 UNL     1       8.640  27.363   2.265  1.00  0.00     0.231 C 
HETATM   20  O8  UNL     1       8.676  26.252   1.689  1.00  0.00    -0.273 OA
ENDROOT
BRANCH   1  21
HETATM   21  C10 UNL     1       8.371  26.393   4.611  1.00  0.00     0.102 C 
HETATM   22  C9  UNL     1       6.975  26.098   4.851  1.00  0.00     0.031 C 
BRANCH  22  23
HETATM   23  C8  UNL     1       6.111  25.372   3.910  1.00  0.00    -0.023 C 
BRANCH  23  24
HETATM   24  C7  UNL     1       4.954  24.589   4.348  1.00  0.00     0.046 C 
BRANCH  24  25
HETATM   25  C6  UNL     1       5.219  23.476   5.331  1.00  0.00     0.117 C 
BRANCH  25  26
HETATM   26  N1  UNL     1       3.960  22.983   5.833  1.00  0.00    -0.421 N 
ATOM     27  H1  UNL     1       3.062  23.276   5.446  1.00  0.00     0.153 HD
BRANCH  26  28
HETATM   28  C5  UNL     1       4.061  22.052   6.913  1.00  0.00     0.113 C 
BRANCH  28  29
HETATM   29  C4  UNL     1       2.827  22.249   7.779  1.00  0.00     0.019 C 
BRANCH  29  30
HETATM   30  C3  UNL     1       1.716  21.317   7.430  1.00  0.00     0.001 C 
BRANCH  30  31
HETATM   31  C2  UNL     1       0.379  21.974   7.518  1.00  0.00    -0.004 C 
HETATM   32  C1  UNL     1      -0.547  21.035   8.271  1.00  0.00     0.005 C 
ENDBRANCH  30  31
ENDBRANCH  29  30
ENDBRANCH  28  29
ENDBRANCH  26  28
ENDBRANCH  25  26
ENDBRANCH  24  25
ENDBRANCH  23  24
ENDBRANCH  22  23
BRANCH  21  33
HETATM   33  C11 UNL     1       9.240  25.214   4.453  1.00  0.00     0.281 C 
HETATM   34  N2  UNL     1       8.966  23.892   4.880  1.00  0.00    -0.056 NA
HETATM   35  O1  UNL     1      10.388  25.305   3.876  1.00  0.00    -0.269 OA
ENDBRANCH  21  33
ENDBRANCH   1  21
BRANCH   3  36
HETATM   36  N4  UNL     1       8.492  29.606   6.407  1.00  0.00    -0.355 N 
HETATM   37  C14 UNL     1       7.703  29.201   7.497  1.00  0.00     0.221 C 
HETATM   38  O2  UNL     1       6.614  28.646   7.304  1.00  0.00    -0.273 OA
ATOM     39  H4  UNL     1       9.378  30.059   6.628  1.00  0.00     0.162 HD
BRANCH  37  40
HETATM   40  C15 UNL     1       8.183  29.445   8.862  1.00  0.00     0.074 C 
HETATM   41  C16 UNL     1       7.167  28.879   9.851  1.00  0.00     0.020 C 
BRANCH  40  42
HETATM   42  C17 UNL     1       8.647  30.791   9.213  1.00  0.00     0.013 C 
BRANCH  42  43
HETATM   43  C18 UNL     1       7.723  31.938   9.079  1.00  0.00     0.003 C 
BRANCH  43  44
HETATM   44  C19 UNL     1       8.114  32.876   7.943  1.00  0.00     0.031 C 
BRANCH  44  45
HETATM   45  C20 UNL     1       6.938  33.199   7.055  1.00  0.00     0.222 C 
HETATM   46  F1  UNL     1       6.219  32.021   6.902  1.00  0.00    -0.255 F 
ENDBRANCH  44  45
ENDBRANCH  43  44
ENDBRANCH  42  43
ENDBRANCH  40  42
ENDBRANCH  37  40
ENDBRANCH   3  36
BRANCH  16  47
HETATM   47  O7  UNL     1       8.445  28.094  -1.064  1.00  0.00    -0.392 OA
ATOM     48  H7  UNL     1       8.886  28.490  -1.806  1.00  0.00     0.210 HD
ENDBRANCH  16  47
BRANCH  15  49
HETATM   49  O6  UNL     1      10.985  29.638   0.879  1.00  0.00    -0.390 OA
ATOM     50  H6  UNL     1      11.584  28.923   1.053  1.00  0.00     0.210 HD
ENDBRANCH  15  49
BRANCH  14  51
HETATM   51  O5  UNL     1       9.578  30.550  -2.144  1.00  0.00    -0.391 OA
ATOM     52  H5  UNL     1       8.748  30.216  -2.465  1.00  0.00     0.210 HD
ENDBRANCH  14  51
TORSDOF 19
ENDMDL
