MODEL 1
REMARK VINA RESULT: -8.504048776      0.000      0.000
REMARK  18 active torsions:
REMARK  status: ('A' for Active; 'I' for Inactive)
REMARK    1  A    between atoms: O1_2  and  C2_3 
REMARK    2  A    between atoms: C2_3  and  C3_4 
REMARK    3  A    between atoms: C3_4  and  N1_5 
REMARK    4  A    between atoms: N1_5  and  C4_8 
REMARK    5  A    between atoms: C4_8  and  C5_9 
REMARK    6  A    between atoms: C5_9  and  C6_10 
REMARK    7  A    between atoms: C6_10  and  C7_11 
REMARK    8  A    between atoms: C7_11  and  C8_12 
REMARK    9  A    between atoms: C8_12  and  C9_13 
REMARK   10  A    between atoms: C9_13  and  O2_14 
REMARK   11  A    between atoms: O2_14  and  C10_15 
REMARK   12  A    between atoms: C11_16  and  O3_17 
REMARK   13  A    between atoms: C15_21  and  N2_22 
REMARK   14  A    between atoms: N2_22  and  C16_23 
REMARK   15  A    between atoms: C16_23  and  C17_24 
REMARK   16  A    between atoms: C23_32  and  N4_33 
REMARK   17  A    between atoms: C25_35  and  N5_36 
REMARK       I    between atoms: N5_36  and  C26_38 
REMARK   18  A    between atoms: C28_44  and  N8_45 
REMARK       I    between atoms: N8_45  and  C29_47 
ROOT
HETATM    1  C10 UNL     1      -1.024  22.911   6.862  1.00  0.00     0.143 A 
HETATM    2  C11 UNL     1      -2.063  22.031   6.998  1.00  0.00     0.105 A 
HETATM    3  C13 UNL     1      -3.249  22.547   7.491  1.00  0.00     0.058 A 
HETATM    4  C14 UNL     1      -3.423  23.866   7.837  1.00  0.00     0.056 A 
HETATM    5  C15 UNL     1      -4.646  24.346   8.321  1.00  0.00     0.205 A 
HETATM    6  N3  UNL     1      -4.755  25.694   8.631  1.00  0.00    -0.163 N 
ATOM      7  H3  UNL     1      -5.635  26.071   8.986  1.00  0.00     0.187 HD
HETATM    8  C23 UNL     1      -3.704  26.493   8.464  1.00  0.00     0.683 A 
HETATM    9  N10 UNL     1      -2.540  26.056   8.012  1.00  0.00    -0.188 N 
ATOM     10  H10 UNL     1      -1.761  26.706   7.902  1.00  0.00     0.184 HD
HETATM   11  C31 UNL     1      -2.382  24.747   7.695  1.00  0.00     0.105 A 
HETATM   12  C32 UNL     1      -1.182  24.261   7.208  1.00  0.00     0.180 A 
HETATM   13  F1  UNL     1      -0.138  25.096   7.062  1.00  0.00    -0.201 F 
ENDROOT
BRANCH   8  14
HETATM   14  N4  UNL     1      -3.859  27.919   8.780  1.00  0.00    -0.214 N 
HETATM   15  C24 UNL     1      -4.394  28.228  10.077  1.00  0.00     0.166 C 
HETATM   16  C25 UNL     1      -3.978  29.536  10.623  1.00  0.00     0.104 C 
HETATM   17  C27 UNL     1      -3.855  30.614   9.562  1.00  0.00     0.053 C 
HETATM   18  C28 UNL     1      -2.988  30.178   8.452  1.00  0.00     0.106 C 
HETATM   19  C30 UNL     1      -3.497  28.905   7.838  1.00  0.00     0.166 C 
BRANCH  16  20
HETATM   20  N5  UNL     1      -4.928  30.039  11.588  1.00  0.00    -0.359 N 
HETATM   21  C26 UNL     1      -4.527  30.220  12.918  1.00  0.00     0.182 C 
HETATM   22  N6  UNL     1      -4.489  31.394  13.465  1.00  0.00    -0.374 N 
HETATM   23  N7  UNL     1      -4.147  29.105  13.691  1.00  0.00    -0.064 NA
ATOM     24  H62 UNL     1      -4.764  32.201  12.906  1.00  0.00     0.158 HD
ATOM     25  H61 UNL     1      -4.197  31.526  14.433  1.00  0.00     0.158 HD
ATOM     26  H5  UNL     1      -5.882  30.261  11.304  1.00  0.00     0.162 HD
ENDBRANCH  16  20
BRANCH  18  27
HETATM   27  N8  UNL     1      -1.587  29.977   8.793  1.00  0.00    -0.339 N 
HETATM   28  C29 UNL     1      -0.530  30.360   7.930  1.00  0.00     0.329 C 
HETATM   29  N9  UNL     1       0.803  30.155   8.319  1.00  0.00    -0.040 NA
HETATM   30  O4  UNL     1      -0.832  30.888   6.824  1.00  0.00    -0.251 OA
ATOM     31  H8  UNL     1      -1.357  29.544   9.687  1.00  0.00     0.164 HD
ENDBRANCH  18  27
ENDBRANCH   8  14
BRANCH   5  32
HETATM   32  N2  UNL     1      -5.551  23.653   8.538  1.00  0.00    -0.398 NA
BRANCH  32  33
HETATM   33  C16 UNL     1      -6.584  22.854   8.793  1.00  0.00     0.196 C 
BRANCH  33  34
HETATM   34  C17 UNL     1      -6.222  21.568   9.514  1.00  0.00    -0.007 A 
HETATM   35  C18 UNL     1      -6.406  21.487  10.874  1.00  0.00     0.014 A 
HETATM   36  C19 UNL     1      -6.106  20.332  11.561  1.00  0.00     0.001 A 
HETATM   37  C20 UNL     1      -5.605  19.214  10.893  1.00  0.00     0.000 A 
HETATM   38  C21 UNL     1      -5.437  19.343   9.531  1.00  0.00     0.001 A 
HETATM   39  C22 UNL     1      -5.740  20.512   8.825  1.00  0.00     0.014 A 
ENDBRANCH  33  34
ENDBRANCH  32  33
ENDBRANCH   5  32
BRANCH   1  40
HETATM   40  O2  UNL     1       0.194  22.488   6.381  1.00  0.00    -0.345 OA
BRANCH  40  41
HETATM   41  C9  UNL     1       1.279  21.966   7.053  1.00  0.00     0.176 C 
BRANCH  41  42
HETATM   42  C8  UNL     1       2.422  22.984   6.911  1.00  0.00     0.027 C 
BRANCH  42  43
HETATM   43  C7  UNL     1       3.370  22.474   5.879  1.00  0.00     0.002 C 
BRANCH  43  44
HETATM   44  C6  UNL     1       4.809  22.463   6.342  1.00  0.00     0.002 C 
BRANCH  44  45
HETATM   45  C5  UNL     1       5.698  23.429   5.677  1.00  0.00     0.027 C 
BRANCH  45  46
HETATM   46  C4  UNL     1       5.115  24.286   4.642  1.00  0.00     0.232 C 
BRANCH  46  47
HETATM   47  N1  UNL     1       5.935  25.115   3.833  1.00  0.00    -0.073 N 
ATOM     48  H12 UNL     1       5.918  26.079   4.165  1.00  0.00     0.277 HD
ATOM     49  H11 UNL     1       5.519  25.249   2.911  1.00  0.00     0.277 HD
BRANCH  47  50
HETATM   50  C3  UNL     1       7.262  24.643   3.724  1.00  0.00     0.258 C 
BRANCH  50  51
HETATM   51  C2  UNL     1       8.038  25.430   2.702  1.00  0.00     0.194 C 
BRANCH  51  52
HETATM   52  O1  UNL     1       7.910  24.985   1.425  1.00  0.00    -0.394 OA
HETATM   53  C1  UNL     1       8.958  25.150   0.576  1.00  0.00     0.201 C 
ENDBRANCH  51  52
ENDBRANCH  50  51
ENDBRANCH  47  50
ENDBRANCH  46  47
ENDBRANCH  45  46
ENDBRANCH  44  45
ENDBRANCH  43  44
ENDBRANCH  42  43
ENDBRANCH  41  42
ENDBRANCH  40  41
ENDBRANCH   1  40
BRANCH   2  54
HETATM   54  O3  UNL     1      -1.941  20.688   6.661  1.00  0.00    -0.353 OA
HETATM   55  C12 UNL     1      -3.095  19.975   6.248  1.00  0.00     0.210 C 
ENDBRANCH   2  54
TORSDOF 18
ENDMDL
MODEL 2
REMARK VINA RESULT: -8.485322749      0.746      1.138
REMARK  18 active torsions:
REMARK  status: ('A' for Active; 'I' for Inactive)
REMARK    1  A    between atoms: O1_2  and  C2_3 
REMARK    2  A    between atoms: C2_3  and  C3_4 
REMARK    3  A    between atoms: C3_4  and  N1_5 
REMARK    4  A    between atoms: N1_5  and  C4_8 
REMARK    5  A    between atoms: C4_8  and  C5_9 
REMARK    6  A    between atoms: C5_9  and  C6_10 
REMARK    7  A    between atoms: C6_10  and  C7_11 
REMARK    8  A    between atoms: C7_11  and  C8_12 
REMARK    9  A    between atoms: C8_12  and  C9_13 
REMARK   10  A    between atoms: C9_13  and  O2_14 
REMARK   11  A    between atoms: O2_14  and  C10_15 
REMARK   12  A    between atoms: C11_16  and  O3_17 
REMARK   13  A    between atoms: C15_21  and  N2_22 
REMARK   14  A    between atoms: N2_22  and  C16_23 
REMARK   15  A    between atoms: C16_23  and  C17_24 
REMARK   16  A    between atoms: C23_32  and  N4_33 
REMARK   17  A    between atoms: C25_35  and  N5_36 
REMARK       I    between atoms: N5_36  and  C26_38 
REMARK   18  A    between atoms: C28_44  and  N8_45 
REMARK       I    between atoms: N8_45  and  C29_47 
ROOT
HETATM    1  C10 UNL     1      -1.044  22.946   6.839  1.00  0.00     0.143 A 
HETATM    2  C11 UNL     1      -2.072  22.055   6.983  1.00  0.00     0.105 A 
HETATM    3  C13 UNL     1      -3.261  22.557   7.484  1.00  0.00     0.058 A 
HETATM    4  C14 UNL     1      -3.448  23.874   7.830  1.00  0.00     0.056 A 
HETATM    5  C15 UNL     1      -4.673  24.340   8.323  1.00  0.00     0.205 A 
HETATM    6  N3  UNL     1      -4.795  25.687   8.634  1.00  0.00    -0.163 N 
ATOM      7  H3  UNL     1      -5.677  26.053   8.994  1.00  0.00     0.187 HD
HETATM    8  C23 UNL     1      -3.755  26.497   8.458  1.00  0.00     0.683 A 
HETATM    9  N10 UNL     1      -2.589  26.074   7.999  1.00  0.00    -0.188 N 
ATOM     10  H10 UNL     1      -1.818  26.733   7.883  1.00  0.00     0.184 HD
HETATM   11  C31 UNL     1      -2.417  24.767   7.681  1.00  0.00     0.105 A 
HETATM   12  C32 UNL     1      -1.216  24.295   7.186  1.00  0.00     0.180 A 
HETATM   13  F1  UNL     1      -0.182  25.141   7.032  1.00  0.00    -0.201 F 
ENDROOT
BRANCH   8  14
HETATM   14  N4  UNL     1      -3.924  27.922   8.775  1.00  0.00    -0.214 N 
HETATM   15  C24 UNL     1      -4.465  28.225  10.071  1.00  0.00     0.166 C 
HETATM   16  C25 UNL     1      -4.063  29.536  10.619  1.00  0.00     0.104 C 
HETATM   17  C27 UNL     1      -3.947  30.617   9.559  1.00  0.00     0.053 C 
HETATM   18  C28 UNL     1      -3.073  30.190   8.451  1.00  0.00     0.106 C 
HETATM   19  C30 UNL     1      -3.569  28.912   7.835  1.00  0.00     0.166 C 
BRANCH  16  20
HETATM   20  N5  UNL     1      -5.020  30.030  11.582  1.00  0.00    -0.359 N 
HETATM   21  C26 UNL     1      -4.637  30.175  12.922  1.00  0.00     0.182 C 
HETATM   22  N6  UNL     1      -4.591  31.334  13.496  1.00  0.00    -0.374 N 
HETATM   23  N7  UNL     1      -4.283  29.037  13.673  1.00  0.00    -0.064 NA
ATOM     24  H62 UNL     1      -4.848  32.157  12.952  1.00  0.00     0.158 HD
ATOM     25  H61 UNL     1      -4.312  31.440  14.472  1.00  0.00     0.158 HD
ATOM     26  H5  UNL     1      -5.967  30.271  11.290  1.00  0.00     0.162 HD
ENDBRANCH  16  20
BRANCH  18  27
HETATM   27  N8  UNL     1      -1.671  30.002   8.796  1.00  0.00    -0.339 N 
HETATM   28  C29 UNL     1      -0.617  30.344   7.914  1.00  0.00     0.329 C 
HETATM   29  N9  UNL     1       0.718  30.154   8.307  1.00  0.00    -0.040 NA
HETATM   30  O4  UNL     1      -0.922  30.824   6.786  1.00  0.00    -0.251 OA
ATOM     31  H8  UNL     1      -1.439  29.608   9.708  1.00  0.00     0.164 HD
ENDBRANCH  18  27
ENDBRANCH   8  14
BRANCH   5  32
HETATM   32  N2  UNL     1      -5.568  23.637   8.546  1.00  0.00    -0.398 NA
BRANCH  32  33
HETATM   33  C16 UNL     1      -6.596  22.828   8.791  1.00  0.00     0.196 C 
BRANCH  33  34
HETATM   34  C17 UNL     1      -6.222  21.522   9.469  1.00  0.00    -0.007 A 
HETATM   35  C18 UNL     1      -5.751  20.481   8.704  1.00  0.00     0.014 A 
HETATM   36  C19 UNL     1      -5.385  19.287   9.283  1.00  0.00     0.001 A 
HETATM   37  C20 UNL     1      -5.485  19.102  10.662  1.00  0.00     0.000 A 
HETATM   38  C21 UNL     1      -5.962  20.173  11.387  1.00  0.00     0.001 A 
HETATM   39  C22 UNL     1      -6.335  21.390  10.807  1.00  0.00     0.014 A 
ENDBRANCH  33  34
ENDBRANCH  32  33
ENDBRANCH   5  32
BRANCH   1  40
HETATM   40  O2  UNL     1       0.175  22.537   6.349  1.00  0.00    -0.345 OA
BRANCH  40  41
HETATM   41  C9  UNL     1       1.284  22.066   7.018  1.00  0.00     0.176 C 
BRANCH  41  42
HETATM   42  C8  UNL     1       2.512  22.720   6.362  1.00  0.00     0.027 C 
BRANCH  42  43
HETATM   43  C7  UNL     1       3.735  22.110   6.958  1.00  0.00     0.002 C 
BRANCH  43  44
HETATM   44  C6  UNL     1       5.003  22.474   6.223  1.00  0.00     0.002 C 
BRANCH  44  45
HETATM   45  C5  UNL     1       4.903  23.625   5.311  1.00  0.00     0.027 C 
BRANCH  45  46
HETATM   46  C4  UNL     1       6.147  24.298   4.929  1.00  0.00     0.232 C 
BRANCH  46  47
HETATM   47  N1  UNL     1       6.244  25.014   3.709  1.00  0.00    -0.073 N 
ATOM     48  H12 UNL     1       5.838  25.945   3.800  1.00  0.00     0.277 HD
ATOM     49  H11 UNL     1       5.615  24.626   3.007  1.00  0.00     0.277 HD
BRANCH  47  50
HETATM   50  C3  UNL     1       7.566  25.089   3.215  1.00  0.00     0.258 C 
BRANCH  50  51
HETATM   51  C2  UNL     1       8.572  24.909   4.321  1.00  0.00     0.194 C 
BRANCH  51  52
HETATM   52  O1  UNL     1       9.502  25.895   4.407  1.00  0.00    -0.394 OA
HETATM   53  C1  UNL     1       9.084  27.186   4.337  1.00  0.00     0.201 C 
ENDBRANCH  51  52
ENDBRANCH  50  51
ENDBRANCH  47  50
ENDBRANCH  46  47
ENDBRANCH  45  46
ENDBRANCH  44  45
ENDBRANCH  43  44
ENDBRANCH  42  43
ENDBRANCH  41  42
ENDBRANCH  40  41
ENDBRANCH   1  40
BRANCH   2  54
HETATM   54  O3  UNL     1      -1.937  20.713   6.645  1.00  0.00    -0.353 OA
HETATM   55  C12 UNL     1      -3.085  19.987   6.236  1.00  0.00     0.210 C 
ENDBRANCH   2  54
TORSDOF 18
ENDMDL
MODEL 3
REMARK VINA RESULT: -8.388177706      5.942     16.448
REMARK  18 active torsions:
REMARK  status: ('A' for Active; 'I' for Inactive)
REMARK    1  A    between atoms: O1_2  and  C2_3 
REMARK    2  A    between atoms: C2_3  and  C3_4 
REMARK    3  A    between atoms: C3_4  and  N1_5 
REMARK    4  A    between atoms: N1_5  and  C4_8 
REMARK    5  A    between atoms: C4_8  and  C5_9 
REMARK    6  A    between atoms: C5_9  and  C6_10 
REMARK    7  A    between atoms: C6_10  and  C7_11 
REMARK    8  A    between atoms: C7_11  and  C8_12 
REMARK    9  A    between atoms: C8_12  and  C9_13 
REMARK   10  A    between atoms: C9_13  and  O2_14 
REMARK   11  A    between atoms: O2_14  and  C10_15 
REMARK   12  A    between atoms: C11_16  and  O3_17 
REMARK   13  A    between atoms: C15_21  and  N2_22 
REMARK   14  A    between atoms: N2_22  and  C16_23 
REMARK   15  A    between atoms: C16_23  and  C17_24 
REMARK   16  A    between atoms: C23_32  and  N4_33 
REMARK   17  A    between atoms: C25_35  and  N5_36 
REMARK       I    between atoms: N5_36  and  C26_38 
REMARK   18  A    between atoms: C28_44  and  N8_45 
REMARK       I    between atoms: N8_45  and  C29_47 
ROOT
HETATM    1  C10 UNL     1       8.314  25.918   3.623  1.00  0.00     0.143 A 
HETATM    2  C11 UNL     1       8.554  27.223   3.956  1.00  0.00     0.105 A 
HETATM    3  C13 UNL     1       9.005  28.048   2.939  1.00  0.00     0.058 A 
HETATM    4  C14 UNL     1       9.214  27.624   1.648  1.00  0.00     0.056 A 
HETATM    5  C15 UNL     1       9.661  28.497   0.649  1.00  0.00     0.205 A 
HETATM    6  N3  UNL     1       9.830  28.004  -0.637  1.00  0.00    -0.163 N 
ATOM      7  H3  UNL     1      10.155  28.618  -1.385  1.00  0.00     0.187 HD
HETATM    8  C23 UNL     1       9.568  26.724  -0.889  1.00  0.00     0.683 A 
HETATM    9  N10 UNL     1       9.150  25.883   0.043  1.00  0.00    -0.188 N 
ATOM     10  H10 UNL     1       8.963  24.909  -0.196  1.00  0.00     0.184 HD
HETATM   11  C31 UNL     1       8.969  26.316   1.316  1.00  0.00     0.105 A 
HETATM   12  C32 UNL     1       8.520  25.466   2.311  1.00  0.00     0.180 A 
HETATM   13  F1  UNL     1       8.275  24.176   2.022  1.00  0.00    -0.201 F 
ENDROOT
BRANCH   8  14
HETATM   14  N4  UNL     1       9.736  26.239  -2.265  1.00  0.00    -0.214 N 
HETATM   15  C24 UNL     1       9.651  24.817  -2.453  1.00  0.00     0.166 C 
HETATM   16  C25 UNL     1       9.197  24.395  -3.793  1.00  0.00     0.104 C 
HETATM   17  C27 UNL     1       9.708  25.292  -4.907  1.00  0.00     0.053 C 
HETATM   18  C28 UNL     1       9.400  26.708  -4.640  1.00  0.00     0.106 C 
HETATM   19  C30 UNL     1       9.972  27.145  -3.320  1.00  0.00     0.166 C 
BRANCH  16  20
HETATM   20  N5  UNL     1       9.653  23.063  -4.119  1.00  0.00    -0.359 N 
HETATM   21  C26 UNL     1       9.518  22.591  -5.431  1.00  0.00     0.182 C 
HETATM   22  N6  UNL     1      10.549  22.310  -6.163  1.00  0.00    -0.374 N 
HETATM   23  N7  UNL     1       8.234  22.419  -5.982  1.00  0.00    -0.064 NA
ATOM     24  H62 UNL     1      11.479  22.434  -5.763  1.00  0.00     0.158 HD
ATOM     25  H61 UNL     1      10.452  21.966  -7.118  1.00  0.00     0.158 HD
ATOM     26  H5  UNL     1      10.069  22.472  -3.399  1.00  0.00     0.162 HD
ENDBRANCH  16  20
BRANCH  18  27
HETATM   27  N8  UNL     1       7.985  27.053  -4.647  1.00  0.00    -0.339 N 
HETATM   28  C29 UNL     1       7.502  28.275  -5.179  1.00  0.00     0.329 C 
HETATM   29  N9  UNL     1       6.124  28.547  -5.172  1.00  0.00    -0.040 NA
HETATM   30  O4  UNL     1       8.343  29.087  -5.654  1.00  0.00    -0.251 OA
ATOM     31  H8  UNL     1       7.317  26.391  -4.254  1.00  0.00     0.164 HD
ENDBRANCH  18  27
ENDBRANCH   8  14
BRANCH   5  32
HETATM   32  N2  UNL     1       9.958  29.597   0.864  1.00  0.00    -0.398 NA
BRANCH  32  33
HETATM   33  C16 UNL     1      10.310  30.856   1.113  1.00  0.00     0.196 C 
BRANCH  33  34
HETATM   34  C17 UNL     1      11.807  31.106   1.104  1.00  0.00    -0.007 A 
HETATM   35  C18 UNL     1      12.362  31.890   2.088  1.00  0.00     0.014 A 
HETATM   36  C19 UNL     1      13.718  32.125   2.123  1.00  0.00     0.001 A 
HETATM   37  C20 UNL     1      14.564  31.575   1.159  1.00  0.00     0.000 A 
HETATM   38  C21 UNL     1      13.962  30.798   0.193  1.00  0.00     0.001 A 
HETATM   39  C22 UNL     1      12.585  30.552   0.150  1.00  0.00     0.014 A 
ENDBRANCH  33  34
ENDBRANCH  32  33
ENDBRANCH   5  32
BRANCH   1  40
HETATM   40  O2  UNL     1       7.865  25.025   4.569  1.00  0.00    -0.345 OA
BRANCH  40  41
HETATM   41  C9  UNL     1       6.581  24.613   4.858  1.00  0.00     0.176 C 
BRANCH  41  42
HETATM   42  C8  UNL     1       6.643  23.094   5.090  1.00  0.00     0.027 C 
BRANCH  42  43
HETATM   43  C7  UNL     1       5.914  22.790   6.355  1.00  0.00     0.002 C 
BRANCH  43  44
HETATM   44  C6  UNL     1       4.441  22.529   6.149  1.00  0.00     0.002 C 
BRANCH  44  45
HETATM   45  C5  UNL     1       3.710  22.038   7.328  1.00  0.00     0.027 C 
BRANCH  45  46
HETATM   46  C4  UNL     1       2.349  21.538   7.123  1.00  0.00     0.232 C 
BRANCH  46  47
HETATM   47  N1  UNL     1       1.366  21.652   8.140  1.00  0.00    -0.073 N 
ATOM     48  H12 UNL     1       1.599  22.404   8.788  1.00  0.00     0.277 HD
ATOM     49  H11 UNL     1       1.411  20.860   8.780  1.00  0.00     0.277 HD
BRANCH  47  50
HETATM   50  C3  UNL     1       0.059  21.814   7.630  1.00  0.00     0.258 C 
BRANCH  50  51
HETATM   51  C2  UNL     1       0.011  22.899   6.587  1.00  0.00     0.194 C 
BRANCH  51  52
HETATM   52  O1  UNL     1       0.020  24.164   7.083  1.00  0.00    -0.394 OA
HETATM   53  C1  UNL     1      -0.873  25.059   6.584  1.00  0.00     0.201 C 
ENDBRANCH  51  52
ENDBRANCH  50  51
ENDBRANCH  47  50
ENDBRANCH  46  47
ENDBRANCH  45  46
ENDBRANCH  44  45
ENDBRANCH  43  44
ENDBRANCH  42  43
ENDBRANCH  41  42
ENDBRANCH  40  41
ENDBRANCH   1  40
BRANCH   2  54
HETATM   54  O3  UNL     1       8.356  27.704   5.245  1.00  0.00    -0.353 OA
HETATM   55  C12 UNL     1       7.407  28.736   5.457  1.00  0.00     0.210 C 
ENDBRANCH   2  54
TORSDOF 18
ENDMDL
MODEL 4
REMARK VINA RESULT: -8.331024285      1.934      3.160
REMARK  18 active torsions:
REMARK  status: ('A' for Active; 'I' for Inactive)
REMARK    1  A    between atoms: O1_2  and  C2_3 
REMARK    2  A    between atoms: C2_3  and  C3_4 
REMARK    3  A    between atoms: C3_4  and  N1_5 
REMARK    4  A    between atoms: N1_5  and  C4_8 
REMARK    5  A    between atoms: C4_8  and  C5_9 
REMARK    6  A    between atoms: C5_9  and  C6_10 
REMARK    7  A    between atoms: C6_10  and  C7_11 
REMARK    8  A    between atoms: C7_11  and  C8_12 
REMARK    9  A    between atoms: C8_12  and  C9_13 
REMARK   10  A    between atoms: C9_13  and  O2_14 
REMARK   11  A    between atoms: O2_14  and  C10_15 
REMARK   12  A    between atoms: C11_16  and  O3_17 
REMARK   13  A    between atoms: C15_21  and  N2_22 
REMARK   14  A    between atoms: N2_22  and  C16_23 
REMARK   15  A    between atoms: C16_23  and  C17_24 
REMARK   16  A    between atoms: C23_32  and  N4_33 
REMARK   17  A    between atoms: C25_35  and  N5_36 
REMARK       I    between atoms: N5_36  and  C26_38 
REMARK   18  A    between atoms: C28_44  and  N8_45 
REMARK       I    between atoms: N8_45  and  C29_47 
ROOT
HETATM    1  C10 UNL     1      -1.084  23.014   6.796  1.00  0.00     0.143 A 
HETATM    2  C11 UNL     1      -2.093  22.096   6.906  1.00  0.00     0.105 A 
HETATM    3  C13 UNL     1      -3.286  22.550   7.444  1.00  0.00     0.058 A 
HETATM    4  C14 UNL     1      -3.494  23.844   7.857  1.00  0.00     0.056 A 
HETATM    5  C15 UNL     1      -4.722  24.261   8.385  1.00  0.00     0.205 A 
HETATM    6  N3  UNL     1      -4.867  25.588   8.763  1.00  0.00    -0.163 N 
ATOM      7  H3  UNL     1      -5.752  25.918   9.150  1.00  0.00     0.187 HD
HETATM    8  C23 UNL     1      -3.845  26.427   8.617  1.00  0.00     0.683 A 
HETATM    9  N10 UNL     1      -2.676  26.050   8.125  1.00  0.00    -0.188 N 
ATOM     10  H10 UNL     1      -1.919  26.729   8.034  1.00  0.00     0.184 HD
HETATM   11  C31 UNL     1      -2.483  24.764   7.741  1.00  0.00     0.105 A 
HETATM   12  C32 UNL     1      -1.278  24.340   7.211  1.00  0.00     0.180 A 
HETATM   13  F1  UNL     1      -0.263  25.214   7.088  1.00  0.00    -0.201 F 
ENDROOT
BRANCH   8  14
HETATM   14  N4  UNL     1      -4.038  27.830   9.005  1.00  0.00    -0.214 N 
HETATM   15  C24 UNL     1      -2.967  28.732   8.684  1.00  0.00     0.166 C 
HETATM   16  C25 UNL     1      -3.378  30.136   8.485  1.00  0.00     0.104 C 
HETATM   17  C27 UNL     1      -4.498  30.568   9.414  1.00  0.00     0.053 C 
HETATM   18  C28 UNL     1      -5.642  29.642   9.342  1.00  0.00     0.106 C 
HETATM   19  C30 UNL     1      -5.220  28.236   9.661  1.00  0.00     0.166 C 
BRANCH  16  20
HETATM   20  N5  UNL     1      -2.288  31.053   8.728  1.00  0.00    -0.359 N 
HETATM   21  C26 UNL     1      -1.676  31.698   7.646  1.00  0.00     0.182 C 
HETATM   22  N6  UNL     1      -1.731  32.984   7.499  1.00  0.00    -0.374 N 
HETATM   23  N7  UNL     1      -0.985  30.939   6.681  1.00  0.00    -0.064 NA
ATOM     24  H62 UNL     1      -2.231  33.532   8.197  1.00  0.00     0.158 HD
ATOM     25  H61 UNL     1      -1.286  33.453   6.711  1.00  0.00     0.158 HD
ATOM     26  H5  UNL     1      -1.966  31.229   9.680  1.00  0.00     0.162 HD
ENDBRANCH  16  20
BRANCH  18  27
HETATM   27  N8  UNL     1      -6.347  29.616   8.068  1.00  0.00    -0.339 N 
HETATM   28  C29 UNL     1      -7.585  30.277   7.868  1.00  0.00     0.329 C 
HETATM   29  N9  UNL     1      -8.211  30.229   6.612  1.00  0.00    -0.040 NA
HETATM   30  O4  UNL     1      -8.086  30.902   8.844  1.00  0.00    -0.251 OA
ATOM     31  H8  UNL     1      -5.934  29.102   7.290  1.00  0.00     0.164 HD
ENDBRANCH  18  27
ENDBRANCH   8  14
BRANCH   5  32
HETATM   32  N2  UNL     1      -5.601  23.529   8.582  1.00  0.00    -0.398 NA
BRANCH  32  33
HETATM   33  C16 UNL     1      -6.612  22.692   8.798  1.00  0.00     0.196 C 
BRANCH  33  34
HETATM   34  C17 UNL     1      -6.222  21.398   9.489  1.00  0.00    -0.007 A 
HETATM   35  C18 UNL     1      -5.688  20.374   8.743  1.00  0.00     0.014 A 
HETATM   36  C19 UNL     1      -5.306  19.192   9.335  1.00  0.00     0.001 A 
HETATM   37  C20 UNL     1      -5.451  19.002  10.710  1.00  0.00     0.000 A 
HETATM   38  C21 UNL     1      -5.991  20.056  11.416  1.00  0.00     0.001 A 
HETATM   39  C22 UNL     1      -6.381  21.261  10.822  1.00  0.00     0.014 A 
ENDBRANCH  33  34
ENDBRANCH  32  33
ENDBRANCH   5  32
BRANCH   1  40
HETATM   40  O2  UNL     1       0.137  22.654   6.274  1.00  0.00    -0.345 OA
BRANCH  40  41
HETATM   41  C9  UNL     1       1.283  22.231   6.913  1.00  0.00     0.176 C 
BRANCH  41  42
HETATM   42  C8  UNL     1       2.461  22.957   6.244  1.00  0.00     0.027 C 
BRANCH  42  43
HETATM   43  C7  UNL     1       3.652  22.062   6.306  1.00  0.00     0.002 C 
BRANCH  43  44
HETATM   44  C6  UNL     1       4.957  22.786   6.070  1.00  0.00     0.002 C 
BRANCH  44  45
HETATM   45  C5  UNL     1       4.902  23.901   5.112  1.00  0.00     0.027 C 
BRANCH  45  46
HETATM   46  C4  UNL     1       6.159  24.582   4.791  1.00  0.00     0.232 C 
BRANCH  46  47
HETATM   47  N1  UNL     1       6.409  25.075   3.484  1.00  0.00    -0.073 N 
ATOM     48  H12 UNL     1       5.959  25.979   3.344  1.00  0.00     0.277 HD
ATOM     49  H11 UNL     1       5.906  24.528   2.786  1.00  0.00     0.277 HD
BRANCH  47  50
HETATM   50  C3  UNL     1       7.786  25.145   3.174  1.00  0.00     0.258 C 
BRANCH  50  51
HETATM   51  C2  UNL     1       8.625  25.173   4.424  1.00  0.00     0.194 C 
BRANCH  51  52
HETATM   52  O1  UNL     1       9.494  26.214   4.500  1.00  0.00    -0.394 OA
HETATM   53  C1  UNL     1       9.009  27.438   4.840  1.00  0.00     0.201 C 
ENDBRANCH  51  52
ENDBRANCH  50  51
ENDBRANCH  47  50
ENDBRANCH  46  47
ENDBRANCH  45  46
ENDBRANCH  44  45
ENDBRANCH  43  44
ENDBRANCH  42  43
ENDBRANCH  41  42
ENDBRANCH  40  41
ENDBRANCH   1  40
BRANCH   2  54
HETATM   54  O3  UNL     1      -1.936  20.775   6.501  1.00  0.00    -0.353 OA
HETATM   55  C12 UNL     1      -3.088  20.009   6.192  1.00  0.00     0.210 C 
ENDBRANCH   2  54
TORSDOF 18
ENDMDL
MODEL 5
REMARK VINA RESULT: -8.328719235      1.800      3.009
REMARK  18 active torsions:
REMARK  status: ('A' for Active; 'I' for Inactive)
REMARK    1  A    between atoms: O1_2  and  C2_3 
REMARK    2  A    between atoms: C2_3  and  C3_4 
REMARK    3  A    between atoms: C3_4  and  N1_5 
REMARK    4  A    between atoms: N1_5  and  C4_8 
REMARK    5  A    between atoms: C4_8  and  C5_9 
REMARK    6  A    between atoms: C5_9  and  C6_10 
REMARK    7  A    between atoms: C6_10  and  C7_11 
REMARK    8  A    between atoms: C7_11  and  C8_12 
REMARK    9  A    between atoms: C8_12  and  C9_13 
REMARK   10  A    between atoms: C9_13  and  O2_14 
REMARK   11  A    between atoms: O2_14  and  C10_15 
REMARK   12  A    between atoms: C11_16  and  O3_17 
REMARK   13  A    between atoms: C15_21  and  N2_22 
REMARK   14  A    between atoms: N2_22  and  C16_23 
REMARK   15  A    between atoms: C16_23  and  C17_24 
REMARK   16  A    between atoms: C23_32  and  N4_33 
REMARK   17  A    between atoms: C25_35  and  N5_36 
REMARK       I    between atoms: N5_36  and  C26_38 
REMARK   18  A    between atoms: C28_44  and  N8_45 
REMARK       I    between atoms: N8_45  and  C29_47 
ROOT
HETATM    1  C10 UNL     1      -1.145  23.022   6.854  1.00  0.00     0.143 A 
HETATM    2  C11 UNL     1      -2.149  22.101   6.980  1.00  0.00     0.105 A 
HETATM    3  C13 UNL     1      -3.335  22.550   7.536  1.00  0.00     0.058 A 
HETATM    4  C14 UNL     1      -3.541  23.844   7.953  1.00  0.00     0.056 A 
HETATM    5  C15 UNL     1      -4.762  24.256   8.500  1.00  0.00     0.205 A 
HETATM    6  N3  UNL     1      -4.906  25.583   8.881  1.00  0.00    -0.163 N 
ATOM      7  H3  UNL     1      -5.785  25.910   9.282  1.00  0.00     0.187 HD
HETATM    8  C23 UNL     1      -3.888  26.425   8.720  1.00  0.00     0.683 A 
HETATM    9  N10 UNL     1      -2.726  26.052   8.209  1.00  0.00    -0.188 N 
ATOM     10  H10 UNL     1      -1.973  26.733   8.107  1.00  0.00     0.184 HD
HETATM   11  C31 UNL     1      -2.535  24.767   7.822  1.00  0.00     0.105 A 
HETATM   12  C32 UNL     1      -1.337  24.348   7.273  1.00  0.00     0.180 A 
HETATM   13  F1  UNL     1      -0.327  25.225   7.134  1.00  0.00    -0.201 F 
ENDROOT
BRANCH   8  14
HETATM   14  N4  UNL     1      -4.080  27.827   9.112  1.00  0.00    -0.214 N 
HETATM   15  C24 UNL     1      -3.001  28.726   8.809  1.00  0.00     0.166 C 
HETATM   16  C25 UNL     1      -3.403  30.133   8.611  1.00  0.00     0.104 C 
HETATM   17  C27 UNL     1      -4.533  30.566   9.527  1.00  0.00     0.053 C 
HETATM   18  C28 UNL     1      -5.680  29.645   9.436  1.00  0.00     0.106 C 
HETATM   19  C30 UNL     1      -5.268  28.235   9.754  1.00  0.00     0.166 C 
BRANCH  16  20
HETATM   20  N5  UNL     1      -2.312  31.043   8.872  1.00  0.00    -0.359 N 
HETATM   21  C26 UNL     1      -1.662  31.666   7.799  1.00  0.00     0.182 C 
HETATM   22  N6  UNL     1      -1.701  32.949   7.631  1.00  0.00    -0.374 N 
HETATM   23  N7  UNL     1      -0.950  30.886   6.867  1.00  0.00    -0.064 NA
ATOM     24  H62 UNL     1      -2.216  33.514   8.305  1.00  0.00     0.158 HD
ATOM     25  H61 UNL     1      -1.228  33.403   6.849  1.00  0.00     0.158 HD
ATOM     26  H5  UNL     1      -2.017  31.231   9.831  1.00  0.00     0.162 HD
ENDBRANCH  16  20
BRANCH  18  27
HETATM   27  N8  UNL     1      -6.369  29.628   8.153  1.00  0.00    -0.339 N 
HETATM   28  C29 UNL     1      -7.619  30.263   7.950  1.00  0.00     0.329 C 
HETATM   29  N9  UNL     1      -8.229  30.226   6.685  1.00  0.00    -0.040 NA
HETATM   30  O4  UNL     1      -8.146  30.857   8.931  1.00  0.00    -0.251 OA
ATOM     31  H8  UNL     1      -5.934  29.140   7.370  1.00  0.00     0.164 HD
ENDBRANCH  18  27
ENDBRANCH   8  14
BRANCH   5  32
HETATM   32  N2  UNL     1      -5.635  23.522   8.711  1.00  0.00    -0.398 NA
BRANCH  32  33
HETATM   33  C16 UNL     1      -6.630  22.674   8.958  1.00  0.00     0.196 C 
BRANCH  33  34
HETATM   34  C17 UNL     1      -6.207  21.387   9.643  1.00  0.00    -0.007 A 
HETATM   35  C18 UNL     1      -5.592  20.405   8.903  1.00  0.00     0.014 A 
HETATM   36  C19 UNL     1      -5.177  19.232   9.491  1.00  0.00     0.001 A 
HETATM   37  C20 UNL     1      -5.372  19.009  10.855  1.00  0.00     0.000 A 
HETATM   38  C21 UNL     1      -5.993  20.021  11.555  1.00  0.00     0.001 A 
HETATM   39  C22 UNL     1      -6.417  21.217  10.965  1.00  0.00     0.014 A 
ENDBRANCH  33  34
ENDBRANCH  32  33
ENDBRANCH   5  32
BRANCH   1  40
HETATM   40  O2  UNL     1       0.069  22.667   6.313  1.00  0.00    -0.345 OA
BRANCH  40  41
HETATM   41  C9  UNL     1       1.184  22.127   6.918  1.00  0.00     0.176 C 
BRANCH  41  42
HETATM   42  C8  UNL     1       2.409  22.780   6.259  1.00  0.00     0.027 C 
BRANCH  42  43
HETATM   43  C7  UNL     1       3.632  22.117   6.796  1.00  0.00     0.002 C 
BRANCH  43  44
HETATM   44  C6  UNL     1       4.912  22.640   6.189  1.00  0.00     0.002 C 
BRANCH  44  45
HETATM   45  C5  UNL     1       4.755  23.732   5.214  1.00  0.00     0.027 C 
BRANCH  45  46
HETATM   46  C4  UNL     1       5.934  24.547   4.913  1.00  0.00     0.232 C 
BRANCH  46  47
HETATM   47  N1  UNL     1       6.180  25.018   3.597  1.00  0.00    -0.073 N 
ATOM     48  H12 UNL     1       5.819  25.964   3.476  1.00  0.00     0.277 HD
ATOM     49  H11 UNL     1       5.595  24.528   2.920  1.00  0.00     0.277 HD
BRANCH  47  50
HETATM   50  C3  UNL     1       7.542  24.947   3.230  1.00  0.00     0.258 C 
BRANCH  50  51
HETATM   51  C2  UNL     1       7.800  25.691   1.947  1.00  0.00     0.194 C 
BRANCH  51  52
HETATM   52  O1  UNL     1       8.137  24.904   0.893  1.00  0.00    -0.394 OA
HETATM   53  C1  UNL     1       9.258  25.212   0.189  1.00  0.00     0.201 C 
ENDBRANCH  51  52
ENDBRANCH  50  51
ENDBRANCH  47  50
ENDBRANCH  46  47
ENDBRANCH  45  46
ENDBRANCH  44  45
ENDBRANCH  43  44
ENDBRANCH  42  43
ENDBRANCH  41  42
ENDBRANCH  40  41
ENDBRANCH   1  40
BRANCH   2  54
HETATM   54  O3  UNL     1      -1.994  20.781   6.571  1.00  0.00    -0.353 OA
HETATM   55  C12 UNL     1      -3.144  20.029   6.222  1.00  0.00     0.210 C 
ENDBRANCH   2  54
TORSDOF 18
ENDMDL
