MODEL 1
REMARK VINA RESULT: -8.009337170      0.000      0.000
REMARK  22 active torsions:
REMARK  status: ('A' for Active; 'I' for Inactive)
REMARK       I    between atoms: C2_2  and  N1_4 
REMARK    1  A    between atoms: N1_4  and  C3_6 
REMARK    2  A    between atoms: C3_6  and  C4_7 
REMARK    3  A    between atoms: C4_7  and  N2_8 
REMARK    4  A    between atoms: N2_8  and  C5_9 
REMARK    5  A    between atoms: N2_8  and  C17_25 
REMARK    6  A    between atoms: C5_9  and  C6_10 
REMARK    7  A    between atoms: C6_10  and  N3_11 
REMARK       I    between atoms: N3_11  and  C7_13 
REMARK    8  A    between atoms: C7_13  and  C8_15 
REMARK    9  A    between atoms: C8_15  and  C9_16 
REMARK   10  A    between atoms: C9_16  and  C10_17 
REMARK   11  A    between atoms: C10_17  and  C11_18 
REMARK   12  A    between atoms: C11_18  and  C12_19 
REMARK   13  A    between atoms: C12_19  and  C13_20 
REMARK   14  A    between atoms: C13_20  and  C14_21 
REMARK   15  A    between atoms: C14_21  and  C15_22 
REMARK   16  A    between atoms: C15_22  and  C16_23 
REMARK   17  A    between atoms: C17_25  and  C18_26 
REMARK   18  A    between atoms: C19_28  and  O4_29 
REMARK   19  A    between atoms: C23_34  and  O5_35 
REMARK   20  A    between atoms: C30_43  and  O6_44 
REMARK   21  A    between atoms: C31_46  and  O7_47 
REMARK   22  A    between atoms: C33_50  and  O8_51 
ROOT
HETATM    1  C18 UNL     1      -5.020  22.092   9.231  1.00  0.00     0.152 C 
HETATM    2  O3  UNL     1      -6.284  22.395   9.492  1.00  0.00    -0.353 OA
HETATM    3  C19 UNL     1      -7.148  21.684  10.163  1.00  0.00     0.272 C 
HETATM    4  C20 UNL     1      -6.664  20.392  10.856  1.00  0.00     0.062 C 
HETATM    5  C21 UNL     1      -6.471  20.785  12.249  1.00  0.00     0.028 C 
HETATM    6  C22 UNL     1      -7.605  19.361  10.434  1.00  0.00    -0.003 A 
HETATM    7  C23 UNL     1      -8.223  18.781  11.470  1.00  0.00     0.073 A 
HETATM    8  C24 UNL     1      -9.158  17.773  11.264  1.00  0.00     0.037 A 
HETATM    9  C25 UNL     1      -9.467  17.351  10.003  1.00  0.00     0.003 A 
HETATM   10  C26 UNL     1      -8.820  17.960   8.958  1.00  0.00     0.008 A 
HETATM   11  C27 UNL     1      -7.875  18.975   9.093  1.00  0.00    -0.042 A 
HETATM   12  C28 UNL     1      -7.563  19.208   7.710  1.00  0.00     0.046 C 
HETATM   13  C29 UNL     1      -8.857  19.712   7.041  1.00  0.00     0.017 C 
HETATM   14  C30 UNL     1      -6.475  20.062   7.248  1.00  0.00     0.155 C 
HETATM   15  C31 UNL     1      -5.154  19.954   7.836  1.00  0.00     0.156 C 
HETATM   16  C32 UNL     1      -4.824  20.634   9.105  1.00  0.00     0.077 C 
HETATM   17  C33 UNL     1      -5.313  19.951  10.336  1.00  0.00     0.145 C 
ENDROOT
BRANCH   1  18
HETATM   18  C17 UNL     1      -4.382  22.811   8.104  1.00  0.00     0.159 C 
BRANCH  18  19
HETATM   19  N2  UNL     1      -3.719  24.048   8.335  1.00  0.00    -0.368 N 
BRANCH  19  20
HETATM   20  C4  UNL     1      -4.437  25.230   8.282  1.00  0.00     0.082 C 
BRANCH  20  21
HETATM   21  C3  UNL     1      -4.574  26.147   9.428  1.00  0.00     0.167 C 
BRANCH  21  22
HETATM   22  N1  UNL     1      -4.539  25.612  10.749  1.00  0.00    -0.357 N 
HETATM   23  C2  UNL     1      -5.575  25.185  11.577  1.00  0.00     0.213 C 
HETATM   24  C1  UNL     1      -5.255  24.652  12.947  1.00  0.00     0.117 C 
HETATM   25  O1  UNL     1      -6.772  25.215  11.254  1.00  0.00    -0.274 OA
ATOM     26  H1  UNL     1      -3.605  25.528  11.151  1.00  0.00     0.162 HD
ENDBRANCH  21  22
ENDBRANCH  20  21
ENDBRANCH  19  20
BRANCH  19  27
HETATM   27  C5  UNL     1      -2.455  23.981   7.697  1.00  0.00     0.082 C 
BRANCH  27  28
HETATM   28  C6  UNL     1      -2.139  23.163   6.552  1.00  0.00     0.167 C 
BRANCH  28  29
HETATM   29  N3  UNL     1      -0.765  22.646   6.728  1.00  0.00    -0.356 N 
HETATM   30  C7  UNL     1      -0.470  21.515   7.521  1.00  0.00     0.217 C 
HETATM   31  O2  UNL     1      -1.313  20.844   8.123  1.00  0.00    -0.274 OA
ATOM     32  H3  UNL     1       0.003  23.127   6.258  1.00  0.00     0.162 HD
BRANCH  30  33
HETATM   33  C8  UNL     1       0.978  21.110   7.635  1.00  0.00     0.103 C 
BRANCH  33  34
HETATM   34  C9  UNL     1       1.787  22.372   7.751  1.00  0.00     0.009 C 
BRANCH  34  35
HETATM   35  C10 UNL     1       3.095  22.216   7.046  1.00  0.00     0.000 C 
BRANCH  35  36
HETATM   36  C11 UNL     1       3.105  22.985   5.771  1.00  0.00     0.000 C 
BRANCH  36  37
HETATM   37  C12 UNL     1       4.507  23.441   5.456  1.00  0.00     0.000 C 
BRANCH  37  38
HETATM   38  C13 UNL     1       5.506  22.666   6.251  1.00  0.00     0.000 C 
BRANCH  38  39
HETATM   39  C14 UNL     1       6.871  23.311   6.084  1.00  0.00     0.001 C 
BRANCH  39  40
HETATM   40  C15 UNL     1       7.188  23.534   4.644  1.00  0.00     0.015 C 
BRANCH  40  41
HETATM   41  C16 UNL     1       8.007  24.809   4.442  1.00  0.00     0.114 C 
HETATM   42 CL1  UNL     1       7.149  26.149   5.195  1.00  0.00    -0.130 Cl
ENDBRANCH  40  41
ENDBRANCH  39  40
ENDBRANCH  38  39
ENDBRANCH  37  38
ENDBRANCH  36  37
ENDBRANCH  35  36
ENDBRANCH  34  35
ENDBRANCH  33  34
ENDBRANCH  30  33
ENDBRANCH  28  29
ENDBRANCH  27  28
ENDBRANCH  19  27
ENDBRANCH  18  19
ENDBRANCH   1  18
BRANCH   3  43
HETATM   43  O4  UNL     1      -7.748  22.548  11.128  1.00  0.00    -0.370 OA
ATOM     44  H4  UNL     1      -7.555  22.189  11.987  1.00  0.00     0.212 HD
ENDBRANCH   3  43
BRANCH  15  45
HETATM   45  O7  UNL     1      -4.159  20.252   6.900  1.00  0.00    -0.392 OA
ATOM     46  H7  UNL     1      -3.375  19.740   7.057  1.00  0.00     0.210 HD
ENDBRANCH  15  45
BRANCH  17  47
HETATM   47  O8  UNL     1      -5.310  18.574   9.999  1.00  0.00    -0.394 OA
ATOM     48  H8  UNL     1      -4.451  18.187  10.121  1.00  0.00     0.210 HD
ENDBRANCH  17  47
BRANCH  14  49
HETATM   49  O6  UNL     1      -6.305  19.684   5.868  1.00  0.00    -0.392 OA
ATOM     50  H6  UNL     1      -6.268  18.735   5.897  1.00  0.00     0.210 HD
ENDBRANCH  14  49
BRANCH   7  51
HETATM   51  O5  UNL     1      -7.927  19.190  12.741  1.00  0.00    -0.360 OA
ATOM     52  H5  UNL     1      -8.627  19.495  13.306  1.00  0.00     0.217 HD
ENDBRANCH   7  51
TORSDOF 22
ENDMDL
MODEL 2
REMARK VINA RESULT: -7.864372815      1.444      2.019
REMARK  22 active torsions:
REMARK  status: ('A' for Active; 'I' for Inactive)
REMARK       I    between atoms: C2_2  and  N1_4 
REMARK    1  A    between atoms: N1_4  and  C3_6 
REMARK    2  A    between atoms: C3_6  and  C4_7 
REMARK    3  A    between atoms: C4_7  and  N2_8 
REMARK    4  A    between atoms: N2_8  and  C5_9 
REMARK    5  A    between atoms: N2_8  and  C17_25 
REMARK    6  A    between atoms: C5_9  and  C6_10 
REMARK    7  A    between atoms: C6_10  and  N3_11 
REMARK       I    between atoms: N3_11  and  C7_13 
REMARK    8  A    between atoms: C7_13  and  C8_15 
REMARK    9  A    between atoms: C8_15  and  C9_16 
REMARK   10  A    between atoms: C9_16  and  C10_17 
REMARK   11  A    between atoms: C10_17  and  C11_18 
REMARK   12  A    between atoms: C11_18  and  C12_19 
REMARK   13  A    between atoms: C12_19  and  C13_20 
REMARK   14  A    between atoms: C13_20  and  C14_21 
REMARK   15  A    between atoms: C14_21  and  C15_22 
REMARK   16  A    between atoms: C15_22  and  C16_23 
REMARK   17  A    between atoms: C17_25  and  C18_26 
REMARK   18  A    between atoms: C19_28  and  O4_29 
REMARK   19  A    between atoms: C23_34  and  O5_35 
REMARK   20  A    between atoms: C30_43  and  O6_44 
REMARK   21  A    between atoms: C31_46  and  O7_47 
REMARK   22  A    between atoms: C33_50  and  O8_51 
ROOT
HETATM    1  C18 UNL     1      -4.903  21.985   9.063  1.00  0.00     0.152 C 
HETATM    2  O3  UNL     1      -6.117  22.343   9.457  1.00  0.00    -0.353 OA
HETATM    3  C19 UNL     1      -6.940  21.666  10.209  1.00  0.00     0.272 C 
HETATM    4  C20 UNL     1      -6.448  20.344  10.839  1.00  0.00     0.062 C 
HETATM    5  C21 UNL     1      -6.094  20.711  12.207  1.00  0.00     0.028 C 
HETATM    6  C22 UNL     1      -7.476  19.363  10.511  1.00  0.00    -0.003 A 
HETATM    7  C23 UNL     1      -8.011  18.801  11.601  1.00  0.00     0.073 A 
HETATM    8  C24 UNL     1      -9.009  17.839  11.487  1.00  0.00     0.037 A 
HETATM    9  C25 UNL     1      -9.467  17.448  10.262  1.00  0.00     0.003 A 
HETATM   10  C26 UNL     1      -8.904  18.038   9.159  1.00  0.00     0.008 A 
HETATM   11  C27 UNL     1      -7.902  19.006   9.202  1.00  0.00    -0.042 A 
HETATM   12  C28 UNL     1      -7.725  19.241   7.796  1.00  0.00     0.046 C 
HETATM   13  C29 UNL     1      -9.056  19.812   7.269  1.00  0.00     0.017 C 
HETATM   14  C30 UNL     1      -6.651  20.049   7.229  1.00  0.00     0.155 C 
HETATM   15  C31 UNL     1      -5.283  19.871   7.675  1.00  0.00     0.156 C 
HETATM   16  C32 UNL     1      -4.791  20.521   8.908  1.00  0.00     0.077 C 
HETATM   17  C33 UNL     1      -5.181  19.846  10.178  1.00  0.00     0.145 C 
ENDROOT
BRANCH   1  18
HETATM   18  C17 UNL     1      -4.352  22.686   7.881  1.00  0.00     0.159 C 
BRANCH  18  19
HETATM   19  N2  UNL     1      -3.046  23.246   7.933  1.00  0.00    -0.368 N 
BRANCH  19  20
HETATM   20  C4  UNL     1      -2.889  24.601   8.168  1.00  0.00     0.082 C 
BRANCH  20  21
HETATM   21  C3  UNL     1      -3.823  25.396   8.985  1.00  0.00     0.167 C 
BRANCH  21  22
HETATM   22  N1  UNL     1      -4.343  26.612   8.453  1.00  0.00    -0.357 N 
HETATM   23  C2  UNL     1      -3.803  27.897   8.447  1.00  0.00     0.213 C 
HETATM   24  C1  UNL     1      -4.573  29.019   7.806  1.00  0.00     0.117 C 
HETATM   25  O1  UNL     1      -2.704  28.185   8.946  1.00  0.00    -0.274 OA
ATOM     26  H1  UNL     1      -5.255  26.528   8.006  1.00  0.00     0.162 HD
ENDBRANCH  21  22
ENDBRANCH  20  21
ENDBRANCH  19  20
BRANCH  19  27
HETATM   27  C5  UNL     1      -2.277  22.631   6.913  1.00  0.00     0.082 C 
BRANCH  27  28
HETATM   28  C6  UNL     1      -1.169  21.732   7.128  1.00  0.00     0.167 C 
BRANCH  28  29
HETATM   29  N3  UNL     1       0.078  22.471   6.837  1.00  0.00    -0.356 N 
HETATM   30  C7  UNL     1       1.356  21.978   7.182  1.00  0.00     0.217 C 
HETATM   31  O2  UNL     1       1.562  20.895   7.736  1.00  0.00    -0.274 OA
ATOM     32  H3  UNL     1       0.013  23.374   6.366  1.00  0.00     0.162 HD
BRANCH  30  33
HETATM   33  C8  UNL     1       2.544  22.846   6.847  1.00  0.00     0.103 C 
BRANCH  33  34
HETATM   34  C9  UNL     1       3.751  21.951   6.800  1.00  0.00     0.009 C 
BRANCH  34  35
HETATM   35  C10 UNL     1       4.916  22.681   6.215  1.00  0.00     0.000 C 
BRANCH  35  36
HETATM   36  C11 UNL     1       4.469  23.639   5.167  1.00  0.00     0.000 C 
BRANCH  36  37
HETATM   37  C12 UNL     1       5.629  24.495   4.725  1.00  0.00     0.000 C 
BRANCH  37  38
HETATM   38  C13 UNL     1       6.894  23.702   4.707  1.00  0.00     0.000 C 
BRANCH  38  39
HETATM   39  C14 UNL     1       8.029  24.580   5.209  1.00  0.00     0.001 C 
BRANCH  39  40
HETATM   40  C15 UNL     1       8.988  24.898   4.112  1.00  0.00     0.015 C 
BRANCH  40  41
HETATM   41  C16 UNL     1       8.739  26.292   3.538  1.00  0.00     0.114 C 
HETATM   42 CL1  UNL     1       9.303  26.318   1.870  1.00  0.00    -0.130 Cl
ENDBRANCH  40  41
ENDBRANCH  39  40
ENDBRANCH  38  39
ENDBRANCH  37  38
ENDBRANCH  36  37
ENDBRANCH  35  36
ENDBRANCH  34  35
ENDBRANCH  33  34
ENDBRANCH  30  33
ENDBRANCH  28  29
ENDBRANCH  27  28
ENDBRANCH  19  27
ENDBRANCH  18  19
ENDBRANCH   1  18
BRANCH   3  43
HETATM   43  O4  UNL     1      -7.394  22.545  11.238  1.00  0.00    -0.370 OA
ATOM     44  H4  UNL     1      -7.531  22.020  12.018  1.00  0.00     0.212 HD
ENDBRANCH   3  43
BRANCH  15  45
HETATM   45  O7  UNL     1      -4.378  20.135   6.642  1.00  0.00    -0.392 OA
ATOM     46  H7  UNL     1      -3.663  19.510   6.646  1.00  0.00     0.210 HD
ENDBRANCH  15  45
BRANCH  17  47
HETATM   47  O8  UNL     1      -5.280  18.475   9.833  1.00  0.00    -0.394 OA
ATOM     48  H8  UNL     1      -5.077  18.332   8.916  1.00  0.00     0.210 HD
ENDBRANCH  17  47
BRANCH  14  49
HETATM   49  O6  UNL     1      -6.643  19.679   5.836  1.00  0.00    -0.392 OA
ATOM     50  H6  UNL     1      -6.008  20.270   5.449  1.00  0.00     0.210 HD
ENDBRANCH  14  49
BRANCH   7  51
HETATM   51  O5  UNL     1      -7.565  19.180  12.837  1.00  0.00    -0.360 OA
ATOM     52  H5  UNL     1      -8.196  19.377  13.519  1.00  0.00     0.217 HD
ENDBRANCH   7  51
TORSDOF 22
ENDMDL
MODEL 3
REMARK VINA RESULT: -7.474555936      1.851      3.537
REMARK  22 active torsions:
REMARK  status: ('A' for Active; 'I' for Inactive)
REMARK       I    between atoms: C2_2  and  N1_4 
REMARK    1  A    between atoms: N1_4  and  C3_6 
REMARK    2  A    between atoms: C3_6  and  C4_7 
REMARK    3  A    between atoms: C4_7  and  N2_8 
REMARK    4  A    between atoms: N2_8  and  C5_9 
REMARK    5  A    between atoms: N2_8  and  C17_25 
REMARK    6  A    between atoms: C5_9  and  C6_10 
REMARK    7  A    between atoms: C6_10  and  N3_11 
REMARK       I    between atoms: N3_11  and  C7_13 
REMARK    8  A    between atoms: C7_13  and  C8_15 
REMARK    9  A    between atoms: C8_15  and  C9_16 
REMARK   10  A    between atoms: C9_16  and  C10_17 
REMARK   11  A    between atoms: C10_17  and  C11_18 
REMARK   12  A    between atoms: C11_18  and  C12_19 
REMARK   13  A    between atoms: C12_19  and  C13_20 
REMARK   14  A    between atoms: C13_20  and  C14_21 
REMARK   15  A    between atoms: C14_21  and  C15_22 
REMARK   16  A    between atoms: C15_22  and  C16_23 
REMARK   17  A    between atoms: C17_25  and  C18_26 
REMARK   18  A    between atoms: C19_28  and  O4_29 
REMARK   19  A    between atoms: C23_34  and  O5_35 
REMARK   20  A    between atoms: C30_43  and  O6_44 
REMARK   21  A    between atoms: C31_46  and  O7_47 
REMARK   22  A    between atoms: C33_50  and  O8_51 
ROOT
HETATM    1  C18 UNL     1      -5.627  22.228   8.419  1.00  0.00     0.152 C 
HETATM    2  O3  UNL     1      -4.942  21.371   9.162  1.00  0.00    -0.353 OA
HETATM    3  C19 UNL     1      -5.409  20.363   9.845  1.00  0.00     0.272 C 
HETATM    4  C20 UNL     1      -6.906  20.010   9.713  1.00  0.00     0.062 C 
HETATM    5  C21 UNL     1      -6.928  18.896   8.770  1.00  0.00     0.028 C 
HETATM    6  C22 UNL     1      -7.394  19.913  11.084  1.00  0.00    -0.003 A 
HETATM    7  C23 UNL     1      -7.914  18.710  11.356  1.00  0.00     0.073 A 
HETATM    8  C24 UNL     1      -8.431  18.428  12.615  1.00  0.00     0.037 A 
HETATM    9  C25 UNL     1      -8.421  19.370  13.603  1.00  0.00     0.003 A 
HETATM   10  C26 UNL     1      -7.882  20.596  13.301  1.00  0.00     0.008 A 
HETATM   11  C27 UNL     1      -7.348  20.944  12.062  1.00  0.00    -0.042 A 
HETATM   12  C28 UNL     1      -6.951  22.297  12.336  1.00  0.00     0.046 C 
HETATM   13  C29 UNL     1      -5.869  22.230  13.431  1.00  0.00     0.017 C 
HETATM   14  C30 UNL     1      -6.484  23.235  11.321  1.00  0.00     0.155 C 
HETATM   15  C31 UNL     1      -7.201  23.383  10.070  1.00  0.00     0.156 C 
HETATM   16  C32 UNL     1      -6.988  22.443   8.950  1.00  0.00     0.077 C 
HETATM   17  C33 UNL     1      -7.693  21.136   9.077  1.00  0.00     0.145 C 
ENDROOT
BRANCH   1  18
HETATM   18  C17 UNL     1      -4.970  23.520   8.112  1.00  0.00     0.159 C 
BRANCH  18  19
HETATM   19  N2  UNL     1      -3.559  23.646   8.242  1.00  0.00    -0.368 N 
BRANCH  19  20
HETATM   20  C4  UNL     1      -3.030  24.684   8.989  1.00  0.00     0.082 C 
BRANCH  20  21
HETATM   21  C3  UNL     1      -3.575  26.054   8.975  1.00  0.00     0.167 C 
BRANCH  21  22
HETATM   22  N1  UNL     1      -3.130  26.963   7.971  1.00  0.00    -0.357 N 
HETATM   23  C2  UNL     1      -2.587  28.241   8.088  1.00  0.00     0.213 C 
HETATM   24  C1  UNL     1      -2.195  28.994   6.846  1.00  0.00     0.117 C 
HETATM   25  O1  UNL     1      -2.400  28.813   9.172  1.00  0.00    -0.274 OA
ATOM     26  H1  UNL     1      -3.225  26.623   7.014  1.00  0.00     0.162 HD
ENDBRANCH  21  22
ENDBRANCH  20  21
ENDBRANCH  19  20
BRANCH  19  27
HETATM   27  C5  UNL     1      -2.985  23.343   6.982  1.00  0.00     0.082 C 
BRANCH  27  28
HETATM   28  C6  UNL     1      -2.124  22.220   6.704  1.00  0.00     0.167 C 
BRANCH  28  29
HETATM   29  N3  UNL     1      -0.739  22.727   6.593  1.00  0.00    -0.356 N 
HETATM   30  C7  UNL     1       0.306  22.285   7.434  1.00  0.00     0.217 C 
HETATM   31  O2  UNL     1       0.179  21.435   8.320  1.00  0.00    -0.274 OA
ATOM     32  H3  UNL     1      -0.529  23.425   5.879  1.00  0.00     0.162 HD
BRANCH  30  33
HETATM   33  C8  UNL     1       1.666  22.903   7.228  1.00  0.00     0.103 C 
BRANCH  33  34
HETATM   34  C9  UNL     1       2.689  21.844   7.536  1.00  0.00     0.009 C 
BRANCH  34  35
HETATM   35  C10 UNL     1       3.915  22.052   6.708  1.00  0.00     0.000 C 
BRANCH  35  36
HETATM   36  C11 UNL     1       3.667  23.052   5.634  1.00  0.00     0.000 C 
BRANCH  36  37
HETATM   37  C12 UNL     1       4.964  23.708   5.234  1.00  0.00     0.000 C 
BRANCH  37  38
HETATM   38  C13 UNL     1       6.123  23.034   5.893  1.00  0.00     0.000 C 
BRANCH  38  39
HETATM   39  C14 UNL     1       7.332  23.950   5.812  1.00  0.00     0.001 C 
BRANCH  39  40
HETATM   40  C15 UNL     1       6.970  25.269   5.217  1.00  0.00     0.015 C 
BRANCH  40  41
HETATM   41  C16 UNL     1       8.210  26.037   4.762  1.00  0.00     0.114 C 
HETATM   42 CL1  UNL     1       9.389  24.881   4.151  1.00  0.00    -0.130 Cl
ENDBRANCH  40  41
ENDBRANCH  39  40
ENDBRANCH  38  39
ENDBRANCH  37  38
ENDBRANCH  36  37
ENDBRANCH  35  36
ENDBRANCH  34  35
ENDBRANCH  33  34
ENDBRANCH  30  33
ENDBRANCH  28  29
ENDBRANCH  27  28
ENDBRANCH  19  27
ENDBRANCH  18  19
ENDBRANCH   1  18
BRANCH   3  43
HETATM   43  O4  UNL     1      -4.618  19.223   9.511  1.00  0.00    -0.370 OA
ATOM     44  H4  UNL     1      -5.195  18.589   9.102  1.00  0.00     0.212 HD
ENDBRANCH   3  43
BRANCH  15  45
HETATM   45  O7  UNL     1      -7.096  24.689   9.580  1.00  0.00    -0.392 OA
ATOM     46  H7  UNL     1      -7.670  25.279  10.053  1.00  0.00     0.210 HD
ENDBRANCH  15  45
BRANCH  17  47
HETATM   47  O8  UNL     1      -8.862  21.437   9.821  1.00  0.00    -0.394 OA
ATOM     48  H8  UNL     1      -9.638  21.407   9.274  1.00  0.00     0.210 HD
ENDBRANCH  17  47
BRANCH  14  49
HETATM   49  O6  UNL     1      -6.586  24.519  11.968  1.00  0.00    -0.392 OA
ATOM     50  H6  UNL     1      -6.353  25.135  11.284  1.00  0.00     0.210 HD
ENDBRANCH  14  49
BRANCH   7  51
HETATM   51  O5  UNL     1      -7.933  17.753  10.378  1.00  0.00    -0.360 OA
ATOM     52  H5  UNL     1      -7.437  16.953  10.502  1.00  0.00     0.217 HD
ENDBRANCH   7  51
TORSDOF 22
ENDMDL
MODEL 4
REMARK VINA RESULT: -7.444317739      9.299     17.160
REMARK  22 active torsions:
REMARK  status: ('A' for Active; 'I' for Inactive)
REMARK       I    between atoms: C2_2  and  N1_4 
REMARK    1  A    between atoms: N1_4  and  C3_6 
REMARK    2  A    between atoms: C3_6  and  C4_7 
REMARK    3  A    between atoms: C4_7  and  N2_8 
REMARK    4  A    between atoms: N2_8  and  C5_9 
REMARK    5  A    between atoms: N2_8  and  C17_25 
REMARK    6  A    between atoms: C5_9  and  C6_10 
REMARK    7  A    between atoms: C6_10  and  N3_11 
REMARK       I    between atoms: N3_11  and  C7_13 
REMARK    8  A    between atoms: C7_13  and  C8_15 
REMARK    9  A    between atoms: C8_15  and  C9_16 
REMARK   10  A    between atoms: C9_16  and  C10_17 
REMARK   11  A    between atoms: C10_17  and  C11_18 
REMARK   12  A    between atoms: C11_18  and  C12_19 
REMARK   13  A    between atoms: C12_19  and  C13_20 
REMARK   14  A    between atoms: C13_20  and  C14_21 
REMARK   15  A    between atoms: C14_21  and  C15_22 
REMARK   16  A    between atoms: C15_22  and  C16_23 
REMARK   17  A    between atoms: C17_25  and  C18_26 
REMARK   18  A    between atoms: C19_28  and  O4_29 
REMARK   19  A    between atoms: C23_34  and  O5_35 
REMARK   20  A    between atoms: C30_43  and  O6_44 
REMARK   21  A    between atoms: C31_46  and  O7_47 
REMARK   22  A    between atoms: C33_50  and  O8_51 
ROOT
HETATM    1  C18 UNL     1       8.425  28.743   1.866  1.00  0.00     0.152 C 
HETATM    2  O3  UNL     1       9.335  28.540   2.808  1.00  0.00    -0.353 OA
HETATM    3  C19 UNL     1       9.341  29.017   4.021  1.00  0.00     0.272 C 
HETATM    4  C20 UNL     1       8.113  29.818   4.507  1.00  0.00     0.062 C 
HETATM    5  C21 UNL     1       7.347  28.855   5.293  1.00  0.00     0.028 C 
HETATM    6  C22 UNL     1       8.660  31.052   5.059  1.00  0.00    -0.003 A 
HETATM    7  C23 UNL     1       8.332  31.225   6.344  1.00  0.00     0.073 A 
HETATM    8  C24 UNL     1       8.763  32.348   7.043  1.00  0.00     0.037 A 
HETATM    9  C25 UNL     1       9.532  33.298   6.434  1.00  0.00     0.003 A 
HETATM   10  C26 UNL     1       9.857  33.098   5.116  1.00  0.00     0.008 A 
HETATM   11  C27 UNL     1       9.458  31.998   4.359  1.00  0.00    -0.042 A 
HETATM   12  C28 UNL     1      10.078  32.325   3.105  1.00  0.00     0.046 C 
HETATM   13  C29 UNL     1      11.599  32.335   3.349  1.00  0.00     0.017 C 
HETATM   14  C30 UNL     1       9.843  31.599   1.862  1.00  0.00     0.155 C 
HETATM   15  C31 UNL     1       8.494  31.264   1.448  1.00  0.00     0.156 C 
HETATM   16  C32 UNL     1       7.802  30.076   1.988  1.00  0.00     0.077 C 
HETATM   17  C33 UNL     1       7.229  30.242   3.354  1.00  0.00     0.145 C 
ENDROOT
BRANCH   1  18
HETATM   18  C17 UNL     1       8.842  28.480   0.469  1.00  0.00     0.159 C 
BRANCH  18  19
HETATM   19  N2  UNL     1       9.280  27.181   0.090  1.00  0.00    -0.368 N 
BRANCH  19  20
HETATM   20  C4  UNL     1       9.688  26.947  -1.211  1.00  0.00     0.082 C 
BRANCH  20  21
HETATM   21  C3  UNL     1      10.586  25.842  -1.593  1.00  0.00     0.167 C 
BRANCH  21  22
HETATM   22  N1  UNL     1      10.275  25.069  -2.749  1.00  0.00    -0.357 N 
HETATM   23  C2  UNL     1      10.046  23.700  -2.884  1.00  0.00     0.213 C 
HETATM   24  C1  UNL     1       9.732  23.134  -4.242  1.00  0.00     0.117 C 
HETATM   25  O1  UNL     1      10.086  22.899  -1.938  1.00  0.00    -0.274 OA
ATOM     26  H1  UNL     1      10.210  25.602  -3.616  1.00  0.00     0.162 HD
ENDBRANCH  21  22
ENDBRANCH  20  21
ENDBRANCH  19  20
BRANCH  19  27
HETATM   27  C5  UNL     1       8.428  26.242   0.724  1.00  0.00     0.082 C 
BRANCH  27  28
HETATM   28  C6  UNL     1       8.857  25.026   1.370  1.00  0.00     0.167 C 
BRANCH  28  29
HETATM   29  N3  UNL     1       8.068  24.868   2.611  1.00  0.00    -0.356 N 
HETATM   30  C7  UNL     1       8.647  24.938   3.897  1.00  0.00     0.217 C 
HETATM   31  O2  UNL     1       9.843  25.151   4.116  1.00  0.00    -0.274 OA
ATOM     32  H3  UNL     1       7.065  24.701   2.535  1.00  0.00     0.162 HD
BRANCH  30  33
HETATM   33  C8  UNL     1       7.731  24.736   5.078  1.00  0.00     0.103 C 
BRANCH  33  34
HETATM   34  C9  UNL     1       7.153  23.353   4.963  1.00  0.00     0.009 C 
BRANCH  34  35
HETATM   35  C10 UNL     1       6.337  23.029   6.173  1.00  0.00     0.000 C 
BRANCH  35  36
HETATM   36  C11 UNL     1       4.885  23.030   5.848  1.00  0.00     0.000 C 
BRANCH  36  37
HETATM   37  C12 UNL     1       4.154  22.078   6.761  1.00  0.00     0.000 C 
BRANCH  37  38
HETATM   38  C13 UNL     1       2.713  21.980   6.379  1.00  0.00     0.000 C 
BRANCH  38  39
HETATM   39  C14 UNL     1       1.861  22.297   7.596  1.00  0.00     0.001 C 
BRANCH  39  40
HETATM   40  C15 UNL     1       0.904  21.190   7.885  1.00  0.00     0.015 C 
BRANCH  40  41
HETATM   41  C16 UNL     1      -0.512  21.719   8.109  1.00  0.00     0.114 C 
HETATM   42 CL1  UNL     1      -0.509  23.457   7.825  1.00  0.00    -0.130 Cl
ENDBRANCH  40  41
ENDBRANCH  39  40
ENDBRANCH  38  39
ENDBRANCH  37  38
ENDBRANCH  36  37
ENDBRANCH  35  36
ENDBRANCH  34  35
ENDBRANCH  33  34
ENDBRANCH  30  33
ENDBRANCH  28  29
ENDBRANCH  27  28
ENDBRANCH  19  27
ENDBRANCH  18  19
ENDBRANCH   1  18
BRANCH   3  43
HETATM   43  O4  UNL     1       9.578  27.923   4.906  1.00  0.00    -0.370 OA
ATOM     44  H4  UNL     1       9.468  28.248   5.792  1.00  0.00     0.212 HD
ENDBRANCH   3  43
BRANCH  15  45
HETATM   45  O7  UNL     1       8.383  31.248   0.055  1.00  0.00    -0.392 OA
ATOM     46  H7  UNL     1       8.194  30.374  -0.264  1.00  0.00     0.210 HD
ENDBRANCH  15  45
BRANCH  17  47
HETATM   47  O8  UNL     1       6.898  31.618   3.432  1.00  0.00    -0.394 OA
ATOM     48  H8  UNL     1       6.684  31.973   2.577  1.00  0.00     0.210 HD
ENDBRANCH  17  47
BRANCH  14  49
HETATM   49  O6  UNL     1      10.338  32.492   0.844  1.00  0.00    -0.392 OA
ATOM     50  H6  UNL     1      10.198  33.356   1.215  1.00  0.00     0.210 HD
ENDBRANCH  14  49
BRANCH   7  51
HETATM   51  O5  UNL     1       7.562  30.284   6.971  1.00  0.00    -0.360 OA
ATOM     52  H5  UNL     1       6.947  30.558   7.642  1.00  0.00     0.217 HD
ENDBRANCH   7  51
TORSDOF 22
ENDMDL
MODEL 5
REMARK VINA RESULT: -7.377106474      1.925      3.675
REMARK  22 active torsions:
REMARK  status: ('A' for Active; 'I' for Inactive)
REMARK       I    between atoms: C2_2  and  N1_4 
REMARK    1  A    between atoms: N1_4  and  C3_6 
REMARK    2  A    between atoms: C3_6  and  C4_7 
REMARK    3  A    between atoms: C4_7  and  N2_8 
REMARK    4  A    between atoms: N2_8  and  C5_9 
REMARK    5  A    between atoms: N2_8  and  C17_25 
REMARK    6  A    between atoms: C5_9  and  C6_10 
REMARK    7  A    between atoms: C6_10  and  N3_11 
REMARK       I    between atoms: N3_11  and  C7_13 
REMARK    8  A    between atoms: C7_13  and  C8_15 
REMARK    9  A    between atoms: C8_15  and  C9_16 
REMARK   10  A    between atoms: C9_16  and  C10_17 
REMARK   11  A    between atoms: C10_17  and  C11_18 
REMARK   12  A    between atoms: C11_18  and  C12_19 
REMARK   13  A    between atoms: C12_19  and  C13_20 
REMARK   14  A    between atoms: C13_20  and  C14_21 
REMARK   15  A    between atoms: C14_21  and  C15_22 
REMARK   16  A    between atoms: C15_22  and  C16_23 
REMARK   17  A    between atoms: C17_25  and  C18_26 
REMARK   18  A    between atoms: C19_28  and  O4_29 
REMARK   19  A    between atoms: C23_34  and  O5_35 
REMARK   20  A    between atoms: C30_43  and  O6_44 
REMARK   21  A    between atoms: C31_46  and  O7_47 
REMARK   22  A    between atoms: C33_50  and  O8_51 
ROOT
HETATM    1  C18 UNL     1      -5.615  22.962   8.705  1.00  0.00     0.152 C 
HETATM    2  O3  UNL     1      -5.111  21.750   8.526  1.00  0.00    -0.353 OA
HETATM    3  C19 UNL     1      -5.763  20.649   8.272  1.00  0.00     0.272 C 
HETATM    4  C20 UNL     1      -7.284  20.731   8.025  1.00  0.00     0.062 C 
HETATM    5  C21 UNL     1      -7.412  20.696   6.571  1.00  0.00     0.028 C 
HETATM    6  C22 UNL     1      -7.866  19.726   8.907  1.00  0.00    -0.003 A 
HETATM    7  C23 UNL     1      -8.573  18.808   8.238  1.00  0.00     0.073 A 
HETATM    8  C24 UNL     1      -9.204  17.767   8.911  1.00  0.00     0.037 A 
HETATM    9  C25 UNL     1      -9.117  17.658  10.268  1.00  0.00     0.003 A 
HETATM   10  C26 UNL     1      -8.386  18.610  10.933  1.00  0.00     0.008 A 
HETATM   11  C27 UNL     1      -7.730  19.676  10.321  1.00  0.00    -0.042 A 
HETATM   12  C28 UNL     1      -7.156  20.308  11.477  1.00  0.00     0.046 C 
HETATM   13  C29 UNL     1      -6.166  19.299  12.090  1.00  0.00     0.017 C 
HETATM   14  C30 UNL     1      -6.493  21.608  11.455  1.00  0.00     0.155 C 
HETATM   15  C31 UNL     1      -7.102  22.733  10.772  1.00  0.00     0.156 C 
HETATM   16  C32 UNL     1      -6.960  22.909   9.312  1.00  0.00     0.077 C 
HETATM   17  C33 UNL     1      -7.856  22.056   8.481  1.00  0.00     0.145 C 
ENDROOT
BRANCH   1  18
HETATM   18  C17 UNL     1      -4.756  23.944   9.407  1.00  0.00     0.159 C 
BRANCH  18  19
HETATM   19  N2  UNL     1      -3.572  24.426   8.784  1.00  0.00    -0.368 N 
BRANCH  19  20
HETATM   20  C4  UNL     1      -3.091  25.683   9.105  1.00  0.00     0.082 C 
BRANCH  20  21
HETATM   21  C3  UNL     1      -3.718  26.934   8.641  1.00  0.00     0.167 C 
BRANCH  21  22
HETATM   22  N1  UNL     1      -2.888  28.058   8.358  1.00  0.00    -0.357 N 
HETATM   23  C2  UNL     1      -1.876  28.217   7.413  1.00  0.00     0.213 C 
HETATM   24  C1  UNL     1      -1.147  29.529   7.324  1.00  0.00     0.117 C 
HETATM   25  O1  UNL     1      -1.527  27.327   6.622  1.00  0.00    -0.274 OA
ATOM     26  H1  UNL     1      -3.064  28.876   8.940  1.00  0.00     0.162 HD
ENDBRANCH  21  22
ENDBRANCH  20  21
ENDBRANCH  19  20
BRANCH  19  27
HETATM   27  C5  UNL     1      -3.616  24.031   7.423  1.00  0.00     0.082 C 
BRANCH  27  28
HETATM   28  C6  UNL     1      -2.469  23.860   6.565  1.00  0.00     0.167 C 
BRANCH  28  29
HETATM   29  N3  UNL     1      -1.560  22.889   7.210  1.00  0.00    -0.356 N 
HETATM   30  C7  UNL     1      -1.684  21.493   7.033  1.00  0.00     0.217 C 
HETATM   31  O2  UNL     1      -2.535  20.950   6.323  1.00  0.00    -0.274 OA
ATOM     32  H3  UNL     1      -0.813  23.241   7.809  1.00  0.00     0.162 HD
BRANCH  30  33
HETATM   33  C8  UNL     1      -0.704  20.614   7.769  1.00  0.00     0.103 C 
BRANCH  33  34
HETATM   34  C9  UNL     1       0.393  21.503   8.285  1.00  0.00     0.009 C 
BRANCH  34  35
HETATM   35  C10 UNL     1       1.699  21.132   7.659  1.00  0.00     0.000 C 
BRANCH  35  36
HETATM   36  C11 UNL     1       2.660  22.267   7.729  1.00  0.00     0.000 C 
BRANCH  36  37
HETATM   37  C12 UNL     1       3.656  22.166   6.601  1.00  0.00     0.000 C 
BRANCH  37  38
HETATM   38  C13 UNL     1       3.466  23.283   5.628  1.00  0.00     0.000 C 
BRANCH  38  39
HETATM   39  C14 UNL     1       4.828  23.729   5.124  1.00  0.00     0.001 C 
BRANCH  39  40
HETATM   40  C15 UNL     1       5.926  23.019   5.841  1.00  0.00     0.015 C 
BRANCH  40  41
HETATM   41  C16 UNL     1       7.219  23.835   5.833  1.00  0.00     0.114 C 
HETATM   42 CL1  UNL     1       6.866  25.432   5.181  1.00  0.00    -0.130 Cl
ENDBRANCH  40  41
ENDBRANCH  39  40
ENDBRANCH  38  39
ENDBRANCH  37  38
ENDBRANCH  36  37
ENDBRANCH  35  36
ENDBRANCH  34  35
ENDBRANCH  33  34
ENDBRANCH  30  33
ENDBRANCH  28  29
ENDBRANCH  27  28
ENDBRANCH  19  27
ENDBRANCH  18  19
ENDBRANCH   1  18
BRANCH   3  43
HETATM   43  O4  UNL     1      -5.129  20.029   7.154  1.00  0.00    -0.370 OA
ATOM     44  H4  UNL     1      -5.811  19.620   6.634  1.00  0.00     0.212 HD
ENDBRANCH   3  43
BRANCH  15  45
HETATM   45  O7  UNL     1      -6.776  23.939  11.399  1.00  0.00    -0.392 OA
ATOM     46  H7  UNL     1      -6.524  24.599  10.764  1.00  0.00     0.210 HD
ENDBRANCH  15  45
BRANCH  17  47
HETATM   47  O8  UNL     1      -9.012  21.875   9.282  1.00  0.00    -0.394 OA
ATOM     48  H8  UNL     1      -8.786  21.764  10.198  1.00  0.00     0.210 HD
ENDBRANCH  17  47
BRANCH  14  49
HETATM   49  O6  UNL     1      -6.446  21.991  12.844  1.00  0.00    -0.392 OA
ATOM     50  H6  UNL     1      -7.343  21.889  13.137  1.00  0.00     0.210 HD
ENDBRANCH  14  49
BRANCH   7  51
HETATM   51  O5  UNL     1      -8.672  18.901   6.876  1.00  0.00    -0.360 OA
ATOM     52  H5  UNL     1      -9.140  18.228   6.397  1.00  0.00     0.217 HD
ENDBRANCH   7  51
TORSDOF 22
ENDMDL
