MODEL 1
REMARK VINA RESULT: -8.093672076      0.000      0.000
REMARK  21 active torsions:
REMARK  status: ('A' for Active; 'I' for Inactive)
REMARK    1  A    between atoms: C2_2  and  C3_3 
REMARK    2  A    between atoms: C3_3  and  C4_4 
REMARK    3  A    between atoms: C4_4  and  C5_5 
REMARK    4  A    between atoms: C5_5  and  C6_6 
REMARK    5  A    between atoms: C6_6  and  C7_7 
REMARK    6  A    between atoms: C7_7  and  C8_8 
REMARK    7  A    between atoms: C8_8  and  C9_9 
REMARK    8  A    between atoms: C9_9  and  C10_10 
REMARK    9  A    between atoms: C10_10  and  C11_11 
REMARK   10  A    between atoms: C11_11  and  C12_12 
REMARK   11  A    between atoms: C12_12  and  S1_13 
REMARK   12  A    between atoms: S1_13  and  N1_16 
REMARK   13  A    between atoms: N1_16  and  C13_18 
REMARK   14  A    between atoms: C13_18  and  C14_19 
REMARK   15  A    between atoms: C16_21  and  N2_22 
REMARK       I    between atoms: N2_22  and  C17_23 
REMARK   16  A    between atoms: C17_23  and  C18_25 
REMARK   17  A    between atoms: C19_26  and  N3_27 
REMARK       I    between atoms: N3_27  and  C20_29 
REMARK   18  A    between atoms: C20_29  and  O5_31 
REMARK   19  A    between atoms: O5_31  and  C21_32 
REMARK   20  A    between atoms: C27_44  and  O8_45 
REMARK   21  A    between atoms: C28_47  and  O9_48 
ROOT
HETATM    1  C14 UNL     1       8.106  26.120   0.888  1.00  0.00     0.072 C 
HETATM    2  C15 UNL     1       8.708  27.508   0.338  1.00  0.00     0.137 C 
HETATM    3  C16 UNL     1       9.676  27.024  -0.753  1.00  0.00     0.106 C 
HETATM    4  C27 UNL     1      10.363  25.805  -0.180  1.00  0.00     0.233 C 
HETATM    5  C28 UNL     1       9.346  24.763  -0.379  1.00  0.00     0.298 C 
HETATM    6  O10 UNL     1       8.128  25.122   0.205  1.00  0.00    -0.320 OA
ENDROOT
BRANCH   3   7
HETATM    7  N2  UNL     1       9.347  27.153  -1.932  1.00  0.00    -0.372 NA
HETATM    8  C17 UNL     1       8.898  27.343  -3.448  1.00  0.00     0.335 C 
HETATM    9  O3  UNL     1       8.221  27.935  -3.711  1.00  0.00    -0.251 OA
BRANCH   8  10
HETATM   10  C18 UNL     1      10.057  26.330  -3.850  1.00  0.00     0.158 A 
HETATM   11  C19 UNL     1      11.270  26.843  -4.139  1.00  0.00     0.136 A 
HETATM   12  N4  UNL     1      12.252  26.035  -4.267  1.00  0.00    -0.293 N 
HETATM   13  C25 UNL     1      12.111  24.692  -4.184  1.00  0.00     0.328 A 
ATOM     14  H4  UNL     1      13.181  26.419  -4.440  1.00  0.00     0.172 HD
HETATM   15  O6  UNL     1      13.133  23.911  -4.328  1.00  0.00    -0.247 OA
HETATM   16  N5  UNL     1      10.902  24.156  -3.949  1.00  0.00    -0.274 N 
HETATM   17  C26 UNL     1       9.871  24.935  -3.774  1.00  0.00     0.270 A 
ATOM     18  H5  UNL     1      10.791  23.143  -3.907  1.00  0.00     0.173 HD
HETATM   19  O7  UNL     1       8.649  24.549  -3.563  1.00  0.00    -0.267 OA
BRANCH  11  20
HETATM   20  N3  UNL     1      11.179  28.318  -4.336  1.00  0.00    -0.287 N 
HETATM   21  C20 UNL     1      12.138  28.862  -3.345  1.00  0.00     0.367 C 
HETATM   22  O4  UNL     1      12.285  30.057  -3.231  1.00  0.00    -0.238 OA
ATOM     23  H3  UNL     1      10.595  28.831  -4.996  1.00  0.00     0.172 HD
BRANCH  21  24
HETATM   24  O5  UNL     1      12.907  27.917  -2.678  1.00  0.00    -0.294 OA
BRANCH  24  25
HETATM   25  C21 UNL     1      14.196  28.038  -2.174  1.00  0.00     0.061 C 
HETATM   26  C22 UNL     1      14.988  28.391  -3.509  1.00  0.00     0.046 C 
HETATM   27  C23 UNL     1      14.636  28.958  -1.150  1.00  0.00     0.046 C 
HETATM   28  C24 UNL     1      14.642  26.640  -1.811  1.00  0.00     0.046 C 
ENDBRANCH  24  25
ENDBRANCH  21  24
ENDBRANCH  11  20
ENDBRANCH   8  10
ENDBRANCH   3   7
BRANCH   4  29
HETATM   29  O8  UNL     1      11.539  25.570  -0.875  1.00  0.00    -0.384 OA
ATOM     30  H8  UNL     1      11.470  24.748  -1.344  1.00  0.00     0.210 HD
ENDBRANCH   4  29
BRANCH   1  31
HETATM   31  C13 UNL     1       8.172  26.422   2.348  1.00  0.00     0.132 C 
BRANCH  31  32
HETATM   32  N1  UNL     1       7.197  25.706   3.059  1.00  0.00    -0.293 N 
ATOM     33  H1  UNL     1       6.298  25.351   2.733  1.00  0.00     0.177 HD
BRANCH  32  34
HETATM   34  S1  UNL     1       7.892  25.583   4.588  1.00  0.00     0.230 S 
HETATM   35  O1  UNL     1       7.315  26.612   5.552  1.00  0.00    -0.206 OA
HETATM   36  O2  UNL     1       9.349  26.263   4.219  1.00  0.00    -0.206 OA
BRANCH  34  37
HETATM   37  C12 UNL     1       8.298  24.047   5.204  1.00  0.00     0.163 C 
BRANCH  37  38
HETATM   38  C11 UNL     1       7.120  23.758   6.179  1.00  0.00     0.017 C 
BRANCH  38  39
HETATM   39  C10 UNL     1       6.176  22.904   5.430  1.00  0.00     0.001 C 
BRANCH  39  40
HETATM   40  C9  UNL     1       4.964  22.637   6.206  1.00  0.00     0.000 C 
BRANCH  40  41
HETATM   41  C8  UNL     1       3.626  23.030   5.661  1.00  0.00     0.000 C 
BRANCH  41  42
HETATM   42  C7  UNL     1       2.452  23.162   6.507  1.00  0.00     0.000 C 
BRANCH  42  43
HETATM   43  C6  UNL     1       2.468  22.187   7.717  1.00  0.00     0.000 C 
BRANCH  43  44
HETATM   44  C5  UNL     1       1.461  21.134   7.699  1.00  0.00     0.000 C 
BRANCH  44  45
HETATM   45  C4  UNL     1       0.157  21.171   8.316  1.00  0.00     0.000 C 
BRANCH  45  46
HETATM   46  C3  UNL     1      -1.059  21.146   7.473  1.00  0.00    -0.000 C 
BRANCH  46  47
HETATM   47  C2  UNL     1      -1.258  22.514   6.816  1.00  0.00    -0.005 C 
HETATM   48  C1  UNL     1      -1.391  23.527   7.973  1.00  0.00     0.005 C 
ENDBRANCH  46  47
ENDBRANCH  45  46
ENDBRANCH  44  45
ENDBRANCH  43  44
ENDBRANCH  42  43
ENDBRANCH  41  42
ENDBRANCH  40  41
ENDBRANCH  39  40
ENDBRANCH  38  39
ENDBRANCH  37  38
ENDBRANCH  34  37
ENDBRANCH  32  34
ENDBRANCH  31  32
ENDBRANCH   1  31
BRANCH   5  49
HETATM   49  O9  UNL     1       9.705  23.512   0.170  1.00  0.00    -0.368 OA
ATOM     50  H9  UNL     1       8.970  22.919   0.276  1.00  0.00     0.212 HD
ENDBRANCH   5  49
TORSDOF 21
ENDMDL
MODEL 2
REMARK VINA RESULT: -7.964217589      7.833     16.815
REMARK  21 active torsions:
REMARK  status: ('A' for Active; 'I' for Inactive)
REMARK    1  A    between atoms: C2_2  and  C3_3 
REMARK    2  A    between atoms: C3_3  and  C4_4 
REMARK    3  A    between atoms: C4_4  and  C5_5 
REMARK    4  A    between atoms: C5_5  and  C6_6 
REMARK    5  A    between atoms: C6_6  and  C7_7 
REMARK    6  A    between atoms: C7_7  and  C8_8 
REMARK    7  A    between atoms: C8_8  and  C9_9 
REMARK    8  A    between atoms: C9_9  and  C10_10 
REMARK    9  A    between atoms: C10_10  and  C11_11 
REMARK   10  A    between atoms: C11_11  and  C12_12 
REMARK   11  A    between atoms: C12_12  and  S1_13 
REMARK   12  A    between atoms: S1_13  and  N1_16 
REMARK   13  A    between atoms: N1_16  and  C13_18 
REMARK   14  A    between atoms: C13_18  and  C14_19 
REMARK   15  A    between atoms: C16_21  and  N2_22 
REMARK       I    between atoms: N2_22  and  C17_23 
REMARK   16  A    between atoms: C17_23  and  C18_25 
REMARK   17  A    between atoms: C19_26  and  N3_27 
REMARK       I    between atoms: N3_27  and  C20_29 
REMARK   18  A    between atoms: C20_29  and  O5_31 
REMARK   19  A    between atoms: O5_31  and  C21_32 
REMARK   20  A    between atoms: C27_44  and  O8_45 
REMARK   21  A    between atoms: C28_47  and  O9_48 
ROOT
HETATM    1  C14 UNL     1       0.464  21.877   7.090  1.00  0.00     0.072 C 
HETATM    2  C15 UNL     1      -0.240  21.083   8.300  1.00  0.00     0.137 C 
HETATM    3  C16 UNL     1      -1.541  21.881   8.489  1.00  0.00     0.106 C 
HETATM    4  C27 UNL     1      -1.152  23.336   8.353  1.00  0.00     0.233 C 
HETATM    5  C28 UNL     1      -1.066  23.491   6.894  1.00  0.00     0.298 C 
HETATM    6  O10 UNL     1      -0.189  22.558   6.334  1.00  0.00    -0.320 OA
ENDROOT
BRANCH   3   7
HETATM    7  N2  UNL     1      -2.594  21.396   8.078  1.00  0.00    -0.372 NA
HETATM    8  C17 UNL     1      -3.940  20.749   7.526  1.00  0.00     0.335 C 
HETATM    9  O3  UNL     1      -3.955  20.076   6.873  1.00  0.00    -0.251 OA
BRANCH   8  10
HETATM   10  C18 UNL     1      -4.727  21.650   8.574  1.00  0.00     0.158 A 
HETATM   11  C19 UNL     1      -5.164  21.064   9.707  1.00  0.00     0.136 A 
HETATM   12  N4  UNL     1      -5.617  21.812  10.638  1.00  0.00    -0.293 N 
HETATM   13  C25 UNL     1      -5.730  23.154  10.509  1.00  0.00     0.328 A 
ATOM     14  H4  UNL     1      -5.906  21.380  11.516  1.00  0.00     0.172 HD
HETATM   15  O6  UNL     1      -6.202  23.873  11.477  1.00  0.00    -0.247 OA
HETATM   16  N5  UNL     1      -5.351  23.755   9.369  1.00  0.00    -0.274 N 
HETATM   17  C26 UNL     1      -4.848  23.044   8.399  1.00  0.00     0.270 A 
ATOM     18  H5  UNL     1      -5.456  24.764   9.263  1.00  0.00     0.173 HD
HETATM   19  O7  UNL     1      -4.464  23.492   7.242  1.00  0.00    -0.267 OA
BRANCH  11  20
HETATM   20  N3  UNL     1      -5.091  19.579   9.587  1.00  0.00    -0.287 N 
HETATM   21  C20 UNL     1      -6.498  19.180   9.343  1.00  0.00     0.367 C 
HETATM   22  O4  UNL     1      -6.788  18.012   9.223  1.00  0.00    -0.238 OA
ATOM     23  H3  UNL     1      -4.268  18.980   9.655  1.00  0.00     0.172 HD
BRANCH  21  24
HETATM   24  O5  UNL     1      -7.391  20.226   9.151  1.00  0.00    -0.294 OA
BRANCH  24  25
HETATM   25  C21 UNL     1      -8.156  20.528   8.031  1.00  0.00     0.061 C 
HETATM   26  C22 UNL     1      -8.499  22.054   8.329  1.00  0.00     0.046 C 
HETATM   27  C23 UNL     1      -7.735  20.436   6.652  1.00  0.00     0.046 C 
HETATM   28  C24 UNL     1      -9.465  19.792   8.203  1.00  0.00     0.046 C 
ENDBRANCH  24  25
ENDBRANCH  21  24
ENDBRANCH  11  20
ENDBRANCH   8  10
ENDBRANCH   3   7
BRANCH   4  29
HETATM   29  O8  UNL     1      -2.126  24.130   8.938  1.00  0.00    -0.384 OA
ATOM     30  H8  UNL     1      -2.702  24.470   8.264  1.00  0.00     0.210 HD
ENDBRANCH   4  29
BRANCH   1  31
HETATM   31  C13 UNL     1       1.853  21.910   7.635  1.00  0.00     0.132 C 
BRANCH  31  32
HETATM   32  N1  UNL     1       2.466  23.147   7.388  1.00  0.00    -0.293 N 
ATOM     33  H1  UNL     1       2.313  24.042   7.853  1.00  0.00     0.177 HD
BRANCH  32  34
HETATM   34  S1  UNL     1       3.518  22.775   6.127  1.00  0.00     0.230 S 
HETATM   35  O1  UNL     1       3.100  23.453   4.828  1.00  0.00    -0.206 OA
HETATM   36  O2  UNL     1       3.008  21.228   5.867  1.00  0.00    -0.206 OA
BRANCH  34  37
HETATM   37  C12 UNL     1       5.184  22.612   6.445  1.00  0.00     0.163 C 
BRANCH  37  38
HETATM   38  C11 UNL     1       5.827  23.401   5.267  1.00  0.00     0.017 C 
BRANCH  38  39
HETATM   39  C10 UNL     1       7.286  23.346   5.493  1.00  0.00     0.001 C 
BRANCH  39  40
HETATM   40  C9  UNL     1       7.923  24.628   5.191  1.00  0.00     0.000 C 
BRANCH  40  41
HETATM   41  C8  UNL     1       7.092  25.871   5.096  1.00  0.00     0.000 C 
BRANCH  41  42
HETATM   42  C7  UNL     1       7.654  27.197   5.294  1.00  0.00     0.000 C 
BRANCH  42  43
HETATM   43  C6  UNL     1       9.082  27.341   4.699  1.00  0.00     0.000 C 
BRANCH  43  44
HETATM   44  C5  UNL     1       9.261  28.409   3.724  1.00  0.00     0.000 C 
BRANCH  44  45
HETATM   45  C4  UNL     1       8.786  28.427   2.361  1.00  0.00     0.000 C 
BRANCH  45  46
HETATM   46  C3  UNL     1       9.152  27.330   1.438  1.00  0.00    -0.000 C 
BRANCH  46  47
HETATM   47  C2  UNL     1       7.987  26.344   1.323  1.00  0.00    -0.005 C 
HETATM   48  C1  UNL     1       8.574  24.953   1.648  1.00  0.00     0.005 C 
ENDBRANCH  46  47
ENDBRANCH  45  46
ENDBRANCH  44  45
ENDBRANCH  43  44
ENDBRANCH  42  43
ENDBRANCH  41  42
ENDBRANCH  40  41
ENDBRANCH  39  40
ENDBRANCH  38  39
ENDBRANCH  37  38
ENDBRANCH  34  37
ENDBRANCH  32  34
ENDBRANCH  31  32
ENDBRANCH   1  31
BRANCH   5  49
HETATM   49  O9  UNL     1      -0.614  24.766   6.487  1.00  0.00    -0.368 OA
ATOM     50  H9  UNL     1      -1.309  25.409   6.412  1.00  0.00     0.212 HD
ENDBRANCH   5  49
TORSDOF 21
ENDMDL
MODEL 3
REMARK VINA RESULT: -7.883964531      8.011     16.802
REMARK  21 active torsions:
REMARK  status: ('A' for Active; 'I' for Inactive)
REMARK    1  A    between atoms: C2_2  and  C3_3 
REMARK    2  A    between atoms: C3_3  and  C4_4 
REMARK    3  A    between atoms: C4_4  and  C5_5 
REMARK    4  A    between atoms: C5_5  and  C6_6 
REMARK    5  A    between atoms: C6_6  and  C7_7 
REMARK    6  A    between atoms: C7_7  and  C8_8 
REMARK    7  A    between atoms: C8_8  and  C9_9 
REMARK    8  A    between atoms: C9_9  and  C10_10 
REMARK    9  A    between atoms: C10_10  and  C11_11 
REMARK   10  A    between atoms: C11_11  and  C12_12 
REMARK   11  A    between atoms: C12_12  and  S1_13 
REMARK   12  A    between atoms: S1_13  and  N1_16 
REMARK   13  A    between atoms: N1_16  and  C13_18 
REMARK   14  A    between atoms: C13_18  and  C14_19 
REMARK   15  A    between atoms: C16_21  and  N2_22 
REMARK       I    between atoms: N2_22  and  C17_23 
REMARK   16  A    between atoms: C17_23  and  C18_25 
REMARK   17  A    between atoms: C19_26  and  N3_27 
REMARK       I    between atoms: N3_27  and  C20_29 
REMARK   18  A    between atoms: C20_29  and  O5_31 
REMARK   19  A    between atoms: O5_31  and  C21_32 
REMARK   20  A    between atoms: C27_44  and  O8_45 
REMARK   21  A    between atoms: C28_47  and  O9_48 
ROOT
HETATM    1  C14 UNL     1       0.408  21.854   7.197  1.00  0.00     0.072 C 
HETATM    2  C15 UNL     1      -0.325  21.106   8.419  1.00  0.00     0.137 C 
HETATM    3  C16 UNL     1      -1.630  21.909   8.547  1.00  0.00     0.106 C 
HETATM    4  C27 UNL     1      -1.238  23.358   8.366  1.00  0.00     0.233 C 
HETATM    5  C28 UNL     1      -1.118  23.459   6.905  1.00  0.00     0.298 C 
HETATM    6  O10 UNL     1      -0.227  22.507   6.401  1.00  0.00    -0.320 OA
ENDROOT
BRANCH   3   7
HETATM    7  N2  UNL     1      -2.673  21.408   8.130  1.00  0.00    -0.372 NA
HETATM    8  C17 UNL     1      -4.006  20.741   7.569  1.00  0.00     0.335 C 
HETATM    9  O3  UNL     1      -4.007  20.072   6.913  1.00  0.00    -0.251 OA
BRANCH   8  10
HETATM   10  C18 UNL     1      -4.811  21.620   8.622  1.00  0.00     0.158 A 
HETATM   11  C19 UNL     1      -5.256  21.015   9.741  1.00  0.00     0.136 A 
HETATM   12  N4  UNL     1      -5.725  21.746  10.678  1.00  0.00    -0.293 N 
HETATM   13  C25 UNL     1      -5.848  23.089  10.566  1.00  0.00     0.328 A 
ATOM     14  H4  UNL     1      -6.020  21.299  11.546  1.00  0.00     0.172 HD
HETATM   15  O6  UNL     1      -6.337  23.790  11.538  1.00  0.00    -0.247 OA
HETATM   16  N5  UNL     1      -5.461  23.709   9.439  1.00  0.00    -0.274 N 
HETATM   17  C26 UNL     1      -4.942  23.016   8.465  1.00  0.00     0.270 A 
ATOM     18  H5  UNL     1      -5.574  24.718   9.346  1.00  0.00     0.173 HD
HETATM   19  O7  UNL     1      -4.549  23.483   7.318  1.00  0.00    -0.267 OA
BRANCH  11  20
HETATM   20  N3  UNL     1      -5.170  19.533   9.601  1.00  0.00    -0.287 N 
HETATM   21  C20 UNL     1      -6.572  19.124   9.346  1.00  0.00     0.367 C 
HETATM   22  O4  UNL     1      -6.851  17.956   9.209  1.00  0.00    -0.238 OA
ATOM     23  H3  UNL     1      -4.342  18.940   9.665  1.00  0.00     0.172 HD
BRANCH  21  24
HETATM   24  O5  UNL     1      -7.473  20.166   9.164  1.00  0.00    -0.294 OA
BRANCH  24  25
HETATM   25  C21 UNL     1      -8.191  20.512   8.026  1.00  0.00     0.061 C 
HETATM   26  C22 UNL     1      -8.628  21.993   8.410  1.00  0.00     0.046 C 
HETATM   27  C23 UNL     1      -7.691  20.541   6.670  1.00  0.00     0.046 C 
HETATM   28  C24 UNL     1      -9.467  19.703   8.068  1.00  0.00     0.046 C 
ENDBRANCH  24  25
ENDBRANCH  21  24
ENDBRANCH  11  20
ENDBRANCH   8  10
ENDBRANCH   3   7
BRANCH   4  29
HETATM   29  O8  UNL     1      -2.226  24.172   8.898  1.00  0.00    -0.384 OA
ATOM     30  H8  UNL     1      -2.142  25.046   8.537  1.00  0.00     0.210 HD
ENDBRANCH   4  29
BRANCH   1  31
HETATM   31  C13 UNL     1       1.783  21.909   7.774  1.00  0.00     0.132 C 
BRANCH  31  32
HETATM   32  N1  UNL     1       2.455  23.074   7.375  1.00  0.00    -0.293 N 
ATOM     33  H1  UNL     1       2.306  24.036   7.680  1.00  0.00     0.177 HD
BRANCH  32  34
HETATM   34  S1  UNL     1       3.569  22.477   6.263  1.00  0.00     0.230 S 
HETATM   35  O1  UNL     1       3.088  21.179   5.625  1.00  0.00    -0.206 OA
HETATM   36  O2  UNL     1       4.679  21.916   7.347  1.00  0.00    -0.206 OA
BRANCH  34  37
HETATM   37  C12 UNL     1       4.453  23.565   5.294  1.00  0.00     0.163 C 
BRANCH  37  38
HETATM   38  C11 UNL     1       5.924  23.137   5.570  1.00  0.00     0.017 C 
BRANCH  38  39
HETATM   39  C10 UNL     1       6.754  24.317   5.252  1.00  0.00     0.001 C 
BRANCH  39  40
HETATM   40  C9  UNL     1       8.173  23.970   5.178  1.00  0.00     0.000 C 
BRANCH  40  41
HETATM   41  C8  UNL     1       9.097  24.780   4.321  1.00  0.00     0.000 C 
BRANCH  41  42
HETATM   42  C7  UNL     1       8.703  25.283   3.016  1.00  0.00     0.000 C 
BRANCH  42  43
HETATM   43  C6  UNL     1       8.855  26.824   2.892  1.00  0.00     0.000 C 
BRANCH  43  44
HETATM   44  C5  UNL     1       9.314  27.516   4.090  1.00  0.00     0.000 C 
BRANCH  44  45
HETATM   45  C4  UNL     1       8.581  28.490   4.863  1.00  0.00     0.000 C 
BRANCH  45  46
HETATM   46  C3  UNL     1       7.534  28.044   5.808  1.00  0.00    -0.000 C 
BRANCH  46  47
HETATM   47  C2  UNL     1       7.005  29.247   6.594  1.00  0.00    -0.005 C 
HETATM   48  C1  UNL     1       7.454  29.032   8.055  1.00  0.00     0.005 C 
ENDBRANCH  46  47
ENDBRANCH  45  46
ENDBRANCH  44  45
ENDBRANCH  43  44
ENDBRANCH  42  43
ENDBRANCH  41  42
ENDBRANCH  40  41
ENDBRANCH  39  40
ENDBRANCH  38  39
ENDBRANCH  37  38
ENDBRANCH  34  37
ENDBRANCH  32  34
ENDBRANCH  31  32
ENDBRANCH   1  31
BRANCH   5  49
HETATM   49  O9  UNL     1      -0.656  24.718   6.462  1.00  0.00    -0.368 OA
ATOM     50  H9  UNL     1      -0.352  24.716   5.562  1.00  0.00     0.212 HD
ENDBRANCH   5  49
TORSDOF 21
ENDMDL
MODEL 4
REMARK VINA RESULT: -7.880256350      8.395     17.358
REMARK  21 active torsions:
REMARK  status: ('A' for Active; 'I' for Inactive)
REMARK    1  A    between atoms: C2_2  and  C3_3 
REMARK    2  A    between atoms: C3_3  and  C4_4 
REMARK    3  A    between atoms: C4_4  and  C5_5 
REMARK    4  A    between atoms: C5_5  and  C6_6 
REMARK    5  A    between atoms: C6_6  and  C7_7 
REMARK    6  A    between atoms: C7_7  and  C8_8 
REMARK    7  A    between atoms: C8_8  and  C9_9 
REMARK    8  A    between atoms: C9_9  and  C10_10 
REMARK    9  A    between atoms: C10_10  and  C11_11 
REMARK   10  A    between atoms: C11_11  and  C12_12 
REMARK   11  A    between atoms: C12_12  and  S1_13 
REMARK   12  A    between atoms: S1_13  and  N1_16 
REMARK   13  A    between atoms: N1_16  and  C13_18 
REMARK   14  A    between atoms: C13_18  and  C14_19 
REMARK   15  A    between atoms: C16_21  and  N2_22 
REMARK       I    between atoms: N2_22  and  C17_23 
REMARK   16  A    between atoms: C17_23  and  C18_25 
REMARK   17  A    between atoms: C19_26  and  N3_27 
REMARK       I    between atoms: N3_27  and  C20_29 
REMARK   18  A    between atoms: C20_29  and  O5_31 
REMARK   19  A    between atoms: O5_31  and  C21_32 
REMARK   20  A    between atoms: C27_44  and  O8_45 
REMARK   21  A    between atoms: C28_47  and  O9_48 
ROOT
HETATM    1  C14 UNL     1      -1.182  21.613   7.027  1.00  0.00     0.072 C 
HETATM    2  C15 UNL     1      -1.792  21.119   8.432  1.00  0.00     0.137 C 
HETATM    3  C16 UNL     1      -3.071  21.965   8.539  1.00  0.00     0.106 C 
HETATM    4  C27 UNL     1      -2.689  23.346   8.057  1.00  0.00     0.233 C 
HETATM    5  C28 UNL     1      -2.718  23.176   6.598  1.00  0.00     0.298 C 
HETATM    6  O10 UNL     1      -1.890  22.126   6.191  1.00  0.00    -0.320 OA
ENDROOT
BRANCH   3   7
HETATM    7  N2  UNL     1      -4.154  21.422   8.325  1.00  0.00    -0.372 NA
HETATM    8  C17 UNL     1      -5.550  20.721   8.017  1.00  0.00     0.335 C 
HETATM    9  O3  UNL     1      -5.831  20.496   7.152  1.00  0.00    -0.251 OA
BRANCH   8  10
HETATM   10  C18 UNL     1      -5.795  20.665   9.588  1.00  0.00     0.158 A 
HETATM   11  C19 UNL     1      -6.446  21.697  10.162  1.00  0.00     0.136 A 
HETATM   12  N4  UNL     1      -6.822  21.572  11.377  1.00  0.00    -0.293 N 
HETATM   13  C25 UNL     1      -6.542  20.478  12.122  1.00  0.00     0.328 A 
ATOM     14  H4  UNL     1      -7.355  22.330  11.804  1.00  0.00     0.172 HD
HETATM   15  O6  UNL     1      -6.936  20.399  13.352  1.00  0.00    -0.247 OA
HETATM   16  N5  UNL     1      -5.849  19.460  11.587  1.00  0.00    -0.274 N 
HETATM   17  C26 UNL     1      -5.471  19.517  10.341  1.00  0.00     0.270 A 
ATOM     18  H5  UNL     1      -5.618  18.644  12.154  1.00  0.00     0.173 HD
HETATM   19  O7  UNL     1      -4.779  18.617   9.709  1.00  0.00    -0.267 OA
BRANCH  11  20
HETATM   20  N3  UNL     1      -6.519  22.854   9.225  1.00  0.00    -0.287 N 
HETATM   21  C20 UNL     1      -6.334  24.030  10.107  1.00  0.00     0.367 C 
HETATM   22  O4  UNL     1      -6.367  25.149   9.647  1.00  0.00    -0.238 OA
ATOM     23  H3  UNL     1      -6.661  22.839   8.215  1.00  0.00     0.172 HD
BRANCH  21  24
HETATM   24  O5  UNL     1      -6.011  23.742  11.426  1.00  0.00    -0.294 OA
BRANCH  24  25
HETATM   25  C21 UNL     1      -5.850  24.613  12.497  1.00  0.00     0.061 C 
HETATM   26  C22 UNL     1      -5.445  23.580  13.639  1.00  0.00     0.046 C 
HETATM   27  C23 UNL     1      -4.932  25.726  12.569  1.00  0.00     0.046 C 
HETATM   28  C24 UNL     1      -7.237  25.085  12.871  1.00  0.00     0.046 C 
ENDBRANCH  24  25
ENDBRANCH  21  24
ENDBRANCH  11  20
ENDBRANCH   8  10
ENDBRANCH   3   7
BRANCH   4  29
HETATM   29  O8  UNL     1      -3.613  24.268   8.525  1.00  0.00    -0.384 OA
ATOM     30  H8  UNL     1      -3.256  25.143   8.437  1.00  0.00     0.210 HD
ENDBRANCH   4  29
BRANCH   1  31
HETATM   31  C13 UNL     1       0.246  21.737   7.445  1.00  0.00     0.132 C 
BRANCH  31  32
HETATM   32  N1  UNL     1       1.102  21.735   6.334  1.00  0.00    -0.293 N 
ATOM     33  H1  UNL     1       1.347  20.962   5.715  1.00  0.00     0.177 HD
BRANCH  32  34
HETATM   34  S1  UNL     1       1.620  23.336   6.284  1.00  0.00     0.230 S 
HETATM   35  O1  UNL     1       1.049  24.149   7.439  1.00  0.00    -0.206 OA
HETATM   36  O2  UNL     1       0.668  23.834   5.032  1.00  0.00    -0.206 OA
BRANCH  34  37
HETATM   37  C12 UNL     1       3.204  23.690   5.763  1.00  0.00     0.163 C 
BRANCH  37  38
HETATM   38  C11 UNL     1       4.020  22.501   6.348  1.00  0.00     0.017 C 
BRANCH  38  39
HETATM   39  C10 UNL     1       5.424  22.745   5.960  1.00  0.00     0.001 C 
BRANCH  39  40
HETATM   40  C9  UNL     1       5.555  23.966   5.164  1.00  0.00     0.000 C 
BRANCH  40  41
HETATM   41  C8  UNL     1       6.870  24.681   5.105  1.00  0.00     0.000 C 
BRANCH  41  42
HETATM   42  C7  UNL     1       8.138  23.987   5.261  1.00  0.00     0.000 C 
BRANCH  42  43
HETATM   43  C6  UNL     1       9.273  24.607   4.401  1.00  0.00     0.000 C 
BRANCH  43  44
HETATM   44  C5  UNL     1       9.021  25.945   3.882  1.00  0.00     0.000 C 
BRANCH  44  45
HETATM   45  C4  UNL     1       8.928  26.334   2.495  1.00  0.00     0.000 C 
BRANCH  45  46
HETATM   46  C3  UNL     1       8.535  25.337   1.474  1.00  0.00    -0.000 C 
BRANCH  46  47
HETATM   47  C2  UNL     1       9.280  25.620   0.167  1.00  0.00    -0.005 C 
HETATM   48  C1  UNL     1       9.639  24.241  -0.425  1.00  0.00     0.005 C 
ENDBRANCH  46  47
ENDBRANCH  45  46
ENDBRANCH  44  45
ENDBRANCH  43  44
ENDBRANCH  42  43
ENDBRANCH  41  42
ENDBRANCH  40  41
ENDBRANCH  39  40
ENDBRANCH  38  39
ENDBRANCH  37  38
ENDBRANCH  34  37
ENDBRANCH  32  34
ENDBRANCH  31  32
ENDBRANCH   1  31
BRANCH   5  49
HETATM   49  O9  UNL     1      -2.295  24.321   5.888  1.00  0.00    -0.368 OA
ATOM     50  H9  UNL     1      -2.689  24.402   5.027  1.00  0.00     0.212 HD
ENDBRANCH   5  49
TORSDOF 21
ENDMDL
MODEL 5
REMARK VINA RESULT: -7.794927327      8.651     17.218
REMARK  21 active torsions:
REMARK  status: ('A' for Active; 'I' for Inactive)
REMARK    1  A    between atoms: C2_2  and  C3_3 
REMARK    2  A    between atoms: C3_3  and  C4_4 
REMARK    3  A    between atoms: C4_4  and  C5_5 
REMARK    4  A    between atoms: C5_5  and  C6_6 
REMARK    5  A    between atoms: C6_6  and  C7_7 
REMARK    6  A    between atoms: C7_7  and  C8_8 
REMARK    7  A    between atoms: C8_8  and  C9_9 
REMARK    8  A    between atoms: C9_9  and  C10_10 
REMARK    9  A    between atoms: C10_10  and  C11_11 
REMARK   10  A    between atoms: C11_11  and  C12_12 
REMARK   11  A    between atoms: C12_12  and  S1_13 
REMARK   12  A    between atoms: S1_13  and  N1_16 
REMARK   13  A    between atoms: N1_16  and  C13_18 
REMARK   14  A    between atoms: C13_18  and  C14_19 
REMARK   15  A    between atoms: C16_21  and  N2_22 
REMARK       I    between atoms: N2_22  and  C17_23 
REMARK   16  A    between atoms: C17_23  and  C18_25 
REMARK   17  A    between atoms: C19_26  and  N3_27 
REMARK       I    between atoms: N3_27  and  C20_29 
REMARK   18  A    between atoms: C20_29  and  O5_31 
REMARK   19  A    between atoms: O5_31  and  C21_32 
REMARK   20  A    between atoms: C27_44  and  O8_45 
REMARK   21  A    between atoms: C28_47  and  O9_48 
ROOT
HETATM    1  C14 UNL     1      -1.218  21.639   6.992  1.00  0.00     0.072 C 
HETATM    2  C15 UNL     1      -1.799  21.122   8.401  1.00  0.00     0.137 C 
HETATM    3  C16 UNL     1      -3.061  21.987   8.561  1.00  0.00     0.106 C 
HETATM    4  C27 UNL     1      -2.669  23.372   8.100  1.00  0.00     0.233 C 
HETATM    5  C28 UNL     1      -2.739  23.236   6.639  1.00  0.00     0.298 C 
HETATM    6  O10 UNL     1      -1.940  22.181   6.187  1.00  0.00    -0.320 OA
ENDROOT
BRANCH   3   7
HETATM    7  N2  UNL     1      -4.159  21.468   8.365  1.00  0.00    -0.372 NA
HETATM    8  C17 UNL     1      -5.573  20.795   8.079  1.00  0.00     0.335 C 
HETATM    9  O3  UNL     1      -5.859  20.548   7.221  1.00  0.00    -0.251 OA
BRANCH   8  10
HETATM   10  C18 UNL     1      -5.820  20.798   9.650  1.00  0.00     0.158 A 
HETATM   11  C19 UNL     1      -6.450  21.861  10.188  1.00  0.00     0.136 A 
HETATM   12  N4  UNL     1      -6.829  21.786  11.406  1.00  0.00    -0.293 N 
HETATM   13  C25 UNL     1      -6.571  20.713  12.188  1.00  0.00     0.328 A 
ATOM     14  H4  UNL     1      -7.347  22.569  11.805  1.00  0.00     0.172 HD
HETATM   15  O6  UNL     1      -6.967  20.684  13.421  1.00  0.00    -0.247 OA
HETATM   16  N5  UNL     1      -5.897  19.664  11.690  1.00  0.00    -0.274 N 
HETATM   17  C26 UNL     1      -5.518  19.671  10.443  1.00  0.00     0.270 A 
ATOM     18  H5  UNL     1      -5.683  18.863  12.285  1.00  0.00     0.173 HD
HETATM   19  O7  UNL     1      -4.844  18.736   9.843  1.00  0.00    -0.267 OA
BRANCH  11  20
HETATM   20  N3  UNL     1      -6.500  22.986   9.211  1.00  0.00    -0.287 N 
HETATM   21  C20 UNL     1      -6.227  24.183  10.042  1.00  0.00     0.367 C 
HETATM   22  O4  UNL     1      -6.222  25.284   9.542  1.00  0.00    -0.238 OA
ATOM     23  H3  UNL     1      -6.679  22.942   8.207  1.00  0.00     0.172 HD
BRANCH  21  24
HETATM   24  O5  UNL     1      -5.872  23.926  11.360  1.00  0.00    -0.294 OA
BRANCH  24  25
HETATM   25  C21 UNL     1      -5.801  24.805  12.433  1.00  0.00     0.061 C 
HETATM   26  C22 UNL     1      -4.466  25.591  12.063  1.00  0.00     0.046 C 
HETATM   27  C23 UNL     1      -6.794  25.785  12.810  1.00  0.00     0.046 C 
HETATM   28  C24 UNL     1      -5.441  23.970  13.641  1.00  0.00     0.046 C 
ENDBRANCH  24  25
ENDBRANCH  21  24
ENDBRANCH  11  20
ENDBRANCH   8  10
ENDBRANCH   3   7
BRANCH   4  29
HETATM   29  O8  UNL     1      -3.563  24.298   8.614  1.00  0.00    -0.384 OA
ATOM     30  H8  UNL     1      -4.412  23.888   8.725  1.00  0.00     0.210 HD
ENDBRANCH   4  29
BRANCH   1  31
HETATM   31  C13 UNL     1       0.221  21.730   7.374  1.00  0.00     0.132 C 
BRANCH  31  32
HETATM   32  N1  UNL     1       1.051  21.681   6.244  1.00  0.00    -0.293 N 
ATOM     33  H1  UNL     1       1.226  20.900   5.611  1.00  0.00     0.177 HD
BRANCH  32  34
HETATM   34  S1  UNL     1       1.681  23.241   6.200  1.00  0.00     0.230 S 
HETATM   35  O1  UNL     1       1.278  24.046   7.430  1.00  0.00    -0.206 OA
HETATM   36  O2  UNL     1       0.660  23.856   5.059  1.00  0.00    -0.206 OA
BRANCH  34  37
HETATM   37  C12 UNL     1       3.234  23.501   5.546  1.00  0.00     0.163 C 
BRANCH  37  38
HETATM   38  C11 UNL     1       4.068  22.368   6.211  1.00  0.00     0.017 C 
BRANCH  38  39
HETATM   39  C10 UNL     1       5.471  22.829   6.182  1.00  0.00     0.001 C 
BRANCH  39  40
HETATM   40  C9  UNL     1       5.687  23.819   5.126  1.00  0.00     0.000 C 
BRANCH  40  41
HETATM   41  C8  UNL     1       6.878  24.725   5.183  1.00  0.00     0.000 C 
BRANCH  41  42
HETATM   42  C7  UNL     1       8.240  24.222   5.091  1.00  0.00     0.000 C 
BRANCH  42  43
HETATM   43  C6  UNL     1       9.141  25.090   4.171  1.00  0.00     0.000 C 
BRANCH  43  44
HETATM   44  C5  UNL     1       8.749  26.487   4.030  1.00  0.00     0.000 C 
BRANCH  44  45
HETATM   45  C4  UNL     1       9.175  27.594   4.851  1.00  0.00     0.000 C 
BRANCH  45  46
HETATM   46  C3  UNL     1       8.406  28.859   4.842  1.00  0.00    -0.000 C 
BRANCH  46  47
HETATM   47  C2  UNL     1       7.144  28.699   5.694  1.00  0.00    -0.005 C 
HETATM   48  C1  UNL     1       7.583  28.942   7.154  1.00  0.00     0.005 C 
ENDBRANCH  46  47
ENDBRANCH  45  46
ENDBRANCH  44  45
ENDBRANCH  43  44
ENDBRANCH  42  43
ENDBRANCH  41  42
ENDBRANCH  40  41
ENDBRANCH  39  40
ENDBRANCH  38  39
ENDBRANCH  37  38
ENDBRANCH  34  37
ENDBRANCH  32  34
ENDBRANCH  31  32
ENDBRANCH   1  31
BRANCH   5  49
HETATM   49  O9  UNL     1      -2.315  24.390   5.943  1.00  0.00    -0.368 OA
ATOM     50  H9  UNL     1      -2.379  24.309   4.999  1.00  0.00     0.212 HD
ENDBRANCH   5  49
TORSDOF 21
ENDMDL
