MODEL 1
REMARK VINA RESULT: -7.420568565      0.000      0.000
REMARK  12 active torsions:
REMARK  status: ('A' for Active; 'I' for Inactive)
REMARK    1  A    between atoms: C2_2  and  O1_4 
REMARK    2  A    between atoms: O1_4  and  C4_5 
REMARK    3  A    between atoms: C5_6  and  O2_7 
REMARK    4  A    between atoms: C6_9  and  O3_10 
REMARK    5  A    between atoms: C7_12  and  O4_13 
REMARK    6  A    between atoms: N1_16  and  C9_17 
REMARK    7  A    between atoms: N1_16  and  C18_26 
REMARK    8  A    between atoms: C9_17  and  C10_18 
REMARK    9  A    between atoms: C10_18  and  C11_19 
REMARK   10  A    between atoms: C11_19  and  C12_20 
REMARK   11  A    between atoms: C18_26  and  C19_27 
REMARK   12  A    between atoms: C25_33  and  O5_34 
ROOT
HETATM    1  C4  UNL     1       4.416  61.998  26.107  1.00  0.00     0.187 C 
HETATM    2  C5  UNL     1       3.202  61.474  26.790  1.00  0.00     0.181 C 
HETATM    3  C6  UNL     1       2.067  61.107  25.867  1.00  0.00     0.183 C 
HETATM    4  C7  UNL     1       2.574  59.987  24.937  1.00  0.00     0.197 C 
HETATM    5  C8  UNL     1       3.963  60.078  24.548  1.00  0.00     0.051 C 
HETATM    6  N1  UNL     1       4.647  59.402  23.587  1.00  0.00    -0.358 N 
HETATM    7  C25 UNL     1       4.461  61.517  24.644  1.00  0.00     0.198 C 
ENDROOT
BRANCH   4   8
HETATM    8  O4  UNL     1       1.646  59.797  23.907  1.00  0.00    -0.387 OA
ATOM      9  H4  UNL     1       1.115  59.035  24.106  1.00  0.00     0.210 HD
ENDBRANCH   4   8
BRANCH   6  10
HETATM   10  C9  UNL     1       4.844  57.990  23.917  1.00  0.00     0.128 C 
BRANCH  10  11
HETATM   11  C10 UNL     1       3.887  57.007  23.429  1.00  0.00     0.025 C 
BRANCH  11  12
HETATM   12  C11 UNL     1       4.587  56.004  22.484  1.00  0.00     0.040 C 
BRANCH  12  13
HETATM   13  C12 UNL     1       3.786  55.720  21.277  1.00  0.00    -0.058 A 
HETATM   14  C13 UNL     1       3.948  56.362  20.066  1.00  0.00     0.007 A 
HETATM   15  C14 UNL     1       3.160  56.042  18.982  1.00  0.00     0.001 A 
HETATM   16  C15 UNL     1       2.180  55.087  19.029  1.00  0.00     0.000 A 
HETATM   17  C16 UNL     1       2.002  54.433  20.231  1.00  0.00     0.001 A 
HETATM   18  C17 UNL     1       2.782  54.742  21.321  1.00  0.00     0.007 A 
ENDBRANCH  12  13
ENDBRANCH  11  12
ENDBRANCH  10  11
ENDBRANCH   6  10
BRANCH   6  19
HETATM   19  C18 UNL     1       4.430  59.412  22.204  1.00  0.00     0.102 C 
BRANCH  19  20
HETATM   20  C19 UNL     1       5.472  59.894  21.314  1.00  0.00    -0.021 A 
HETATM   21  C20 UNL     1       6.325  59.005  20.634  1.00  0.00     0.013 A 
HETATM   22  C21 UNL     1       7.339  59.400  19.817  1.00  0.00     0.001 A 
HETATM   23  C22 UNL     1       7.586  60.729  19.607  1.00  0.00     0.000 A 
HETATM   24  C23 UNL     1       6.783  61.648  20.247  1.00  0.00     0.001 A 
HETATM   25  C24 UNL     1       5.763  61.230  21.069  1.00  0.00     0.013 A 
ENDBRANCH  19  20
ENDBRANCH   6  19
BRANCH   7  26
HETATM   26  O5  UNL     1       3.599  62.378  23.984  1.00  0.00    -0.387 OA
ATOM     27  H5  UNL     1       4.169  62.879  23.414  1.00  0.00     0.210 HD
ENDBRANCH   7  26
BRANCH   3  28
HETATM   28  O3  UNL     1       1.021  60.565  26.659  1.00  0.00    -0.390 OA
ATOM     29  H3  UNL     1       0.769  59.732  26.278  1.00  0.00     0.210 HD
ENDBRANCH   3  28
BRANCH   1  30
HETATM   30  O1  UNL     1       5.610  61.727  26.701  1.00  0.00    -0.376 OA
BRANCH  30  31
HETATM   31  C2  UNL     1       5.594  60.924  27.798  1.00  0.00     0.114 C 
HETATM   32  C1  UNL     1       6.361  61.437  28.981  1.00  0.00     0.039 C 
HETATM   33  C3  UNL     1       6.247  59.594  27.404  1.00  0.00     0.039 C 
ENDBRANCH  30  31
ENDBRANCH   1  30
BRANCH   2  34
HETATM   34  O2  UNL     1       2.681  62.458  27.665  1.00  0.00    -0.390 OA
ATOM     35  H2  UNL     1       3.137  62.422  28.497  1.00  0.00     0.210 HD
ENDBRANCH   2  34
TORSDOF 12
ENDMDL
MODEL 2
REMARK VINA RESULT: -7.372339922      2.653      6.594
REMARK  12 active torsions:
REMARK  status: ('A' for Active; 'I' for Inactive)
REMARK    1  A    between atoms: C2_2  and  O1_4 
REMARK    2  A    between atoms: O1_4  and  C4_5 
REMARK    3  A    between atoms: C5_6  and  O2_7 
REMARK    4  A    between atoms: C6_9  and  O3_10 
REMARK    5  A    between atoms: C7_12  and  O4_13 
REMARK    6  A    between atoms: N1_16  and  C9_17 
REMARK    7  A    between atoms: N1_16  and  C18_26 
REMARK    8  A    between atoms: C9_17  and  C10_18 
REMARK    9  A    between atoms: C10_18  and  C11_19 
REMARK   10  A    between atoms: C11_19  and  C12_20 
REMARK   11  A    between atoms: C18_26  and  C19_27 
REMARK   12  A    between atoms: C25_33  and  O5_34 
ROOT
HETATM    1  C4  UNL     1       5.245  59.061  20.819  1.00  0.00     0.187 C 
HETATM    2  C5  UNL     1       6.474  59.886  20.661  1.00  0.00     0.181 C 
HETATM    3  C6  UNL     1       6.286  61.357  20.935  1.00  0.00     0.183 C 
HETATM    4  C7  UNL     1       5.840  61.498  22.403  1.00  0.00     0.197 C 
HETATM    5  C8  UNL     1       4.984  60.446  22.900  1.00  0.00     0.051 C 
HETATM    6  N1  UNL     1       4.251  60.383  24.044  1.00  0.00    -0.358 N 
HETATM    7  C25 UNL     1       4.244  59.761  21.756  1.00  0.00     0.198 C 
ENDROOT
BRANCH   4   8
HETATM    8  O4  UNL     1       5.412  62.812  22.624  1.00  0.00    -0.387 OA
ATOM      9  H4  UNL     1       5.135  62.899  23.529  1.00  0.00     0.210 HD
ENDBRANCH   4   8
BRANCH   6  10
HETATM   10  C9  UNL     1       5.081  60.259  25.243  1.00  0.00     0.128 C 
BRANCH  10  11
HETATM   11  C10 UNL     1       5.464  58.933  25.707  1.00  0.00     0.025 C 
BRANCH  11  12
HETATM   12  C11 UNL     1       4.665  58.559  26.976  1.00  0.00     0.040 C 
BRANCH  12  13
HETATM   13  C12 UNL     1       3.583  57.596  26.693  1.00  0.00    -0.058 A 
HETATM   14  C13 UNL     1       2.595  57.249  27.592  1.00  0.00     0.007 A 
HETATM   15  C14 UNL     1       1.616  56.339  27.255  1.00  0.00     0.001 A 
HETATM   16  C15 UNL     1       1.557  55.727  26.032  1.00  0.00     0.000 A 
HETATM   17  C16 UNL     1       2.536  56.061  25.118  1.00  0.00     0.001 A 
HETATM   18  C17 UNL     1       3.519  56.968  25.441  1.00  0.00     0.007 A 
ENDBRANCH  12  13
ENDBRANCH  11  12
ENDBRANCH  10  11
ENDBRANCH   6  10
BRANCH   6  19
HETATM   19  C18 UNL     1       3.189  61.207  24.437  1.00  0.00     0.102 C 
BRANCH  19  20
HETATM   20  C19 UNL     1       2.082  60.646  25.191  1.00  0.00    -0.021 A 
HETATM   21  C20 UNL     1       1.236  59.670  24.635  1.00  0.00     0.013 A 
HETATM   22  C21 UNL     1       0.163  59.135  25.281  1.00  0.00     0.001 A 
HETATM   23  C22 UNL     1      -0.153  59.534  26.550  1.00  0.00     0.000 A 
HETATM   24  C23 UNL     1       0.641  60.489  27.148  1.00  0.00     0.001 A 
HETATM   25  C24 UNL     1       1.719  61.018  26.479  1.00  0.00     0.013 A 
ENDBRANCH  19  20
ENDBRANCH   6  19
BRANCH   7  26
HETATM   26  O5  UNL     1       3.626  60.699  20.943  1.00  0.00    -0.387 OA
ATOM     27  H5  UNL     1       4.350  61.165  20.542  1.00  0.00     0.210 HD
ENDBRANCH   7  26
BRANCH   3  28
HETATM   28  O3  UNL     1       7.552  61.987  20.808  1.00  0.00    -0.390 OA
ATOM     29  H3  UNL     1       7.402  62.895  20.572  1.00  0.00     0.210 HD
ENDBRANCH   3  28
BRANCH   1  30
HETATM   30  O1  UNL     1       5.426  57.780  21.239  1.00  0.00    -0.376 OA
BRANCH  30  31
HETATM   31  C2  UNL     1       4.328  56.979  21.292  1.00  0.00     0.114 C 
HETATM   32  C1  UNL     1       4.520  55.672  22.004  1.00  0.00     0.039 C 
HETATM   33  C3  UNL     1       3.943  56.631  19.849  1.00  0.00     0.039 C 
ENDBRANCH  30  31
ENDBRANCH   1  30
BRANCH   2  34
HETATM   34  O2  UNL     1       6.940  59.802  19.326  1.00  0.00    -0.390 OA
ATOM     35  H2  UNL     1       7.310  60.635  19.061  1.00  0.00     0.210 HD
ENDBRANCH   2  34
TORSDOF 12
ENDMDL
MODEL 3
REMARK VINA RESULT: -7.215334071      1.368      2.113
REMARK  12 active torsions:
REMARK  status: ('A' for Active; 'I' for Inactive)
REMARK    1  A    between atoms: C2_2  and  O1_4 
REMARK    2  A    between atoms: O1_4  and  C4_5 
REMARK    3  A    between atoms: C5_6  and  O2_7 
REMARK    4  A    between atoms: C6_9  and  O3_10 
REMARK    5  A    between atoms: C7_12  and  O4_13 
REMARK    6  A    between atoms: N1_16  and  C9_17 
REMARK    7  A    between atoms: N1_16  and  C18_26 
REMARK    8  A    between atoms: C9_17  and  C10_18 
REMARK    9  A    between atoms: C10_18  and  C11_19 
REMARK   10  A    between atoms: C11_19  and  C12_20 
REMARK   11  A    between atoms: C18_26  and  C19_27 
REMARK   12  A    between atoms: C25_33  and  O5_34 
ROOT
HETATM    1  C4  UNL     1       5.723  60.146  26.912  1.00  0.00     0.187 C 
HETATM    2  C5  UNL     1       4.506  60.127  27.768  1.00  0.00     0.181 C 
HETATM    3  C6  UNL     1       3.321  60.864  27.199  1.00  0.00     0.183 C 
HETATM    4  C7  UNL     1       2.944  60.175  25.873  1.00  0.00     0.197 C 
HETATM    5  C8  UNL     1       4.050  59.660  25.099  1.00  0.00     0.051 C 
HETATM    6  N1  UNL     1       4.085  59.211  23.816  1.00  0.00    -0.358 N 
HETATM    7  C25 UNL     1       5.341  60.396  25.441  1.00  0.00     0.198 C 
ENDROOT
BRANCH   4   8
HETATM    8  O4  UNL     1       2.021  60.976  25.190  1.00  0.00    -0.387 OA
ATOM      9  H4  UNL     1       1.371  60.417  24.780  1.00  0.00     0.210 HD
ENDBRANCH   4   8
BRANCH   6  10
HETATM   10  C9  UNL     1       3.385  57.938  23.641  1.00  0.00     0.128 C 
BRANCH  10  11
HETATM   11  C10 UNL     1       4.125  56.694  23.797  1.00  0.00     0.025 C 
BRANCH  11  12
HETATM   12  C11 UNL     1       4.869  56.347  22.488  1.00  0.00     0.040 C 
BRANCH  12  13
HETATM   13  C12 UNL     1       3.952  55.883  21.428  1.00  0.00    -0.058 A 
HETATM   14  C13 UNL     1       3.043  54.857  21.580  1.00  0.00     0.007 A 
HETATM   15  C14 UNL     1       2.219  54.479  20.542  1.00  0.00     0.001 A 
HETATM   16  C15 UNL     1       2.245  55.081  19.313  1.00  0.00     0.000 A 
HETATM   17  C16 UNL     1       3.147  56.111  19.141  1.00  0.00     0.001 A 
HETATM   18  C17 UNL     1       3.975  56.499  20.169  1.00  0.00     0.007 A 
ENDBRANCH  12  13
ENDBRANCH  11  12
ENDBRANCH  10  11
ENDBRANCH   6  10
BRANCH   6  19
HETATM   19  C18 UNL     1       3.812  59.925  22.643  1.00  0.00     0.102 C 
BRANCH  19  20
HETATM   20  C19 UNL     1       4.908  60.397  21.815  1.00  0.00    -0.021 A 
HETATM   21  C20 UNL     1       5.154  61.771  21.638  1.00  0.00     0.013 A 
HETATM   22  C21 UNL     1       6.142  62.271  20.846  1.00  0.00     0.001 A 
HETATM   23  C22 UNL     1       6.977  61.431  20.162  1.00  0.00     0.000 A 
HETATM   24  C23 UNL     1       6.785  60.073  20.297  1.00  0.00     0.001 A 
HETATM   25  C24 UNL     1       5.780  59.587  21.100  1.00  0.00     0.013 A 
ENDBRANCH  19  20
ENDBRANCH   6  19
BRANCH   7  26
HETATM   26  O5  UNL     1       5.154  61.768  25.374  1.00  0.00    -0.387 OA
ATOM     27  H5  UNL     1       5.995  62.100  25.085  1.00  0.00     0.210 HD
ENDBRANCH   7  26
BRANCH   3  28
HETATM   28  O3  UNL     1       2.232  60.696  28.094  1.00  0.00    -0.390 OA
ATOM     29  H3  UNL     1       2.033  61.544  28.473  1.00  0.00     0.210 HD
ENDBRANCH   3  28
BRANCH   1  30
HETATM   30  O1  UNL     1       6.530  59.054  26.982  1.00  0.00    -0.376 OA
BRANCH  30  31
HETATM   31  C2  UNL     1       5.930  57.839  27.096  1.00  0.00     0.114 C 
HETATM   32  C1  UNL     1       6.023  57.200  28.451  1.00  0.00     0.039 C 
HETATM   33  C3  UNL     1       6.631  56.886  26.122  1.00  0.00     0.039 C 
ENDBRANCH  30  31
ENDBRANCH   1  30
BRANCH   2  34
HETATM   34  O2  UNL     1       4.783  60.749  29.010  1.00  0.00    -0.390 OA
ATOM     35  H2  UNL     1       4.871  60.089  29.688  1.00  0.00     0.210 HD
ENDBRANCH   2  34
TORSDOF 12
ENDMDL
MODEL 4
REMARK VINA RESULT: -7.177421421      2.739      6.881
REMARK  12 active torsions:
REMARK  status: ('A' for Active; 'I' for Inactive)
REMARK    1  A    between atoms: C2_2  and  O1_4 
REMARK    2  A    between atoms: O1_4  and  C4_5 
REMARK    3  A    between atoms: C5_6  and  O2_7 
REMARK    4  A    between atoms: C6_9  and  O3_10 
REMARK    5  A    between atoms: C7_12  and  O4_13 
REMARK    6  A    between atoms: N1_16  and  C9_17 
REMARK    7  A    between atoms: N1_16  and  C18_26 
REMARK    8  A    between atoms: C9_17  and  C10_18 
REMARK    9  A    between atoms: C10_18  and  C11_19 
REMARK   10  A    between atoms: C11_19  and  C12_20 
REMARK   11  A    between atoms: C18_26  and  C19_27 
REMARK   12  A    between atoms: C25_33  and  O5_34 
ROOT
HETATM    1  C4  UNL     1       5.211  58.612  21.094  1.00  0.00     0.187 C 
HETATM    2  C5  UNL     1       6.430  59.393  20.745  1.00  0.00     0.181 C 
HETATM    3  C6  UNL     1       6.259  60.889  20.802  1.00  0.00     0.183 C 
HETATM    4  C7  UNL     1       5.896  61.256  22.254  1.00  0.00     0.197 C 
HETATM    5  C8  UNL     1       5.068  60.299  22.952  1.00  0.00     0.051 C 
HETATM    6  N1  UNL     1       4.400  60.418  24.131  1.00  0.00    -0.358 N 
HETATM    7  C25 UNL     1       4.264  59.456  21.968  1.00  0.00     0.198 C 
ENDROOT
BRANCH   4   8
HETATM    8  O4  UNL     1       5.481  62.593  22.295  1.00  0.00    -0.387 OA
ATOM      9  H4  UNL     1       6.217  63.136  22.552  1.00  0.00     0.210 HD
ENDBRANCH   4   8
BRANCH   6  10
HETATM   10  C9  UNL     1       5.296  60.470  25.287  1.00  0.00     0.128 C 
BRANCH  10  11
HETATM   11  C10 UNL     1       5.489  59.270  26.089  1.00  0.00     0.025 C 
BRANCH  11  12
HETATM   12  C11 UNL     1       4.929  59.483  27.513  1.00  0.00     0.040 C 
BRANCH  12  13
HETATM   13  C12 UNL     1       3.744  58.644  27.780  1.00  0.00    -0.058 A 
HETATM   14  C13 UNL     1       2.886  58.825  28.845  1.00  0.00     0.007 A 
HETATM   15  C14 UNL     1       1.798  58.000  29.029  1.00  0.00     0.001 A 
HETATM   16  C15 UNL     1       1.500  56.962  28.187  1.00  0.00     0.000 A 
HETATM   17  C16 UNL     1       2.345  56.764  27.115  1.00  0.00     0.001 A 
HETATM   18  C17 UNL     1       3.435  57.582  26.919  1.00  0.00     0.007 A 
ENDBRANCH  12  13
ENDBRANCH  11  12
ENDBRANCH  10  11
ENDBRANCH   6  10
BRANCH   6  19
HETATM   19  C18 UNL     1       3.363  61.302  24.451  1.00  0.00     0.102 C 
BRANCH  19  20
HETATM   20  C19 UNL     1       2.193  60.814  25.161  1.00  0.00    -0.021 A 
HETATM   21  C20 UNL     1       1.449  59.720  24.683  1.00  0.00     0.013 A 
HETATM   22  C21 UNL     1       0.326  59.243  25.286  1.00  0.00     0.001 A 
HETATM   23  C22 UNL     1      -0.149  59.823  26.430  1.00  0.00     0.000 A 
HETATM   24  C23 UNL     1       0.540  60.899  26.947  1.00  0.00     0.001 A 
HETATM   25  C24 UNL     1       1.671  61.367  26.323  1.00  0.00     0.013 A 
ENDBRANCH  19  20
ENDBRANCH   6  19
BRANCH   7  26
HETATM   26  O5  UNL     1       3.603  60.265  21.057  1.00  0.00    -0.387 OA
ATOM     27  H5  UNL     1       3.852  61.146  21.311  1.00  0.00     0.210 HD
ENDBRANCH   7  26
BRANCH   3  28
HETATM   28  O3  UNL     1       7.516  61.482  20.511  1.00  0.00    -0.390 OA
ATOM     29  H3  UNL     1       7.579  62.289  21.008  1.00  0.00     0.210 HD
ENDBRANCH   3  28
BRANCH   1  30
HETATM   30  O1  UNL     1       5.415  57.408  21.694  1.00  0.00    -0.376 OA
BRANCH  30  31
HETATM   31  C2  UNL     1       4.326  56.774  22.206  1.00  0.00     0.114 C 
HETATM   32  C1  UNL     1       4.439  56.366  23.646  1.00  0.00     0.039 C 
HETATM   33  C3  UNL     1       4.130  55.481  21.407  1.00  0.00     0.039 C 
ENDBRANCH  30  31
ENDBRANCH   1  30
BRANCH   2  34
HETATM   34  O2  UNL     1       6.820  59.102  19.415  1.00  0.00    -0.390 OA
ATOM     35  H2  UNL     1       6.363  59.677  18.812  1.00  0.00     0.210 HD
ENDBRANCH   2  34
TORSDOF 12
ENDMDL
MODEL 5
REMARK VINA RESULT: -7.169022875      1.814      5.146
REMARK  12 active torsions:
REMARK  status: ('A' for Active; 'I' for Inactive)
REMARK    1  A    between atoms: C2_2  and  O1_4 
REMARK    2  A    between atoms: O1_4  and  C4_5 
REMARK    3  A    between atoms: C5_6  and  O2_7 
REMARK    4  A    between atoms: C6_9  and  O3_10 
REMARK    5  A    between atoms: C7_12  and  O4_13 
REMARK    6  A    between atoms: N1_16  and  C9_17 
REMARK    7  A    between atoms: N1_16  and  C18_26 
REMARK    8  A    between atoms: C9_17  and  C10_18 
REMARK    9  A    between atoms: C10_18  and  C11_19 
REMARK   10  A    between atoms: C11_19  and  C12_20 
REMARK   11  A    between atoms: C18_26  and  C19_27 
REMARK   12  A    between atoms: C25_33  and  O5_34 
ROOT
HETATM    1  C4  UNL     1       3.142  60.054  28.190  1.00  0.00     0.187 C 
HETATM    2  C5  UNL     1       4.297  60.870  28.654  1.00  0.00     0.181 C 
HETATM    3  C6  UNL     1       5.620  60.147  28.658  1.00  0.00     0.183 C 
HETATM    4  C7  UNL     1       5.922  59.734  27.204  1.00  0.00     0.197 C 
HETATM    5  C8  UNL     1       4.774  59.360  26.409  1.00  0.00     0.051 C 
HETATM    6  N1  UNL     1       4.714  58.747  25.197  1.00  0.00    -0.358 N 
HETATM    7  C25 UNL     1       3.626  58.895  27.299  1.00  0.00     0.198 C 
ENDROOT
BRANCH   4   8
HETATM    8  O4  UNL     1       7.004  58.845  27.200  1.00  0.00    -0.387 OA
ATOM      9  H4  UNL     1       7.801  59.330  27.019  1.00  0.00     0.210 HD
ENDBRANCH   4   8
BRANCH   6  10
HETATM   10  C9  UNL     1       5.177  59.603  24.105  1.00  0.00     0.128 C 
BRANCH  10  11
HETATM   11  C10 UNL     1       4.201  60.351  23.326  1.00  0.00     0.025 C 
BRANCH  11  12
HETATM   12  C11 UNL     1       4.117  59.785  21.890  1.00  0.00     0.040 C 
BRANCH  12  13
HETATM   13  C12 UNL     1       5.357  60.017  21.123  1.00  0.00    -0.058 A 
HETATM   14  C13 UNL     1       6.164  59.014  20.627  1.00  0.00     0.007 A 
HETATM   15  C14 UNL     1       7.310  59.309  19.920  1.00  0.00     0.001 A 
HETATM   16  C15 UNL     1       7.720  60.590  19.668  1.00  0.00     0.000 A 
HETATM   17  C16 UNL     1       6.927  61.608  20.156  1.00  0.00     0.001 A 
HETATM   18  C17 UNL     1       5.780  61.328  20.862  1.00  0.00     0.007 A 
ENDBRANCH  12  13
ENDBRANCH  11  12
ENDBRANCH  10  11
ENDBRANCH   6  10
BRANCH   6  19
HETATM   19  C18 UNL     1       5.162  57.466  24.853  1.00  0.00     0.102 C 
BRANCH  19  20
HETATM   20  C19 UNL     1       4.362  56.634  23.971  1.00  0.00    -0.021 A 
HETATM   21  C20 UNL     1       3.174  56.026  24.417  1.00  0.00     0.013 A 
HETATM   22  C21 UNL     1       2.403  55.209  23.648  1.00  0.00     0.001 A 
HETATM   23  C22 UNL     1       2.758  54.932  22.356  1.00  0.00     0.000 A 
HETATM   24  C23 UNL     1       3.913  55.500  21.863  1.00  0.00     0.001 A 
HETATM   25  C24 UNL     1       4.679  56.322  22.656  1.00  0.00     0.013 A 
ENDBRANCH  19  20
ENDBRANCH   6  19
BRANCH   7  26
HETATM   26  O5  UNL     1       4.063  57.940  28.203  1.00  0.00    -0.387 OA
ATOM     27  H5  UNL     1       4.962  58.188  28.380  1.00  0.00     0.210 HD
ENDBRANCH   7  26
BRANCH   3  28
HETATM   28  O3  UNL     1       6.620  61.072  29.057  1.00  0.00    -0.390 OA
ATOM     29  H3  UNL     1       7.322  60.582  29.469  1.00  0.00     0.210 HD
ENDBRANCH   3  28
BRANCH   1  30
HETATM   30  O1  UNL     1       2.147  60.724  27.548  1.00  0.00    -0.376 OA
BRANCH  30  31
HETATM   31  C2  UNL     1       2.321  62.057  27.345  1.00  0.00     0.114 C 
HETATM   32  C1  UNL     1       1.183  62.929  27.789  1.00  0.00     0.039 C 
HETATM   33  C3  UNL     1       2.467  62.276  25.835  1.00  0.00     0.039 C 
ENDBRANCH  30  31
ENDBRANCH   1  30
BRANCH   2  34
HETATM   34  O2  UNL     1       4.084  61.286  29.992  1.00  0.00    -0.390 OA
ATOM     35  H2  UNL     1       4.674  60.818  30.572  1.00  0.00     0.210 HD
ENDBRANCH   2  34
TORSDOF 12
ENDMDL
