MODEL 1
REMARK VINA RESULT: -8.133852745      0.000      0.000
REMARK  13 active torsions:
REMARK  status: ('A' for Active; 'I' for Inactive)
REMARK    1  A    between atoms: C2_2  and  C4_4 
REMARK    2  A    between atoms: C4_4  and  C5_5 
REMARK    3  A    between atoms: C4_4  and  O2_8 
REMARK    4  A    between atoms: C5_5  and  O1_6 
REMARK    5  A    between atoms: O2_8  and  C6_9 
REMARK    6  A    between atoms: C9_12  and  C10_13 
REMARK    7  A    between atoms: C10_13  and  O3_14 
REMARK    8  A    between atoms: O3_14  and  C11_15 
REMARK    9  A    between atoms: C11_15  and  C12_16 
REMARK   10  A    between atoms: C11_15  and  C18_22 
REMARK   11  A    between atoms: C24_28  and  O4_29 
REMARK   12  A    between atoms: C25_31  and  O5_32 
REMARK   13  A    between atoms: C26_34  and  O6_35 
ROOT
HETATM    1  C6  UNL     1       1.768  52.974  19.921  1.00  0.00     0.176 C 
HETATM    2  C7  UNL     1       1.920  53.997  20.986  1.00  0.00     0.004 C 
HETATM    3  C8  UNL     1       2.704  55.062  21.160  1.00  0.00    -0.019 C 
HETATM    4  C9  UNL     1       3.719  55.546  20.251  1.00  0.00     0.063 C 
HETATM    5  C24 UNL     1       3.490  55.040  18.819  1.00  0.00     0.159 C 
HETATM    6  C25 UNL     1       2.046  54.976  18.449  1.00  0.00     0.179 C 
HETATM    7  C26 UNL     1       1.518  53.554  18.574  1.00  0.00     0.182 C 
ENDROOT
BRANCH   4   8
HETATM    8  C10 UNL     1       3.989  56.997  20.102  1.00  0.00     0.180 C 
BRANCH   8   9
HETATM    9  O3  UNL     1       4.905  57.675  20.750  1.00  0.00    -0.376 OA
BRANCH   9  10
HETATM   10  C11 UNL     1       4.668  58.725  21.554  1.00  0.00     0.187 C 
BRANCH  10  11
HETATM   11  C12 UNL     1       4.974  58.455  22.996  1.00  0.00    -0.025 A 
HETATM   12  C13 UNL     1       5.045  59.425  23.965  1.00  0.00     0.010 A 
HETATM   13  C14 UNL     1       5.331  59.133  25.288  1.00  0.00     0.001 A 
HETATM   14  C15 UNL     1       5.558  57.829  25.674  1.00  0.00     0.000 A 
HETATM   15  C16 UNL     1       5.493  56.842  24.722  1.00  0.00     0.001 A 
HETATM   16  C17 UNL     1       5.204  57.158  23.396  1.00  0.00     0.010 A 
ENDBRANCH  10  11
BRANCH  10  17
HETATM   17  C18 UNL     1       5.435  59.951  21.120  1.00  0.00    -0.025 A 
HETATM   18  C19 UNL     1       6.648  59.759  20.511  1.00  0.00     0.010 A 
HETATM   19  C20 UNL     1       7.401  60.857  20.089  1.00  0.00     0.001 A 
HETATM   20  C21 UNL     1       6.907  62.122  20.293  1.00  0.00     0.000 A 
HETATM   21  C22 UNL     1       5.698  62.322  20.899  1.00  0.00     0.001 A 
HETATM   22  C23 UNL     1       4.981  61.222  21.303  1.00  0.00     0.010 A 
ENDBRANCH  10  17
ENDBRANCH   9  10
ENDBRANCH   8   9
ENDBRANCH   4   8
BRANCH   5  23
HETATM   23  O4  UNL     1       4.178  55.799  17.882  1.00  0.00    -0.392 OA
ATOM     24  H4  UNL     1       5.048  56.033  18.184  1.00  0.00     0.210 HD
ENDBRANCH   5  23
BRANCH   6  25
HETATM   25  O5  UNL     1       1.227  55.860  19.136  1.00  0.00    -0.390 OA
ATOM     26  H5  UNL     1       0.609  56.337  18.595  1.00  0.00     0.210 HD
ENDBRANCH   6  25
BRANCH   1  27
HETATM   27  O2  UNL     1       2.858  52.105  19.890  1.00  0.00    -0.372 OA
BRANCH  27  28
HETATM   28  C4  UNL     1       2.533  50.798  20.259  1.00  0.00     0.149 C 
BRANCH  28  29
HETATM   29  C2  UNL     1       1.509  50.169  19.382  1.00  0.00     0.009 C 
HETATM   30  C1  UNL     1       2.093  49.732  18.080  1.00  0.00     0.012 C 
HETATM   31  C3  UNL     1       0.825  48.968  19.991  1.00  0.00     0.012 C 
ENDBRANCH  28  29
BRANCH  28  32
HETATM   32  C5  UNL     1       3.850  50.026  20.093  1.00  0.00     0.196 C 
BRANCH  32  33
HETATM   33  O1  UNL     1       4.956  50.837  20.054  1.00  0.00    -0.398 OA
ATOM     34  H1  UNL     1       5.658  50.493  19.514  1.00  0.00     0.209 HD
ENDBRANCH  32  33
ENDBRANCH  28  32
ENDBRANCH  27  28
ENDBRANCH   1  27
BRANCH   7  35
HETATM   35  O6  UNL     1       0.128  53.646  18.364  1.00  0.00    -0.390 OA
ATOM     36  H6  UNL     1      -0.096  54.548  18.165  1.00  0.00     0.210 HD
ENDBRANCH   7  35
TORSDOF 13
ENDMDL
MODEL 2
REMARK VINA RESULT: -7.900715980      1.023      3.243
REMARK  13 active torsions:
REMARK  status: ('A' for Active; 'I' for Inactive)
REMARK    1  A    between atoms: C2_2  and  C4_4 
REMARK    2  A    between atoms: C4_4  and  C5_5 
REMARK    3  A    between atoms: C4_4  and  O2_8 
REMARK    4  A    between atoms: C5_5  and  O1_6 
REMARK    5  A    between atoms: O2_8  and  C6_9 
REMARK    6  A    between atoms: C9_12  and  C10_13 
REMARK    7  A    between atoms: C10_13  and  O3_14 
REMARK    8  A    between atoms: O3_14  and  C11_15 
REMARK    9  A    between atoms: C11_15  and  C12_16 
REMARK   10  A    between atoms: C11_15  and  C18_22 
REMARK   11  A    between atoms: C24_28  and  O4_29 
REMARK   12  A    between atoms: C25_31  and  O5_32 
REMARK   13  A    between atoms: C26_34  and  O6_35 
ROOT
HETATM    1  C6  UNL     1       2.061  53.135  20.145  1.00  0.00     0.176 C 
HETATM    2  C7  UNL     1       2.210  54.236  21.131  1.00  0.00     0.004 C 
HETATM    3  C8  UNL     1       2.939  55.351  21.188  1.00  0.00    -0.019 C 
HETATM    4  C9  UNL     1       3.874  55.826  20.193  1.00  0.00     0.063 C 
HETATM    5  C24 UNL     1       3.598  55.211  18.812  1.00  0.00     0.159 C 
HETATM    6  C25 UNL     1       2.142  55.044  18.531  1.00  0.00     0.179 C 
HETATM    7  C26 UNL     1       1.705  53.607  18.780  1.00  0.00     0.182 C 
ENDROOT
BRANCH   4   8
HETATM    8  C10 UNL     1       4.051  57.277  19.934  1.00  0.00     0.180 C 
BRANCH   8   9
HETATM    9  O3  UNL     1       3.947  58.231  20.826  1.00  0.00    -0.376 OA
BRANCH   9  10
HETATM   10  C11 UNL     1       4.940  58.653  21.627  1.00  0.00     0.187 C 
BRANCH  10  11
HETATM   11  C12 UNL     1       5.756  59.761  21.034  1.00  0.00    -0.025 A 
HETATM   12  C13 UNL     1       5.441  61.093  21.137  1.00  0.00     0.010 A 
HETATM   13  C14 UNL     1       6.223  62.087  20.573  1.00  0.00     0.001 A 
HETATM   14  C15 UNL     1       7.365  61.755  19.877  1.00  0.00     0.000 A 
HETATM   15  C16 UNL     1       7.700  60.429  19.760  1.00  0.00     0.001 A 
HETATM   16  C17 UNL     1       6.899  59.445  20.335  1.00  0.00     0.010 A 
ENDBRANCH  10  11
BRANCH  10  17
HETATM   17  C18 UNL     1       4.425  59.102  22.974  1.00  0.00    -0.025 A 
HETATM   18  C19 UNL     1       3.076  59.306  23.102  1.00  0.00     0.010 A 
HETATM   19  C20 UNL     1       2.544  59.721  24.326  1.00  0.00     0.001 A 
HETATM   20  C21 UNL     1       3.391  59.920  25.387  1.00  0.00     0.000 A 
HETATM   21  C22 UNL     1       4.738  59.719  25.267  1.00  0.00     0.001 A 
HETATM   22  C23 UNL     1       5.232  59.310  24.052  1.00  0.00     0.010 A 
ENDBRANCH  10  17
ENDBRANCH   9  10
ENDBRANCH   8   9
ENDBRANCH   4   8
BRANCH   5  23
HETATM   23  O4  UNL     1       4.189  55.941  17.790  1.00  0.00    -0.392 OA
ATOM     24  H4  UNL     1       4.238  55.445  16.981  1.00  0.00     0.210 HD
ENDBRANCH   5  23
BRANCH   6  25
HETATM   25  O5  UNL     1       1.311  55.927  19.205  1.00  0.00    -0.390 OA
ATOM     26  H5  UNL     1       0.415  55.629  19.315  1.00  0.00     0.210 HD
ENDBRANCH   6  25
BRANCH   1  27
HETATM   27  O2  UNL     1       3.196  52.327  20.108  1.00  0.00    -0.372 OA
BRANCH  27  28
HETATM   28  C4  UNL     1       3.139  51.254  21.001  1.00  0.00     0.149 C 
BRANCH  28  29
HETATM   29  C2  UNL     1       1.753  50.814  21.315  1.00  0.00     0.009 C 
HETATM   30  C1  UNL     1       1.438  49.497  20.690  1.00  0.00     0.012 C 
HETATM   31  C3  UNL     1       1.464  50.690  22.792  1.00  0.00     0.012 C 
ENDBRANCH  28  29
BRANCH  28  32
HETATM   32  C5  UNL     1       3.850  50.114  20.258  1.00  0.00     0.196 C 
BRANCH  32  33
HETATM   33  O1  UNL     1       5.134  50.424  19.884  1.00  0.00    -0.398 OA
ATOM     34  H1  UNL     1       5.572  49.720  19.419  1.00  0.00     0.209 HD
ENDBRANCH  32  33
ENDBRANCH  28  32
ENDBRANCH  27  28
ENDBRANCH   1  27
BRANCH   7  35
HETATM   35  O6  UNL     1       0.303  53.609  18.645  1.00  0.00    -0.390 OA
ATOM     36  H6  UNL     1      -0.084  53.213  19.417  1.00  0.00     0.210 HD
ENDBRANCH   7  35
TORSDOF 13
ENDMDL
MODEL 3
REMARK VINA RESULT: -7.895403602      0.746      1.337
REMARK  13 active torsions:
REMARK  status: ('A' for Active; 'I' for Inactive)
REMARK    1  A    between atoms: C2_2  and  C4_4 
REMARK    2  A    between atoms: C4_4  and  C5_5 
REMARK    3  A    between atoms: C4_4  and  O2_8 
REMARK    4  A    between atoms: C5_5  and  O1_6 
REMARK    5  A    between atoms: O2_8  and  C6_9 
REMARK    6  A    between atoms: C9_12  and  C10_13 
REMARK    7  A    between atoms: C10_13  and  O3_14 
REMARK    8  A    between atoms: O3_14  and  C11_15 
REMARK    9  A    between atoms: C11_15  and  C12_16 
REMARK   10  A    between atoms: C11_15  and  C18_22 
REMARK   11  A    between atoms: C24_28  and  O4_29 
REMARK   12  A    between atoms: C25_31  and  O5_32 
REMARK   13  A    between atoms: C26_34  and  O6_35 
ROOT
HETATM    1  C6  UNL     1       1.911  52.995  20.088  1.00  0.00     0.176 C 
HETATM    2  C7  UNL     1       2.023  54.075  21.100  1.00  0.00     0.004 C 
HETATM    3  C8  UNL     1       2.755  55.185  21.210  1.00  0.00    -0.019 C 
HETATM    4  C9  UNL     1       3.735  55.673  20.265  1.00  0.00     0.063 C 
HETATM    5  C24 UNL     1       3.515  55.086  18.863  1.00  0.00     0.159 C 
HETATM    6  C25 UNL     1       2.072  54.932  18.516  1.00  0.00     0.179 C 
HETATM    7  C26 UNL     1       1.617  53.494  18.718  1.00  0.00     0.182 C 
ENDROOT
BRANCH   4   8
HETATM    8  C10 UNL     1       3.930  57.127  20.042  1.00  0.00     0.180 C 
BRANCH   8   9
HETATM    9  O3  UNL     1       4.855  57.868  20.600  1.00  0.00    -0.376 OA
BRANCH   9  10
HETATM   10  C11 UNL     1       4.627  58.876  21.459  1.00  0.00     0.187 C 
BRANCH  10  11
HETATM   11  C12 UNL     1       4.944  58.531  22.882  1.00  0.00    -0.025 A 
HETATM   12  C13 UNL     1       4.996  59.446  23.905  1.00  0.00     0.010 A 
HETATM   13  C14 UNL     1       5.293  59.085  25.209  1.00  0.00     0.001 A 
HETATM   14  C15 UNL     1       5.550  57.768  25.519  1.00  0.00     0.000 A 
HETATM   15  C16 UNL     1       5.505  56.835  24.513  1.00  0.00     0.001 A 
HETATM   16  C17 UNL     1       5.204  57.219  23.208  1.00  0.00     0.010 A 
ENDBRANCH  10  11
BRANCH  10  17
HETATM   17  C18 UNL     1       5.393  60.121  21.082  1.00  0.00    -0.025 A 
HETATM   18  C19 UNL     1       6.629  59.958  20.513  1.00  0.00     0.010 A 
HETATM   19  C20 UNL     1       7.382  61.076  20.144  1.00  0.00     0.001 A 
HETATM   20  C21 UNL     1       6.866  62.329  20.361  1.00  0.00     0.000 A 
HETATM   21  C22 UNL     1       5.634  62.500  20.929  1.00  0.00     0.001 A 
HETATM   22  C23 UNL     1       4.917  61.382  21.281  1.00  0.00     0.010 A 
ENDBRANCH  10  17
ENDBRANCH   9  10
ENDBRANCH   8   9
ENDBRANCH   4   8
BRANCH   5  23
HETATM   23  O4  UNL     1       4.153  55.831  17.881  1.00  0.00    -0.392 OA
ATOM     24  H4  UNL     1       4.997  56.155  18.173  1.00  0.00     0.210 HD
ENDBRANCH   5  23
BRANCH   6  25
HETATM   25  O5  UNL     1       1.217  55.808  19.171  1.00  0.00    -0.390 OA
ATOM     26  H5  UNL     1       0.627  55.400  19.795  1.00  0.00     0.210 HD
ENDBRANCH   6  25
BRANCH   1  27
HETATM   27  O2  UNL     1       3.042  52.180  20.085  1.00  0.00    -0.372 OA
BRANCH  27  28
HETATM   28  C4  UNL     1       2.751  50.831  19.867  1.00  0.00     0.149 C 
BRANCH  28  29
HETATM   29  C2  UNL     1       3.944  49.945  19.950  1.00  0.00     0.009 C 
HETATM   30  C1  UNL     1       4.249  49.562  21.359  1.00  0.00     0.012 C 
HETATM   31  C3  UNL     1       3.821  48.667  19.155  1.00  0.00     0.012 C 
ENDBRANCH  28  29
BRANCH  28  32
HETATM   32  C5  UNL     1       1.798  50.466  21.015  1.00  0.00     0.196 C 
BRANCH  32  33
HETATM   33  O1  UNL     1       0.735  49.695  20.616  1.00  0.00    -0.398 OA
ATOM     34  H1  UNL     1       0.755  48.814  20.968  1.00  0.00     0.209 HD
ENDBRANCH  32  33
ENDBRANCH  28  32
ENDBRANCH  27  28
ENDBRANCH   1  27
BRANCH   7  35
HETATM   35  O6  UNL     1       0.221  53.507  18.522  1.00  0.00    -0.390 OA
ATOM     36  H6  UNL     1      -0.165  52.784  19.002  1.00  0.00     0.210 HD
ENDBRANCH   7  35
TORSDOF 13
ENDMDL
MODEL 4
REMARK VINA RESULT: -7.761507500      4.534     10.295
REMARK  13 active torsions:
REMARK  status: ('A' for Active; 'I' for Inactive)
REMARK    1  A    between atoms: C2_2  and  C4_4 
REMARK    2  A    between atoms: C4_4  and  C5_5 
REMARK    3  A    between atoms: C4_4  and  O2_8 
REMARK    4  A    between atoms: C5_5  and  O1_6 
REMARK    5  A    between atoms: O2_8  and  C6_9 
REMARK    6  A    between atoms: C9_12  and  C10_13 
REMARK    7  A    between atoms: C10_13  and  O3_14 
REMARK    8  A    between atoms: O3_14  and  C11_15 
REMARK    9  A    between atoms: C11_15  and  C12_16 
REMARK   10  A    between atoms: C11_15  and  C18_22 
REMARK   11  A    between atoms: C24_28  and  O4_29 
REMARK   12  A    between atoms: C25_31  and  O5_32 
REMARK   13  A    between atoms: C26_34  and  O6_35 
ROOT
HETATM    1  C6  UNL     1       2.924  63.186  25.998  1.00  0.00     0.176 C 
HETATM    2  C7  UNL     1       3.169  62.955  24.552  1.00  0.00     0.004 C 
HETATM    3  C8  UNL     1       3.991  62.172  23.853  1.00  0.00    -0.019 C 
HETATM    4  C9  UNL     1       4.963  61.243  24.386  1.00  0.00     0.063 C 
HETATM    5  C24 UNL     1       4.634  60.842  25.832  1.00  0.00     0.159 C 
HETATM    6  C25 UNL     1       3.169  60.699  26.077  1.00  0.00     0.179 C 
HETATM    7  C26 UNL     1       2.610  61.943  26.752  1.00  0.00     0.182 C 
ENDROOT
BRANCH   4   8
HETATM    8  C10 UNL     1       5.264  59.964  23.696  1.00  0.00     0.180 C 
BRANCH   8   9
HETATM    9  O3  UNL     1       4.398  59.222  23.050  1.00  0.00    -0.376 OA
BRANCH   9  10
HETATM   10  C11 UNL     1       4.291  59.144  21.714  1.00  0.00     0.187 C 
BRANCH  10  11
HETATM   11  C12 UNL     1       5.435  59.779  20.983  1.00  0.00    -0.025 A 
HETATM   12  C13 UNL     1       6.558  59.104  20.571  1.00  0.00     0.010 A 
HETATM   13  C14 UNL     1       7.594  59.730  19.898  1.00  0.00     0.001 A 
HETATM   14  C15 UNL     1       7.522  61.077  19.618  1.00  0.00     0.000 A 
HETATM   15  C16 UNL     1       6.409  61.772  20.022  1.00  0.00     0.001 A 
HETATM   16  C17 UNL     1       5.378  61.124  20.698  1.00  0.00     0.010 A 
ENDBRANCH  10  11
BRANCH  10  17
HETATM   17  C18 UNL     1       4.152  57.716  21.243  1.00  0.00    -0.025 A 
HETATM   18  C19 UNL     1       4.325  56.721  22.170  1.00  0.00     0.010 A 
HETATM   19  C20 UNL     1       4.207  55.382  21.790  1.00  0.00     0.001 A 
HETATM   20  C21 UNL     1       3.918  55.083  20.482  1.00  0.00     0.000 A 
HETATM   21  C22 UNL     1       3.743  56.070  19.551  1.00  0.00     0.001 A 
HETATM   22  C23 UNL     1       3.865  57.377  19.954  1.00  0.00     0.010 A 
ENDBRANCH  10  17
ENDBRANCH   9  10
ENDBRANCH   8   9
ENDBRANCH   4   8
BRANCH   5  23
HETATM   23  O4  UNL     1       5.284  59.675  26.209  1.00  0.00    -0.392 OA
ATOM     24  H4  UNL     1       4.707  58.921  26.181  1.00  0.00     0.210 HD
ENDBRANCH   5  23
BRANCH   6  25
HETATM   25  O5  UNL     1       2.418  60.377  24.956  1.00  0.00    -0.390 OA
ATOM     26  H5  UNL     1       1.476  60.409  25.081  1.00  0.00     0.210 HD
ENDBRANCH   6  25
BRANCH   1  27
HETATM   27  O2  UNL     1       3.985  63.868  26.591  1.00  0.00    -0.372 OA
BRANCH  27  28
HETATM   28  C4  UNL     1       3.575  64.910  27.427  1.00  0.00     0.149 C 
BRANCH  28  29
HETATM   29  C2  UNL     1       4.360  65.006  28.687  1.00  0.00     0.009 C 
HETATM   30  C1  UNL     1       3.639  65.797  29.727  1.00  0.00     0.012 C 
HETATM   31  C3  UNL     1       4.710  63.672  29.301  1.00  0.00     0.012 C 
ENDBRANCH  28  29
BRANCH  28  32
HETATM   32  C5  UNL     1       3.834  66.177  26.598  1.00  0.00     0.196 C 
BRANCH  32  33
HETATM   33  O1  UNL     1       5.166  66.481  26.471  1.00  0.00    -0.398 OA
ATOM     34  H1  UNL     1       5.341  67.415  26.468  1.00  0.00     0.209 HD
ENDBRANCH  32  33
ENDBRANCH  28  32
ENDBRANCH  27  28
ENDBRANCH   1  27
BRANCH   7  35
HETATM   35  O6  UNL     1       1.212  61.763  26.780  1.00  0.00    -0.390 OA
ATOM     36  H6  UNL     1       0.806  62.545  27.136  1.00  0.00     0.210 HD
ENDBRANCH   7  35
TORSDOF 13
ENDMDL
MODEL 5
REMARK VINA RESULT: -7.713420815      1.372      3.394
REMARK  13 active torsions:
REMARK  status: ('A' for Active; 'I' for Inactive)
REMARK    1  A    between atoms: C2_2  and  C4_4 
REMARK    2  A    between atoms: C4_4  and  C5_5 
REMARK    3  A    between atoms: C4_4  and  O2_8 
REMARK    4  A    between atoms: C5_5  and  O1_6 
REMARK    5  A    between atoms: O2_8  and  C6_9 
REMARK    6  A    between atoms: C9_12  and  C10_13 
REMARK    7  A    between atoms: C10_13  and  O3_14 
REMARK    8  A    between atoms: O3_14  and  C11_15 
REMARK    9  A    between atoms: C11_15  and  C12_16 
REMARK   10  A    between atoms: C11_15  and  C18_22 
REMARK   11  A    between atoms: C24_28  and  O4_29 
REMARK   12  A    between atoms: C25_31  and  O5_32 
REMARK   13  A    between atoms: C26_34  and  O6_35 
ROOT
HETATM    1  C6  UNL     1       1.830  52.988  20.054  1.00  0.00     0.176 C 
HETATM    2  C7  UNL     1       1.996  54.044  21.086  1.00  0.00     0.004 C 
HETATM    3  C8  UNL     1       2.786  55.110  21.218  1.00  0.00    -0.019 C 
HETATM    4  C9  UNL     1       3.793  55.562  20.284  1.00  0.00     0.063 C 
HETATM    5  C24 UNL     1       3.548  55.012  18.871  1.00  0.00     0.159 C 
HETATM    6  C25 UNL     1       2.100  54.942  18.518  1.00  0.00     0.179 C 
HETATM    7  C26 UNL     1       1.568  53.527  18.693  1.00  0.00     0.182 C 
ENDROOT
BRANCH   4   8
HETATM    8  C10 UNL     1       4.066  57.007  20.088  1.00  0.00     0.180 C 
BRANCH   8   9
HETATM    9  O3  UNL     1       3.821  57.957  20.957  1.00  0.00    -0.376 OA
BRANCH   9  10
HETATM   10  C11 UNL     1       4.659  58.350  21.931  1.00  0.00     0.187 C 
BRANCH  10  11
HETATM   11  C12 UNL     1       4.734  59.838  22.089  1.00  0.00    -0.025 A 
HETATM   12  C13 UNL     1       5.252  60.472  23.192  1.00  0.00     0.010 A 
HETATM   13  C14 UNL     1       5.303  61.852  23.298  1.00  0.00     0.001 A 
HETATM   14  C15 UNL     1       4.824  62.642  22.276  1.00  0.00     0.000 A 
HETATM   15  C16 UNL     1       4.302  62.030  21.164  1.00  0.00     0.001 A 
HETATM   16  C17 UNL     1       4.259  60.641  21.076  1.00  0.00     0.010 A 
ENDBRANCH  10  11
BRANCH  10  17
HETATM   17  C18 UNL     1       4.296  57.742  23.264  1.00  0.00    -0.025 A 
HETATM   18  C19 UNL     1       5.300  57.150  23.986  1.00  0.00     0.010 A 
HETATM   19  C20 UNL     1       5.022  56.572  25.228  1.00  0.00     0.001 A 
HETATM   20  C21 UNL     1       3.736  56.607  25.706  1.00  0.00     0.000 A 
HETATM   21  C22 UNL     1       2.729  57.196  24.992  1.00  0.00     0.001 A 
HETATM   22  C23 UNL     1       3.033  57.756  23.776  1.00  0.00     0.010 A 
ENDBRANCH  10  17
ENDBRANCH   9  10
ENDBRANCH   8   9
ENDBRANCH   4   8
BRANCH   5  23
HETATM   23  O4  UNL     1       4.228  55.740  17.904  1.00  0.00    -0.392 OA
ATOM     24  H4  UNL     1       4.393  55.226  17.122  1.00  0.00     0.210 HD
ENDBRANCH   5  23
BRANCH   6  25
HETATM   25  O5  UNL     1       1.291  55.850  19.186  1.00  0.00    -0.390 OA
ATOM     26  H5  UNL     1       1.732  56.366  19.851  1.00  0.00     0.210 HD
ENDBRANCH   6  25
BRANCH   1  27
HETATM   27  O2  UNL     1       2.916  52.115  20.040  1.00  0.00    -0.372 OA
BRANCH  27  28
HETATM   28  C4  UNL     1       3.060  51.391  21.225  1.00  0.00     0.149 C 
BRANCH  28  29
HETATM   29  C2  UNL     1       1.811  50.709  21.660  1.00  0.00     0.009 C 
HETATM   30  C1  UNL     1       1.728  49.318  21.126  1.00  0.00     0.012 C 
HETATM   31  C3  UNL     1       1.642  50.623  23.158  1.00  0.00     0.012 C 
ENDBRANCH  28  29
BRANCH  28  32
HETATM   32  C5  UNL     1       4.101  50.316  20.882  1.00  0.00     0.196 C 
BRANCH  32  33
HETATM   33  O1  UNL     1       4.912  50.659  19.829  1.00  0.00    -0.398 OA
ATOM     34  H1  UNL     1       5.837  50.563  20.017  1.00  0.00     0.209 HD
ENDBRANCH  32  33
ENDBRANCH  28  32
ENDBRANCH  27  28
ENDBRANCH   1  27
BRANCH   7  35
HETATM   35  O6  UNL     1       0.176  53.618  18.494  1.00  0.00    -0.390 OA
ATOM     36  H6  UNL     1      -0.139  52.800  18.128  1.00  0.00     0.210 HD
ENDBRANCH   7  35
TORSDOF 13
ENDMDL
