MODEL 1
REMARK VINA RESULT: -8.208518241      0.000      0.000
REMARK  11 active torsions:
REMARK  status: ('A' for Active; 'I' for Inactive)
REMARK    1  A    between atoms: N1_1  and  C1_4 
REMARK    2  A    between atoms: N4_13  and  C6_14 
REMARK    3  A    between atoms: C6_14  and  O1_15 
REMARK    4  A    between atoms: C6_14  and  C7_17 
REMARK    5  A    between atoms: C7_17  and  C8_18 
REMARK    6  A    between atoms: C8_18  and  N5_19 
REMARK    7  A    between atoms: N5_19  and  C9_20 
REMARK    8  A    between atoms: N5_19  and  C18_31 
REMARK    9  A    between atoms: C9_20  and  C10_21 
REMARK       I    between atoms: C10_21  and  N6_23 
REMARK   10  A    between atoms: N6_23  and  C11_24 
REMARK   11  A    between atoms: C18_31  and  C19_32 
ROOT
HETATM    1  C8  UNL     1       4.165  59.640  22.922  1.00  0.00     0.304 C 
ENDROOT
BRANCH   1   2
HETATM    2  C7  UNL     1       5.176  59.899  21.898  1.00  0.00     0.059 C 
BRANCH   2   3
HETATM    3  C6  UNL     1       5.725  61.192  21.533  1.00  0.00     0.140 C 
BRANCH   3   4
HETATM    4  N4  UNL     1       6.488  61.451  20.397  1.00  0.00    -0.332 N 
HETATM    5  C5  UNL     1       6.960  60.139  19.825  1.00  0.00     0.175 C 
HETATM    6  C4  UNL     1       7.647  60.494  18.611  1.00  0.00     0.032 A 
HETATM    7  C1  UNL     1       8.037  59.780  17.521  1.00  0.00     0.110 A 
HETATM    8  C3  UNL     1       7.855  61.882  18.594  1.00  0.00     0.060 A 
HETATM    9  N2  UNL     1       8.597  60.390  16.451  1.00  0.00    -0.338 N 
HETATM   10  C2  UNL     1       8.791  61.730  16.425  1.00  0.00     0.182 A 
ATOM     11  H2  UNL     1       8.878  59.829  15.647  1.00  0.00     0.168 HD
HETATM   12  N3  UNL     1       8.394  62.423  17.519  1.00  0.00    -0.351 N 
ATOM     13  H3  UNL     1       8.520  63.435  17.510  1.00  0.00     0.166 HD
HETATM   14  C23 UNL     1       7.411  62.319  19.988  1.00  0.00     0.123 C 
BRANCH   7  15
HETATM   15  N1  UNL     1       8.014  58.465  17.508  1.00  0.00    -0.385 N 
ATOM     16  H12 UNL     1       7.650  57.941  16.712  1.00  0.00     0.157 HD
ATOM     17  H11 UNL     1       8.281  57.993  18.372  1.00  0.00     0.157 HD
ENDBRANCH   7  15
ENDBRANCH   3   4
BRANCH   3  18
HETATM   18  O1  UNL     1       6.033  62.038  22.629  1.00  0.00    -0.346 OA
ATOM     19  H1  UNL     1       5.324  62.123  23.255  1.00  0.00     0.219 HD
ENDBRANCH   3  18
ENDBRANCH   2   3
ENDBRANCH   1   2
BRANCH   1  20
HETATM   20  N5  UNL     1       4.571  58.965  24.140  1.00  0.00     0.104 N 
BRANCH  20  21
HETATM   21  C9  UNL     1       5.249  57.721  23.651  1.00  0.00     0.390 C 
BRANCH  21  22
HETATM   22  C10 UNL     1       4.160  56.709  23.529  1.00  0.00     0.315 C 
HETATM   23  O2  UNL     1       3.314  56.538  24.357  1.00  0.00    -0.256 OA
HETATM   24  N6  UNL     1       4.197  56.002  22.324  1.00  0.00    -0.408 NA
BRANCH  24  25
HETATM   25  C11 UNL     1       4.210  55.312  21.188  1.00  0.00     0.167 C 
HETATM   26  C12 UNL     1       3.456  56.497  20.236  1.00  0.00     0.039 C 
HETATM   27  C13 UNL     1       3.580  56.024  18.887  1.00  0.00     0.003 C 
HETATM   28  C14 UNL     1       2.425  55.108  18.476  1.00  0.00     0.000 C 
HETATM   29  C15 UNL     1       1.415  54.952  19.600  1.00  0.00     0.000 C 
HETATM   30  C16 UNL     1       1.952  54.387  20.865  1.00  0.00     0.003 C 
HETATM   31  C17 UNL     1       3.433  54.138  20.893  1.00  0.00     0.039 C 
ENDBRANCH  24  25
ENDBRANCH  21  22
ENDBRANCH  20  21
BRANCH  20  32
HETATM   32  C18 UNL     1       5.305  59.479  25.119  1.00  0.00     0.305 C 
BRANCH  32  33
HETATM   33  C19 UNL     1       5.012  60.647  25.961  1.00  0.00     0.149 C 
HETATM   34  C20 UNL     1       5.759  60.804  27.249  1.00  0.00     0.036 C 
HETATM   35  C21 UNL     1       5.090  62.103  27.758  1.00  0.00     0.029 C 
HETATM   36  C22 UNL     1       4.521  62.665  26.497  1.00  0.00     0.168 C 
HETATM   37  O3  UNL     1       5.019  61.891  25.421  1.00  0.00    -0.384 OA
ENDBRANCH  32  33
ENDBRANCH  20  32
ENDBRANCH   1  20
TORSDOF 11
ENDMDL
MODEL 2
REMARK VINA RESULT: -8.008658354      1.227      5.965
REMARK  11 active torsions:
REMARK  status: ('A' for Active; 'I' for Inactive)
REMARK    1  A    between atoms: N1_1  and  C1_4 
REMARK    2  A    between atoms: N4_13  and  C6_14 
REMARK    3  A    between atoms: C6_14  and  O1_15 
REMARK    4  A    between atoms: C6_14  and  C7_17 
REMARK    5  A    between atoms: C7_17  and  C8_18 
REMARK    6  A    between atoms: C8_18  and  N5_19 
REMARK    7  A    between atoms: N5_19  and  C9_20 
REMARK    8  A    between atoms: N5_19  and  C18_31 
REMARK    9  A    between atoms: C9_20  and  C10_21 
REMARK       I    between atoms: C10_21  and  N6_23 
REMARK   10  A    between atoms: N6_23  and  C11_24 
REMARK   11  A    between atoms: C18_31  and  C19_32 
ROOT
HETATM    1  C8  UNL     1       4.113  59.927  22.514  1.00  0.00     0.304 C 
ENDROOT
BRANCH   1   2
HETATM    2  C7  UNL     1       4.400  60.783  21.365  1.00  0.00     0.059 C 
BRANCH   2   3
HETATM    3  C6  UNL     1       5.476  61.752  21.256  1.00  0.00     0.140 C 
BRANCH   3   4
HETATM    4  N4  UNL     1       6.352  61.865  20.179  1.00  0.00    -0.332 N 
HETATM    5  C5  UNL     1       6.775  60.481  19.756  1.00  0.00     0.175 C 
HETATM    6  C4  UNL     1       7.589  60.687  18.587  1.00  0.00     0.032 A 
HETATM    7  C1  UNL     1       8.019  59.862  17.597  1.00  0.00     0.110 A 
HETATM    8  C3  UNL     1       7.900  62.053  18.484  1.00  0.00     0.060 A 
HETATM    9  N2  UNL     1       8.714  60.341  16.540  1.00  0.00    -0.338 N 
HETATM   10  C2  UNL     1       9.009  61.659  16.430  1.00  0.00     0.182 A 
ATOM     11  H2  UNL     1       9.023  59.698  15.811  1.00  0.00     0.168 HD
HETATM   12  N3  UNL     1       8.569  62.465  17.425  1.00  0.00    -0.351 N 
ATOM     13  H3  UNL     1       8.770  63.463  17.351  1.00  0.00     0.166 HD
HETATM   14  C23 UNL     1       7.369  62.632  19.793  1.00  0.00     0.123 C 
BRANCH   7  15
HETATM   15  N1  UNL     1       7.901  58.554  17.682  1.00  0.00    -0.385 N 
ATOM     16  H12 UNL     1       8.713  57.945  17.782  1.00  0.00     0.157 HD
ATOM     17  H11 UNL     1       6.968  58.169  17.539  1.00  0.00     0.157 HD
ENDBRANCH   7  15
ENDBRANCH   3   4
BRANCH   3  18
HETATM   18  O1  UNL     1       6.041  62.154  22.493  1.00  0.00    -0.346 OA
ATOM     19  H1  UNL     1       5.576  61.818  23.250  1.00  0.00     0.219 HD
ENDBRANCH   3  18
ENDBRANCH   2   3
ENDBRANCH   1   2
BRANCH   1  20
HETATM   20  N5  UNL     1       4.811  58.660  22.624  1.00  0.00     0.104 N 
BRANCH  20  21
HETATM   21  C9  UNL     1       4.038  57.914  23.668  1.00  0.00     0.390 C 
BRANCH  21  22
HETATM   22  C10 UNL     1       4.893  57.963  24.890  1.00  0.00     0.315 C 
HETATM   23  O2  UNL     1       5.827  57.241  25.080  1.00  0.00    -0.256 OA
HETATM   24  N6  UNL     1       4.519  58.972  25.783  1.00  0.00    -0.408 NA
BRANCH  24  25
HETATM   25  C11 UNL     1       4.184  59.922  26.651  1.00  0.00     0.167 C 
HETATM   26  C12 UNL     1       5.087  61.166  25.931  1.00  0.00     0.039 C 
HETATM   27  C13 UNL     1       4.673  62.362  26.606  1.00  0.00     0.003 C 
HETATM   28  C14 UNL     1       5.494  62.639  27.868  1.00  0.00     0.000 C 
HETATM   29  C15 UNL     1       6.567  61.584  28.073  1.00  0.00     0.000 C 
HETATM   30  C16 UNL     1       6.072  60.190  28.209  1.00  0.00     0.003 C 
HETATM   31  C17 UNL     1       4.593  60.001  28.028  1.00  0.00     0.039 C 
ENDBRANCH  24  25
ENDBRANCH  21  22
ENDBRANCH  20  21
BRANCH  20  32
HETATM   32  C18 UNL     1       5.083  57.821  21.631  1.00  0.00     0.305 C 
BRANCH  32  33
HETATM   33  C19 UNL     1       4.199  56.824  21.012  1.00  0.00     0.149 C 
HETATM   34  C20 UNL     1       3.900  56.945  19.551  1.00  0.00     0.036 C 
HETATM   35  C21 UNL     1       2.940  55.741  19.401  1.00  0.00     0.029 C 
HETATM   36  C22 UNL     1       3.285  54.927  20.605  1.00  0.00     0.168 C 
HETATM   37  O3  UNL     1       4.438  55.501  21.193  1.00  0.00    -0.384 OA
ENDBRANCH  32  33
ENDBRANCH  20  32
ENDBRANCH   1  20
TORSDOF 11
ENDMDL
MODEL 3
REMARK VINA RESULT: -7.978181831      1.743      5.311
REMARK  11 active torsions:
REMARK  status: ('A' for Active; 'I' for Inactive)
REMARK    1  A    between atoms: N1_1  and  C1_4 
REMARK    2  A    between atoms: N4_13  and  C6_14 
REMARK    3  A    between atoms: C6_14  and  O1_15 
REMARK    4  A    between atoms: C6_14  and  C7_17 
REMARK    5  A    between atoms: C7_17  and  C8_18 
REMARK    6  A    between atoms: C8_18  and  N5_19 
REMARK    7  A    between atoms: N5_19  and  C9_20 
REMARK    8  A    between atoms: N5_19  and  C18_31 
REMARK    9  A    between atoms: C9_20  and  C10_21 
REMARK       I    between atoms: C10_21  and  N6_23 
REMARK   10  A    between atoms: N6_23  and  C11_24 
REMARK   11  A    between atoms: C18_31  and  C19_32 
ROOT
HETATM    1  C8  UNL     1       3.931  59.976  22.658  1.00  0.00     0.304 C 
ENDROOT
BRANCH   1   2
HETATM    2  C7  UNL     1       5.161  60.146  21.886  1.00  0.00     0.059 C 
BRANCH   2   3
HETATM    3  C6  UNL     1       5.760  61.405  21.482  1.00  0.00     0.140 C 
BRANCH   3   4
HETATM    4  N4  UNL     1       6.526  61.600  20.335  1.00  0.00    -0.332 N 
HETATM    5  C5  UNL     1       6.966  60.255  19.815  1.00  0.00     0.175 C 
HETATM    6  C4  UNL     1       7.658  60.545  18.586  1.00  0.00     0.032 A 
HETATM    7  C1  UNL     1       8.027  59.780  17.526  1.00  0.00     0.110 A 
HETATM    8  C3  UNL     1       7.899  61.926  18.514  1.00  0.00     0.060 A 
HETATM    9  N2  UNL     1       8.599  60.333  16.431  1.00  0.00    -0.338 N 
HETATM   10  C2  UNL     1       8.826  61.666  16.352  1.00  0.00     0.182 A 
ATOM     11  H2  UNL     1       8.865  59.733  15.650  1.00  0.00     0.168 HD
HETATM   12  N3  UNL     1       8.448  62.411  17.418  1.00  0.00    -0.351 N 
ATOM     13  H3  UNL     1       8.598  63.419  17.368  1.00  0.00     0.166 HD
HETATM   14  C23 UNL     1       7.469  62.428  19.890  1.00  0.00     0.123 C 
BRANCH   7  15
HETATM   15  N1  UNL     1       7.973  58.466  17.564  1.00  0.00    -0.385 N 
ATOM     16  H12 UNL     1       7.098  57.959  17.432  1.00  0.00     0.157 HD
ATOM     17  H11 UNL     1       8.827  57.980  17.837  1.00  0.00     0.157 HD
ENDBRANCH   7  15
ENDBRANCH   3   4
BRANCH   3  18
HETATM   18  O1  UNL     1       6.110  62.268  22.552  1.00  0.00    -0.346 OA
ATOM     19  H1  UNL     1       6.832  61.946  23.079  1.00  0.00     0.219 HD
ENDBRANCH   3  18
ENDBRANCH   2   3
ENDBRANCH   1   2
BRANCH   1  20
HETATM   20  N5  UNL     1       3.996  59.245  23.910  1.00  0.00     0.104 N 
BRANCH  20  21
HETATM   21  C9  UNL     1       3.501  60.229  24.926  1.00  0.00     0.390 C 
BRANCH  21  22
HETATM   22  C10 UNL     1       4.731  60.872  25.472  1.00  0.00     0.315 C 
HETATM   23  O2  UNL     1       5.093  61.974  25.182  1.00  0.00    -0.256 OA
HETATM   24  N6  UNL     1       5.406  60.070  26.398  1.00  0.00    -0.408 NA
BRANCH  24  25
HETATM   25  C11 UNL     1       6.069  59.328  27.279  1.00  0.00     0.167 C 
HETATM   26  C12 UNL     1       6.411  58.041  26.228  1.00  0.00     0.039 C 
HETATM   27  C13 UNL     1       7.338  57.214  26.944  1.00  0.00     0.003 C 
HETATM   28  C14 UNL     1       6.641  56.172  27.823  1.00  0.00     0.000 C 
HETATM   29  C15 UNL     1       5.130  56.261  27.692  1.00  0.00     0.000 C 
HETATM   30  C16 UNL     1       4.533  57.570  28.062  1.00  0.00     0.003 C 
HETATM   31  C17 UNL     1       5.509  58.655  28.420  1.00  0.00     0.039 C 
ENDBRANCH  24  25
ENDBRANCH  21  22
ENDBRANCH  20  21
BRANCH  20  32
HETATM   32  C18 UNL     1       3.436  58.069  24.165  1.00  0.00     0.305 C 
BRANCH  32  33
HETATM   33  C19 UNL     1       3.347  56.893  23.289  1.00  0.00     0.149 C 
HETATM   34  C20 UNL     1       4.599  56.385  22.645  1.00  0.00     0.036 C 
HETATM   35  C21 UNL     1       3.996  55.216  21.830  1.00  0.00     0.029 C 
HETATM   36  C22 UNL     1       2.703  54.987  22.543  1.00  0.00     0.168 C 
HETATM   37  O3  UNL     1       2.720  55.770  23.722  1.00  0.00    -0.384 OA
ENDBRANCH  32  33
ENDBRANCH  20  32
ENDBRANCH   1  20
TORSDOF 11
ENDMDL
MODEL 4
REMARK VINA RESULT: -7.972957516      1.348      1.765
REMARK  11 active torsions:
REMARK  status: ('A' for Active; 'I' for Inactive)
REMARK    1  A    between atoms: N1_1  and  C1_4 
REMARK    2  A    between atoms: N4_13  and  C6_14 
REMARK    3  A    between atoms: C6_14  and  O1_15 
REMARK    4  A    between atoms: C6_14  and  C7_17 
REMARK    5  A    between atoms: C7_17  and  C8_18 
REMARK    6  A    between atoms: C8_18  and  N5_19 
REMARK    7  A    between atoms: N5_19  and  C9_20 
REMARK    8  A    between atoms: N5_19  and  C18_31 
REMARK    9  A    between atoms: C9_20  and  C10_21 
REMARK       I    between atoms: C10_21  and  N6_23 
REMARK   10  A    between atoms: N6_23  and  C11_24 
REMARK   11  A    between atoms: C18_31  and  C19_32 
ROOT
HETATM    1  C8  UNL     1       4.226  59.641  22.931  1.00  0.00     0.304 C 
ENDROOT
BRANCH   1   2
HETATM    2  C7  UNL     1       5.210  59.906  21.883  1.00  0.00     0.059 C 
BRANCH   2   3
HETATM    3  C6  UNL     1       5.762  61.200  21.524  1.00  0.00     0.140 C 
BRANCH   3   4
HETATM    4  N4  UNL     1       6.520  61.464  20.385  1.00  0.00    -0.332 N 
HETATM    5  C5  UNL     1       6.982  60.153  19.801  1.00  0.00     0.175 C 
HETATM    6  C4  UNL     1       7.665  60.514  18.586  1.00  0.00     0.032 A 
HETATM    7  C1  UNL     1       8.045  59.807  17.489  1.00  0.00     0.110 A 
HETATM    8  C3  UNL     1       7.880  61.901  18.579  1.00  0.00     0.060 A 
HETATM    9  N2  UNL     1       8.602  60.421  16.420  1.00  0.00    -0.338 N 
HETATM   10  C2  UNL     1       8.804  61.761  16.404  1.00  0.00     0.182 A 
ATOM     11  H2  UNL     1       8.877  59.865  15.611  1.00  0.00     0.168 HD
HETATM   12  N3  UNL     1       8.416  62.447  17.505  1.00  0.00    -0.351 N 
ATOM     13  H3  UNL     1       8.548  63.459  17.503  1.00  0.00     0.166 HD
HETATM   14  C23 UNL     1       7.446  62.329  19.978  1.00  0.00     0.123 C 
BRANCH   7  15
HETATM   15  N1  UNL     1       8.015  58.491  17.465  1.00  0.00    -0.385 N 
ATOM     16  H12 UNL     1       8.860  57.936  17.334  1.00  0.00     0.157 HD
ATOM     17  H11 UNL     1       7.094  58.054  17.480  1.00  0.00     0.157 HD
ENDBRANCH   7  15
ENDBRANCH   3   4
BRANCH   3  18
HETATM   18  O1  UNL     1       6.079  62.037  22.624  1.00  0.00    -0.346 OA
ATOM     19  H1  UNL     1       5.561  61.857  23.400  1.00  0.00     0.219 HD
ENDBRANCH   3  18
ENDBRANCH   2   3
ENDBRANCH   1   2
BRANCH   1  20
HETATM   20  N5  UNL     1       4.578  58.716  23.992  1.00  0.00     0.104 N 
BRANCH  20  21
HETATM   21  C9  UNL     1       5.106  57.518  23.264  1.00  0.00     0.390 C 
BRANCH  21  22
HETATM   22  C10 UNL     1       3.974  56.547  23.245  1.00  0.00     0.315 C 
HETATM   23  O2  UNL     1       3.164  56.451  24.119  1.00  0.00    -0.256 OA
HETATM   24  N6  UNL     1       3.926  55.781  22.077  1.00  0.00    -0.408 NA
BRANCH  24  25
HETATM   25  C11 UNL     1       3.857  55.036  20.978  1.00  0.00     0.167 C 
HETATM   26  C12 UNL     1       3.058  56.184  20.018  1.00  0.00     0.039 C 
HETATM   27  C13 UNL     1       3.090  55.644  18.690  1.00  0.00     0.003 C 
HETATM   28  C14 UNL     1       1.899  54.727  18.399  1.00  0.00     0.000 C 
HETATM   29  C15 UNL     1       0.962  54.642  19.591  1.00  0.00     0.000 C 
HETATM   30  C16 UNL     1       1.571  54.132  20.846  1.00  0.00     0.003 C 
HETATM   31  C17 UNL     1       3.048  53.861  20.793  1.00  0.00     0.039 C 
ENDBRANCH  24  25
ENDBRANCH  21  22
ENDBRANCH  20  21
BRANCH  20  32
HETATM   32  C18 UNL     1       5.382  58.965  25.019  1.00  0.00     0.305 C 
BRANCH  32  33
HETATM   33  C19 UNL     1       5.608  58.146  26.218  1.00  0.00     0.149 C 
HETATM   34  C20 UNL     1       6.933  57.469  26.380  1.00  0.00     0.036 C 
HETATM   35  C21 UNL     1       6.667  56.734  27.716  1.00  0.00     0.029 C 
HETATM   36  C22 UNL     1       5.518  57.514  28.266  1.00  0.00     0.168 C 
HETATM   37  O3  UNL     1       5.345  58.656  27.447  1.00  0.00    -0.384 OA
ENDBRANCH  32  33
ENDBRANCH  20  32
ENDBRANCH   1  20
TORSDOF 11
ENDMDL
MODEL 5
REMARK VINA RESULT: -7.922072779      1.705      1.940
REMARK  11 active torsions:
REMARK  status: ('A' for Active; 'I' for Inactive)
REMARK    1  A    between atoms: N1_1  and  C1_4 
REMARK    2  A    between atoms: N4_13  and  C6_14 
REMARK    3  A    between atoms: C6_14  and  O1_15 
REMARK    4  A    between atoms: C6_14  and  C7_17 
REMARK    5  A    between atoms: C7_17  and  C8_18 
REMARK    6  A    between atoms: C8_18  and  N5_19 
REMARK    7  A    between atoms: N5_19  and  C9_20 
REMARK    8  A    between atoms: N5_19  and  C18_31 
REMARK    9  A    between atoms: C9_20  and  C10_21 
REMARK       I    between atoms: C10_21  and  N6_23 
REMARK   10  A    between atoms: N6_23  and  C11_24 
REMARK   11  A    between atoms: C18_31  and  C19_32 
ROOT
HETATM    1  C8  UNL     1       3.874  59.745  22.106  1.00  0.00     0.304 C 
ENDROOT
BRANCH   1   2
HETATM    2  C7  UNL     1       5.280  60.034  21.833  1.00  0.00     0.059 C 
BRANCH   2   3
HETATM    3  C6  UNL     1       5.837  61.313  21.430  1.00  0.00     0.140 C 
BRANCH   3   4
HETATM    4  N4  UNL     1       6.590  61.537  20.280  1.00  0.00    -0.332 N 
HETATM    5  C5  UNL     1       7.034  60.206  19.728  1.00  0.00     0.175 C 
HETATM    6  C4  UNL     1       7.711  60.526  18.499  1.00  0.00     0.032 A 
HETATM    7  C1  UNL     1       8.076  59.785  17.420  1.00  0.00     0.110 A 
HETATM    8  C3  UNL     1       7.941  61.910  18.452  1.00  0.00     0.060 A 
HETATM    9  N2  UNL     1       8.632  60.364  16.331  1.00  0.00    -0.338 N 
HETATM   10  C2  UNL     1       8.848  61.700  16.276  1.00  0.00     0.182 A 
ATOM     11  H2  UNL     1       8.895  59.783  15.535  1.00  0.00     0.168 HD
HETATM   12  N3  UNL     1       8.475  62.420  17.360  1.00  0.00    -0.351 N 
ATOM     13  H3  UNL     1       8.617  63.430  17.329  1.00  0.00     0.166 HD
HETATM   14  C23 UNL     1       7.521  62.381  19.842  1.00  0.00     0.123 C 
BRANCH   7  15
HETATM   15  N1  UNL     1       8.032  58.470  17.433  1.00  0.00    -0.385 N 
ATOM     16  H12 UNL     1       7.193  57.956  17.165  1.00  0.00     0.157 HD
ATOM     17  H11 UNL     1       8.842  57.989  17.823  1.00  0.00     0.157 HD
ENDBRANCH   7  15
ENDBRANCH   3   4
BRANCH   3  18
HETATM   18  O1  UNL     1       6.165  62.181  22.502  1.00  0.00    -0.346 OA
ATOM     19  H1  UNL     1       6.824  61.829  23.089  1.00  0.00     0.219 HD
ENDBRANCH   3  18
ENDBRANCH   2   3
ENDBRANCH   1   2
BRANCH   1  20
HETATM   20  N5  UNL     1       3.517  59.214  23.409  1.00  0.00     0.104 N 
BRANCH  20  21
HETATM   21  C9  UNL     1       4.608  58.231  23.706  1.00  0.00     0.390 C 
BRANCH  21  22
HETATM   22  C10 UNL     1       3.942  56.896  23.676  1.00  0.00     0.315 C 
HETATM   23  O2  UNL     1       3.286  56.458  24.575  1.00  0.00    -0.256 OA
HETATM   24  N6  UNL     1       4.127  56.216  22.469  1.00  0.00    -0.408 NA
BRANCH  24  25
HETATM   25  C11 UNL     1       4.288  55.545  21.332  1.00  0.00     0.167 C 
HETATM   26  C12 UNL     1       3.523  56.681  20.330  1.00  0.00     0.039 C 
HETATM   27  C13 UNL     1       3.794  56.238  18.993  1.00  0.00     0.003 C 
HETATM   28  C14 UNL     1       2.754  55.239  18.480  1.00  0.00     0.000 C 
HETATM   29  C15 UNL     1       1.671  54.989  19.515  1.00  0.00     0.000 C 
HETATM   30  C16 UNL     1       2.145  54.450  20.816  1.00  0.00     0.003 C 
HETATM   31  C17 UNL     1       3.634  54.318  20.966  1.00  0.00     0.039 C 
ENDBRANCH  24  25
ENDBRANCH  21  22
ENDBRANCH  20  21
BRANCH  20  32
HETATM   32  C18 UNL     1       3.283  59.919  24.509  1.00  0.00     0.305 C 
BRANCH  32  33
HETATM   33  C19 UNL     1       2.013  60.092  25.227  1.00  0.00     0.149 C 
HETATM   34  C20 UNL     1       0.890  59.148  24.930  1.00  0.00     0.036 C 
HETATM   35  C21 UNL     1      -0.184  59.748  25.868  1.00  0.00     0.029 C 
HETATM   36  C22 UNL     1       0.653  60.526  26.829  1.00  0.00     0.168 C 
HETATM   37  O3  UNL     1       2.008  60.197  26.580  1.00  0.00    -0.384 OA
ENDBRANCH  32  33
ENDBRANCH  20  32
ENDBRANCH   1  20
TORSDOF 11
ENDMDL
