MODEL 1
REMARK VINA RESULT: -6.865733395      0.000      0.000
REMARK  11 active torsions:
REMARK  status: ('A' for Active; 'I' for Inactive)
REMARK    1  A    between atoms: C2_2  and  C3_3 
REMARK    2  A    between atoms: C3_3  and  N1_4 
REMARK    3  A    between atoms: N1_4  and  C4_7 
REMARK    4  A    between atoms: C6_9  and  C7_10 
REMARK    5  A    between atoms: C7_10  and  C8_11 
REMARK    6  A    between atoms: C8_11  and  C9_13 
REMARK    7  A    between atoms: N2_15  and  C11_16 
REMARK    8  A    between atoms: C11_16  and  C12_17 
REMARK    9  A    between atoms: C12_17  and  C13_18 
REMARK   10  A    between atoms: C13_18  and  N3_19 
REMARK   11  A    between atoms: C18_26  and  N5_27 
ROOT
HETATM    1  C9  UNL     1       3.693  56.035  21.339  1.00  0.00     0.111 A 
HETATM    2  C10 UNL     1       2.651  55.287  20.801  1.00  0.00     0.142 A 
HETATM    3  N2  UNL     1       2.755  55.220  19.486  1.00  0.00    -0.191 N 
HETATM    4  C18 UNL     1       3.873  55.929  19.149  1.00  0.00     0.678 A 
HETATM    5  N6  UNL     1       4.421  56.410  20.277  1.00  0.00    -0.187 N 
ATOM      6  H6  UNL     1       5.268  56.978  20.320  1.00  0.00     0.184 HD
ENDROOT
BRANCH   1   7
HETATM    7  C8  UNL     1       3.997  56.320  22.731  1.00  0.00     0.178 C 
HETATM    8  O1  UNL     1       3.376  55.630  23.593  1.00  0.00    -0.291 OA
BRANCH   7   9
HETATM    9  C7  UNL     1       4.946  57.325  23.114  1.00  0.00     0.095 C 
BRANCH   9  10
HETATM   10  C6  UNL     1       4.387  58.677  23.366  1.00  0.00    -0.031 C 
HETATM   11  C5  UNL     1       4.335  59.447  22.044  1.00  0.00     0.043 C 
HETATM   12  C4  UNL     1       4.227  60.915  22.419  1.00  0.00     0.191 C 
HETATM   13  C24 UNL     1       3.736  61.162  23.789  1.00  0.00     0.024 C 
HETATM   14  C20 UNL     1       4.689  60.661  24.861  1.00  0.00    -0.007 C 
HETATM   15  C22 UNL     1       2.745  60.196  24.345  1.00  0.00    -0.007 C 
HETATM   16  C19 UNL     1       5.317  59.418  24.346  1.00  0.00     0.015 C 
HETATM   17  C21 UNL     1       3.439  60.358  25.687  1.00  0.00     0.010 C 
HETATM   18  C23 UNL     1       3.009  58.744  23.945  1.00  0.00     0.015 C 
BRANCH  12  19
HETATM   19  N1  UNL     1       5.579  61.455  22.319  1.00  0.00    -0.070 N 
ATOM     20  H12 UNL     1       6.274  60.740  22.535  1.00  0.00     0.277 HD
ATOM     21  H11 UNL     1       5.769  62.107  23.081  1.00  0.00     0.277 HD
BRANCH  19  22
HETATM   22  C3  UNL     1       5.844  62.067  21.030  1.00  0.00     0.232 C 
BRANCH  22  23
HETATM   23  C2  UNL     1       7.299  61.747  20.723  1.00  0.00     0.023 C 
HETATM   24  C1  UNL     1       7.290  60.397  20.007  1.00  0.00     0.007 C 
ENDBRANCH  22  23
ENDBRANCH  19  22
ENDBRANCH  12  19
ENDBRANCH   9  10
ENDBRANCH   7   9
ENDBRANCH   1   7
BRANCH   3  25
HETATM   25  C11 UNL     1       1.894  54.540  18.558  1.00  0.00     0.149 C 
BRANCH  25  26
HETATM   26  C12 UNL     1       1.058  53.464  19.210  1.00  0.00     0.051 C 
BRANCH  26  27
HETATM   27  C13 UNL     1       1.727  52.108  19.145  1.00  0.00     0.274 C 
BRANCH  27  28
HETATM   28  N3  UNL     1       1.715  51.435  20.400  1.00  0.00     0.091 N 
HETATM   29  C14 UNL     1       1.374  50.039  20.232  1.00  0.00     0.291 C 
HETATM   30  C15 UNL     1       2.431  49.296  19.443  1.00  0.00     0.144 C 
HETATM   31  N4  UNL     1       3.721  49.892  19.451  1.00  0.00    -0.418 N 
HETATM   32  C16 UNL     1       4.060  50.726  20.546  1.00  0.00     0.144 C 
ATOM     33  H4  UNL     1       4.381  49.726  18.692  1.00  0.00     0.153 HD
HETATM   34  C17 UNL     1       2.942  51.518  21.147  1.00  0.00     0.291 C 
ENDBRANCH  27  28
ENDBRANCH  26  27
ENDBRANCH  25  26
ENDBRANCH   3  25
BRANCH   4  35
HETATM   35  N5  UNL     1       4.313  56.104  17.950  1.00  0.00    -0.234 N 
ATOM     36  H52 UNL     1       3.759  56.090  17.094  1.00  0.00     0.174 HD
ATOM     37  H51 UNL     1       5.286  56.277  17.697  1.00  0.00     0.174 HD
ENDBRANCH   4  35
TORSDOF 11
ENDMDL
MODEL 2
REMARK VINA RESULT: -6.771509136      2.842      8.858
REMARK  11 active torsions:
REMARK  status: ('A' for Active; 'I' for Inactive)
REMARK    1  A    between atoms: C2_2  and  C3_3 
REMARK    2  A    between atoms: C3_3  and  N1_4 
REMARK    3  A    between atoms: N1_4  and  C4_7 
REMARK    4  A    between atoms: C6_9  and  C7_10 
REMARK    5  A    between atoms: C7_10  and  C8_11 
REMARK    6  A    between atoms: C8_11  and  C9_13 
REMARK    7  A    between atoms: N2_15  and  C11_16 
REMARK    8  A    between atoms: C11_16  and  C12_17 
REMARK    9  A    between atoms: C12_17  and  C13_18 
REMARK   10  A    between atoms: C13_18  and  N3_19 
REMARK   11  A    between atoms: C18_26  and  N5_27 
ROOT
HETATM    1  C9  UNL     1       4.619  57.165  21.241  1.00  0.00     0.111 A 
HETATM    2  C10 UNL     1       5.301  58.098  20.468  1.00  0.00     0.142 A 
HETATM    3  N2  UNL     1       5.551  59.191  21.166  1.00  0.00    -0.191 N 
HETATM    4  C18 UNL     1       5.031  58.981  22.412  1.00  0.00     0.678 A 
HETATM    5  N6  UNL     1       4.475  57.759  22.436  1.00  0.00    -0.187 N 
ATOM      6  H6  UNL     1       4.011  57.343  23.244  1.00  0.00     0.184 HD
ENDROOT
BRANCH   1   7
HETATM    7  C8  UNL     1       4.193  55.819  20.896  1.00  0.00     0.178 C 
HETATM    8  O1  UNL     1       4.240  55.515  19.668  1.00  0.00    -0.291 OA
BRANCH   7   9
HETATM    9  C7  UNL     1       3.743  54.884  21.887  1.00  0.00     0.095 C 
BRANCH   9  10
HETATM   10  C6  UNL     1       2.597  54.027  21.490  1.00  0.00    -0.031 C 
HETATM   11  C5  UNL     1       1.709  53.788  22.714  1.00  0.00     0.043 C 
HETATM   12  C4  UNL     1       0.869  52.565  22.389  1.00  0.00     0.191 C 
HETATM   13  C24 UNL     1       0.762  52.262  20.949  1.00  0.00     0.024 C 
HETATM   14  C20 UNL     1       2.091  51.872  20.323  1.00  0.00    -0.007 C 
HETATM   15  C22 UNL     1       0.759  53.416  20.004  1.00  0.00    -0.007 C 
HETATM   16  C19 UNL     1       3.145  52.675  20.993  1.00  0.00     0.015 C 
HETATM   17  C21 UNL     1       1.581  52.559  19.057  1.00  0.00     0.010 C 
HETATM   18  C23 UNL     1       1.698  54.551  20.415  1.00  0.00     0.015 C 
BRANCH  12  19
HETATM   19  N1  UNL     1       1.530  51.440  23.040  1.00  0.00    -0.070 N 
ATOM     20  H12 UNL     1       2.361  51.154  22.521  1.00  0.00     0.277 HD
ATOM     21  H11 UNL     1       0.976  50.588  22.949  1.00  0.00     0.277 HD
BRANCH  19  22
HETATM   22  C3  UNL     1       1.851  51.707  24.430  1.00  0.00     0.232 C 
BRANCH  22  23
HETATM   23  C2  UNL     1       2.772  50.574  24.856  1.00  0.00     0.023 C 
HETATM   24  C1  UNL     1       3.233  49.898  23.565  1.00  0.00     0.007 C 
ENDBRANCH  22  23
ENDBRANCH  19  22
ENDBRANCH  12  19
ENDBRANCH   9  10
ENDBRANCH   7   9
ENDBRANCH   1   7
BRANCH   3  25
HETATM   25  C11 UNL     1       6.239  60.380  20.745  1.00  0.00     0.149 C 
BRANCH  25  26
HETATM   26  C12 UNL     1       7.514  60.086  19.991  1.00  0.00     0.051 C 
BRANCH  26  27
HETATM   27  C13 UNL     1       7.439  60.541  18.549  1.00  0.00     0.274 C 
BRANCH  27  28
HETATM   28  N3  UNL     1       8.472  59.978  17.746  1.00  0.00     0.091 N 
HETATM   29  C14 UNL     1       7.924  59.056  16.775  1.00  0.00     0.291 C 
HETATM   30  C15 UNL     1       7.042  59.764  15.769  1.00  0.00     0.144 C 
HETATM   31  N4  UNL     1       7.291  61.155  15.620  1.00  0.00    -0.418 N 
HETATM   32  C16 UNL     1       8.586  61.636  15.941  1.00  0.00     0.144 C 
ATOM     33  H4  UNL     1       6.561  61.787  15.293  1.00  0.00     0.153 HD
HETATM   34  C17 UNL     1       9.295  60.933  17.054  1.00  0.00     0.291 C 
ENDBRANCH  27  28
ENDBRANCH  26  27
ENDBRANCH  25  26
ENDBRANCH   3  25
BRANCH   4  35
HETATM   35  N5  UNL     1       5.068  59.824  23.388  1.00  0.00    -0.234 N 
ATOM     36  H52 UNL     1       4.572  60.713  23.439  1.00  0.00     0.174 HD
ATOM     37  H51 UNL     1       5.608  59.711  24.246  1.00  0.00     0.174 HD
ENDBRANCH   4  35
TORSDOF 11
ENDMDL
MODEL 3
REMARK VINA RESULT: -6.742222820      3.080      7.543
REMARK  11 active torsions:
REMARK  status: ('A' for Active; 'I' for Inactive)
REMARK    1  A    between atoms: C2_2  and  C3_3 
REMARK    2  A    between atoms: C3_3  and  N1_4 
REMARK    3  A    between atoms: N1_4  and  C4_7 
REMARK    4  A    between atoms: C6_9  and  C7_10 
REMARK    5  A    between atoms: C7_10  and  C8_11 
REMARK    6  A    between atoms: C8_11  and  C9_13 
REMARK    7  A    between atoms: N2_15  and  C11_16 
REMARK    8  A    between atoms: C11_16  and  C12_17 
REMARK    9  A    between atoms: C12_17  and  C13_18 
REMARK   10  A    between atoms: C13_18  and  N3_19 
REMARK   11  A    between atoms: C18_26  and  N5_27 
ROOT
HETATM    1  C9  UNL     1       5.239  61.783  22.002  1.00  0.00     0.111 A 
HETATM    2  C10 UNL     1       6.135  60.979  21.307  1.00  0.00     0.142 A 
HETATM    3  N2  UNL     1       6.891  61.706  20.505  1.00  0.00    -0.191 N 
HETATM    4  C18 UNL     1       6.493  63.003  20.669  1.00  0.00     0.678 A 
HETATM    5  N6  UNL     1       5.499  63.026  21.572  1.00  0.00    -0.187 N 
ATOM      6  H6  UNL     1       5.013  63.867  21.886  1.00  0.00     0.184 HD
ENDROOT
BRANCH   1   7
HETATM    7  C8  UNL     1       4.266  61.411  23.016  1.00  0.00     0.178 C 
HETATM    8  O1  UNL     1       4.116  62.226  23.973  1.00  0.00    -0.291 OA
BRANCH   7   9
HETATM    9  C7  UNL     1       3.514  60.192  22.941  1.00  0.00     0.095 C 
BRANCH   9  10
HETATM   10  C6  UNL     1       4.142  59.007  23.580  1.00  0.00    -0.031 C 
HETATM   11  C5  UNL     1       4.874  58.195  22.509  1.00  0.00     0.043 C 
HETATM   12  C4  UNL     1       5.068  56.808  23.096  1.00  0.00     0.191 C 
HETATM   13  C24 UNL     1       4.975  56.748  24.568  1.00  0.00     0.024 C 
HETATM   14  C20 UNL     1       3.590  57.090  25.091  1.00  0.00    -0.007 C 
HETATM   15  C22 UNL     1       5.458  57.933  25.334  1.00  0.00    -0.007 C 
HETATM   16  C19 UNL     1       3.030  58.139  24.201  1.00  0.00     0.015 C 
HETATM   17  C21 UNL     1       4.306  57.700  26.295  1.00  0.00     0.010 C 
HETATM   18  C23 UNL     1       5.139  59.271  24.664  1.00  0.00     0.015 C 
BRANCH  12  19
HETATM   19  N1  UNL     1       3.999  55.986  22.542  1.00  0.00    -0.070 N 
ATOM     20  H12 UNL     1       3.091  56.267  22.914  1.00  0.00     0.277 HD
ATOM     21  H11 UNL     1       4.041  55.035  22.910  1.00  0.00     0.277 HD
BRANCH  19  22
HETATM   22  C3  UNL     1       3.988  55.983  21.091  1.00  0.00     0.232 C 
BRANCH  22  23
HETATM   23  C2  UNL     1       3.044  54.858  20.696  1.00  0.00     0.023 C 
HETATM   24  C1  UNL     1       2.457  54.323  22.002  1.00  0.00     0.007 C 
ENDBRANCH  22  23
ENDBRANCH  19  22
ENDBRANCH  12  19
ENDBRANCH   9  10
ENDBRANCH   7   9
ENDBRANCH   1   7
BRANCH   3  25
HETATM   25  C11 UNL     1       7.941  61.267  19.627  1.00  0.00     0.149 C 
BRANCH  25  26
HETATM   26  C12 UNL     1       7.961  59.769  19.438  1.00  0.00     0.051 C 
BRANCH  26  27
HETATM   27  C13 UNL     1       7.339  59.354  18.122  1.00  0.00     0.274 C 
BRANCH  27  28
HETATM   28  N3  UNL     1       8.313  59.116  17.111  1.00  0.00     0.091 N 
HETATM   29  C14 UNL     1       7.702  58.536  15.934  1.00  0.00     0.291 C 
HETATM   30  C15 UNL     1       6.736  59.496  15.275  1.00  0.00     0.144 C 
HETATM   31  N4  UNL     1       6.955  60.870  15.567  1.00  0.00    -0.418 N 
HETATM   32  C16 UNL     1       8.265  61.270  15.934  1.00  0.00     0.144 C 
ATOM     33  H4  UNL     1       6.194  61.546  15.513  1.00  0.00     0.153 HD
HETATM   34  C17 UNL     1       9.068  60.273  16.709  1.00  0.00     0.291 C 
ENDBRANCH  27  28
ENDBRANCH  26  27
ENDBRANCH  25  26
ENDBRANCH   3  25
BRANCH   4  35
HETATM   35  N5  UNL     1       6.989  64.021  20.052  1.00  0.00    -0.234 N 
ATOM     36  H52 UNL     1       7.566  63.996  19.211  1.00  0.00     0.174 HD
ATOM     37  H51 UNL     1       6.873  64.995  20.330  1.00  0.00     0.174 HD
ENDBRANCH   4  35
TORSDOF 11
ENDMDL
MODEL 4
REMARK VINA RESULT: -6.733736827      4.639      7.509
REMARK  11 active torsions:
REMARK  status: ('A' for Active; 'I' for Inactive)
REMARK    1  A    between atoms: C2_2  and  C3_3 
REMARK    2  A    between atoms: C3_3  and  N1_4 
REMARK    3  A    between atoms: N1_4  and  C4_7 
REMARK    4  A    between atoms: C6_9  and  C7_10 
REMARK    5  A    between atoms: C7_10  and  C8_11 
REMARK    6  A    between atoms: C8_11  and  C9_13 
REMARK    7  A    between atoms: N2_15  and  C11_16 
REMARK    8  A    between atoms: C11_16  and  C12_17 
REMARK    9  A    between atoms: C12_17  and  C13_18 
REMARK   10  A    between atoms: C13_18  and  N3_19 
REMARK   11  A    between atoms: C18_26  and  N5_27 
ROOT
HETATM    1  C9  UNL     1       4.596  60.547  22.647  1.00  0.00     0.111 A 
HETATM    2  C10 UNL     1       5.777  60.533  21.914  1.00  0.00     0.142 A 
HETATM    3  N2  UNL     1       5.779  59.535  21.049  1.00  0.00    -0.191 N 
HETATM    4  C18 UNL     1       4.589  58.882  21.210  1.00  0.00     0.678 A 
HETATM    5  N6  UNL     1       3.895  59.506  22.175  1.00  0.00    -0.187 N 
ATOM      6  H6  UNL     1       2.968  59.229  22.501  1.00  0.00     0.184 HD
ENDROOT
BRANCH   1   7
HETATM    7  C8  UNL     1       4.154  61.491  23.660  1.00  0.00     0.178 C 
HETATM    8  O1  UNL     1       4.333  62.717  23.401  1.00  0.00    -0.291 OA
BRANCH   7   9
HETATM    9  C7  UNL     1       3.548  61.062  24.888  1.00  0.00     0.095 C 
BRANCH   9  10
HETATM   10  C6  UNL     1       4.487  60.697  25.978  1.00  0.00    -0.031 C 
HETATM   11  C5  UNL     1       5.371  59.540  25.506  1.00  0.00     0.043 C 
HETATM   12  C4  UNL     1       5.944  58.910  26.763  1.00  0.00     0.191 C 
HETATM   13  C24 UNL     1       5.921  59.787  27.950  1.00  0.00     0.024 C 
HETATM   14  C20 UNL     1       4.514  60.123  28.414  1.00  0.00    -0.007 C 
HETATM   15  C22 UNL     1       6.100  61.250  27.726  1.00  0.00    -0.007 C 
HETATM   16  C19 UNL     1       3.667  60.240  27.200  1.00  0.00     0.015 C 
HETATM   17  C21 UNL     1       5.085  61.478  28.831  1.00  0.00     0.010 C 
HETATM   18  C23 UNL     1       5.417  61.766  26.458  1.00  0.00     0.015 C 
BRANCH  12  19
HETATM   19  N1  UNL     1       5.111  57.747  27.044  1.00  0.00    -0.070 N 
ATOM     20  H12 UNL     1       4.228  58.024  27.475  1.00  0.00     0.277 HD
ATOM     21  H11 UNL     1       5.501  57.194  27.808  1.00  0.00     0.277 HD
BRANCH  19  22
HETATM   22  C3  UNL     1       4.882  56.924  25.870  1.00  0.00     0.232 C 
BRANCH  22  23
HETATM   23  C2  UNL     1       3.426  56.493  25.957  1.00  0.00     0.023 C 
HETATM   24  C1  UNL     1       2.728  57.126  24.754  1.00  0.00     0.007 C 
ENDBRANCH  22  23
ENDBRANCH  19  22
ENDBRANCH  12  19
ENDBRANCH   9  10
ENDBRANCH   7   9
ENDBRANCH   1   7
BRANCH   3  25
HETATM   25  C11 UNL     1       6.799  59.177  20.102  1.00  0.00     0.149 C 
BRANCH  25  26
HETATM   26  C12 UNL     1       7.752  60.311  19.807  1.00  0.00     0.051 C 
BRANCH  26  27
HETATM   27  C13 UNL     1       7.605  60.822  18.390  1.00  0.00     0.274 C 
BRANCH  27  28
HETATM   28  N3  UNL     1       8.650  60.366  17.537  1.00  0.00     0.091 N 
HETATM   29  C14 UNL     1       8.191  59.283  16.695  1.00  0.00     0.291 C 
HETATM   30  C15 UNL     1       7.121  59.742  15.728  1.00  0.00     0.144 C 
HETATM   31  N4  UNL     1       7.114  61.135  15.452  1.00  0.00    -0.418 N 
HETATM   32  C16 UNL     1       8.328  61.850  15.609  1.00  0.00     0.144 C 
ATOM     33  H4  UNL     1       6.261  61.607  15.149  1.00  0.00     0.153 HD
HETATM   34  C17 UNL     1       9.237  61.378  16.699  1.00  0.00     0.291 C 
ENDBRANCH  27  28
ENDBRANCH  26  27
ENDBRANCH  25  26
ENDBRANCH   3  25
BRANCH   4  35
HETATM   35  N5  UNL     1       4.212  57.842  20.546  1.00  0.00    -0.234 N 
ATOM     36  H52 UNL     1       4.394  57.655  19.561  1.00  0.00     0.174 HD
ATOM     37  H51 UNL     1       3.672  57.064  20.924  1.00  0.00     0.174 HD
ENDBRANCH   4  35
TORSDOF 11
ENDMDL
MODEL 5
REMARK VINA RESULT: -6.710591707      1.370      1.569
REMARK  11 active torsions:
REMARK  status: ('A' for Active; 'I' for Inactive)
REMARK    1  A    between atoms: C2_2  and  C3_3 
REMARK    2  A    between atoms: C3_3  and  N1_4 
REMARK    3  A    between atoms: N1_4  and  C4_7 
REMARK    4  A    between atoms: C6_9  and  C7_10 
REMARK    5  A    between atoms: C7_10  and  C8_11 
REMARK    6  A    between atoms: C8_11  and  C9_13 
REMARK    7  A    between atoms: N2_15  and  C11_16 
REMARK    8  A    between atoms: C11_16  and  C12_17 
REMARK    9  A    between atoms: C12_17  and  C13_18 
REMARK   10  A    between atoms: C13_18  and  N3_19 
REMARK   11  A    between atoms: C18_26  and  N5_27 
ROOT
HETATM    1  C9  UNL     1       4.057  56.529  20.968  1.00  0.00     0.111 A 
HETATM    2  C10 UNL     1       3.555  55.302  21.386  1.00  0.00     0.142 A 
HETATM    3  N2  UNL     1       2.925  54.694  20.397  1.00  0.00    -0.191 N 
HETATM    4  C18 UNL     1       3.010  55.524  19.315  1.00  0.00     0.678 A 
HETATM    5  N6  UNL     1       3.693  56.621  19.681  1.00  0.00    -0.187 N 
ATOM      6  H6  UNL     1       3.904  57.410  19.068  1.00  0.00     0.184 HD
ENDROOT
BRANCH   1   7
HETATM    7  C8  UNL     1       4.851  57.497  21.707  1.00  0.00     0.178 C 
HETATM    8  O1  UNL     1       5.808  58.033  21.076  1.00  0.00    -0.291 OA
BRANCH   7   9
HETATM    9  C7  UNL     1       4.570  57.830  23.074  1.00  0.00     0.095 C 
BRANCH   9  10
HETATM   10  C6  UNL     1       4.214  59.248  23.332  1.00  0.00    -0.031 C 
HETATM   11  C5  UNL     1       4.055  59.972  21.992  1.00  0.00     0.043 C 
HETATM   12  C4  UNL     1       4.174  61.455  22.301  1.00  0.00     0.191 C 
HETATM   13  C24 UNL     1       3.925  61.807  23.712  1.00  0.00     0.024 C 
HETATM   14  C20 UNL     1       4.963  61.232  24.661  1.00  0.00    -0.007 C 
HETATM   15  C22 UNL     1       2.924  60.990  24.456  1.00  0.00    -0.007 C 
HETATM   16  C19 UNL     1       5.359  59.904  24.127  1.00  0.00     0.015 C 
HETATM   17  C21 UNL     1       3.825  61.113  25.673  1.00  0.00     0.010 C 
HETATM   18  C23 UNL     1       2.955  59.503  24.099  1.00  0.00     0.015 C 
BRANCH  12  19
HETATM   19  N1  UNL     1       5.548  61.821  21.979  1.00  0.00    -0.070 N 
ATOM     20  H12 UNL     1       6.209  61.318  22.571  1.00  0.00     0.277 HD
ATOM     21  H11 UNL     1       5.752  62.776  22.278  1.00  0.00     0.277 HD
BRANCH  19  22
HETATM   22  C3  UNL     1       5.864  61.637  20.574  1.00  0.00     0.232 C 
BRANCH  22  23
HETATM   23  C2  UNL     1       7.382  61.603  20.502  1.00  0.00     0.023 C 
HETATM   24  C1  UNL     1       7.731  60.511  19.492  1.00  0.00     0.007 C 
ENDBRANCH  22  23
ENDBRANCH  19  22
ENDBRANCH  12  19
ENDBRANCH   9  10
ENDBRANCH   7   9
ENDBRANCH   1   7
BRANCH   3  25
HETATM   25  C11 UNL     1       2.277  53.411  20.408  1.00  0.00     0.149 C 
BRANCH  25  26
HETATM   26  C12 UNL     1       3.192  52.293  20.848  1.00  0.00     0.051 C 
BRANCH  26  27
HETATM   27  C13 UNL     1       2.906  51.001  20.114  1.00  0.00     0.274 C 
BRANCH  27  28
HETATM   28  N3  UNL     1       3.248  49.852  20.882  1.00  0.00     0.091 N 
HETATM   29  C14 UNL     1       2.632  48.664  20.331  1.00  0.00     0.291 C 
HETATM   30  C15 UNL     1       3.172  48.342  18.955  1.00  0.00     0.144 C 
HETATM   31  N4  UNL     1       4.453  48.883  18.666  1.00  0.00    -0.418 N 
HETATM   32  C16 UNL     1       5.317  49.163  19.755  1.00  0.00     0.144 C 
ATOM     33  H4  UNL     1       4.743  49.064  17.705  1.00  0.00     0.153 HD
HETATM   34  C17 UNL     1       4.659  49.610  21.022  1.00  0.00     0.291 C 
ENDBRANCH  27  28
ENDBRANCH  26  27
ENDBRANCH  25  26
ENDBRANCH   3  25
BRANCH   4  35
HETATM   35  N5  UNL     1       2.510  55.287  18.150  1.00  0.00    -0.234 N 
ATOM     36  H52 UNL     1       3.030  55.051  17.306  1.00  0.00     0.174 HD
ATOM     37  H51 UNL     1       1.518  55.310  17.917  1.00  0.00     0.174 HD
ENDBRANCH   4  35
TORSDOF 11
ENDMDL
