MODEL 1
REMARK VINA RESULT: -8.597447160      0.000      0.000
REMARK  9 active torsions:
REMARK  status: ('A' for Active; 'I' for Inactive)
REMARK    1  A    between atoms: C4_4  and  C5_5 
REMARK    2  A    between atoms: C5_5  and  C6_6 
REMARK    3  A    between atoms: C6_6  and  C7_7 
REMARK    4  A    between atoms: C9_9  and  C10_10 
REMARK    5  A    between atoms: C10_10  and  C11_11 
REMARK    6  A    between atoms: C11_11  and  C12_12 
REMARK    7  A    between atoms: C14_15  and  C15_16 
REMARK       I    between atoms: N2_20  and  C19_21 
REMARK    8  A    between atoms: C19_21  and  C20_23 
REMARK    9  A    between atoms: C22_25  and  O2_26 
ROOT
HETATM    1  C12 UNL     1       4.751  60.591  22.151  1.00  0.00     0.019 C 
HETATM    2  C13 UNL     1       3.685  60.635  23.134  1.00  0.00     0.095 C 
HETATM    3  N1  UNL     1       2.852  60.672  23.925  1.00  0.00    -0.192 NA
HETATM    4  C14 UNL     1       4.927  59.557  21.381  1.00  0.00    -0.002 C 
ENDROOT
BRANCH   1   5
HETATM    5  C11 UNL     1       5.665  61.788  22.036  1.00  0.00     0.053 C 
BRANCH   5   6
HETATM    6  C10 UNL     1       5.503  62.406  20.705  1.00  0.00     0.032 C 
BRANCH   6   7
HETATM    7  C9  UNL     1       6.673  62.563  19.841  1.00  0.00    -0.024 C 
HETATM    8  C7  UNL     1       7.600  61.736  19.481  1.00  0.00    -0.087 C 
HETATM    9  C8  UNL     1       7.814  60.322  19.851  1.00  0.00     0.043 C 
BRANCH   8  10
HETATM   10  C6  UNL     1       8.665  62.329  18.537  1.00  0.00     0.037 C 
BRANCH  10  11
HETATM   11  C5  UNL     1       9.028  61.343  17.474  1.00  0.00     0.031 C 
BRANCH  11  12
HETATM   12  C4  UNL     1       7.938  61.265  16.476  1.00  0.00    -0.024 C 
HETATM   13  C2  UNL     1       7.459  60.119  16.021  1.00  0.00    -0.091 C 
HETATM   14  C1  UNL     1       6.363  60.079  15.020  1.00  0.00     0.042 C 
HETATM   15  C3  UNL     1       8.018  58.834  16.512  1.00  0.00     0.042 C 
ENDBRANCH  11  12
ENDBRANCH  10  11
ENDBRANCH   8  10
ENDBRANCH   6   7
ENDBRANCH   5   6
ENDBRANCH   1   5
BRANCH   4  16
HETATM   16  C15 UNL     1       3.975  58.389  21.546  1.00  0.00     0.027 C 
HETATM   17  C16 UNL     1       4.621  57.512  22.599  1.00  0.00     0.012 C 
HETATM   18  C17 UNL     1       4.027  56.148  22.660  1.00  0.00     0.021 C 
HETATM   19  C18 UNL     1       4.171  55.482  21.274  1.00  0.00     0.126 C 
HETATM   20  N2  UNL     1       3.491  56.326  20.353  1.00  0.00    -0.350 N 
HETATM   21  C19 UNL     1       2.440  55.853  19.549  1.00  0.00     0.250 C 
HETATM   22  C24 UNL     1       3.894  57.707  20.219  1.00  0.00     0.134 C 
HETATM   23  O1  UNL     1       1.811  56.626  18.753  1.00  0.00    -0.271 OA
BRANCH  21  24
HETATM   24  C20 UNL     1       2.054  54.421  19.628  1.00  0.00     0.279 C 
HETATM   25  C21 UNL     1       0.936  54.241  18.602  1.00  0.00     0.076 C 
HETATM   26  C22 UNL     1      -0.313  54.287  19.448  1.00  0.00     0.146 C 
HETATM   27  C23 UNL     1       0.192  53.522  20.680  1.00  0.00     0.264 C 
HETATM   28  N3  UNL     1       1.423  54.205  20.919  1.00  0.00    -0.060 N 
ATOM     29  H32 UNL     1       2.027  53.720  21.583  1.00  0.00     0.278 HD
ATOM     30  H31 UNL     1       1.304  55.066  21.454  1.00  0.00     0.278 HD
BRANCH  26  31
HETATM   31  O2  UNL     1      -0.621  55.599  19.779  1.00  0.00    -0.394 OA
ATOM     32  H2  UNL     1       0.053  55.964  20.340  1.00  0.00     0.210 HD
ENDBRANCH  26  31
ENDBRANCH  21  24
ENDBRANCH   4  16
TORSDOF 9
ENDMDL
MODEL 2
REMARK VINA RESULT: -8.362867042      4.617      7.923
REMARK  9 active torsions:
REMARK  status: ('A' for Active; 'I' for Inactive)
REMARK    1  A    between atoms: C4_4  and  C5_5 
REMARK    2  A    between atoms: C5_5  and  C6_6 
REMARK    3  A    between atoms: C6_6  and  C7_7 
REMARK    4  A    between atoms: C9_9  and  C10_10 
REMARK    5  A    between atoms: C10_10  and  C11_11 
REMARK    6  A    between atoms: C11_11  and  C12_12 
REMARK    7  A    between atoms: C14_15  and  C15_16 
REMARK       I    between atoms: N2_20  and  C19_21 
REMARK    8  A    between atoms: C19_21  and  C20_23 
REMARK    9  A    between atoms: C22_25  and  O2_26 
ROOT
HETATM    1  C12 UNL     1       4.545  58.838  23.468  1.00  0.00     0.019 C 
HETATM    2  C13 UNL     1       5.284  58.437  24.651  1.00  0.00     0.095 C 
HETATM    3  N1  UNL     1       5.864  58.104  25.585  1.00  0.00    -0.192 NA
HETATM    4  C14 UNL     1       3.581  59.710  23.529  1.00  0.00    -0.002 C 
ENDROOT
BRANCH   1   5
HETATM    5  C11 UNL     1       4.923  58.213  22.145  1.00  0.00     0.053 C 
BRANCH   5   6
HETATM    6  C10 UNL     1       4.786  59.217  21.070  1.00  0.00     0.032 C 
BRANCH   6   7
HETATM    7  C9  UNL     1       5.789  60.275  20.947  1.00  0.00    -0.024 C 
HETATM    8  C7  UNL     1       5.695  61.564  20.974  1.00  0.00    -0.087 C 
HETATM    9  C8  UNL     1       4.506  62.431  21.115  1.00  0.00     0.043 C 
BRANCH   8  10
HETATM   10  C6  UNL     1       7.031  62.315  20.806  1.00  0.00     0.037 C 
BRANCH  10  11
HETATM   11  C5  UNL     1       8.044  61.437  20.144  1.00  0.00     0.031 C 
BRANCH  11  12
HETATM   12  C4  UNL     1       8.398  61.998  18.822  1.00  0.00    -0.024 C 
HETATM   13  C2  UNL     1       8.315  61.303  17.699  1.00  0.00    -0.091 C 
HETATM   14  C1  UNL     1       8.679  61.899  16.389  1.00  0.00     0.042 C 
HETATM   15  C3  UNL     1       7.851  59.893  17.732  1.00  0.00     0.042 C 
ENDBRANCH  11  12
ENDBRANCH  10  11
ENDBRANCH   8  10
ENDBRANCH   6   7
ENDBRANCH   5   6
ENDBRANCH   1   5
BRANCH   4  16
HETATM   16  C15 UNL     1       3.253  60.299  24.886  1.00  0.00     0.027 C 
HETATM   17  C16 UNL     1       1.741  60.260  24.966  1.00  0.00     0.012 C 
HETATM   18  C17 UNL     1       1.197  61.104  26.066  1.00  0.00     0.021 C 
HETATM   19  C18 UNL     1       1.665  62.560  25.850  1.00  0.00     0.126 C 
HETATM   20  N2  UNL     1       3.087  62.528  25.848  1.00  0.00    -0.350 N 
HETATM   21  C19 UNL     1       3.849  63.293  26.747  1.00  0.00     0.250 C 
HETATM   22  C24 UNL     1       3.780  61.698  24.889  1.00  0.00     0.134 C 
HETATM   23  O1  UNL     1       5.123  63.229  26.763  1.00  0.00    -0.271 OA
BRANCH  21  24
HETATM   24  C20 UNL     1       3.155  64.198  27.699  1.00  0.00     0.279 C 
HETATM   25  C21 UNL     1       2.881  65.482  26.917  1.00  0.00     0.076 C 
HETATM   26  C22 UNL     1       3.994  66.398  27.366  1.00  0.00     0.146 C 
HETATM   27  C23 UNL     1       4.065  65.997  28.847  1.00  0.00     0.264 C 
HETATM   28  N3  UNL     1       4.112  64.575  28.725  1.00  0.00    -0.060 N 
ATOM     29  H32 UNL     1       3.958  64.093  29.611  1.00  0.00     0.278 HD
ATOM     30  H31 UNL     1       5.052  64.221  28.544  1.00  0.00     0.278 HD
BRANCH  26  31
HETATM   31  O2  UNL     1       5.175  66.073  26.713  1.00  0.00    -0.394 OA
ATOM     32  H2  UNL     1       5.675  66.859  26.528  1.00  0.00     0.210 HD
ENDBRANCH  26  31
ENDBRANCH  21  24
ENDBRANCH   4  16
TORSDOF 9
ENDMDL
MODEL 3
REMARK VINA RESULT: -8.090792964      2.714      3.566
REMARK  9 active torsions:
REMARK  status: ('A' for Active; 'I' for Inactive)
REMARK    1  A    between atoms: C4_4  and  C5_5 
REMARK    2  A    between atoms: C5_5  and  C6_6 
REMARK    3  A    between atoms: C6_6  and  C7_7 
REMARK    4  A    between atoms: C9_9  and  C10_10 
REMARK    5  A    between atoms: C10_10  and  C11_11 
REMARK    6  A    between atoms: C11_11  and  C12_12 
REMARK    7  A    between atoms: C14_15  and  C15_16 
REMARK       I    between atoms: N2_20  and  C19_21 
REMARK    8  A    between atoms: C19_21  and  C20_23 
REMARK    9  A    between atoms: C22_25  and  O2_26 
ROOT
HETATM    1  C12 UNL     1       4.959  58.706  24.056  1.00  0.00     0.019 C 
HETATM    2  C13 UNL     1       5.744  57.810  24.885  1.00  0.00     0.095 C 
HETATM    3  N1  UNL     1       6.379  57.107  25.535  1.00  0.00    -0.192 NA
HETATM    4  C14 UNL     1       4.146  58.256  23.145  1.00  0.00    -0.002 C 
ENDROOT
BRANCH   1   5
HETATM    5  C11 UNL     1       5.106  60.193  24.276  1.00  0.00     0.053 C 
BRANCH   5   6
HETATM    6  C10 UNL     1       4.533  60.921  23.125  1.00  0.00     0.032 C 
BRANCH   6   7
HETATM    7  C9  UNL     1       5.431  61.588  22.182  1.00  0.00    -0.024 C 
HETATM    8  C7  UNL     1       6.116  61.146  21.178  1.00  0.00    -0.087 C 
HETATM    9  C8  UNL     1       6.250  59.774  20.644  1.00  0.00     0.043 C 
BRANCH   8  10
HETATM   10  C6  UNL     1       6.943  62.215  20.438  1.00  0.00     0.037 C 
BRANCH  10  11
HETATM   11  C5  UNL     1       8.189  61.613  19.872  1.00  0.00     0.031 C 
BRANCH  11  12
HETATM   12  C4  UNL     1       8.474  62.213  18.550  1.00  0.00    -0.024 C 
HETATM   13  C2  UNL     1       8.398  61.531  17.418  1.00  0.00    -0.091 C 
HETATM   14  C1  UNL     1       8.691  62.165  16.109  1.00  0.00     0.042 C 
HETATM   15  C3  UNL     1       8.014  60.097  17.441  1.00  0.00     0.042 C 
ENDBRANCH  11  12
ENDBRANCH  10  11
ENDBRANCH   8  10
ENDBRANCH   6   7
ENDBRANCH   5   6
ENDBRANCH   1   5
BRANCH   4  16
HETATM   16  C15 UNL     1       4.045  56.754  22.975  1.00  0.00     0.027 C 
HETATM   17  C16 UNL     1       4.168  56.526  21.483  1.00  0.00     0.012 C 
HETATM   18  C17 UNL     1       3.750  55.158  21.069  1.00  0.00     0.021 C 
HETATM   19  C18 UNL     1       2.286  54.934  21.506  1.00  0.00     0.126 C 
HETATM   20  N2  UNL     1       2.260  55.102  22.918  1.00  0.00    -0.350 N 
HETATM   21  C19 UNL     1       1.799  54.091  23.779  1.00  0.00     0.250 C 
HETATM   22  C24 UNL     1       2.704  56.349  23.497  1.00  0.00     0.134 C 
HETATM   23  O1  UNL     1       1.815  54.236  25.046  1.00  0.00    -0.271 OA
BRANCH  21  24
HETATM   24  C20 UNL     1       1.282  52.825  23.199  1.00  0.00     0.279 C 
HETATM   25  C21 UNL     1      -0.220  53.041  23.019  1.00  0.00     0.076 C 
HETATM   26  C22 UNL     1      -0.810  52.348  24.223  1.00  0.00     0.146 C 
HETATM   27  C23 UNL     1       0.132  51.138  24.302  1.00  0.00     0.264 C 
HETATM   28  N3  UNL     1       1.399  51.794  24.217  1.00  0.00    -0.060 N 
ATOM     29  H32 UNL     1       2.171  51.150  24.046  1.00  0.00     0.278 HD
ATOM     30  H31 UNL     1       1.723  52.154  25.114  1.00  0.00     0.278 HD
BRANCH  26  31
HETATM   31  O2  UNL     1      -0.677  53.147  25.350  1.00  0.00    -0.394 OA
ATOM     32  H2  UNL     1      -1.453  53.082  25.894  1.00  0.00     0.210 HD
ENDBRANCH  26  31
ENDBRANCH  21  24
ENDBRANCH   4  16
TORSDOF 9
ENDMDL
MODEL 4
REMARK VINA RESULT: -8.000719297      3.200      4.720
REMARK  9 active torsions:
REMARK  status: ('A' for Active; 'I' for Inactive)
REMARK    1  A    between atoms: C4_4  and  C5_5 
REMARK    2  A    between atoms: C5_5  and  C6_6 
REMARK    3  A    between atoms: C6_6  and  C7_7 
REMARK    4  A    between atoms: C9_9  and  C10_10 
REMARK    5  A    between atoms: C10_10  and  C11_11 
REMARK    6  A    between atoms: C11_11  and  C12_12 
REMARK    7  A    between atoms: C14_15  and  C15_16 
REMARK       I    between atoms: N2_20  and  C19_21 
REMARK    8  A    between atoms: C19_21  and  C20_23 
REMARK    9  A    between atoms: C22_25  and  O2_26 
ROOT
HETATM    1  C12 UNL     1       3.800  56.677  20.989  1.00  0.00     0.019 C 
HETATM    2  C13 UNL     1       3.887  56.655  19.540  1.00  0.00     0.095 C 
HETATM    3  N1  UNL     1       3.949  56.653  18.393  1.00  0.00    -0.192 NA
HETATM    4  C14 UNL     1       3.123  55.781  21.645  1.00  0.00    -0.002 C 
ENDROOT
BRANCH   1   5
HETATM    5  C11 UNL     1       4.524  57.777  21.730  1.00  0.00     0.053 C 
BRANCH   5   6
HETATM    6  C10 UNL     1       4.347  59.055  21.011  1.00  0.00     0.032 C 
BRANCH   6   7
HETATM    7  C9  UNL     1       5.447  60.019  20.986  1.00  0.00    -0.024 C 
HETATM    8  C7  UNL     1       5.464  61.313  21.005  1.00  0.00    -0.087 C 
HETATM    9  C8  UNL     1       4.349  62.282  21.033  1.00  0.00     0.043 C 
BRANCH   8  10
HETATM   10  C6  UNL     1       6.871  61.941  20.967  1.00  0.00     0.037 C 
BRANCH  10  11
HETATM   11  C5  UNL     1       7.811  61.072  20.195  1.00  0.00     0.031 C 
BRANCH  11  12
HETATM   12  C4  UNL     1       8.230  61.770  18.959  1.00  0.00    -0.024 C 
HETATM   13  C2  UNL     1       8.248  61.185  17.772  1.00  0.00    -0.091 C 
HETATM   14  C1  UNL     1       8.675  61.917  16.553  1.00  0.00     0.042 C 
HETATM   15  C3  UNL     1       7.836  59.765  17.639  1.00  0.00     0.042 C 
ENDBRANCH  11  12
ENDBRANCH  10  11
ENDBRANCH   8  10
ENDBRANCH   6   7
ENDBRANCH   5   6
ENDBRANCH   1   5
BRANCH   4  16
HETATM   16  C15 UNL     1       2.421  54.705  20.842  1.00  0.00     0.027 C 
HETATM   17  C16 UNL     1       0.959  54.838  21.214  1.00  0.00     0.012 C 
HETATM   18  C17 UNL     1       0.147  53.660  20.804  1.00  0.00     0.021 C 
HETATM   19  C18 UNL     1       0.735  52.397  21.470  1.00  0.00     0.126 C 
HETATM   20  N2  UNL     1       2.083  52.303  21.027  1.00  0.00    -0.350 N 
HETATM   21  C19 UNL     1       2.569  51.166  20.360  1.00  0.00     0.250 C 
HETATM   22  C24 UNL     1       2.995  53.395  21.279  1.00  0.00     0.134 C 
HETATM   23  O1  UNL     1       3.769  51.105  19.933  1.00  0.00    -0.271 OA
BRANCH  21  24
HETATM   24  C20 UNL     1       1.663  50.007  20.147  1.00  0.00     0.279 C 
HETATM   25  C21 UNL     1       1.886  49.087  21.347  1.00  0.00     0.076 C 
HETATM   26  C22 UNL     1       2.823  48.038  20.801  1.00  0.00     0.146 C 
HETATM   27  C23 UNL     1       2.238  47.892  19.388  1.00  0.00     0.264 C 
HETATM   28  N3  UNL     1       2.160  49.264  19.001  1.00  0.00    -0.060 N 
ATOM     29  H32 UNL     1       1.603  49.411  18.159  1.00  0.00     0.278 HD
ATOM     30  H31 UNL     1       3.041  49.629  18.641  1.00  0.00     0.278 HD
BRANCH  26  31
HETATM   31  O2  UNL     1       4.119  48.531  20.747  1.00  0.00    -0.394 OA
ATOM     32  H2  UNL     1       4.744  47.816  20.754  1.00  0.00     0.210 HD
ENDBRANCH  26  31
ENDBRANCH  21  24
ENDBRANCH   4  16
TORSDOF 9
ENDMDL
MODEL 5
REMARK VINA RESULT: -7.882285819      4.309      7.160
REMARK  9 active torsions:
REMARK  status: ('A' for Active; 'I' for Inactive)
REMARK    1  A    between atoms: C4_4  and  C5_5 
REMARK    2  A    between atoms: C5_5  and  C6_6 
REMARK    3  A    between atoms: C6_6  and  C7_7 
REMARK    4  A    between atoms: C9_9  and  C10_10 
REMARK    5  A    between atoms: C10_10  and  C11_11 
REMARK    6  A    between atoms: C11_11  and  C12_12 
REMARK    7  A    between atoms: C14_15  and  C15_16 
REMARK       I    between atoms: N2_20  and  C19_21 
REMARK    8  A    between atoms: C19_21  and  C20_23 
REMARK    9  A    between atoms: C22_25  and  O2_26 
ROOT
HETATM    1  C12 UNL     1       5.063  59.169  21.694  1.00  0.00     0.019 C 
HETATM    2  C13 UNL     1       4.602  57.863  22.126  1.00  0.00     0.095 C 
HETATM    3  N1  UNL     1       4.227  56.827  22.455  1.00  0.00    -0.192 NA
HETATM    4  C14 UNL     1       4.939  60.220  22.451  1.00  0.00    -0.002 C 
ENDROOT
BRANCH   1   5
HETATM    5  C11 UNL     1       5.699  59.286  20.329  1.00  0.00     0.053 C 
BRANCH   5   6
HETATM    6  C10 UNL     1       7.140  59.572  20.480  1.00  0.00     0.032 C 
BRANCH   6   7
HETATM    7  C9  UNL     1       7.773  60.550  19.596  1.00  0.00    -0.024 C 
HETATM    8  C7  UNL     1       7.610  61.826  19.459  1.00  0.00    -0.087 C 
HETATM    9  C8  UNL     1       6.687  62.750  20.151  1.00  0.00     0.043 C 
BRANCH   8  10
HETATM   10  C6  UNL     1       8.504  62.481  18.388  1.00  0.00     0.037 C 
BRANCH  10  11
HETATM   11  C5  UNL     1       8.930  61.469  17.373  1.00  0.00     0.031 C 
BRANCH  11  12
HETATM   12  C4  UNL     1       7.850  61.277  16.380  1.00  0.00    -0.024 C 
HETATM   13  C2  UNL     1       7.450  60.083  15.973  1.00  0.00    -0.091 C 
HETATM   14  C1  UNL     1       6.363  59.928  14.974  1.00  0.00     0.042 C 
HETATM   15  C3  UNL     1       8.093  58.860  16.516  1.00  0.00     0.042 C 
ENDBRANCH  11  12
ENDBRANCH  10  11
ENDBRANCH   8  10
ENDBRANCH   6   7
ENDBRANCH   5   6
ENDBRANCH   1   5
BRANCH   4  16
HETATM   16  C15 UNL     1       4.293  60.035  23.809  1.00  0.00     0.027 C 
HETATM   17  C16 UNL     1       2.897  60.603  23.652  1.00  0.00     0.012 C 
HETATM   18  C17 UNL     1       2.215  60.834  24.955  1.00  0.00     0.021 C 
HETATM   19  C18 UNL     1       3.074  61.801  25.798  1.00  0.00     0.126 C 
HETATM   20  N2  UNL     1       4.342  61.177  25.956  1.00  0.00    -0.350 N 
HETATM   21  C19 UNL     1       4.885  60.909  27.224  1.00  0.00     0.250 C 
HETATM   22  C24 UNL     1       5.110  60.816  24.787  1.00  0.00     0.134 C 
HETATM   23  O1  UNL     1       6.006  60.315  27.357  1.00  0.00    -0.271 OA
BRANCH  21  24
HETATM   24  C20 UNL     1       4.138  61.329  28.437  1.00  0.00     0.279 C 
HETATM   25  C21 UNL     1       4.652  62.729  28.771  1.00  0.00     0.076 C 
HETATM   26  C22 UNL     1       5.650  62.471  29.874  1.00  0.00     0.146 C 
HETATM   27  C23 UNL     1       4.908  61.356  30.626  1.00  0.00     0.264 C 
HETATM   28  N3  UNL     1       4.579  60.490  29.539  1.00  0.00    -0.060 N 
ATOM     29  H32 UNL     1       3.898  59.773  29.791  1.00  0.00     0.278 HD
ATOM     30  H31 UNL     1       5.341  59.863  29.283  1.00  0.00     0.278 HD
BRANCH  26  31
HETATM   31  O2  UNL     1       6.840  61.996  29.342  1.00  0.00    -0.394 OA
ATOM     32  H2  UNL     1       7.232  61.360  29.930  1.00  0.00     0.210 HD
ENDBRANCH  26  31
ENDBRANCH  21  24
ENDBRANCH   4  16
TORSDOF 9
ENDMDL
