MODEL 1
REMARK VINA RESULT: -7.220326686      0.000      0.000
REMARK  8 active torsions:
REMARK  status: ('A' for Active; 'I' for Inactive)
REMARK    1  A    between atoms: S1_2  and  C2_3 
REMARK    2  A    between atoms: C2_3  and  C3_4 
REMARK    3  A    between atoms: C3_4  and  C4_5 
REMARK    4  A    between atoms: C5_8  and  C6_9 
REMARK       I    between atoms: C6_9  and  N2_11 
REMARK    5  A    between atoms: N2_11  and  C7_13 
REMARK    6  A    between atoms: C7_13  and  C8_14 
REMARK    7  A    between atoms: C8_14  and  C9_15 
REMARK    8  A    between atoms: N3_18  and  C12_19 
ROOT
HETATM    1  C6  UNL     1       5.339  61.206  27.009  1.00  0.00     0.240 C 
HETATM    2  O1  UNL     1       5.656  62.247  27.617  1.00  0.00    -0.271 OA
HETATM    3  N2  UNL     1       4.589  61.289  25.811  1.00  0.00    -0.359 N 
ATOM      4  H2  UNL     1       4.321  60.443  25.307  1.00  0.00     0.162 HD
ENDROOT
BRANCH   3   5
HETATM    5  C7  UNL     1       4.209  62.594  25.312  1.00  0.00     0.123 C 
BRANCH   5   6
HETATM    6  C8  UNL     1       3.794  62.438  23.863  1.00  0.00     0.024 C 
BRANCH   6   7
HETATM    7  C9  UNL     1       5.035  62.302  22.998  1.00  0.00    -0.007 C 
HETATM    8  C10 UNL     1       5.152  60.864  22.594  1.00  0.00     0.025 C 
HETATM    9  C11 UNL     1       5.822  60.583  21.314  1.00  0.00     0.122 C 
HETATM   10  N3  UNL     1       6.577  61.631  20.727  1.00  0.00    -0.389 N 
HETATM   11  C18 UNL     1       6.142  62.949  20.955  1.00  0.00     0.059 C 
HETATM   12  C19 UNL     1       4.866  63.100  21.725  1.00  0.00     0.049 C 
BRANCH  10  13
HETATM   13  C12 UNL     1       7.039  61.401  19.410  1.00  0.00     0.083 C 
HETATM   14  C13 UNL     1       7.669  60.041  19.202  1.00  0.00     0.025 C 
HETATM   15  C14 UNL     1       7.900  59.886  17.713  1.00  0.00     0.002 C 
HETATM   16  C15 UNL     1       8.623  61.037  17.102  1.00  0.00     0.000 C 
HETATM   17  C16 UNL     1       9.136  61.981  18.169  1.00  0.00     0.002 C 
HETATM   18  C17 UNL     1       7.977  62.514  19.001  1.00  0.00     0.025 C 
ENDBRANCH  10  13
ENDBRANCH   6   7
ENDBRANCH   5   6
ENDBRANCH   3   5
BRANCH   1  19
HETATM   19  C5  UNL     1       5.759  59.892  27.557  1.00  0.00     0.170 C 
HETATM   20  N1  UNL     1       6.458  59.150  26.597  1.00  0.00    -0.398 N 
HETATM   21  C4  UNL     1       6.933  57.843  26.970  1.00  0.00     0.148 C 
ATOM     22  H1  UNL     1       6.626  59.524  25.663  1.00  0.00     0.154 HD
HETATM   23  C22 UNL     1       6.359  57.427  28.299  1.00  0.00     0.149 C 
HETATM   24  C21 UNL     1       5.152  58.009  28.922  1.00  0.00     0.083 C 
HETATM   25  O2  UNL     1       6.917  56.542  28.915  1.00  0.00    -0.296 OA
HETATM   26  C20 UNL     1       4.551  59.093  28.034  1.00  0.00     0.042 C 
BRANCH  21  27
HETATM   27  C3  UNL     1       6.488  56.898  25.897  1.00  0.00     0.043 C 
BRANCH  27  28
HETATM   28  C2  UNL     1       5.667  57.405  24.781  1.00  0.00     0.076 C 
BRANCH  28  29
HETATM   29  S1  UNL     1       3.934  57.019  24.825  1.00  0.00    -0.173 SA
HETATM   30  C1  UNL     1       2.790  58.362  24.692  1.00  0.00     0.089 C 
ENDBRANCH  28  29
ENDBRANCH  27  28
ENDBRANCH  21  27
ENDBRANCH   1  19
TORSDOF 8
ENDMDL
MODEL 2
REMARK VINA RESULT: -7.156862501      3.445      5.557
REMARK  8 active torsions:
REMARK  status: ('A' for Active; 'I' for Inactive)
REMARK    1  A    between atoms: S1_2  and  C2_3 
REMARK    2  A    between atoms: C2_3  and  C3_4 
REMARK    3  A    between atoms: C3_4  and  C4_5 
REMARK    4  A    between atoms: C5_8  and  C6_9 
REMARK       I    between atoms: C6_9  and  N2_11 
REMARK    5  A    between atoms: N2_11  and  C7_13 
REMARK    6  A    between atoms: C7_13  and  C8_14 
REMARK    7  A    between atoms: C8_14  and  C9_15 
REMARK    8  A    between atoms: N3_18  and  C12_19 
ROOT
HETATM    1  C6  UNL     1       3.783  62.760  25.260  1.00  0.00     0.240 C 
HETATM    2  O1  UNL     1       4.917  62.318  25.530  1.00  0.00    -0.271 OA
HETATM    3  N2  UNL     1       2.835  61.928  24.614  1.00  0.00    -0.359 N 
ATOM      4  H2  UNL     1       1.906  62.281  24.385  1.00  0.00     0.162 HD
ENDROOT
BRANCH   3   5
HETATM    5  C7  UNL     1       3.209  60.569  24.284  1.00  0.00     0.123 C 
BRANCH   5   6
HETATM    6  C8  UNL     1       3.323  60.469  22.777  1.00  0.00     0.024 C 
BRANCH   6   7
HETATM    7  C9  UNL     1       4.778  60.637  22.372  1.00  0.00    -0.007 C 
HETATM    8  C10 UNL     1       5.172  59.428  21.579  1.00  0.00     0.025 C 
HETATM    9  C11 UNL     1       6.230  59.607  20.573  1.00  0.00     0.122 C 
HETATM   10  N3  UNL     1       7.010  60.790  20.645  1.00  0.00    -0.389 N 
HETATM   11  C18 UNL     1       6.382  61.949  21.138  1.00  0.00     0.059 C 
HETATM   12  C19 UNL     1       4.923  61.828  21.452  1.00  0.00     0.049 C 
BRANCH  10  13
HETATM   13  C12 UNL     1       7.878  61.030  19.554  1.00  0.00     0.083 C 
HETATM   14  C13 UNL     1       7.663  62.364  18.872  1.00  0.00     0.025 C 
HETATM   15  C14 UNL     1       8.801  62.546  17.890  1.00  0.00     0.002 C 
HETATM   16  C15 UNL     1       8.995  61.377  16.985  1.00  0.00     0.000 C 
HETATM   17  C16 UNL     1       7.862  60.384  17.135  1.00  0.00     0.002 C 
HETATM   18  C17 UNL     1       7.785  59.886  18.572  1.00  0.00     0.025 C 
ENDBRANCH  10  13
ENDBRANCH   6   7
ENDBRANCH   5   6
ENDBRANCH   3   5
BRANCH   1  19
HETATM   19  C5  UNL     1       3.445  64.159  25.624  1.00  0.00     0.170 C 
HETATM   20  N1  UNL     1       4.329  64.651  26.592  1.00  0.00    -0.398 N 
HETATM   21  C4  UNL     1       4.135  65.999  27.059  1.00  0.00     0.148 C 
ATOM     22  H1  UNL     1       5.087  64.073  26.955  1.00  0.00     0.154 HD
HETATM   23  C22 UNL     1       2.827  66.553  26.559  1.00  0.00     0.149 C 
HETATM   24  C21 UNL     1       1.692  65.741  26.072  1.00  0.00     0.083 C 
HETATM   25  O2  UNL     1       2.677  67.757  26.555  1.00  0.00    -0.296 OA
HETATM   26  C20 UNL     1       2.017  64.253  26.147  1.00  0.00     0.042 C 
BRANCH  21  27
HETATM   27  C3  UNL     1       4.134  65.943  28.555  1.00  0.00     0.043 C 
BRANCH  27  28
HETATM   28  C2  UNL     1       3.733  64.696  29.233  1.00  0.00     0.076 C 
BRANCH  28  29
HETATM   29  S1  UNL     1       5.001  63.828  30.124  1.00  0.00    -0.173 SA
HETATM   30  C1  UNL     1       5.983  62.660  29.228  1.00  0.00     0.089 C 
ENDBRANCH  28  29
ENDBRANCH  27  28
ENDBRANCH  21  27
ENDBRANCH   1  19
TORSDOF 8
ENDMDL
MODEL 3
REMARK VINA RESULT: -7.092062174      3.756      4.832
REMARK  8 active torsions:
REMARK  status: ('A' for Active; 'I' for Inactive)
REMARK    1  A    between atoms: S1_2  and  C2_3 
REMARK    2  A    between atoms: C2_3  and  C3_4 
REMARK    3  A    between atoms: C3_4  and  C4_5 
REMARK    4  A    between atoms: C5_8  and  C6_9 
REMARK       I    between atoms: C6_9  and  N2_11 
REMARK    5  A    between atoms: N2_11  and  C7_13 
REMARK    6  A    between atoms: C7_13  and  C8_14 
REMARK    7  A    between atoms: C8_14  and  C9_15 
REMARK    8  A    between atoms: N3_18  and  C12_19 
ROOT
HETATM    1  C6  UNL     1       3.633  57.395  24.158  1.00  0.00     0.240 C 
HETATM    2  O1  UNL     1       4.804  57.512  24.568  1.00  0.00    -0.271 OA
HETATM    3  N2  UNL     1       2.851  58.551  23.916  1.00  0.00    -0.359 N 
ATOM      4  H2  UNL     1       1.889  58.467  23.584  1.00  0.00     0.162 HD
ENDROOT
BRANCH   3   5
HETATM    5  C7  UNL     1       3.438  59.853  24.148  1.00  0.00     0.123 C 
BRANCH   5   6
HETATM    6  C8  UNL     1       3.469  60.593  22.825  1.00  0.00     0.024 C 
BRANCH   6   7
HETATM    7  C9  UNL     1       4.912  60.764  22.379  1.00  0.00    -0.007 C 
HETATM    8  C10 UNL     1       5.303  59.528  21.628  1.00  0.00     0.025 C 
HETATM    9  C11 UNL     1       6.335  59.678  20.590  1.00  0.00     0.122 C 
HETATM   10  N3  UNL     1       7.099  60.873  20.594  1.00  0.00    -0.389 N 
HETATM   11  C18 UNL     1       6.467  62.044  21.053  1.00  0.00     0.059 C 
HETATM   12  C19 UNL     1       5.017  61.916  21.406  1.00  0.00     0.049 C 
BRANCH  10  13
HETATM   13  C12 UNL     1       7.938  61.079  19.473  1.00  0.00     0.083 C 
HETATM   14  C13 UNL     1       7.754  62.421  18.798  1.00  0.00     0.025 C 
HETATM   15  C14 UNL     1       8.864  62.556  17.777  1.00  0.00     0.002 C 
HETATM   16  C15 UNL     1       8.978  61.381  16.867  1.00  0.00     0.000 C 
HETATM   17  C16 UNL     1       7.811  60.436  17.057  1.00  0.00     0.002 C 
HETATM   18  C17 UNL     1       7.764  59.940  18.495  1.00  0.00     0.025 C 
ENDBRANCH  10  13
ENDBRANCH   6   7
ENDBRANCH   5   6
ENDBRANCH   3   5
BRANCH   1  19
HETATM   19  C5  UNL     1       3.077  56.037  23.929  1.00  0.00     0.170 C 
HETATM   20  N1  UNL     1       2.761  55.847  22.579  1.00  0.00    -0.398 N 
HETATM   21  C4  UNL     1       2.205  54.577  22.189  1.00  0.00     0.148 C 
ATOM     22  H1  UNL     1       2.919  56.585  21.892  1.00  0.00     0.154 HD
HETATM   23  C22 UNL     1       1.848  53.757  23.401  1.00  0.00     0.149 C 
HETATM   24  C21 UNL     1       1.642  54.298  24.761  1.00  0.00     0.083 C 
HETATM   25  O2  UNL     1       1.711  52.559  23.264  1.00  0.00    -0.296 OA
HETATM   26  C20 UNL     1       1.832  55.811  24.778  1.00  0.00     0.042 C 
BRANCH  21  27
HETATM   27  C3  UNL     1       0.977  54.871  21.385  1.00  0.00     0.043 C 
BRANCH  27  28
HETATM   28  C2  UNL     1       0.834  54.279  20.041  1.00  0.00     0.076 C 
BRANCH  28  29
HETATM   29  S1  UNL     1       1.480  55.220  18.680  1.00  0.00    -0.173 SA
HETATM   30  C1  UNL     1       2.676  56.473  19.041  1.00  0.00     0.089 C 
ENDBRANCH  28  29
ENDBRANCH  27  28
ENDBRANCH  21  27
ENDBRANCH   1  19
TORSDOF 8
ENDMDL
MODEL 4
REMARK VINA RESULT: -7.084841384      5.663      7.172
REMARK  8 active torsions:
REMARK  status: ('A' for Active; 'I' for Inactive)
REMARK    1  A    between atoms: S1_2  and  C2_3 
REMARK    2  A    between atoms: C2_3  and  C3_4 
REMARK    3  A    between atoms: C3_4  and  C4_5 
REMARK    4  A    between atoms: C5_8  and  C6_9 
REMARK       I    between atoms: C6_9  and  N2_11 
REMARK    5  A    between atoms: N2_11  and  C7_13 
REMARK    6  A    between atoms: C7_13  and  C8_14 
REMARK    7  A    between atoms: C8_14  and  C9_15 
REMARK    8  A    between atoms: N3_18  and  C12_19 
ROOT
HETATM    1  C6  UNL     1       3.044  55.499  22.005  1.00  0.00     0.240 C 
HETATM    2  O1  UNL     1       4.242  55.413  21.671  1.00  0.00    -0.271 OA
HETATM    3  N2  UNL     1       2.691  56.164  23.204  1.00  0.00    -0.359 N 
ATOM      4  H2  UNL     1       1.714  56.237  23.490  1.00  0.00     0.162 HD
ENDROOT
BRANCH   3   5
HETATM    5  C7  UNL     1       3.740  56.740  24.019  1.00  0.00     0.123 C 
BRANCH   5   6
HETATM    6  C8  UNL     1       3.445  58.217  24.184  1.00  0.00     0.024 C 
BRANCH   6   7
HETATM    7  C9  UNL     1       3.907  58.964  22.943  1.00  0.00    -0.007 C 
HETATM    8  C10 UNL     1       4.166  60.385  23.339  1.00  0.00     0.025 C 
HETATM    9  C11 UNL     1       5.178  61.119  22.563  1.00  0.00     0.122 C 
HETATM   10  N3  UNL     1       5.591  60.556  21.327  1.00  0.00    -0.389 N 
HETATM   11  C18 UNL     1       5.584  59.153  21.220  1.00  0.00     0.059 C 
HETATM   12  C19 UNL     1       5.224  58.398  22.463  1.00  0.00     0.049 C 
BRANCH  10  13
HETATM   13  C12 UNL     1       6.702  61.171  20.704  1.00  0.00     0.083 C 
HETATM   14  C13 UNL     1       6.363  62.427  19.930  1.00  0.00     0.025 C 
HETATM   15  C14 UNL     1       7.676  63.063  19.524  1.00  0.00     0.002 C 
HETATM   16  C15 UNL     1       8.609  62.116  18.850  1.00  0.00     0.000 C 
HETATM   17  C16 UNL     1       7.921  60.802  18.548  1.00  0.00     0.002 C 
HETATM   18  C17 UNL     1       7.418  60.163  19.836  1.00  0.00     0.025 C 
ENDBRANCH  10  13
ENDBRANCH   6   7
ENDBRANCH   5   6
ENDBRANCH   3   5
BRANCH   1  19
HETATM   19  C5  UNL     1       2.004  54.898  21.132  1.00  0.00     0.170 C 
HETATM   20  N1  UNL     1       2.127  53.504  21.095  1.00  0.00    -0.398 N 
HETATM   21  C4  UNL     1       1.192  52.767  20.285  1.00  0.00     0.148 C 
ATOM     22  H1  UNL     1       2.856  53.025  21.624  1.00  0.00     0.154 HD
HETATM   23  C22 UNL     1       0.380  53.699  19.426  1.00  0.00     0.149 C 
HETATM   24  C21 UNL     1       0.760  55.086  19.085  1.00  0.00     0.083 C 
HETATM   25  O2  UNL     1      -0.667  53.293  18.966  1.00  0.00    -0.296 OA
HETATM   26  C20 UNL     1       2.098  55.453  19.716  1.00  0.00     0.042 C 
BRANCH  21  27
HETATM   27  C3  UNL     1       1.997  51.842  19.426  1.00  0.00     0.043 C 
BRANCH  27  28
HETATM   28  C2  UNL     1       2.559  50.612  20.015  1.00  0.00     0.076 C 
BRANCH  28  29
HETATM   29  S1  UNL     1       4.275  50.656  20.471  1.00  0.00    -0.173 SA
HETATM   30  C1  UNL     1       5.356  49.474  19.721  1.00  0.00     0.089 C 
ENDBRANCH  28  29
ENDBRANCH  27  28
ENDBRANCH  21  27
ENDBRANCH   1  19
TORSDOF 8
ENDMDL
MODEL 5
REMARK VINA RESULT: -7.079221968      2.336      3.433
REMARK  8 active torsions:
REMARK  status: ('A' for Active; 'I' for Inactive)
REMARK    1  A    between atoms: S1_2  and  C2_3 
REMARK    2  A    between atoms: C2_3  and  C3_4 
REMARK    3  A    between atoms: C3_4  and  C4_5 
REMARK    4  A    between atoms: C5_8  and  C6_9 
REMARK       I    between atoms: C6_9  and  N2_11 
REMARK    5  A    between atoms: N2_11  and  C7_13 
REMARK    6  A    between atoms: C7_13  and  C8_14 
REMARK    7  A    between atoms: C8_14  and  C9_15 
REMARK    8  A    between atoms: N3_18  and  C12_19 
ROOT
HETATM    1  C6  UNL     1       5.026  59.771  25.720  1.00  0.00     0.240 C 
HETATM    2  O1  UNL     1       5.677  58.833  25.218  1.00  0.00    -0.271 OA
HETATM    3  N2  UNL     1       3.835  60.217  25.097  1.00  0.00    -0.359 N 
ATOM      4  H2  UNL     1       3.297  60.986  25.497  1.00  0.00     0.162 HD
ENDROOT
BRANCH   3   5
HETATM    5  C7  UNL     1       3.395  59.564  23.882  1.00  0.00     0.123 C 
BRANCH   5   6
HETATM    6  C8  UNL     1       3.416  60.589  22.767  1.00  0.00     0.024 C 
BRANCH   6   7
HETATM    7  C9  UNL     1       4.853  60.829  22.333  1.00  0.00    -0.007 C 
HETATM    8  C10 UNL     1       5.351  59.570  21.694  1.00  0.00     0.025 C 
HETATM    9  C11 UNL     1       6.393  59.711  20.665  1.00  0.00     0.122 C 
HETATM   10  N3  UNL     1       7.068  60.957  20.583  1.00  0.00    -0.389 N 
HETATM   11  C18 UNL     1       6.342  62.110  20.933  1.00  0.00     0.059 C 
HETATM   12  C19 UNL     1       4.897  61.904  21.271  1.00  0.00     0.049 C 
BRANCH  10  13
HETATM   13  C12 UNL     1       7.916  61.132  19.465  1.00  0.00     0.083 C 
HETATM   14  C13 UNL     1       7.750  62.464  18.764  1.00  0.00     0.025 C 
HETATM   15  C14 UNL     1       8.868  62.568  17.747  1.00  0.00     0.002 C 
HETATM   16  C15 UNL     1       8.975  61.376  16.859  1.00  0.00     0.000 C 
HETATM   17  C16 UNL     1       7.797  60.446  17.059  1.00  0.00     0.002 C 
HETATM   18  C17 UNL     1       7.736  59.977  18.507  1.00  0.00     0.025 C 
ENDBRANCH  10  13
ENDBRANCH   6   7
ENDBRANCH   5   6
ENDBRANCH   3   5
BRANCH   1  19
HETATM   19  C5  UNL     1       5.515  60.404  26.971  1.00  0.00     0.170 C 
HETATM   20  N1  UNL     1       4.901  59.834  28.093  1.00  0.00    -0.398 N 
HETATM   21  C4  UNL     1       5.265  60.342  29.391  1.00  0.00     0.148 C 
ATOM     22  H1  UNL     1       4.218  59.083  27.995  1.00  0.00     0.154 HD
HETATM   23  C22 UNL     1       6.096  61.591  29.260  1.00  0.00     0.149 C 
HETATM   24  C21 UNL     1       6.156  62.449  28.058  1.00  0.00     0.083 C 
HETATM   25  O2  UNL     1       6.771  61.934  30.209  1.00  0.00    -0.296 OA
HETATM   26  C20 UNL     1       5.253  61.905  26.957  1.00  0.00     0.042 C 
BRANCH  21  27
HETATM   27  C3  UNL     1       3.988  60.645  30.111  1.00  0.00     0.043 C 
BRANCH  27  28
HETATM   28  C2  UNL     1       2.716  60.633  29.364  1.00  0.00     0.076 C 
BRANCH  28  29
HETATM   29  S1  UNL     1       2.009  62.213  28.964  1.00  0.00    -0.173 SA
HETATM   30  C1  UNL     1       1.216  62.384  27.392  1.00  0.00     0.089 C 
ENDBRANCH  28  29
ENDBRANCH  27  28
ENDBRANCH  21  27
ENDBRANCH   1  19
TORSDOF 8
ENDMDL
