MODEL 1
REMARK VINA RESULT: -7.289828646      0.000      0.000
REMARK  9 active torsions:
REMARK  status: ('A' for Active; 'I' for Inactive)
REMARK    1  A    between atoms: O1_1  and  C1_3 
REMARK    2  A    between atoms: C1_3  and  C2_4 
REMARK    3  A    between atoms: C1_3  and  C21_27 
REMARK    4  A    between atoms: C2_4  and  N1_5 
REMARK    5  A    between atoms: N1_5  and  C3_8 
REMARK    6  A    between atoms: C3_8  and  C4_9 
REMARK    7  A    between atoms: C4_9  and  C5_10 
REMARK    8  A    between atoms: N2_14  and  C9_15 
REMARK    9  A    between atoms: C21_27  and  N3_28 
ROOT
HETATM    1  C5  UNL     1       3.471  57.320  23.897  1.00  0.00     0.015 C 
HETATM    2  C6  UNL     1       4.924  56.848  24.088  1.00  0.00     0.008 C 
HETATM    3  C7  UNL     1       5.609  57.730  25.126  1.00  0.00     0.031 C 
HETATM    4  C8  UNL     1       5.497  59.184  24.739  1.00  0.00     0.273 C 
HETATM    5  N2  UNL     1       4.910  59.215  23.401  1.00  0.00     0.097 N 
HETATM    6  C20 UNL     1       3.520  58.778  23.626  1.00  0.00     0.278 C 
ENDROOT
BRANCH   1   7
HETATM    7  C4  UNL     1       2.730  56.858  25.082  1.00  0.00     0.034 C 
BRANCH   7   8
HETATM    8  C3  UNL     1       2.289  55.421  25.090  1.00  0.00     0.232 C 
BRANCH   8   9
HETATM    9  N1  UNL     1       1.838  55.140  23.742  1.00  0.00    -0.073 N 
ATOM     10  H12 UNL     1       2.527  55.458  23.060  1.00  0.00     0.277 HD
ATOM     11  H11 UNL     1       1.056  55.744  23.492  1.00  0.00     0.277 HD
BRANCH   9  12
HETATM   12  C2  UNL     1       1.502  53.756  23.512  1.00  0.00     0.265 C 
BRANCH  12  13
HETATM   13  C1  UNL     1       1.301  53.640  21.995  1.00  0.00     0.172 C 
BRANCH  13  14
HETATM   14  O1  UNL     1       2.170  52.640  21.522  1.00  0.00    -0.392 OA
ATOM     15  H1  UNL     1       3.037  53.021  21.447  1.00  0.00     0.210 HD
ENDBRANCH  13  14
BRANCH  13  16
HETATM   16  C21 UNL     1       1.545  54.932  21.276  1.00  0.00     0.305 C 
BRANCH  16  17
HETATM   17  N3  UNL     1       2.628  54.876  20.315  1.00  0.00     0.090 N 
HETATM   18  C22 UNL     1       3.816  55.571  20.755  1.00  0.00     0.272 C 
HETATM   19  C23 UNL     1       3.861  56.872  20.022  1.00  0.00     0.032 C 
HETATM   20  C24 UNL     1       2.663  56.871  19.134  1.00  0.00     0.032 C 
HETATM   21  C25 UNL     1       2.260  55.438  19.048  1.00  0.00     0.272 C 
ENDBRANCH  16  17
ENDBRANCH  13  16
ENDBRANCH  12  13
ENDBRANCH   9  12
ENDBRANCH   8   9
ENDBRANCH   7   8
ENDBRANCH   1   7
BRANCH   5  22
HETATM   22  C9  UNL     1       4.910  60.491  22.796  1.00  0.00     0.256 C 
HETATM   23  C10 UNL     1       3.519  60.890  22.347  1.00  0.00     0.041 C 
HETATM   24  C11 UNL     1       3.572  61.781  21.124  1.00  0.00     0.003 C 
HETATM   25  C12 UNL     1       4.063  63.175  21.411  1.00  0.00     0.005 C 
HETATM   26  C13 UNL     1       5.599  63.210  21.431  1.00  0.00     0.039 C 
HETATM   27  C14 UNL     1       6.114  61.840  21.040  1.00  0.00    -0.050 A 
HETATM   28  C15 UNL     1       6.963  61.901  19.962  1.00  0.00     0.007 A 
HETATM   29  C19 UNL     1       5.810  60.631  21.629  1.00  0.00    -0.019 A 
HETATM   30  C16 UNL     1       7.527  60.746  19.449  1.00  0.00     0.001 A 
HETATM   31  C17 UNL     1       7.207  59.541  20.058  1.00  0.00     0.001 A 
HETATM   32  C18 UNL     1       6.356  59.483  21.137  1.00  0.00     0.010 A 
ENDBRANCH   5  22
TORSDOF 9
ENDMDL
MODEL 2
REMARK VINA RESULT: -7.159293486      3.114      5.414
REMARK  9 active torsions:
REMARK  status: ('A' for Active; 'I' for Inactive)
REMARK    1  A    between atoms: O1_1  and  C1_3 
REMARK    2  A    between atoms: C1_3  and  C2_4 
REMARK    3  A    between atoms: C1_3  and  C21_27 
REMARK    4  A    between atoms: C2_4  and  N1_5 
REMARK    5  A    between atoms: N1_5  and  C3_8 
REMARK    6  A    between atoms: C3_8  and  C4_9 
REMARK    7  A    between atoms: C4_9  and  C5_10 
REMARK    8  A    between atoms: N2_14  and  C9_15 
REMARK    9  A    between atoms: C21_27  and  N3_28 
ROOT
HETATM    1  C5  UNL     1       3.709  60.545  21.888  1.00  0.00     0.015 C 
HETATM    2  C6  UNL     1       3.831  61.956  21.287  1.00  0.00     0.008 C 
HETATM    3  C7  UNL     1       5.294  62.381  21.288  1.00  0.00     0.031 C 
HETATM    4  C8  UNL     1       5.874  62.269  22.677  1.00  0.00     0.273 C 
HETATM    5  N2  UNL     1       4.761  61.950  23.569  1.00  0.00     0.097 N 
HETATM    6  C20 UNL     1       4.409  60.567  23.196  1.00  0.00     0.278 C 
ENDROOT
BRANCH   1   7
HETATM    7  C4  UNL     1       4.195  59.614  20.856  1.00  0.00     0.034 C 
BRANCH   7   8
HETATM    8  C3  UNL     1       5.127  58.526  21.308  1.00  0.00     0.232 C 
BRANCH   8   9
HETATM    9  N1  UNL     1       4.619  57.302  20.721  1.00  0.00    -0.073 N 
ATOM     10  H12 UNL     1       4.324  56.651  21.449  1.00  0.00     0.277 HD
ATOM     11  H11 UNL     1       5.377  56.763  20.304  1.00  0.00     0.277 HD
BRANCH   9  12
HETATM   12  C2  UNL     1       3.558  57.506  19.765  1.00  0.00     0.265 C 
BRANCH  12  13
HETATM   13  C1  UNL     1       3.456  56.184  18.993  1.00  0.00     0.172 C 
BRANCH  13  14
HETATM   14  O1  UNL     1       4.255  56.297  17.840  1.00  0.00    -0.392 OA
ATOM     15  H1  UNL     1       5.157  56.389  18.121  1.00  0.00     0.210 HD
ENDBRANCH  13  14
BRANCH  13  16
HETATM   16  C21 UNL     1       2.046  55.834  18.624  1.00  0.00     0.305 C 
BRANCH  16  17
HETATM   17  N3  UNL     1       1.618  54.534  19.099  1.00  0.00     0.090 N 
HETATM   18  C22 UNL     1       0.185  54.425  19.249  1.00  0.00     0.272 C 
HETATM   19  C23 UNL     1      -0.113  54.534  20.709  1.00  0.00     0.032 C 
HETATM   20  C24 UNL     1       1.212  54.683  21.377  1.00  0.00     0.032 C 
HETATM   21  C25 UNL     1       2.198  54.200  20.368  1.00  0.00     0.272 C 
ENDBRANCH  16  17
ENDBRANCH  13  16
ENDBRANCH  12  13
ENDBRANCH   9  12
ENDBRANCH   8   9
ENDBRANCH   7   8
ENDBRANCH   1   7
BRANCH   5  22
HETATM   22  C9  UNL     1       5.085  61.999  24.942  1.00  0.00     0.256 C 
HETATM   23  C10 UNL     1       4.988  60.629  25.583  1.00  0.00     0.041 C 
HETATM   24  C11 UNL     1       4.588  60.731  27.039  1.00  0.00     0.003 C 
HETATM   25  C12 UNL     1       5.681  61.258  27.932  1.00  0.00     0.005 C 
HETATM   26  C13 UNL     1       5.713  62.793  27.893  1.00  0.00     0.039 C 
HETATM   27  C14 UNL     1       4.550  63.275  27.049  1.00  0.00    -0.050 A 
HETATM   28  C15 UNL     1       3.744  64.146  27.740  1.00  0.00     0.007 A 
HETATM   29  C19 UNL     1       4.258  62.925  25.748  1.00  0.00    -0.019 A 
HETATM   30  C16 UNL     1       2.620  64.686  27.138  1.00  0.00     0.001 A 
HETATM   31  C17 UNL     1       2.345  64.319  25.829  1.00  0.00     0.001 A 
HETATM   32  C18 UNL     1       3.155  63.447  25.140  1.00  0.00     0.010 A 
ENDBRANCH   5  22
TORSDOF 9
ENDMDL
MODEL 3
REMARK VINA RESULT: -7.120188860      3.406      5.647
REMARK  9 active torsions:
REMARK  status: ('A' for Active; 'I' for Inactive)
REMARK    1  A    between atoms: O1_1  and  C1_3 
REMARK    2  A    between atoms: C1_3  and  C2_4 
REMARK    3  A    between atoms: C1_3  and  C21_27 
REMARK    4  A    between atoms: C2_4  and  N1_5 
REMARK    5  A    between atoms: N1_5  and  C3_8 
REMARK    6  A    between atoms: C3_8  and  C4_9 
REMARK    7  A    between atoms: C4_9  and  C5_10 
REMARK    8  A    between atoms: N2_14  and  C9_15 
REMARK    9  A    between atoms: C21_27  and  N3_28 
ROOT
HETATM    1  C5  UNL     1       3.816  60.827  21.672  1.00  0.00     0.015 C 
HETATM    2  C6  UNL     1       4.590  62.150  21.811  1.00  0.00     0.008 C 
HETATM    3  C7  UNL     1       5.621  62.017  22.926  1.00  0.00     0.031 C 
HETATM    4  C8  UNL     1       4.958  61.573  24.207  1.00  0.00     0.273 C 
HETATM    5  N2  UNL     1       3.518  61.593  23.960  1.00  0.00     0.097 N 
HETATM    6  C20 UNL     1       3.315  60.472  23.023  1.00  0.00     0.278 C 
ENDROOT
BRANCH   1   7
HETATM    7  C4  UNL     1       4.726  59.885  21.000  1.00  0.00     0.034 C 
BRANCH   7   8
HETATM    8  C3  UNL     1       5.083  58.633  21.750  1.00  0.00     0.232 C 
BRANCH   8   9
HETATM    9  N1  UNL     1       4.860  57.541  20.823  1.00  0.00    -0.073 N 
ATOM     10  H12 UNL     1       4.627  56.686  21.326  1.00  0.00     0.277 HD
ATOM     11  H11 UNL     1       5.738  57.254  20.390  1.00  0.00     0.277 HD
BRANCH   9  12
HETATM   12  C2  UNL     1       3.867  57.821  19.814  1.00  0.00     0.265 C 
BRANCH  12  13
HETATM   13  C1  UNL     1       3.606  56.475  19.126  1.00  0.00     0.172 C 
BRANCH  13  14
HETATM   14  O1  UNL     1       4.314  56.469  17.910  1.00  0.00    -0.392 OA
ATOM     15  H1  UNL     1       4.183  55.622  17.502  1.00  0.00     0.210 HD
ENDBRANCH  13  14
BRANCH  13  16
HETATM   16  C21 UNL     1       2.149  56.217  18.887  1.00  0.00     0.305 C 
BRANCH  16  17
HETATM   17  N3  UNL     1       1.737  54.857  19.171  1.00  0.00     0.090 N 
HETATM   18  C22 UNL     1       0.303  54.704  19.261  1.00  0.00     0.272 C 
HETATM   19  C23 UNL     1      -0.039  54.611  20.713  1.00  0.00     0.032 C 
HETATM   20  C24 UNL     1       1.263  54.694  21.436  1.00  0.00     0.032 C 
HETATM   21  C25 UNL     1       2.288  54.368  20.402  1.00  0.00     0.272 C 
ENDBRANCH  16  17
ENDBRANCH  13  16
ENDBRANCH  12  13
ENDBRANCH   9  12
ENDBRANCH   8   9
ENDBRANCH   7   8
ENDBRANCH   1   7
BRANCH   5  22
HETATM   22  C9  UNL     1       2.728  61.393  25.112  1.00  0.00     0.256 C 
HETATM   23  C10 UNL     1       1.470  60.612  24.791  1.00  0.00     0.041 C 
HETATM   24  C11 UNL     1       0.330  61.007  25.706  1.00  0.00     0.003 C 
HETATM   25  C12 UNL     1       0.485  60.505  27.117  1.00  0.00     0.005 C 
HETATM   26  C13 UNL     1       1.387  61.449  27.928  1.00  0.00     0.039 C 
HETATM   27  C14 UNL     1       1.732  62.643  27.061  1.00  0.00    -0.050 A 
HETATM   28  C15 UNL     1       1.378  63.827  27.658  1.00  0.00     0.007 A 
HETATM   29  C19 UNL     1       2.316  62.630  25.812  1.00  0.00    -0.019 A 
HETATM   30  C16 UNL     1       1.604  65.031  27.013  1.00  0.00     0.001 A 
HETATM   31  C17 UNL     1       2.192  64.994  25.758  1.00  0.00     0.001 A 
HETATM   32  C18 UNL     1       2.545  63.806  25.161  1.00  0.00     0.010 A 
ENDBRANCH   5  22
TORSDOF 9
ENDMDL
MODEL 4
REMARK VINA RESULT: -7.070302151      1.478      2.040
REMARK  9 active torsions:
REMARK  status: ('A' for Active; 'I' for Inactive)
REMARK    1  A    between atoms: O1_1  and  C1_3 
REMARK    2  A    between atoms: C1_3  and  C2_4 
REMARK    3  A    between atoms: C1_3  and  C21_27 
REMARK    4  A    between atoms: C2_4  and  N1_5 
REMARK    5  A    between atoms: N1_5  and  C3_8 
REMARK    6  A    between atoms: C3_8  and  C4_9 
REMARK    7  A    between atoms: C4_9  and  C5_10 
REMARK    8  A    between atoms: N2_14  and  C9_15 
REMARK    9  A    between atoms: C21_27  and  N3_28 
ROOT
HETATM    1  C5  UNL     1       3.738  57.242  23.484  1.00  0.00     0.015 C 
HETATM    2  C6  UNL     1       5.167  56.914  23.951  1.00  0.00     0.008 C 
HETATM    3  C7  UNL     1       5.542  57.830  25.110  1.00  0.00     0.031 C 
HETATM    4  C8  UNL     1       5.356  59.276  24.720  1.00  0.00     0.273 C 
HETATM    5  N2  UNL     1       5.040  59.286  23.294  1.00  0.00     0.097 N 
HETATM    6  C20 UNL     1       3.685  58.705  23.239  1.00  0.00     0.278 C 
ENDROOT
BRANCH   1   7
HETATM    7  C4  UNL     1       2.833  56.675  24.497  1.00  0.00     0.034 C 
BRANCH   7   8
HETATM    8  C3  UNL     1       2.281  55.304  24.223  1.00  0.00     0.232 C 
BRANCH   8   9
HETATM    9  N1  UNL     1       2.273  55.163  22.781  1.00  0.00    -0.073 N 
ATOM     10  H12 UNL     1       3.136  55.531  22.380  1.00  0.00     0.277 HD
ATOM     11  H11 UNL     1       1.601  55.806  22.362  1.00  0.00     0.277 HD
BRANCH   9  12
HETATM   12  C2  UNL     1       2.037  53.815  22.324  1.00  0.00     0.265 C 
BRANCH  12  13
HETATM   13  C1  UNL     1       2.638  53.761  20.913  1.00  0.00     0.172 C 
BRANCH  13  14
HETATM   14  O1  UNL     1       3.911  54.358  20.965  1.00  0.00    -0.392 OA
ATOM     15  H1  UNL     1       4.452  53.944  20.304  1.00  0.00     0.210 HD
ENDBRANCH  13  14
BRANCH  13  16
HETATM   16  C21 UNL     1       1.780  54.440  19.889  1.00  0.00     0.305 C 
BRANCH  16  17
HETATM   17  N3  UNL     1       1.492  53.624  18.727  1.00  0.00     0.090 N 
HETATM   18  C22 UNL     1       0.486  54.199  17.863  1.00  0.00     0.272 C 
HETATM   19  C23 UNL     1      -0.785  53.456  18.114  1.00  0.00     0.032 C 
HETATM   20  C24 UNL     1      -0.449  52.424  19.137  1.00  0.00     0.032 C 
HETATM   21  C25 UNL     1       1.037  52.312  19.083  1.00  0.00     0.272 C 
ENDBRANCH  16  17
ENDBRANCH  13  16
ENDBRANCH  12  13
ENDBRANCH   9  12
ENDBRANCH   8   9
ENDBRANCH   7   8
ENDBRANCH   1   7
BRANCH   5  22
HETATM   22  C9  UNL     1       5.023  60.572  22.711  1.00  0.00     0.256 C 
HETATM   23  C10 UNL     1       3.625  60.970  22.288  1.00  0.00     0.041 C 
HETATM   24  C11 UNL     1       3.655  61.882  21.079  1.00  0.00     0.003 C 
HETATM   25  C12 UNL     1       4.142  63.274  21.383  1.00  0.00     0.005 C 
HETATM   26  C13 UNL     1       5.678  63.318  21.383  1.00  0.00     0.039 C 
HETATM   27  C14 UNL     1       6.195  61.957  20.962  1.00  0.00    -0.050 A 
HETATM   28  C15 UNL     1       7.029  62.042  19.874  1.00  0.00     0.007 A 
HETATM   29  C19 UNL     1       5.907  60.737  21.535  1.00  0.00    -0.019 A 
HETATM   30  C16 UNL     1       7.593  60.899  19.334  1.00  0.00     0.001 A 
HETATM   31  C17 UNL     1       7.289  59.683  19.926  1.00  0.00     0.001 A 
HETATM   32  C18 UNL     1       6.453  59.601  21.015  1.00  0.00     0.010 A 
ENDBRANCH   5  22
TORSDOF 9
ENDMDL
MODEL 5
REMARK VINA RESULT: -7.037668625      4.469      7.552
REMARK  9 active torsions:
REMARK  status: ('A' for Active; 'I' for Inactive)
REMARK    1  A    between atoms: O1_1  and  C1_3 
REMARK    2  A    between atoms: C1_3  and  C2_4 
REMARK    3  A    between atoms: C1_3  and  C21_27 
REMARK    4  A    between atoms: C2_4  and  N1_5 
REMARK    5  A    between atoms: N1_5  and  C3_8 
REMARK    6  A    between atoms: C3_8  and  C4_9 
REMARK    7  A    between atoms: C4_9  and  C5_10 
REMARK    8  A    between atoms: N2_14  and  C9_15 
REMARK    9  A    between atoms: C21_27  and  N3_28 
ROOT
HETATM    1  C5  UNL     1       5.548  61.420  22.800  1.00  0.00     0.015 C 
HETATM    2  C6  UNL     1       4.728  60.237  22.255  1.00  0.00     0.008 C 
HETATM    3  C7  UNL     1       3.285  60.363  22.727  1.00  0.00     0.031 C 
HETATM    4  C8  UNL     1       3.230  60.487  24.230  1.00  0.00     0.273 C 
HETATM    5  N2  UNL     1       4.591  60.270  24.716  1.00  0.00     0.097 N 
HETATM    6  C20 UNL     1       5.313  61.474  24.264  1.00  0.00     0.278 C 
ENDROOT
BRANCH   1   7
HETATM    7  C4  UNL     1       5.168  62.591  21.993  1.00  0.00     0.034 C 
BRANCH   7   8
HETATM    8  C3  UNL     1       5.512  62.548  20.530  1.00  0.00     0.232 C 
BRANCH   8   9
HETATM    9  N1  UNL     1       6.942  62.324  20.468  1.00  0.00    -0.073 N 
ATOM     10  H12 UNL     1       7.143  61.341  20.284  1.00  0.00     0.277 HD
ATOM     11  H11 UNL     1       7.360  62.415  21.394  1.00  0.00     0.277 HD
BRANCH   9  12
HETATM   12  C2  UNL     1       7.628  63.167  19.519  1.00  0.00     0.265 C 
BRANCH  12  13
HETATM   13  C1  UNL     1       8.589  62.231  18.775  1.00  0.00     0.172 C 
BRANCH  13  14
HETATM   14  O1  UNL     1       9.192  62.969  17.740  1.00  0.00    -0.392 OA
ATOM     15  H1  UNL     1       8.541  63.100  17.061  1.00  0.00     0.210 HD
ENDBRANCH  13  14
BRANCH  13  16
HETATM   16  C21 UNL     1       7.907  61.014  18.226  1.00  0.00     0.305 C 
BRANCH  16  17
HETATM   17  N3  UNL     1       8.283  60.694  16.863  1.00  0.00     0.090 N 
HETATM   18  C22 UNL     1       7.222  60.928  15.910  1.00  0.00     0.272 C 
HETATM   19  C23 UNL     1       6.639  59.596  15.565  1.00  0.00     0.032 C 
HETATM   20  C24 UNL     1       7.431  58.600  16.343  1.00  0.00     0.032 C 
HETATM   21  C25 UNL     1       8.680  59.323  16.717  1.00  0.00     0.272 C 
ENDBRANCH  16  17
ENDBRANCH  13  16
ENDBRANCH  12  13
ENDBRANCH   9  12
ENDBRANCH   8   9
ENDBRANCH   7   8
ENDBRANCH   1   7
BRANCH   5  22
HETATM   22  C9  UNL     1       4.696  60.157  26.119  1.00  0.00     0.256 C 
HETATM   23  C10 UNL     1       5.377  61.368  26.722  1.00  0.00     0.041 C 
HETATM   24  C11 UNL     1       6.148  60.998  27.972  1.00  0.00     0.003 C 
HETATM   25  C12 UNL     1       5.270  60.691  29.156  1.00  0.00     0.005 C 
HETATM   26  C13 UNL     1       4.781  59.236  29.098  1.00  0.00     0.039 C 
HETATM   27  C14 UNL     1       5.441  58.555  27.917  1.00  0.00    -0.050 A 
HETATM   28  C15 UNL     1       6.126  57.427  28.295  1.00  0.00     0.007 A 
HETATM   29  C19 UNL     1       5.418  58.956  26.598  1.00  0.00    -0.019 A 
HETATM   30  C16 UNL     1       6.807  56.673  27.354  1.00  0.00     0.001 A 
HETATM   31  C17 UNL     1       6.771  57.097  26.034  1.00  0.00     0.001 A 
HETATM   32  C18 UNL     1       6.084  58.227  25.658  1.00  0.00     0.010 A 
ENDBRANCH   5  22
TORSDOF 9
ENDMDL
