MODEL 1
REMARK VINA RESULT: -9.137508929      0.000      0.000
REMARK  10 active torsions:
REMARK  status: ('A' for Active; 'I' for Inactive)
REMARK    1  A    between atoms: C3_4  and  O2_5 
REMARK    2  A    between atoms: O2_5  and  C4_6 
REMARK    3  A    between atoms: C7_9  and  C8_10 
REMARK    4  A    between atoms: C9_11  and  C10_12 
REMARK    5  A    between atoms: C9_11  and  C21_23 
REMARK    6  A    between atoms: C10_12  and  C11_13 
REMARK    7  A    between atoms: C12_14  and  C13_15 
REMARK    8  A    between atoms: C14_16  and  C15_17 
REMARK    9  A    between atoms: C25_29  and  O5_30 
REMARK   10  A    between atoms: C26_32  and  O6_33 
ROOT
HETATM    1  C4  UNL     1      16.575  -4.988  -9.106  1.00  0.00     0.072 A 
HETATM    2  C5  UNL     1      16.598  -6.063  -9.960  1.00  0.00     0.037 A 
HETATM    3  C6  UNL     1      16.220  -7.328  -9.538  1.00  0.00     0.014 A 
HETATM    4  C7  UNL     1      15.797  -7.559  -8.221  1.00  0.00    -0.035 A 
HETATM    5  C22 UNL     1      15.777  -6.471  -7.375  1.00  0.00     0.014 A 
HETATM    6  C23 UNL     1      16.151  -5.212  -7.787  1.00  0.00     0.037 A 
ENDROOT
BRANCH   4   7
HETATM    7  C8  UNL     1      15.359  -8.891  -7.873  1.00  0.00     0.025 C 
HETATM    8  C9  UNL     1      15.646  -9.554  -6.799  1.00  0.00     0.022 C 
BRANCH   8   9
HETATM    9  C10 UNL     1      15.049 -10.955  -6.656  1.00  0.00     0.072 C 
BRANCH   9  10
HETATM   10  C11 UNL     1      15.341 -11.762  -7.825  1.00  0.00    -0.022 C 
HETATM   11  C12 UNL     1      14.438 -12.351  -8.583  1.00  0.00    -0.004 C 
BRANCH  11  12
HETATM   12  C13 UNL     1      13.044 -12.252  -8.324  1.00  0.00     0.001 C 
HETATM   13  C14 UNL     1      12.103 -11.723  -9.027  1.00  0.00     0.011 C 
BRANCH  13  14
HETATM   14  C15 UNL     1      12.031 -11.055 -10.286  1.00  0.00    -0.036 A 
HETATM   15  C16 UNL     1      12.443  -9.794 -10.565  1.00  0.00     0.011 A 
HETATM   16  C17 UNL     1      12.294  -9.168 -11.816  1.00  0.00     0.001 A 
HETATM   17  C18 UNL     1      11.701  -9.852 -12.835  1.00  0.00     0.000 A 
HETATM   18  C19 UNL     1      11.275 -11.135 -12.581  1.00  0.00     0.001 A 
HETATM   19  C20 UNL     1      11.422 -11.741 -11.360  1.00  0.00     0.011 A 
ENDBRANCH  13  14
ENDBRANCH  11  12
ENDBRANCH   9  10
ENDBRANCH   8   9
BRANCH   8  20
HETATM   20  C21 UNL     1      16.541  -9.144  -5.766  1.00  0.00     0.205 C 
HETATM   21  O3  UNL     1      17.776  -9.541  -5.756  1.00  0.00    -0.644 OA
HETATM   22  O4  UNL     1      16.263  -8.313  -4.687  1.00  0.00    -0.644 OA
ENDBRANCH   8  20
ENDBRANCH   4   7
BRANCH   1  23
HETATM   23  O2  UNL     1      16.948  -3.725  -9.515  1.00  0.00    -0.320 OA
BRANCH  23  24
HETATM   24  C3  UNL     1      18.235  -3.234  -9.623  1.00  0.00     0.269 C 
HETATM   25  O1  UNL     1      19.209  -4.219  -9.312  1.00  0.00    -0.353 OA
HETATM   26  C2  UNL     1      20.416  -3.515  -9.157  1.00  0.00     0.151 C 
HETATM   27  C1  UNL     1      21.561  -4.412  -8.798  1.00  0.00     0.042 C 
HETATM   28  C26 UNL     1      20.751  -2.745 -10.422  1.00  0.00     0.175 C 
HETATM   29  C25 UNL     1      19.803  -3.214 -11.493  1.00  0.00     0.154 C 
HETATM   30  C24 UNL     1      18.411  -2.787 -11.083  1.00  0.00     0.095 C 
BRANCH  28  31
HETATM   31  O6  UNL     1      22.087  -2.968 -10.785  1.00  0.00    -0.390 OA
ATOM     32  H6  UNL     1      22.332  -2.397 -11.505  1.00  0.00     0.210 HD
ENDBRANCH  28  31
BRANCH  29  33
HETATM   33  O5  UNL     1      20.136  -2.748 -12.758  1.00  0.00    -0.393 OA
ATOM     34  H5  UNL     1      21.006  -3.023 -13.019  1.00  0.00     0.210 HD
ENDBRANCH  29  33
ENDBRANCH  23  24
ENDBRANCH   1  23
TORSDOF 10
ENDMDL
MODEL 2
REMARK VINA RESULT: -9.106533737      1.298      1.851
REMARK  10 active torsions:
REMARK  status: ('A' for Active; 'I' for Inactive)
REMARK    1  A    between atoms: C3_4  and  O2_5 
REMARK    2  A    between atoms: O2_5  and  C4_6 
REMARK    3  A    between atoms: C7_9  and  C8_10 
REMARK    4  A    between atoms: C9_11  and  C10_12 
REMARK    5  A    between atoms: C9_11  and  C21_23 
REMARK    6  A    between atoms: C10_12  and  C11_13 
REMARK    7  A    between atoms: C12_14  and  C13_15 
REMARK    8  A    between atoms: C14_16  and  C15_17 
REMARK    9  A    between atoms: C25_29  and  O5_30 
REMARK   10  A    between atoms: C26_32  and  O6_33 
ROOT
HETATM    1  C4  UNL     1      15.823  -5.453  -8.459  1.00  0.00     0.072 A 
HETATM    2  C5  UNL     1      15.958  -6.413  -9.432  1.00  0.00     0.037 A 
HETATM    3  C6  UNL     1      15.849  -7.762  -9.135  1.00  0.00     0.014 A 
HETATM    4  C7  UNL     1      15.595  -8.200  -7.828  1.00  0.00    -0.035 A 
HETATM    5  C22 UNL     1      15.460  -7.227  -6.861  1.00  0.00     0.014 A 
HETATM    6  C23 UNL     1      15.568  -5.885  -7.148  1.00  0.00     0.037 A 
ENDROOT
BRANCH   4   7
HETATM    7  C8  UNL     1      15.431  -9.619  -7.608  1.00  0.00     0.025 C 
HETATM    8  C9  UNL     1      15.843 -10.306  -6.591  1.00  0.00     0.022 C 
BRANCH   8   9
HETATM    9  C10 UNL     1      15.538 -11.806  -6.584  1.00  0.00     0.072 C 
BRANCH   9  10
HETATM   10  C11 UNL     1      15.604 -12.350  -7.926  1.00  0.00    -0.022 C 
HETATM   11  C12 UNL     1      14.562 -12.593  -8.696  1.00  0.00    -0.004 C 
BRANCH  11  12
HETATM   12  C13 UNL     1      13.229 -12.336  -8.277  1.00  0.00     0.001 C 
HETATM   13  C14 UNL     1      12.268 -11.732  -8.885  1.00  0.00     0.011 C 
BRANCH  13  14
HETATM   14  C15 UNL     1      12.110 -11.100 -10.155  1.00  0.00    -0.036 A 
HETATM   15  C16 UNL     1      12.469  -9.836 -10.488  1.00  0.00     0.011 A 
HETATM   16  C17 UNL     1      12.236  -9.249 -11.745  1.00  0.00     0.001 A 
HETATM   17  C18 UNL     1      11.611  -9.976 -12.712  1.00  0.00     0.000 A 
HETATM   18  C19 UNL     1      11.236 -11.264 -12.404  1.00  0.00     0.001 A 
HETATM   19  C20 UNL     1      11.465 -11.832 -11.177  1.00  0.00     0.011 A 
ENDBRANCH  13  14
ENDBRANCH  11  12
ENDBRANCH   9  10
ENDBRANCH   8   9
BRANCH   8  20
HETATM   20  C21 UNL     1      16.636  -9.821  -5.508  1.00  0.00     0.205 C 
HETATM   21  O3  UNL     1      16.108  -9.593  -4.345  1.00  0.00    -0.644 OA
HETATM   22  O4  UNL     1      17.997  -9.540  -5.514  1.00  0.00    -0.644 OA
ENDBRANCH   8  20
ENDBRANCH   4   7
BRANCH   1  23
HETATM   23  O2  UNL     1      15.930  -4.109  -8.743  1.00  0.00    -0.320 OA
BRANCH  23  24
HETATM   24  C3  UNL     1      17.094  -3.392  -8.947  1.00  0.00     0.269 C 
HETATM   25  O1  UNL     1      17.566  -3.515 -10.280  1.00  0.00    -0.353 OA
HETATM   26  C2  UNL     1      18.880  -3.014 -10.258  1.00  0.00     0.151 C 
HETATM   27  C1  UNL     1      19.547  -3.091 -11.598  1.00  0.00     0.042 C 
HETATM   28  C26 UNL     1      18.896  -1.578  -9.765  1.00  0.00     0.175 C 
HETATM   29  C25 UNL     1      17.467  -1.107  -9.720  1.00  0.00     0.154 C 
HETATM   30  C24 UNL     1      16.757  -1.920  -8.660  1.00  0.00     0.095 C 
BRANCH  28  31
HETATM   31  O6  UNL     1      19.672  -0.781 -10.619  1.00  0.00    -0.390 OA
ATOM     32  H6  UNL     1      19.111  -0.266 -11.187  1.00  0.00     0.210 HD
ENDBRANCH  28  31
BRANCH  29  33
HETATM   33  O5  UNL     1      17.349   0.257  -9.490  1.00  0.00    -0.393 OA
ATOM     34  H5  UNL     1      18.064   0.590  -8.960  1.00  0.00     0.210 HD
ENDBRANCH  29  33
ENDBRANCH  23  24
ENDBRANCH   1  23
TORSDOF 10
ENDMDL
MODEL 3
REMARK VINA RESULT: -9.078262653      1.251      1.914
REMARK  10 active torsions:
REMARK  status: ('A' for Active; 'I' for Inactive)
REMARK    1  A    between atoms: C3_4  and  O2_5 
REMARK    2  A    between atoms: O2_5  and  C4_6 
REMARK    3  A    between atoms: C7_9  and  C8_10 
REMARK    4  A    between atoms: C9_11  and  C10_12 
REMARK    5  A    between atoms: C9_11  and  C21_23 
REMARK    6  A    between atoms: C10_12  and  C11_13 
REMARK    7  A    between atoms: C12_14  and  C13_15 
REMARK    8  A    between atoms: C14_16  and  C15_17 
REMARK    9  A    between atoms: C25_29  and  O5_30 
REMARK   10  A    between atoms: C26_32  and  O6_33 
ROOT
HETATM    1  C4  UNL     1      16.037  -5.521  -8.622  1.00  0.00     0.072 A 
HETATM    2  C5  UNL     1      16.157  -6.535  -9.541  1.00  0.00     0.037 A 
HETATM    3  C6  UNL     1      15.911  -7.854  -9.195  1.00  0.00     0.014 A 
HETATM    4  C7  UNL     1      15.529  -8.206  -7.892  1.00  0.00    -0.035 A 
HETATM    5  C22 UNL     1      15.411  -7.179  -6.981  1.00  0.00     0.014 A 
HETATM    6  C23 UNL     1      15.654  -5.866  -7.317  1.00  0.00     0.037 A 
ENDROOT
BRANCH   4   7
HETATM    7  C8  UNL     1      15.229  -9.593  -7.625  1.00  0.00     0.025 C 
HETATM    8  C9  UNL     1      15.597 -10.290  -6.598  1.00  0.00     0.022 C 
BRANCH   8   9
HETATM    9  C10 UNL     1      15.142 -11.750  -6.537  1.00  0.00     0.072 C 
BRANCH   9  10
HETATM   10  C11 UNL     1      15.280 -12.386  -7.833  1.00  0.00    -0.022 C 
HETATM   11  C12 UNL     1      14.283 -12.664  -8.649  1.00  0.00    -0.004 C 
BRANCH  11  12
HETATM   12  C13 UNL     1      12.931 -12.358  -8.333  1.00  0.00     0.001 C 
HETATM   13  C14 UNL     1      12.052 -11.694  -8.998  1.00  0.00     0.011 C 
BRANCH  13  14
HETATM   14  C15 UNL     1      12.028 -11.019 -10.256  1.00  0.00    -0.036 A 
HETATM   15  C16 UNL     1      12.496  -9.776 -10.525  1.00  0.00     0.011 A 
HETATM   16  C17 UNL     1      12.395  -9.142 -11.776  1.00  0.00     0.001 A 
HETATM   17  C18 UNL     1      11.789  -9.798 -12.806  1.00  0.00     0.000 A 
HETATM   18  C19 UNL     1      11.306 -11.062 -12.563  1.00  0.00     0.001 A 
HETATM   19  C20 UNL     1      11.407 -11.677 -11.342  1.00  0.00     0.011 A 
ENDBRANCH  13  14
ENDBRANCH  11  12
ENDBRANCH   9  10
ENDBRANCH   8   9
BRANCH   8  20
HETATM   20  C21 UNL     1      16.463  -9.857  -5.549  1.00  0.00     0.205 C 
HETATM   21  O3  UNL     1      16.007  -9.643  -4.353  1.00  0.00    -0.644 OA
HETATM   22  O4  UNL     1      17.829  -9.618  -5.625  1.00  0.00    -0.644 OA
ENDBRANCH   8  20
ENDBRANCH   4   7
BRANCH   1  23
HETATM   23  O2  UNL     1      16.278  -4.205  -8.954  1.00  0.00    -0.320 OA
BRANCH  23  24
HETATM   24  C3  UNL     1      17.432  -3.687  -9.510  1.00  0.00     0.269 C 
HETATM   25  O1  UNL     1      17.274  -2.328  -9.892  1.00  0.00    -0.353 OA
HETATM   26  C2  UNL     1      18.383  -2.038 -10.706  1.00  0.00     0.151 C 
HETATM   27  C1  UNL     1      18.363  -0.632 -11.224  1.00  0.00     0.042 C 
HETATM   28  C26 UNL     1      19.678  -2.284  -9.952  1.00  0.00     0.175 C 
HETATM   29  C25 UNL     1      19.316  -2.503  -8.508  1.00  0.00     0.154 C 
HETATM   30  C24 UNL     1      18.522  -3.788  -8.431  1.00  0.00     0.095 C 
BRANCH  28  31
HETATM   31  O6  UNL     1      20.542  -1.190 -10.104  1.00  0.00    -0.390 OA
ATOM     32  H6  UNL     1      20.052  -0.376 -10.068  1.00  0.00     0.210 HD
ENDBRANCH  28  31
BRANCH  29  33
HETATM   33  O5  UNL     1      20.421  -2.528  -7.666  1.00  0.00    -0.393 OA
ATOM     34  H5  UNL     1      20.185  -2.775  -6.780  1.00  0.00     0.210 HD
ENDBRANCH  29  33
ENDBRANCH  23  24
ENDBRANCH   1  23
TORSDOF 10
ENDMDL
MODEL 4
REMARK VINA RESULT: -8.927378802      1.055      1.495
REMARK  10 active torsions:
REMARK  status: ('A' for Active; 'I' for Inactive)
REMARK    1  A    between atoms: C3_4  and  O2_5 
REMARK    2  A    between atoms: O2_5  and  C4_6 
REMARK    3  A    between atoms: C7_9  and  C8_10 
REMARK    4  A    between atoms: C9_11  and  C10_12 
REMARK    5  A    between atoms: C9_11  and  C21_23 
REMARK    6  A    between atoms: C10_12  and  C11_13 
REMARK    7  A    between atoms: C12_14  and  C13_15 
REMARK    8  A    between atoms: C14_16  and  C15_17 
REMARK    9  A    between atoms: C25_29  and  O5_30 
REMARK   10  A    between atoms: C26_32  and  O6_33 
ROOT
HETATM    1  C4  UNL     1      15.977  -5.346  -8.756  1.00  0.00     0.072 A 
HETATM    2  C5  UNL     1      16.187  -6.352  -9.668  1.00  0.00     0.037 A 
HETATM    3  C6  UNL     1      16.013  -7.683  -9.327  1.00  0.00     0.014 A 
HETATM    4  C7  UNL     1      15.614  -8.057  -8.035  1.00  0.00    -0.035 A 
HETATM    5  C22 UNL     1      15.405  -7.038  -7.131  1.00  0.00     0.014 A 
HETATM    6  C23 UNL     1      15.576  -5.713  -7.462  1.00  0.00     0.037 A 
ENDROOT
BRANCH   4   7
HETATM    7  C8  UNL     1      15.392  -9.460  -7.774  1.00  0.00     0.025 C 
HETATM    8  C9  UNL     1      15.779 -10.134  -6.739  1.00  0.00     0.022 C 
BRANCH   8   9
HETATM    9  C10 UNL     1      15.412 -11.618  -6.686  1.00  0.00     0.072 C 
BRANCH   9  10
HETATM   10  C11 UNL     1      15.508 -12.219  -8.003  1.00  0.00    -0.022 C 
HETATM   11  C12 UNL     1      14.481 -12.540  -8.765  1.00  0.00    -0.004 C 
BRANCH  11  12
HETATM   12  C13 UNL     1      13.136 -12.324  -8.361  1.00  0.00     0.001 C 
HETATM   13  C14 UNL     1      12.159 -11.768  -8.990  1.00  0.00     0.011 C 
BRANCH  13  14
HETATM   14  C15 UNL     1      11.989 -11.168 -10.274  1.00  0.00    -0.036 A 
HETATM   15  C16 UNL     1      11.459 -11.744 -11.380  1.00  0.00     0.011 A 
HETATM   16  C17 UNL     1      11.368 -11.117 -12.636  1.00  0.00     0.001 A 
HETATM   17  C18 UNL     1      11.836  -9.845 -12.779  1.00  0.00     0.000 A 
HETATM   18  C19 UNL     1      12.377  -9.234 -11.672  1.00  0.00     0.001 A 
HETATM   19  C20 UNL     1      12.464  -9.849 -10.450  1.00  0.00     0.011 A 
ENDBRANCH  13  14
ENDBRANCH  11  12
ENDBRANCH   9  10
ENDBRANCH   8   9
BRANCH   8  20
HETATM   20  C21 UNL     1      16.595  -9.651  -5.672  1.00  0.00     0.205 C 
HETATM   21  O3  UNL     1      16.066  -9.241  -4.560  1.00  0.00    -0.644 OA
HETATM   22  O4  UNL     1      17.981  -9.552  -5.645  1.00  0.00    -0.644 OA
ENDBRANCH   8  20
ENDBRANCH   4   7
BRANCH   1  23
HETATM   23  O2  UNL     1      16.147  -4.018  -9.084  1.00  0.00    -0.320 OA
BRANCH  23  24
HETATM   24  C3  UNL     1      17.283  -3.255  -8.898  1.00  0.00     0.269 C 
HETATM   25  O1  UNL     1      18.141  -3.811  -7.913  1.00  0.00    -0.353 OA
HETATM   26  C2  UNL     1      19.067  -2.797  -7.610  1.00  0.00     0.151 C 
HETATM   27  C1  UNL     1      20.048  -3.212  -6.556  1.00  0.00     0.042 C 
HETATM   28  C26 UNL     1      19.817  -2.367  -8.860  1.00  0.00     0.175 C 
HETATM   29  C25 UNL     1      19.488  -3.363  -9.940  1.00  0.00     0.154 C 
HETATM   30  C24 UNL     1      18.014  -3.222 -10.250  1.00  0.00     0.095 C 
BRANCH  28  31
HETATM   31  O6  UNL     1      21.195  -2.322  -8.606  1.00  0.00    -0.390 OA
ATOM     32  H6  UNL     1      21.384  -2.688  -7.750  1.00  0.00     0.210 HD
ENDBRANCH  28  31
BRANCH  29  33
HETATM   33  O5  UNL     1      20.272  -3.213 -11.076  1.00  0.00    -0.393 OA
ATOM     34  H5  UNL     1      20.942  -3.884 -11.134  1.00  0.00     0.210 HD
ENDBRANCH  29  33
ENDBRANCH  23  24
ENDBRANCH   1  23
TORSDOF 10
ENDMDL
MODEL 5
REMARK VINA RESULT: -8.709850938      1.780      2.052
REMARK  10 active torsions:
REMARK  status: ('A' for Active; 'I' for Inactive)
REMARK    1  A    between atoms: C3_4  and  O2_5 
REMARK    2  A    between atoms: O2_5  and  C4_6 
REMARK    3  A    between atoms: C7_9  and  C8_10 
REMARK    4  A    between atoms: C9_11  and  C10_12 
REMARK    5  A    between atoms: C9_11  and  C21_23 
REMARK    6  A    between atoms: C10_12  and  C11_13 
REMARK    7  A    between atoms: C12_14  and  C13_15 
REMARK    8  A    between atoms: C14_16  and  C15_17 
REMARK    9  A    between atoms: C25_29  and  O5_30 
REMARK   10  A    between atoms: C26_32  and  O6_33 
ROOT
HETATM    1  C4  UNL     1      16.003  -5.381  -8.666  1.00  0.00     0.072 A 
HETATM    2  C5  UNL     1      16.149  -6.394  -9.582  1.00  0.00     0.037 A 
HETATM    3  C6  UNL     1      15.935  -7.718  -9.233  1.00  0.00     0.014 A 
HETATM    4  C7  UNL     1      15.560  -8.076  -7.931  1.00  0.00    -0.035 A 
HETATM    5  C22 UNL     1      15.416  -7.050  -7.022  1.00  0.00     0.014 A 
HETATM    6  C23 UNL     1      15.627  -5.732  -7.360  1.00  0.00     0.037 A 
ENDROOT
BRANCH   4   7
HETATM    7  C8  UNL     1      15.293  -9.469  -7.660  1.00  0.00     0.025 C 
HETATM    8  C9  UNL     1      15.636 -10.142  -6.609  1.00  0.00     0.022 C 
BRANCH   8   9
HETATM    9  C10 UNL     1      15.227 -11.616  -6.551  1.00  0.00     0.072 C 
BRANCH   9  10
HETATM   10  C11 UNL     1      15.383 -12.245  -7.849  1.00  0.00    -0.022 C 
HETATM   11  C12 UNL     1      14.393 -12.563  -8.659  1.00  0.00    -0.004 C 
BRANCH  11  12
HETATM   12  C13 UNL     1      13.032 -12.314  -8.334  1.00  0.00     0.001 C 
HETATM   13  C14 UNL     1      12.120 -11.690  -8.995  1.00  0.00     0.011 C 
BRANCH  13  14
HETATM   14  C15 UNL     1      12.058 -11.022 -10.255  1.00  0.00    -0.036 A 
HETATM   15  C16 UNL     1      12.429  -9.746 -10.522  1.00  0.00     0.011 A 
HETATM   16  C17 UNL     1      12.293  -9.124 -11.776  1.00  0.00     0.001 A 
HETATM   17  C18 UNL     1      11.755  -9.828 -12.811  1.00  0.00     0.000 A 
HETATM   18  C19 UNL     1      11.370 -11.127 -12.571  1.00  0.00     0.001 A 
HETATM   19  C20 UNL     1      11.505 -11.729 -11.346  1.00  0.00     0.011 A 
ENDBRANCH  13  14
ENDBRANCH  11  12
ENDBRANCH   9  10
ENDBRANCH   8   9
BRANCH   8  20
HETATM   20  C21 UNL     1      16.439  -9.671  -5.528  1.00  0.00     0.205 C 
HETATM   21  O3  UNL     1      17.734  -9.661  -5.613  1.00  0.00    -0.644 OA
HETATM   22  O4  UNL     1      16.004  -9.179  -4.303  1.00  0.00    -0.644 OA
ENDBRANCH   8  20
ENDBRANCH   4   7
BRANCH   1  23
HETATM   23  O2  UNL     1      16.213  -4.060  -9.000  1.00  0.00    -0.320 OA
BRANCH  23  24
HETATM   24  C3  UNL     1      16.891  -3.112  -8.258  1.00  0.00     0.269 C 
HETATM   25  O1  UNL     1      18.291  -3.157  -8.489  1.00  0.00    -0.353 OA
HETATM   26  C2  UNL     1      18.863  -2.382  -7.465  1.00  0.00     0.151 C 
HETATM   27  C1  UNL     1      20.359  -2.340  -7.544  1.00  0.00     0.042 C 
HETATM   28  C26 UNL     1      18.313  -0.966  -7.495  1.00  0.00     0.175 C 
HETATM   29  C25 UNL     1      17.539  -0.818  -8.777  1.00  0.00     0.154 C 
HETATM   30  C24 UNL     1      16.346  -1.743  -8.696  1.00  0.00     0.095 C 
BRANCH  28  31
HETATM   31  O6  UNL     1      19.360  -0.038  -7.417  1.00  0.00    -0.390 OA
ATOM     32  H6  UNL     1      19.115   0.688  -6.855  1.00  0.00     0.210 HD
ENDBRANCH  28  31
BRANCH  29  33
HETATM   33  O5  UNL     1      17.160   0.493  -9.036  1.00  0.00    -0.393 OA
ATOM     34  H5  UNL     1      16.800   0.916  -8.266  1.00  0.00     0.210 HD
ENDBRANCH  29  33
ENDBRANCH  23  24
ENDBRANCH   1  23
TORSDOF 10
ENDMDL
