MODEL 1
REMARK VINA RESULT: -6.721735694      0.000      0.000
REMARK  9 active torsions:
REMARK  status: ('A' for Active; 'I' for Inactive)
REMARK    1  A    between atoms: C3_3  and  O1_4 
REMARK    2  A    between atoms: C3_3  and  C4_6 
REMARK    3  A    between atoms: C6_8  and  C7_9 
REMARK    4  A    between atoms: C7_9  and  N1_10 
REMARK    5  A    between atoms: C10_13  and  C11_14 
REMARK    6  A    between atoms: C11_14  and  N2_15 
REMARK    7  A    between atoms: N2_15  and  C13_17 
REMARK    8  A    between atoms: C13_17  and  C14_18 
REMARK    9  A    between atoms: C14_18  and  C15_19 
ROOT
HETATM    1  C1  UNL     1      12.753  -9.648  -9.699  1.00  0.00     0.015 C 
HETATM    2  C2  UNL     1      12.950 -10.655  -9.070  1.00  0.00    -0.081 C 
HETATM    3  C3  UNL     1      13.173 -11.895  -8.321  1.00  0.00     0.224 C 
ENDROOT
BRANCH   3   4
HETATM    4  O1  UNL     1      13.125 -13.026  -9.128  1.00  0.00    -0.379 OA
ATOM      5  H1  UNL     1      13.276 -13.829  -8.644  1.00  0.00     0.211 HD
ENDBRANCH   3   4
BRANCH   3   6
HETATM    6  C4  UNL     1      14.494 -11.897  -7.619  1.00  0.00    -0.046 C 
HETATM    7  C5  UNL     1      15.728 -11.942  -8.460  1.00  0.00     0.047 C 
HETATM    8  C6  UNL     1      14.525 -11.882  -6.310  1.00  0.00     0.009 C 
BRANCH   8   9
HETATM    9  C7  UNL     1      15.790 -11.881  -5.549  1.00  0.00     0.300 C 
BRANCH   9  10
HETATM   10  N1  UNL     1      16.122 -10.629  -4.924  1.00  0.00     0.099 N 
HETATM   11  C8  UNL     1      14.985  -9.983  -4.343  1.00  0.00     0.274 C 
HETATM   12  C9  UNL     1      15.375  -8.886  -3.369  1.00  0.00     0.038 C 
HETATM   13  C10 UNL     1      16.781  -8.446  -3.772  1.00  0.00     0.040 C 
HETATM   14  C21 UNL     1      17.752  -9.567  -3.415  1.00  0.00     0.123 C 
HETATM   15  N3  UNL     1      18.043  -9.600  -2.020  1.00  0.00    -0.364 N 
HETATM   16  C24 UNL     1      17.249 -10.808  -4.052  1.00  0.00     0.256 C 
HETATM   17  C22 UNL     1      18.851 -10.640  -1.488  1.00  0.00     0.134 C 
ATOM     18  H3  UNL     1      17.671  -8.877  -1.403  1.00  0.00     0.162 HD
HETATM   19  N4  UNL     1      19.645 -10.531  -0.516  1.00  0.00    -0.380 N 
HETATM   20  S1  UNL     1      18.669 -12.221  -2.312  1.00  0.00    -0.092 SA
ATOM     21  H42 UNL     1      19.749  -9.630  -0.047  1.00  0.00     0.158 HD
ATOM     22  H41 UNL     1      20.226 -11.278  -0.134  1.00  0.00     0.158 HD
HETATM   23  C23 UNL     1      17.008 -11.971  -3.089  1.00  0.00     0.120 C 
BRANCH  13  24
HETATM   24  C11 UNL     1      17.098  -7.159  -3.114  1.00  0.00     0.278 C 
BRANCH  24  25
HETATM   25  N2  UNL     1      17.926  -6.251  -3.921  1.00  0.00     0.084 N 
HETATM   26  C12 UNL     1      18.771  -5.522  -3.027  1.00  0.00     0.309 C 
BRANCH  25  27
HETATM   27  C13 UNL     1      17.159  -5.511  -4.847  1.00  0.00     0.272 C 
BRANCH  27  28
HETATM   28  C14 UNL     1      16.945  -6.015  -6.217  1.00  0.00     0.034 C 
BRANCH  28  29
HETATM   29  C15 UNL     1      15.584  -6.031  -6.789  1.00  0.00    -0.013 C 
HETATM   30  C16 UNL     1      15.027  -7.458  -6.907  1.00  0.00     0.005 C 
HETATM   31  C17 UNL     1      15.874  -8.330  -7.761  1.00  0.00     0.000 C 
HETATM   32  C18 UNL     1      15.922  -7.772  -9.181  1.00  0.00     0.000 C 
HETATM   33  C19 UNL     1      16.402  -6.355  -9.134  1.00  0.00     0.000 C 
HETATM   34  C20 UNL     1      15.563  -5.506  -8.235  1.00  0.00     0.005 C 
ENDBRANCH  28  29
ENDBRANCH  27  28
ENDBRANCH  25  27
ENDBRANCH  24  25
ENDBRANCH  13  24
ENDBRANCH   9  10
ENDBRANCH   8   9
ENDBRANCH   3   6
TORSDOF 9
ENDMDL
MODEL 2
REMARK VINA RESULT: -6.676856034      1.598      2.169
REMARK  9 active torsions:
REMARK  status: ('A' for Active; 'I' for Inactive)
REMARK    1  A    between atoms: C3_3  and  O1_4 
REMARK    2  A    between atoms: C3_3  and  C4_6 
REMARK    3  A    between atoms: C6_8  and  C7_9 
REMARK    4  A    between atoms: C7_9  and  N1_10 
REMARK    5  A    between atoms: C10_13  and  C11_14 
REMARK    6  A    between atoms: C11_14  and  N2_15 
REMARK    7  A    between atoms: N2_15  and  C13_17 
REMARK    8  A    between atoms: C13_17  and  C14_18 
REMARK    9  A    between atoms: C14_18  and  C15_19 
ROOT
HETATM    1  C1  UNL     1      12.232 -10.231 -10.761  1.00  0.00     0.015 C 
HETATM    2  C2  UNL     1      12.529 -10.953  -9.845  1.00  0.00    -0.081 C 
HETATM    3  C3  UNL     1      12.872 -11.850  -8.738  1.00  0.00     0.224 C 
ENDROOT
BRANCH   3   4
HETATM    4  O1  UNL     1      12.708 -13.192  -9.064  1.00  0.00    -0.379 OA
ATOM      5  H1  UNL     1      12.852 -13.769  -8.324  1.00  0.00     0.211 HD
ENDBRANCH   3   4
BRANCH   3   6
HETATM    6  C4  UNL     1      14.284 -11.665  -8.282  1.00  0.00    -0.046 C 
HETATM    7  C5  UNL     1      15.086 -12.892  -7.991  1.00  0.00     0.047 C 
HETATM    8  C6  UNL     1      14.758 -10.454  -8.135  1.00  0.00     0.009 C 
BRANCH   8   9
HETATM    9  C7  UNL     1      16.142 -10.194  -7.691  1.00  0.00     0.300 C 
BRANCH   9  10
HETATM   10  N1  UNL     1      16.307  -9.031  -6.864  1.00  0.00     0.099 N 
HETATM   11  C8  UNL     1      15.076  -8.338  -6.634  1.00  0.00     0.274 C 
HETATM   12  C9  UNL     1      15.167  -7.361  -5.475  1.00  0.00     0.038 C 
HETATM   13  C10 UNL     1      16.648  -7.013  -5.334  1.00  0.00     0.040 C 
HETATM   14  C21 UNL     1      17.376  -8.238  -4.792  1.00  0.00     0.123 C 
HETATM   15  N3  UNL     1      17.169  -8.409  -3.392  1.00  0.00    -0.364 N 
HETATM   16  C24 UNL     1      17.056  -9.376  -5.687  1.00  0.00     0.256 C 
HETATM   17  C22 UNL     1      17.689  -9.554  -2.732  1.00  0.00     0.134 C 
ATOM     18  H3  UNL     1      16.648  -7.709  -2.863  1.00  0.00     0.162 HD
HETATM   19  N4  UNL     1      18.107  -9.593  -1.544  1.00  0.00    -0.380 N 
HETATM   20  S1  UNL     1      17.716 -11.042  -3.731  1.00  0.00    -0.092 SA
ATOM     21  H42 UNL     1      18.092  -8.746  -0.975  1.00  0.00     0.158 HD
ATOM     22  H41 UNL     1      18.481 -10.416  -1.070  1.00  0.00     0.158 HD
HETATM   23  C23 UNL     1      16.438 -10.588  -4.990  1.00  0.00     0.120 C 
BRANCH  13  24
HETATM   24  C11 UNL     1      16.788  -5.815  -4.476  1.00  0.00     0.278 C 
BRANCH  24  25
HETATM   25  N2  UNL     1      18.019  -5.044  -4.706  1.00  0.00     0.084 N 
HETATM   26  C12 UNL     1      18.560  -4.698  -3.428  1.00  0.00     0.309 C 
BRANCH  25  27
HETATM   27  C13 UNL     1      17.829  -4.004  -5.640  1.00  0.00     0.272 C 
BRANCH  27  28
HETATM   28  C14 UNL     1      18.014  -4.247  -7.084  1.00  0.00     0.034 C 
BRANCH  28  29
HETATM   29  C15 UNL     1      17.038  -3.708  -8.050  1.00  0.00    -0.013 C 
HETATM   30  C16 UNL     1      15.928  -4.720  -8.374  1.00  0.00     0.005 C 
HETATM   31  C17 UNL     1      16.461  -5.984  -8.945  1.00  0.00     0.000 C 
HETATM   32  C18 UNL     1      17.173  -5.695 -10.265  1.00  0.00     0.000 C 
HETATM   33  C19 UNL     1      18.233  -4.664 -10.033  1.00  0.00     0.000 C 
HETATM   34  C20 UNL     1      17.684  -3.419  -9.417  1.00  0.00     0.005 C 
ENDBRANCH  28  29
ENDBRANCH  27  28
ENDBRANCH  25  27
ENDBRANCH  24  25
ENDBRANCH  13  24
ENDBRANCH   9  10
ENDBRANCH   8   9
ENDBRANCH   3   6
TORSDOF 9
ENDMDL
MODEL 3
REMARK VINA RESULT: -6.573011406      2.849      5.528
REMARK  9 active torsions:
REMARK  status: ('A' for Active; 'I' for Inactive)
REMARK    1  A    between atoms: C3_3  and  O1_4 
REMARK    2  A    between atoms: C3_3  and  C4_6 
REMARK    3  A    between atoms: C6_8  and  C7_9 
REMARK    4  A    between atoms: C7_9  and  N1_10 
REMARK    5  A    between atoms: C10_13  and  C11_14 
REMARK    6  A    between atoms: C11_14  and  N2_15 
REMARK    7  A    between atoms: N2_15  and  C13_17 
REMARK    8  A    between atoms: C13_17  and  C14_18 
REMARK    9  A    between atoms: C14_18  and  C15_19 
ROOT
HETATM    1  C1  UNL     1      11.258 -12.204 -13.312  1.00  0.00     0.015 C 
HETATM    2  C2  UNL     1      11.455 -12.029 -12.137  1.00  0.00    -0.081 C 
HETATM    3  C3  UNL     1      11.696 -11.842 -10.704  1.00  0.00     0.224 C 
ENDROOT
BRANCH   3   4
HETATM    4  O1  UNL     1      12.483 -12.850 -10.156  1.00  0.00    -0.379 OA
ATOM      5  H1  UNL     1      12.941 -12.573  -9.372  1.00  0.00     0.211 HD
ENDBRANCH   3   4
BRANCH   3   6
HETATM    6  C4  UNL     1      12.367 -10.538 -10.412  1.00  0.00    -0.046 C 
HETATM    7  C5  UNL     1      12.269  -9.459 -11.441  1.00  0.00     0.047 C 
HETATM    8  C6  UNL     1      13.027 -10.393  -9.290  1.00  0.00     0.009 C 
BRANCH   8   9
HETATM    9  C7  UNL     1      13.712  -9.135  -8.931  1.00  0.00     0.300 C 
BRANCH   9  10
HETATM   10  N1  UNL     1      14.519  -9.200  -7.744  1.00  0.00     0.099 N 
HETATM   11  C8  UNL     1      15.552 -10.186  -7.831  1.00  0.00     0.274 C 
HETATM   12  C9  UNL     1      16.624 -10.000  -6.772  1.00  0.00     0.038 C 
HETATM   13  C10 UNL     1      15.961  -9.224  -5.635  1.00  0.00     0.040 C 
HETATM   14  C21 UNL     1      15.715  -7.797  -6.111  1.00  0.00     0.123 C 
HETATM   15  N3  UNL     1      16.906  -7.014  -6.098  1.00  0.00    -0.364 N 
HETATM   16  C24 UNL     1      14.949  -7.879  -7.378  1.00  0.00     0.256 C 
HETATM   17  C22 UNL     1      16.889  -5.687  -6.605  1.00  0.00     0.134 C 
ATOM     18  H3  UNL     1      17.771  -7.407  -5.725  1.00  0.00     0.162 HD
HETATM   19  N4  UNL     1      17.583  -4.727  -6.175  1.00  0.00    -0.380 N 
HETATM   20  S1  UNL     1      15.768  -5.428  -7.979  1.00  0.00    -0.092 SA
ATOM     21  H42 UNL     1      18.220  -4.874  -5.392  1.00  0.00     0.158 HD
ATOM     22  H41 UNL     1      17.570  -3.774  -6.539  1.00  0.00     0.158 HD
HETATM   23  C23 UNL     1      15.599  -7.174  -8.569  1.00  0.00     0.120 C 
BRANCH  13  24
HETATM   24  C11 UNL     1      16.812  -9.305  -4.427  1.00  0.00     0.278 C 
BRANCH  24  25
HETATM   25  N2  UNL     1      16.212 -10.045  -3.308  1.00  0.00     0.084 N 
HETATM   26  C12 UNL     1      16.831 -11.334  -3.256  1.00  0.00     0.309 C 
BRANCH  25  27
HETATM   27  C13 UNL     1      14.801  -9.998  -3.334  1.00  0.00     0.272 C 
BRANCH  27  28
HETATM   28  C14 UNL     1      14.056  -9.255  -2.299  1.00  0.00     0.034 C 
BRANCH  28  29
HETATM   29  C15 UNL     1      13.286  -8.052  -2.670  1.00  0.00    -0.013 C 
HETATM   30  C16 UNL     1      14.197  -6.909  -3.145  1.00  0.00     0.005 C 
HETATM   31  C17 UNL     1      15.181  -6.500  -2.110  1.00  0.00     0.000 C 
HETATM   32  C18 UNL     1      14.447  -5.977  -0.877  1.00  0.00     0.000 C 
HETATM   33  C19 UNL     1      13.491  -7.024  -0.396  1.00  0.00     0.000 C 
HETATM   34  C20 UNL     1      12.541  -7.453  -1.465  1.00  0.00     0.005 C 
ENDBRANCH  28  29
ENDBRANCH  27  28
ENDBRANCH  25  27
ENDBRANCH  24  25
ENDBRANCH  13  24
ENDBRANCH   9  10
ENDBRANCH   8   9
ENDBRANCH   3   6
TORSDOF 9
ENDMDL
MODEL 4
REMARK VINA RESULT: -6.553739371      2.494      5.561
REMARK  9 active torsions:
REMARK  status: ('A' for Active; 'I' for Inactive)
REMARK    1  A    between atoms: C3_3  and  O1_4 
REMARK    2  A    between atoms: C3_3  and  C4_6 
REMARK    3  A    between atoms: C6_8  and  C7_9 
REMARK    4  A    between atoms: C7_9  and  N1_10 
REMARK    5  A    between atoms: C10_13  and  C11_14 
REMARK    6  A    between atoms: C11_14  and  N2_15 
REMARK    7  A    between atoms: N2_15  and  C13_17 
REMARK    8  A    between atoms: C13_17  and  C14_18 
REMARK    9  A    between atoms: C14_18  and  C15_19 
ROOT
HETATM    1  C1  UNL     1      18.353  -5.088 -10.387  1.00  0.00     0.015 C 
HETATM    2  C2  UNL     1      17.314  -5.269  -9.808  1.00  0.00    -0.081 C 
HETATM    3  C3  UNL     1      16.039  -5.502  -9.124  1.00  0.00     0.224 C 
ENDROOT
BRANCH   3   4
HETATM    4  O1  UNL     1      15.414  -6.673  -9.539  1.00  0.00    -0.379 OA
ATOM      5  H1  UNL     1      15.462  -6.801 -10.479  1.00  0.00     0.211 HD
ENDBRANCH   3   4
BRANCH   3   6
HETATM    6  C4  UNL     1      16.203  -5.580  -7.640  1.00  0.00    -0.046 C 
HETATM    7  C5  UNL     1      17.296  -4.773  -7.018  1.00  0.00     0.047 C 
HETATM    8  C6  UNL     1      15.409  -6.357  -6.946  1.00  0.00     0.009 C 
BRANCH   8   9
HETATM    9  C7  UNL     1      15.509  -6.483  -5.479  1.00  0.00     0.300 C 
BRANCH   9  10
HETATM   10  N1  UNL     1      15.968  -7.761  -5.009  1.00  0.00     0.099 N 
HETATM   11  C8  UNL     1      17.315  -7.723  -4.528  1.00  0.00     0.274 C 
HETATM   12  C9  UNL     1      17.669  -8.939  -3.691  1.00  0.00     0.038 C 
HETATM   13  C10 UNL     1      16.706 -10.043  -4.126  1.00  0.00     0.040 C 
HETATM   14  C21 UNL     1      15.312  -9.686  -3.620  1.00  0.00     0.123 C 
HETATM   15  N3  UNL     1      15.163  -9.953  -2.227  1.00  0.00    -0.364 N 
HETATM   16  C24 UNL     1      15.001  -8.320  -4.106  1.00  0.00     0.256 C 
HETATM   17  C22 UNL     1      13.963  -9.589  -1.560  1.00  0.00     0.134 C 
ATOM     18  H3  UNL     1      15.918 -10.404  -1.710  1.00  0.00     0.162 HD
HETATM   19  N4  UNL     1      13.438 -10.212  -0.598  1.00  0.00    -0.380 N 
HETATM   20  S1  UNL     1      13.183  -8.101  -2.185  1.00  0.00    -0.092 SA
ATOM     21  H42 UNL     1      13.882 -11.059  -0.242  1.00  0.00     0.158 HD
ATOM     22  H41 UNL     1      12.576  -9.951  -0.119  1.00  0.00     0.158 HD
HETATM   23  C23 UNL     1      14.641  -7.315  -3.010  1.00  0.00     0.120 C 
BRANCH  13  24
HETATM   24  C11 UNL     1      17.199 -11.346  -3.628  1.00  0.00     0.278 C 
BRANCH  24  25
HETATM   25  N2  UNL     1      16.395 -12.502  -4.050  1.00  0.00     0.084 N 
HETATM   26  C12 UNL     1      16.621 -13.556  -3.110  1.00  0.00     0.309 C 
BRANCH  25  27
HETATM   27  C13 UNL     1      16.566 -12.799  -5.419  1.00  0.00     0.272 C 
BRANCH  27  28
HETATM   28  C14 UNL     1      15.484 -12.533  -6.386  1.00  0.00     0.034 C 
BRANCH  28  29
HETATM   29  C15 UNL     1      15.814 -12.239  -7.795  1.00  0.00    -0.013 C 
HETATM   30  C16 UNL     1      16.134 -10.751  -8.012  1.00  0.00     0.005 C 
HETATM   31  C17 UNL     1      15.005  -9.865  -7.630  1.00  0.00     0.000 C 
HETATM   32  C18 UNL     1      13.789 -10.172  -8.502  1.00  0.00     0.000 C 
HETATM   33  C19 UNL     1      13.458 -11.627  -8.385  1.00  0.00     0.000 C 
HETATM   34  C20 UNL     1      14.620 -12.500  -8.730  1.00  0.00     0.005 C 
ENDBRANCH  28  29
ENDBRANCH  27  28
ENDBRANCH  25  27
ENDBRANCH  24  25
ENDBRANCH  13  24
ENDBRANCH   9  10
ENDBRANCH   8   9
ENDBRANCH   3   6
TORSDOF 9
ENDMDL
MODEL 5
REMARK VINA RESULT: -6.493274367      3.250      6.125
REMARK  9 active torsions:
REMARK  status: ('A' for Active; 'I' for Inactive)
REMARK    1  A    between atoms: C3_3  and  O1_4 
REMARK    2  A    between atoms: C3_3  and  C4_6 
REMARK    3  A    between atoms: C6_8  and  C7_9 
REMARK    4  A    between atoms: C7_9  and  N1_10 
REMARK    5  A    between atoms: C10_13  and  C11_14 
REMARK    6  A    between atoms: C11_14  and  N2_15 
REMARK    7  A    between atoms: N2_15  and  C13_17 
REMARK    8  A    between atoms: C13_17  and  C14_18 
REMARK    9  A    between atoms: C14_18  and  C15_19 
ROOT
HETATM    1  C1  UNL     1      14.105 -10.121  -1.730  1.00  0.00     0.015 C 
HETATM    2  C2  UNL     1      14.711 -11.108  -2.057  1.00  0.00    -0.081 C 
HETATM    3  C3  UNL     1      15.438 -12.323  -2.434  1.00  0.00     0.224 C 
ENDROOT
BRANCH   3   4
HETATM    4  O1  UNL     1      14.721 -13.484  -2.160  1.00  0.00    -0.379 OA
ATOM      5  H1  UNL     1      14.824 -13.775  -1.262  1.00  0.00     0.211 HD
ENDBRANCH   3   4
BRANCH   3   6
HETATM    6  C4  UNL     1      15.786 -12.341  -3.888  1.00  0.00    -0.046 C 
HETATM    7  C5  UNL     1      17.121 -12.890  -4.276  1.00  0.00     0.047 C 
HETATM    8  C6  UNL     1      14.932 -11.865  -4.759  1.00  0.00     0.009 C 
BRANCH   8   9
HETATM    9  C7  UNL     1      15.206 -11.852  -6.210  1.00  0.00     0.300 C 
BRANCH   9  10
HETATM   10  N1  UNL     1      15.287 -10.544  -6.801  1.00  0.00     0.099 N 
HETATM   11  C8  UNL     1      16.580 -10.263  -7.344  1.00  0.00     0.274 C 
HETATM   12  C9  UNL     1      16.568  -9.075  -8.291  1.00  0.00     0.038 C 
HETATM   13  C10 UNL     1      15.354  -8.236  -7.895  1.00  0.00     0.040 C 
HETATM   14  C21 UNL     1      14.096  -8.997  -8.301  1.00  0.00     0.123 C 
HETATM   15  N3  UNL     1      13.842  -8.905  -9.701  1.00  0.00    -0.364 N 
HETATM   16  C24 UNL     1      14.180 -10.347  -7.695  1.00  0.00     0.256 C 
HETATM   17  C22 UNL     1      12.767  -9.634 -10.276  1.00  0.00     0.134 C 
ATOM     18  H3  UNL     1      14.431  -8.315 -10.289  1.00  0.00     0.162 HD
HETATM   19  N4  UNL     1      12.068  -9.263 -11.256  1.00  0.00    -0.380 N 
HETATM   20  S1  UNL     1      12.438 -11.215  -9.498  1.00  0.00    -0.092 SA
ATOM     21  H42 UNL     1      12.255  -8.363 -11.699  1.00  0.00     0.158 HD
ATOM     22  H41 UNL     1      11.296  -9.787 -11.669  1.00  0.00     0.158 HD
HETATM   23  C23 UNL     1      14.077 -11.505  -8.689  1.00  0.00     0.120 C 
BRANCH  13  24
HETATM   24  C11 UNL     1      15.461  -6.898  -8.518  1.00  0.00     0.278 C 
BRANCH  24  25
HETATM   25  N2  UNL     1      15.715  -5.804  -7.569  1.00  0.00     0.084 N 
HETATM   26  C12 UNL     1      15.833  -4.594  -8.321  1.00  0.00     0.309 C 
BRANCH  25  27
HETATM   27  C13 UNL     1      16.752  -6.115  -6.663  1.00  0.00     0.272 C 
BRANCH  27  28
HETATM   28  C14 UNL     1      16.515  -6.074  -5.207  1.00  0.00     0.034 C 
BRANCH  28  29
HETATM   29  C15 UNL     1      16.393  -7.333  -4.447  1.00  0.00    -0.013 C 
HETATM   30  C16 UNL     1      14.947  -7.856  -4.426  1.00  0.00     0.005 C 
HETATM   31  C17 UNL     1      14.001  -6.884  -3.822  1.00  0.00     0.000 C 
HETATM   32  C18 UNL     1      14.383  -6.627  -2.366  1.00  0.00     0.000 C 
HETATM   33  C19 UNL     1      15.808  -6.172  -2.307  1.00  0.00     0.000 C 
HETATM   34  C20 UNL     1      16.737  -7.142  -2.960  1.00  0.00     0.005 C 
ENDBRANCH  28  29
ENDBRANCH  27  28
ENDBRANCH  25  27
ENDBRANCH  24  25
ENDBRANCH  13  24
ENDBRANCH   9  10
ENDBRANCH   8   9
ENDBRANCH   3   6
TORSDOF 9
ENDMDL
