MODEL 1
REMARK VINA RESULT: -8.069872928      0.000      0.000
REMARK  10 active torsions:
REMARK  status: ('A' for Active; 'I' for Inactive)
REMARK    1  A    between atoms: C2_2  and  N1_4 
REMARK    2  A    between atoms: C2_2  and  C4_8 
REMARK    3  A    between atoms: N2_11  and  N3_12 
REMARK       I    between atoms: N3_12  and  C7_14 
REMARK    4  A    between atoms: C7_14  and  C8_16 
REMARK    5  A    between atoms: C8_16  and  C9_17 
REMARK    6  A    between atoms: C8_16  and  N4_24 
REMARK    7  A    between atoms: C9_17  and  C10_18 
REMARK    8  A    between atoms: N4_24  and  C16_27 
REMARK    9  A    between atoms: C16_27  and  C17_28 
REMARK   10  A    between atoms: C22_34  and  C23_35 
ROOT
HETATM    1  N3  UNL     1      15.208  -7.713  -9.108  1.00  0.00    -0.287 N 
ATOM      2  H3  UNL     1      14.379  -7.494  -9.661  1.00  0.00     0.184 HD
HETATM    3  C7  UNL     1      15.337  -9.004  -8.520  1.00  0.00     0.263 C 
HETATM    4  O1  UNL     1      16.378  -9.284  -7.850  1.00  0.00    -0.270 OA
ENDROOT
BRANCH   3   5
HETATM    5  C8  UNL     1      14.311 -10.042  -8.652  1.00  0.00     0.282 C 
BRANCH   5   6
HETATM    6  C9  UNL     1      12.955  -9.542  -9.090  1.00  0.00     0.081 C 
BRANCH   6   7
HETATM    7  C10 UNL     1      12.367 -10.225 -10.248  1.00  0.00    -0.056 A 
HETATM    8  C11 UNL     1      11.907 -11.526 -10.198  1.00  0.00     0.007 A 
HETATM    9  C12 UNL     1      11.353 -12.172 -11.283  1.00  0.00     0.001 A 
HETATM   10  C13 UNL     1      11.237 -11.511 -12.492  1.00  0.00     0.000 A 
HETATM   11  C14 UNL     1      11.701 -10.193 -12.546  1.00  0.00     0.001 A 
HETATM   12  C15 UNL     1      12.255  -9.558 -11.448  1.00  0.00     0.007 A 
ENDBRANCH   6   7
ENDBRANCH   5   6
BRANCH   5  13
HETATM   13  N4  UNL     1      14.073 -10.726  -7.371  1.00  0.00    -0.058 N 
ATOM     14  H42 UNL     1      14.210 -10.104  -6.575  1.00  0.00     0.278 HD
ATOM     15  H41 UNL     1      13.085 -10.936  -7.228  1.00  0.00     0.278 HD
BRANCH  13  16
HETATM   16  C16 UNL     1      14.902 -11.920  -7.278  1.00  0.00     0.279 C 
BRANCH  16  17
HETATM   17  C17 UNL     1      15.518 -11.998  -5.903  1.00  0.00     0.008 A 
HETATM   18  C18 UNL     1      16.461 -12.881  -5.448  1.00  0.00     0.017 A 
HETATM   19  C19 UNL     1      16.861 -12.759  -4.180  1.00  0.00     0.008 A 
HETATM   20  C20 UNL     1      16.294 -11.757  -3.432  1.00  0.00     0.050 A 
HETATM   21  S1  UNL     1      15.220 -11.022  -4.536  1.00  0.00    -0.105 SA
ENDBRANCH  16  17
ENDBRANCH  13  16
ENDBRANCH   5  13
ENDBRANCH   3   5
BRANCH   1  22
HETATM   22  N2  UNL     1      16.195  -6.749  -8.939  1.00  0.00    -0.228 NA
HETATM   23  C6  UNL     1      16.738  -6.370 -10.199  1.00  0.00     0.114 C 
HETATM   24  C5  UNL     1      17.767  -5.245 -10.052  1.00  0.00     0.024 C 
HETATM   25  C4  UNL     1      17.157  -4.135  -9.233  1.00  0.00     0.027 C 
HETATM   26  C22 UNL     1      16.641  -4.566  -7.899  1.00  0.00     0.011 C 
HETATM   27  C21 UNL     1      15.602  -5.652  -8.219  1.00  0.00     0.119 C 
BRANCH  25  28
HETATM   28  C2  UNL     1      17.977  -2.898  -9.241  1.00  0.00     0.120 C 
HETATM   29  C1  UNL     1      17.420  -1.800  -8.362  1.00  0.00     0.046 C 
HETATM   30  C3  UNL     1      19.382  -3.144  -8.734  1.00  0.00     0.046 C 
BRANCH  28  31
HETATM   31  N1  UNL     1      18.104  -2.358 -10.578  1.00  0.00    -0.071 N 
ATOM     32  H13 UNL     1      17.594  -2.899 -11.277  1.00  0.00     0.275 HD
ATOM     33  H12 UNL     1      17.605  -1.478 -10.702  1.00  0.00     0.275 HD
ATOM     34  H11 UNL     1      19.100  -2.283 -10.782  1.00  0.00     0.275 HD
ENDBRANCH  28  31
ENDBRANCH  25  28
BRANCH  26  35
HETATM   35  C23 UNL     1      17.586  -4.949  -6.848  1.00  0.00    -0.009 A 
HETATM   36  C24 UNL     1      17.318  -5.548  -5.551  1.00  0.00     0.005 A 
HETATM   37  C25 UNL     1      17.693  -4.055  -5.605  1.00  0.00     0.005 A 
ENDBRANCH  26  35
ENDBRANCH   1  22
TORSDOF 10
ENDMDL
MODEL 2
REMARK VINA RESULT: -7.843062485      1.721      4.959
REMARK  10 active torsions:
REMARK  status: ('A' for Active; 'I' for Inactive)
REMARK    1  A    between atoms: C2_2  and  N1_4 
REMARK    2  A    between atoms: C2_2  and  C4_8 
REMARK    3  A    between atoms: N2_11  and  N3_12 
REMARK       I    between atoms: N3_12  and  C7_14 
REMARK    4  A    between atoms: C7_14  and  C8_16 
REMARK    5  A    between atoms: C8_16  and  C9_17 
REMARK    6  A    between atoms: C8_16  and  N4_24 
REMARK    7  A    between atoms: C9_17  and  C10_18 
REMARK    8  A    between atoms: N4_24  and  C16_27 
REMARK    9  A    between atoms: C16_27  and  C17_28 
REMARK   10  A    between atoms: C22_34  and  C23_35 
ROOT
HETATM    1  N3  UNL     1      15.218  -7.034  -8.579  1.00  0.00    -0.287 N 
ATOM      2  H3  UNL     1      14.278  -6.650  -8.676  1.00  0.00     0.184 HD
HETATM    3  C7  UNL     1      15.384  -8.419  -8.288  1.00  0.00     0.263 C 
HETATM    4  O1  UNL     1      16.554  -8.900  -8.188  1.00  0.00    -0.270 OA
ENDROOT
BRANCH   3   5
HETATM    5  C8  UNL     1      14.252  -9.330  -8.096  1.00  0.00     0.282 C 
BRANCH   5   6
HETATM    6  C9  UNL     1      14.622 -10.791  -8.016  1.00  0.00     0.081 C 
BRANCH   6   7
HETATM    7  C10 UNL     1      15.133 -11.249  -6.718  1.00  0.00    -0.056 A 
HETATM    8  C11 UNL     1      14.906 -10.567  -5.539  1.00  0.00     0.007 A 
HETATM    9  C12 UNL     1      15.383 -10.992  -4.317  1.00  0.00     0.001 A 
HETATM   10  C13 UNL     1      16.126 -12.156  -4.237  1.00  0.00     0.000 A 
HETATM   11  C14 UNL     1      16.357 -12.850  -5.427  1.00  0.00     0.001 A 
HETATM   12  C15 UNL     1      15.872 -12.409  -6.647  1.00  0.00     0.007 A 
ENDBRANCH   6   7
ENDBRANCH   5   6
BRANCH   5  13
HETATM   13  N4  UNL     1      13.295  -9.236  -9.210  1.00  0.00    -0.058 N 
ATOM     14  H42 UNL     1      12.766  -8.365  -9.185  1.00  0.00     0.278 HD
ATOM     15  H41 UNL     1      13.763  -9.102 -10.106  1.00  0.00     0.278 HD
BRANCH  13  16
HETATM   16  C16 UNL     1      12.423 -10.403  -9.222  1.00  0.00     0.279 C 
BRANCH  16  17
HETATM   17  C17 UNL     1      12.052 -10.738 -10.645  1.00  0.00     0.008 A 
HETATM   18  C18 UNL     1      12.104  -9.927 -11.746  1.00  0.00     0.017 A 
HETATM   19  C19 UNL     1      11.721 -10.446 -12.915  1.00  0.00     0.008 A 
HETATM   20  C20 UNL     1      11.305 -11.754 -12.919  1.00  0.00     0.050 A 
HETATM   21  S1  UNL     1      11.466 -12.208 -11.283  1.00  0.00    -0.105 SA
ENDBRANCH  16  17
ENDBRANCH  13  16
ENDBRANCH   5  13
ENDBRANCH   3   5
BRANCH   1  22
HETATM   22  N2  UNL     1      16.320  -6.199  -8.731  1.00  0.00    -0.228 NA
HETATM   23  C6  UNL     1      16.814  -6.269 -10.064  1.00  0.00     0.114 C 
HETATM   24  C5  UNL     1      17.973  -5.292 -10.286  1.00  0.00     0.024 C 
HETATM   25  C4  UNL     1      17.553  -3.926  -9.806  1.00  0.00     0.027 C 
HETATM   26  C22 UNL     1      17.085  -3.887  -8.388  1.00  0.00     0.011 C 
HETATM   27  C21 UNL     1      15.908  -4.874  -8.342  1.00  0.00     0.119 C 
BRANCH  25  28
HETATM   28  C2  UNL     1      18.508  -2.860 -10.201  1.00  0.00     0.120 C 
HETATM   29  C1  UNL     1      18.054  -1.470  -9.812  1.00  0.00     0.046 C 
HETATM   30  C3  UNL     1      19.862  -3.038  -9.548  1.00  0.00     0.046 C 
BRANCH  28  31
HETATM   31  N1  UNL     1      18.731  -2.857 -11.632  1.00  0.00    -0.071 N 
ATOM     32  H13 UNL     1      19.710  -2.997 -11.882  1.00  0.00     0.275 HD
ATOM     33  H12 UNL     1      18.356  -3.684 -12.095  1.00  0.00     0.275 HD
ATOM     34  H11 UNL     1      18.346  -1.986 -11.997  1.00  0.00     0.275 HD
ENDBRANCH  28  31
ENDBRANCH  25  28
BRANCH  26  35
HETATM   35  C23 UNL     1      18.050  -4.075  -7.303  1.00  0.00    -0.009 A 
HETATM   36  C24 UNL     1      17.812  -4.467  -5.924  1.00  0.00     0.005 A 
HETATM   37  C25 UNL     1      18.145  -2.992  -6.219  1.00  0.00     0.005 A 
ENDBRANCH  26  35
ENDBRANCH   1  22
TORSDOF 10
ENDMDL
MODEL 3
REMARK VINA RESULT: -7.725030564      2.774      8.200
REMARK  10 active torsions:
REMARK  status: ('A' for Active; 'I' for Inactive)
REMARK    1  A    between atoms: C2_2  and  N1_4 
REMARK    2  A    between atoms: C2_2  and  C4_8 
REMARK    3  A    between atoms: N2_11  and  N3_12 
REMARK       I    between atoms: N3_12  and  C7_14 
REMARK    4  A    between atoms: C7_14  and  C8_16 
REMARK    5  A    between atoms: C8_16  and  C9_17 
REMARK    6  A    between atoms: C8_16  and  N4_24 
REMARK    7  A    between atoms: C9_17  and  C10_18 
REMARK    8  A    between atoms: N4_24  and  C16_27 
REMARK    9  A    between atoms: C16_27  and  C17_28 
REMARK   10  A    between atoms: C22_34  and  C23_35 
ROOT
HETATM    1  N3  UNL     1      14.810  -9.956  -5.730  1.00  0.00    -0.287 N 
ATOM      2  H3  UNL     1      13.815  -9.824  -5.912  1.00  0.00     0.184 HD
HETATM    3  C7  UNL     1      15.743  -9.808  -6.796  1.00  0.00     0.263 C 
HETATM    4  O1  UNL     1      16.983  -9.951  -6.564  1.00  0.00    -0.270 OA
ENDROOT
BRANCH   3   5
HETATM    5  C8  UNL     1      15.337  -9.493  -8.168  1.00  0.00     0.282 C 
BRANCH   5   6
HETATM    6  C9  UNL     1      14.733  -8.122  -8.352  1.00  0.00     0.081 C 
BRANCH   6   7
HETATM    7  C10 UNL     1      15.681  -7.044  -8.664  1.00  0.00    -0.056 A 
HETATM    8  C11 UNL     1      16.303  -6.924  -9.890  1.00  0.00     0.007 A 
HETATM    9  C12 UNL     1      17.194  -5.915 -10.189  1.00  0.00     0.001 A 
HETATM   10  C13 UNL     1      17.496  -4.961  -9.235  1.00  0.00     0.000 A 
HETATM   11  C14 UNL     1      16.867  -5.078  -7.992  1.00  0.00     0.001 A 
HETATM   12  C15 UNL     1      15.975  -6.098  -7.708  1.00  0.00     0.007 A 
ENDBRANCH   6   7
ENDBRANCH   5   6
BRANCH   5  13
HETATM   13  N4  UNL     1      14.312 -10.432  -8.652  1.00  0.00    -0.058 N 
ATOM     14  H42 UNL     1      14.669 -11.041  -9.387  1.00  0.00     0.278 HD
ATOM     15  H41 UNL     1      14.093 -11.148  -7.959  1.00  0.00     0.278 HD
BRANCH  13  16
HETATM   16  C16 UNL     1      13.124  -9.705  -9.076  1.00  0.00     0.279 C 
BRANCH  16  17
HETATM   17  C17 UNL     1      12.436 -10.467 -10.181  1.00  0.00     0.008 A 
HETATM   18  C18 UNL     1      11.944 -11.744 -10.148  1.00  0.00     0.017 A 
HETATM   19  C19 UNL     1      11.369 -12.214 -11.258  1.00  0.00     0.008 A 
HETATM   20  C20 UNL     1      11.318 -11.378 -12.345  1.00  0.00     0.050 A 
HETATM   21  S1  UNL     1      12.078  -9.963 -11.771  1.00  0.00    -0.105 SA
ENDBRANCH  16  17
ENDBRANCH  13  16
ENDBRANCH   5  13
ENDBRANCH   3   5
BRANCH   1  22
HETATM   22  N2  UNL     1      15.237 -10.277  -4.446  1.00  0.00    -0.228 NA
HETATM   23  C6  UNL     1      14.652  -9.395  -3.494  1.00  0.00     0.114 C 
HETATM   24  C5  UNL     1      15.034  -9.781  -2.062  1.00  0.00     0.024 C 
HETATM   25  C4  UNL     1      14.753 -11.249  -1.864  1.00  0.00     0.027 C 
HETATM   26  C22 UNL     1      15.423 -12.144  -2.855  1.00  0.00     0.011 C 
HETATM   27  C21 UNL     1      14.908 -11.662  -4.221  1.00  0.00     0.119 C 
BRANCH  25  28
HETATM   28  C2  UNL     1      14.855 -11.667  -0.444  1.00  0.00     0.120 C 
HETATM   29  C1  UNL     1      16.016 -11.033   0.289  1.00  0.00     0.046 C 
HETATM   30  C3  UNL     1      13.623 -11.289   0.351  1.00  0.00     0.046 C 
BRANCH  28  31
HETATM   31  N1  UNL     1      15.002 -13.103  -0.327  1.00  0.00    -0.071 N 
ATOM     32  H13 UNL     1      15.732 -13.479  -0.932  1.00  0.00     0.275 HD
ATOM     33  H12 UNL     1      15.408 -13.391   0.563  1.00  0.00     0.275 HD
ATOM     34  H11 UNL     1      14.087 -13.517  -0.500  1.00  0.00     0.275 HD
ENDBRANCH  28  31
ENDBRANCH  25  28
BRANCH  26  35
HETATM   35  C23 UNL     1      16.876 -12.318  -2.805  1.00  0.00    -0.009 A 
HETATM   36  C24 UNL     1      17.886 -11.853  -3.740  1.00  0.00     0.005 A 
HETATM   37  C25 UNL     1      17.517 -13.349  -3.745  1.00  0.00     0.005 A 
ENDBRANCH  26  35
ENDBRANCH   1  22
TORSDOF 10
ENDMDL
MODEL 4
REMARK VINA RESULT: -7.579283001      2.930      7.677
REMARK  10 active torsions:
REMARK  status: ('A' for Active; 'I' for Inactive)
REMARK    1  A    between atoms: C2_2  and  N1_4 
REMARK    2  A    between atoms: C2_2  and  C4_8 
REMARK    3  A    between atoms: N2_11  and  N3_12 
REMARK       I    between atoms: N3_12  and  C7_14 
REMARK    4  A    between atoms: C7_14  and  C8_16 
REMARK    5  A    between atoms: C8_16  and  C9_17 
REMARK    6  A    between atoms: C8_16  and  N4_24 
REMARK    7  A    between atoms: C9_17  and  C10_18 
REMARK    8  A    between atoms: N4_24  and  C16_27 
REMARK    9  A    between atoms: C16_27  and  C17_28 
REMARK   10  A    between atoms: C22_34  and  C23_35 
ROOT
HETATM    1  N3  UNL     1      16.432  -9.596  -6.207  1.00  0.00    -0.287 N 
ATOM      2  H3  UNL     1      16.093  -8.656  -6.000  1.00  0.00     0.184 HD
HETATM    3  C7  UNL     1      16.013 -10.246  -7.403  1.00  0.00     0.263 C 
HETATM    4  O1  UNL     1      16.452 -11.407  -7.669  1.00  0.00    -0.270 OA
ENDROOT
BRANCH   3   5
HETATM    5  C8  UNL     1      15.087  -9.631  -8.357  1.00  0.00     0.282 C 
BRANCH   5   6
HETATM    6  C9  UNL     1      14.626  -8.242  -7.988  1.00  0.00     0.081 C 
BRANCH   6   7
HETATM    7  C10 UNL     1      15.473  -7.141  -8.462  1.00  0.00    -0.056 A 
HETATM    8  C11 UNL     1      16.095  -7.150  -9.695  1.00  0.00     0.007 A 
HETATM    9  C12 UNL     1      16.892  -6.119 -10.146  1.00  0.00     0.001 A 
HETATM   10  C13 UNL     1      17.095  -5.009  -9.348  1.00  0.00     0.000 A 
HETATM   11  C14 UNL     1      16.468  -4.995  -8.100  1.00  0.00     0.001 A 
HETATM   12  C15 UNL     1      15.671  -6.038  -7.661  1.00  0.00     0.007 A 
ENDBRANCH   6   7
ENDBRANCH   5   6
BRANCH   5  13
HETATM   13  N4  UNL     1      13.853 -10.422  -8.492  1.00  0.00    -0.058 N 
ATOM     14  H42 UNL     1      14.027 -11.327  -8.929  1.00  0.00     0.278 HD
ATOM     15  H41 UNL     1      13.513 -10.755  -7.590  1.00  0.00     0.278 HD
BRANCH  13  16
HETATM   16  C16 UNL     1      12.842  -9.657  -9.208  1.00  0.00     0.279 C 
BRANCH  16  17
HETATM   17  C17 UNL     1      12.279 -10.494 -10.330  1.00  0.00     0.008 A 
HETATM   18  C18 UNL     1      11.832 -11.787 -10.278  1.00  0.00     0.017 A 
HETATM   19  C19 UNL     1      11.373 -12.328 -11.409  1.00  0.00     0.008 A 
HETATM   20  C20 UNL     1      11.385 -11.543 -12.535  1.00  0.00     0.050 A 
HETATM   21  S1  UNL     1      12.042 -10.075 -11.966  1.00  0.00    -0.105 SA
ENDBRANCH  16  17
ENDBRANCH  13  16
ENDBRANCH   5  13
ENDBRANCH   3   5
BRANCH   1  22
HETATM   22  N2  UNL     1      17.295 -10.225  -5.316  1.00  0.00    -0.228 NA
HETATM   23  C6  UNL     1      18.381  -9.366  -4.988  1.00  0.00     0.114 C 
HETATM   24  C5  UNL     1      19.302  -9.999  -3.941  1.00  0.00     0.024 C 
HETATM   25  C4  UNL     1      18.463 -10.476  -2.782  1.00  0.00     0.027 C 
HETATM   26  C22 UNL     1      17.363 -11.413  -3.164  1.00  0.00     0.011 C 
HETATM   27  C21 UNL     1      16.515 -10.623  -4.173  1.00  0.00     0.119 C 
BRANCH  25  28
HETATM   28  C2  UNL     1      19.278 -10.879  -1.610  1.00  0.00     0.120 C 
HETATM   29  C1  UNL     1      20.454 -11.761  -1.967  1.00  0.00     0.046 C 
HETATM   30  C3  UNL     1      19.873  -9.686  -0.893  1.00  0.00     0.046 C 
BRANCH  28  31
HETATM   31  N1  UNL     1      18.481 -11.595  -0.636  1.00  0.00    -0.071 N 
ATOM     32  H13 UNL     1      18.684 -12.595  -0.612  1.00  0.00     0.275 HD
ATOM     33  H12 UNL     1      18.744 -11.385   0.327  1.00  0.00     0.275 HD
ATOM     34  H11 UNL     1      17.502 -11.391  -0.835  1.00  0.00     0.275 HD
ENDBRANCH  28  31
ENDBRANCH  25  28
BRANCH  26  35
HETATM   35  C23 UNL     1      17.690 -12.769  -3.607  1.00  0.00    -0.009 A 
HETATM   36  C24 UNL     1      16.953 -13.640  -4.507  1.00  0.00     0.005 A 
HETATM   37  C25 UNL     1      16.910 -13.942  -2.998  1.00  0.00     0.005 A 
ENDBRANCH  26  35
ENDBRANCH   1  22
TORSDOF 10
ENDMDL
MODEL 5
REMARK VINA RESULT: -7.500421979      2.837      7.696
REMARK  10 active torsions:
REMARK  status: ('A' for Active; 'I' for Inactive)
REMARK    1  A    between atoms: C2_2  and  N1_4 
REMARK    2  A    between atoms: C2_2  and  C4_8 
REMARK    3  A    between atoms: N2_11  and  N3_12 
REMARK       I    between atoms: N3_12  and  C7_14 
REMARK    4  A    between atoms: C7_14  and  C8_16 
REMARK    5  A    between atoms: C8_16  and  C9_17 
REMARK    6  A    between atoms: C8_16  and  N4_24 
REMARK    7  A    between atoms: C9_17  and  C10_18 
REMARK    8  A    between atoms: N4_24  and  C16_27 
REMARK    9  A    between atoms: C16_27  and  C17_28 
REMARK   10  A    between atoms: C22_34  and  C23_35 
ROOT
HETATM    1  N3  UNL     1      16.468  -9.584  -6.214  1.00  0.00    -0.287 N 
ATOM      2  H3  UNL     1      16.172  -8.623  -6.043  1.00  0.00     0.184 HD
HETATM    3  C7  UNL     1      16.015 -10.261  -7.382  1.00  0.00     0.263 C 
HETATM    4  O1  UNL     1      16.402 -11.449  -7.605  1.00  0.00    -0.270 OA
ENDROOT
BRANCH   3   5
HETATM    5  C8  UNL     1      15.109  -9.644  -8.355  1.00  0.00     0.282 C 
BRANCH   5   6
HETATM    6  C9  UNL     1      14.616  -8.268  -7.978  1.00  0.00     0.081 C 
BRANCH   6   7
HETATM    7  C10 UNL     1      15.458  -7.147  -8.415  1.00  0.00    -0.056 A 
HETATM    8  C11 UNL     1      15.711  -6.046  -7.622  1.00  0.00     0.007 A 
HETATM    9  C12 UNL     1      16.501  -4.991  -8.027  1.00  0.00     0.001 A 
HETATM   10  C13 UNL     1      17.081  -5.008  -9.282  1.00  0.00     0.000 A 
HETATM   11  C14 UNL     1      16.827  -6.122 -10.087  1.00  0.00     0.001 A 
HETATM   12  C15 UNL     1      16.032  -7.173  -9.667  1.00  0.00     0.007 A 
ENDBRANCH   6   7
ENDBRANCH   5   6
BRANCH   5  13
HETATM   13  N4  UNL     1      13.892 -10.451  -8.540  1.00  0.00    -0.058 N 
ATOM     14  H42 UNL     1      14.069 -11.285  -9.100  1.00  0.00     0.278 HD
ATOM     15  H41 UNL     1      13.603 -10.910  -7.676  1.00  0.00     0.278 HD
BRANCH  13  16
HETATM   16  C16 UNL     1      12.828  -9.633  -9.104  1.00  0.00     0.279 C 
BRANCH  16  17
HETATM   17  C17 UNL     1      12.309 -10.280 -10.364  1.00  0.00     0.008 A 
HETATM   18  C18 UNL     1      12.151  -9.715 -11.600  1.00  0.00     0.017 A 
HETATM   19  C19 UNL     1      11.669 -10.489 -12.576  1.00  0.00     0.008 A 
HETATM   20  C20 UNL     1      11.371 -11.791 -12.261  1.00  0.00     0.050 A 
HETATM   21  S1  UNL     1      11.777 -11.883 -10.607  1.00  0.00    -0.105 SA
ENDBRANCH  16  17
ENDBRANCH  13  16
ENDBRANCH   5  13
ENDBRANCH   3   5
BRANCH   1  22
HETATM   22  N2  UNL     1      17.310 -10.215  -5.304  1.00  0.00    -0.228 NA
HETATM   23  C6  UNL     1      18.405  -9.368  -4.973  1.00  0.00     0.114 C 
HETATM   24  C5  UNL     1      19.302 -10.001  -3.905  1.00  0.00     0.024 C 
HETATM   25  C4  UNL     1      18.440 -10.450  -2.752  1.00  0.00     0.027 C 
HETATM   26  C22 UNL     1      17.331 -11.375  -3.135  1.00  0.00     0.011 C 
HETATM   27  C21 UNL     1      16.509 -10.585  -4.166  1.00  0.00     0.119 C 
BRANCH  25  28
HETATM   28  C2  UNL     1      19.233 -10.850  -1.563  1.00  0.00     0.120 C 
HETATM   29  C1  UNL     1      18.433 -11.620  -0.536  1.00  0.00     0.046 C 
HETATM   30  C3  UNL     1      20.392 -11.753  -1.929  1.00  0.00     0.046 C 
BRANCH  28  31
HETATM   31  N1  UNL     1      19.798  -9.696  -0.894  1.00  0.00    -0.071 N 
ATOM     32  H13 UNL     1      20.067  -8.953  -1.540  1.00  0.00     0.275 HD
ATOM     33  H12 UNL     1      19.108  -9.166  -0.363  1.00  0.00     0.275 HD
ATOM     34  H11 UNL     1      20.574 -10.027  -0.321  1.00  0.00     0.275 HD
ENDBRANCH  28  31
ENDBRANCH  25  28
BRANCH  26  35
HETATM   35  C23 UNL     1      17.643 -12.741  -3.557  1.00  0.00    -0.009 A 
HETATM   36  C24 UNL     1      16.952 -13.582  -4.520  1.00  0.00     0.005 A 
HETATM   37  C25 UNL     1      16.771 -13.885  -3.021  1.00  0.00     0.005 A 
ENDBRANCH  26  35
ENDBRANCH   1  22
TORSDOF 10
ENDMDL
