MODEL 1
REMARK VINA RESULT: -7.430340788      0.000      0.000
REMARK  8 active torsions:
REMARK  status: ('A' for Active; 'I' for Inactive)
REMARK    1  A    between atoms: N1_4  and  C4_5 
REMARK    2  A    between atoms: C4_5  and  C6_7 
REMARK    3  A    between atoms: C6_7  and  O1_8 
REMARK    4  A    between atoms: C10_13  and  C11_14 
REMARK    5  A    between atoms: C11_14  and  N2_15 
REMARK    6  A    between atoms: N2_15  and  C13_17 
REMARK    7  A    between atoms: C13_17  and  C14_18 
REMARK    8  A    between atoms: C18_24  and  N4_25 
ROOT
HETATM    1  N2  UNL     1     -10.212   6.235   1.233  1.00  0.00    -0.373 N 
HETATM    2  C12 UNL     1     -10.960   5.088   1.527  1.00  0.00     0.154 C 
ENDROOT
BRANCH   1   3
HETATM    3  C11 UNL     1     -10.862   7.232   0.514  1.00  0.00     0.068 C 
BRANCH   3   4
HETATM    4  C10 UNL     1     -10.947   7.081  -0.991  1.00  0.00     0.029 C 
HETATM    5  C2  UNL     1     -12.296   7.336  -1.565  1.00  0.00     0.019 C 
HETATM    6  C1  UNL     1     -13.190   6.096  -1.483  1.00  0.00     0.012 C 
HETATM    7  C3  UNL     1     -12.197   7.663  -3.056  1.00  0.00     0.278 C 
HETATM    8  N1  UNL     1     -11.478   6.631  -3.792  1.00  0.00     0.095 N 
HETATM    9  C7  UNL     1     -10.140   7.168  -4.021  1.00  0.00     0.273 C 
HETATM   10  C8  UNL     1      -9.317   6.808  -2.808  1.00  0.00     0.031 C 
HETATM   11  C9  UNL     1      -9.799   7.725  -1.671  1.00  0.00     0.012 C 
BRANCH   8  12
HETATM   12  C4  UNL     1     -12.159   6.327  -5.043  1.00  0.00     0.242 C 
HETATM   13  C5  UNL     1     -13.049   7.457  -5.500  1.00  0.00     0.045 C 
BRANCH  12  14
HETATM   14  C6  UNL     1     -11.184   6.004  -6.143  1.00  0.00     0.199 C 
BRANCH  14  15
HETATM   15  O1  UNL     1     -11.601   4.796  -6.730  1.00  0.00    -0.399 OA
ATOM     16  H1  UNL     1     -12.006   5.012  -7.562  1.00  0.00     0.209 HD
ENDBRANCH  14  15
ENDBRANCH  12  14
ENDBRANCH   8  12
ENDBRANCH   3   4
ENDBRANCH   1   3
BRANCH   1  17
HETATM   17  C13 UNL     1      -8.906   6.360   1.664  1.00  0.00     0.105 C 
BRANCH  17  18
HETATM   18  C14 UNL     1      -8.434   7.296   2.641  1.00  0.00     0.030 A 
HETATM   19  C15 UNL     1      -7.583   8.317   2.196  1.00  0.00    -0.035 A 
HETATM   20  C16 UNL     1      -7.062   9.221   3.097  1.00  0.00    -0.035 A 
HETATM   21  C22 UNL     1      -7.286   8.386   0.759  1.00  0.00     0.040 C 
HETATM   22  C17 UNL     1      -7.358   9.147   4.440  1.00  0.00     0.097 A 
HETATM   23  C19 UNL     1      -6.155  10.319   2.662  1.00  0.00     0.040 C 
HETATM   24  N3  UNL     1      -8.159   8.182   4.853  1.00  0.00    -0.351 N 
HETATM   25  C18 UNL     1      -8.694   7.266   3.985  1.00  0.00     0.111 A 
ATOM     26  H3  UNL     1      -8.385   8.116   5.845  1.00  0.00     0.166 HD
HETATM   27  C20 UNL     1      -5.295   9.717   1.543  1.00  0.00     0.005 C 
HETATM   28  C21 UNL     1      -6.256   9.421   0.418  1.00  0.00     0.005 C 
BRANCH  25  29
HETATM   29  N4  UNL     1      -9.425   6.367   4.536  1.00  0.00    -0.385 N 
ATOM     30  H42 UNL     1      -9.325   5.433   4.139  1.00  0.00     0.157 HD
ATOM     31  H41 UNL     1     -10.077   6.569   5.294  1.00  0.00     0.157 HD
ENDBRANCH  25  29
ENDBRANCH  17  18
ENDBRANCH   1  17
TORSDOF 8
ENDMDL
MODEL 2
REMARK VINA RESULT: -7.339065007      3.984      7.425
REMARK  8 active torsions:
REMARK  status: ('A' for Active; 'I' for Inactive)
REMARK    1  A    between atoms: N1_4  and  C4_5 
REMARK    2  A    between atoms: C4_5  and  C6_7 
REMARK    3  A    between atoms: C6_7  and  O1_8 
REMARK    4  A    between atoms: C10_13  and  C11_14 
REMARK    5  A    between atoms: C11_14  and  N2_15 
REMARK    6  A    between atoms: N2_15  and  C13_17 
REMARK    7  A    between atoms: C13_17  and  C14_18 
REMARK    8  A    between atoms: C18_24  and  N4_25 
ROOT
HETATM    1  N2  UNL     1     -13.697   6.875  -0.509  1.00  0.00    -0.373 N 
HETATM    2  C12 UNL     1     -14.508   7.507   0.442  1.00  0.00     0.154 C 
ENDROOT
BRANCH   1   3
HETATM    3  C11 UNL     1     -13.756   5.487  -0.550  1.00  0.00     0.068 C 
BRANCH   3   4
HETATM    4  C10 UNL     1     -13.361   4.723   0.696  1.00  0.00     0.029 C 
HETATM    5  C2  UNL     1     -14.186   3.515   0.971  1.00  0.00     0.019 C 
HETATM    6  C1  UNL     1     -15.480   3.869   1.709  1.00  0.00     0.012 C 
HETATM    7  C3  UNL     1     -13.445   2.552   1.899  1.00  0.00     0.278 C 
HETATM    8  N1  UNL     1     -13.011   3.206   3.128  1.00  0.00     0.095 N 
HETATM    9  C7  UNL     1     -11.585   3.466   2.956  1.00  0.00     0.273 C 
HETATM   10  C8  UNL     1     -11.470   4.800   2.261  1.00  0.00     0.031 C 
HETATM   11  C9  UNL     1     -11.892   4.565   0.801  1.00  0.00     0.012 C 
BRANCH   8  12
HETATM   12  C4  UNL     1     -13.270   2.353   4.279  1.00  0.00     0.242 C 
HETATM   13  C5  UNL     1     -12.119   2.343   5.255  1.00  0.00     0.045 C 
BRANCH  12  14
HETATM   14  C6  UNL     1     -14.519   2.768   5.008  1.00  0.00     0.199 C 
BRANCH  14  15
HETATM   15  O1  UNL     1     -15.265   1.602   5.257  1.00  0.00    -0.399 OA
ATOM     16  H1  UNL     1     -16.184   1.844   5.238  1.00  0.00     0.209 HD
ENDBRANCH  14  15
ENDBRANCH  12  14
ENDBRANCH   8  12
ENDBRANCH   3   4
ENDBRANCH   1   3
BRANCH   1  17
HETATM   17  C13 UNL     1     -12.905   7.612  -1.369  1.00  0.00     0.105 C 
BRANCH  17  18
HETATM   18  C14 UNL     1     -11.991   7.075  -2.333  1.00  0.00     0.030 A 
HETATM   19  C15 UNL     1     -10.651   6.943  -1.946  1.00  0.00    -0.035 A 
HETATM   20  C16 UNL     1      -9.718   6.474  -2.845  1.00  0.00    -0.035 A 
HETATM   21  C22 UNL     1     -10.294   7.311  -0.569  1.00  0.00     0.040 C 
HETATM   22  C17 UNL     1     -10.071   6.125  -4.130  1.00  0.00     0.097 A 
HETATM   23  C19 UNL     1      -8.284   6.320  -2.471  1.00  0.00     0.040 C 
HETATM   24  N3  UNL     1     -11.335   6.253  -4.488  1.00  0.00    -0.351 N 
HETATM   25  C18 UNL     1     -12.289   6.717  -3.620  1.00  0.00     0.111 A 
ATOM     26  H3  UNL     1     -11.609   6.000  -5.437  1.00  0.00     0.166 HD
HETATM   27  C20 UNL     1      -7.978   7.503  -1.542  1.00  0.00     0.005 C 
HETATM   28  C21 UNL     1      -8.818   7.270  -0.310  1.00  0.00     0.005 C 
BRANCH  25  29
HETATM   29  N4  UNL     1     -13.466   6.820  -4.121  1.00  0.00    -0.385 N 
ATOM     30  H42 UNL     1     -14.213   6.936  -3.436  1.00  0.00     0.157 HD
ATOM     31  H41 UNL     1     -13.651   6.764  -5.123  1.00  0.00     0.157 HD
ENDBRANCH  25  29
ENDBRANCH  17  18
ENDBRANCH   1  17
TORSDOF 8
ENDMDL
MODEL 3
REMARK VINA RESULT: -7.212401311      3.321      4.686
REMARK  8 active torsions:
REMARK  status: ('A' for Active; 'I' for Inactive)
REMARK    1  A    between atoms: N1_4  and  C4_5 
REMARK    2  A    between atoms: C4_5  and  C6_7 
REMARK    3  A    between atoms: C6_7  and  O1_8 
REMARK    4  A    between atoms: C10_13  and  C11_14 
REMARK    5  A    between atoms: C11_14  and  N2_15 
REMARK    6  A    between atoms: N2_15  and  C13_17 
REMARK    7  A    between atoms: C13_17  and  C14_18 
REMARK    8  A    between atoms: C18_24  and  N4_25 
ROOT
HETATM    1  N2  UNL     1      -9.277   6.774   0.195  1.00  0.00    -0.373 N 
HETATM    2  C12 UNL     1      -8.926   6.530  -1.139  1.00  0.00     0.154 C 
ENDROOT
BRANCH   1   3
HETATM    3  C11 UNL     1     -10.600   7.129   0.432  1.00  0.00     0.068 C 
BRANCH   3   4
HETATM    4  C10 UNL     1     -11.537   6.061   0.959  1.00  0.00     0.029 C 
HETATM    5  C2  UNL     1     -12.905   6.093   0.373  1.00  0.00     0.019 C 
HETATM    6  C1  UNL     1     -13.804   7.105   1.087  1.00  0.00     0.012 C 
HETATM    7  C3  UNL     1     -13.601   4.742   0.549  1.00  0.00     0.278 C 
HETATM    8  N1  UNL     1     -13.615   4.316   1.943  1.00  0.00     0.095 N 
HETATM    9  C7  UNL     1     -12.564   3.310   2.060  1.00  0.00     0.273 C 
HETATM   10  C8  UNL     1     -11.284   4.054   2.351  1.00  0.00     0.031 C 
HETATM   11  C9  UNL     1     -10.874   4.739   1.037  1.00  0.00     0.012 C 
BRANCH   8  12
HETATM   12  C4  UNL     1     -14.920   3.777   2.299  1.00  0.00     0.242 C 
HETATM   13  C5  UNL     1     -15.915   3.890   1.169  1.00  0.00     0.045 C 
BRANCH  12  14
HETATM   14  C6  UNL     1     -14.830   2.336   2.722  1.00  0.00     0.199 C 
BRANCH  14  15
HETATM   15  O1  UNL     1     -15.402   2.240   4.004  1.00  0.00    -0.399 OA
ATOM     16  H1  UNL     1     -16.126   1.628   3.946  1.00  0.00     0.209 HD
ENDBRANCH  14  15
ENDBRANCH  12  14
ENDBRANCH   8  12
ENDBRANCH   3   4
ENDBRANCH   1   3
BRANCH   1  17
HETATM   17  C13 UNL     1      -8.349   6.639   1.209  1.00  0.00     0.105 C 
BRANCH  17  18
HETATM   18  C14 UNL     1      -8.145   7.563   2.285  1.00  0.00     0.030 A 
HETATM   19  C15 UNL     1      -7.297   8.654   2.045  1.00  0.00    -0.035 A 
HETATM   20  C16 UNL     1      -7.028   9.552   3.055  1.00  0.00    -0.035 A 
HETATM   21  C22 UNL     1      -6.729   8.799   0.698  1.00  0.00     0.040 C 
HETATM   22  C17 UNL     1      -7.577   9.406   4.310  1.00  0.00     0.097 A 
HETATM   23  C19 UNL     1      -6.134  10.723   2.838  1.00  0.00     0.040 C 
HETATM   24  N3  UNL     1      -8.373   8.376   4.529  1.00  0.00    -0.351 N 
HETATM   25  C18 UNL     1      -8.662   7.464   3.548  1.00  0.00     0.111 A 
ATOM     26  H3  UNL     1      -8.785   8.257   5.455  1.00  0.00     0.166 HD
HETATM   27  C20 UNL     1      -5.030  10.221   1.897  1.00  0.00     0.005 C 
HETATM   28  C21 UNL     1      -5.728   9.910   0.596  1.00  0.00     0.005 C 
BRANCH  25  29
HETATM   29  N4  UNL     1      -9.422   6.499   3.920  1.00  0.00    -0.385 N 
ATOM     30  H42 UNL     1     -10.413   6.632   3.714  1.00  0.00     0.157 HD
ATOM     31  H41 UNL     1      -9.074   5.673   4.407  1.00  0.00     0.157 HD
ENDBRANCH  25  29
ENDBRANCH  17  18
ENDBRANCH   1  17
TORSDOF 8
ENDMDL
MODEL 4
REMARK VINA RESULT: -7.077596794      0.950      1.100
REMARK  8 active torsions:
REMARK  status: ('A' for Active; 'I' for Inactive)
REMARK    1  A    between atoms: N1_4  and  C4_5 
REMARK    2  A    between atoms: C4_5  and  C6_7 
REMARK    3  A    between atoms: C6_7  and  O1_8 
REMARK    4  A    between atoms: C10_13  and  C11_14 
REMARK    5  A    between atoms: C11_14  and  N2_15 
REMARK    6  A    between atoms: N2_15  and  C13_17 
REMARK    7  A    between atoms: C13_17  and  C14_18 
REMARK    8  A    between atoms: C18_24  and  N4_25 
ROOT
HETATM    1  N2  UNL     1      -9.793   6.387   1.042  1.00  0.00    -0.373 N 
HETATM    2  C12 UNL     1     -10.696   5.378   1.397  1.00  0.00     0.154 C 
ENDROOT
BRANCH   1   3
HETATM    3  C11 UNL     1     -10.207   7.270   0.051  1.00  0.00     0.068 C 
BRANCH   3   4
HETATM    4  C10 UNL     1     -10.047   6.841  -1.393  1.00  0.00     0.029 C 
HETATM    5  C2  UNL     1     -11.116   7.328  -2.306  1.00  0.00     0.019 C 
HETATM    6  C1  UNL     1     -12.348   6.420  -2.270  1.00  0.00     0.012 C 
HETATM    7  C3  UNL     1     -10.640   7.301  -3.760  1.00  0.00     0.278 C 
HETATM    8  N1  UNL     1     -10.150   5.985  -4.147  1.00  0.00     0.095 N 
HETATM    9  C7  UNL     1      -8.693   6.080  -4.118  1.00  0.00     0.273 C 
HETATM   10  C8  UNL     1      -8.269   5.769  -2.704  1.00  0.00     0.031 C 
HETATM   11  C9  UNL     1      -8.649   6.996  -1.859  1.00  0.00     0.012 C 
BRANCH   8  12
HETATM   12  C4  UNL     1     -10.641   5.626  -5.470  1.00  0.00     0.242 C 
HETATM   13  C5  UNL     1     -11.798   6.491  -5.907  1.00  0.00     0.045 C 
BRANCH  12  14
HETATM   14  C6  UNL     1      -9.555   5.711  -6.508  1.00  0.00     0.199 C 
BRANCH  14  15
HETATM   15  O1  UNL     1     -10.170   6.023  -7.734  1.00  0.00    -0.399 OA
ATOM     16  H1  UNL     1     -10.745   5.300  -7.954  1.00  0.00     0.209 HD
ENDBRANCH  14  15
ENDBRANCH  12  14
ENDBRANCH   8  12
ENDBRANCH   3   4
ENDBRANCH   1   3
BRANCH   1  17
HETATM   17  C13 UNL     1      -8.569   6.498   1.673  1.00  0.00     0.105 C 
BRANCH  17  18
HETATM   18  C14 UNL     1      -8.241   7.437   2.705  1.00  0.00     0.030 A 
HETATM   19  C15 UNL     1      -7.411   8.512   2.357  1.00  0.00    -0.035 A 
HETATM   20  C16 UNL     1      -7.025   9.423   3.317  1.00  0.00    -0.035 A 
HETATM   21  C22 UNL     1      -6.986   8.626   0.955  1.00  0.00     0.040 C 
HETATM   22  C17 UNL     1      -7.441   9.306   4.625  1.00  0.00     0.097 A 
HETATM   23  C19 UNL     1      -6.144  10.577   2.986  1.00  0.00     0.040 C 
HETATM   24  N3  UNL     1      -8.222   8.291   4.946  1.00  0.00    -0.351 N 
HETATM   25  C18 UNL     1      -8.623   7.366   4.017  1.00  0.00     0.111 A 
ATOM     26  H3  UNL     1      -8.535   8.193   5.911  1.00  0.00     0.166 HD
HETATM   27  C20 UNL     1      -5.152  10.044   1.943  1.00  0.00     0.005 C 
HETATM   28  C21 UNL     1      -5.988   9.721   0.728  1.00  0.00     0.005 C 
BRANCH  25  29
HETATM   29  N4  UNL     1      -9.352   6.418   4.484  1.00  0.00    -0.385 N 
ATOM     30  H42 UNL     1     -10.208   6.726   4.947  1.00  0.00     0.157 HD
ATOM     31  H41 UNL     1      -9.089   5.434   4.425  1.00  0.00     0.157 HD
ENDBRANCH  25  29
ENDBRANCH  17  18
ENDBRANCH   1  17
TORSDOF 8
ENDMDL
MODEL 5
REMARK VINA RESULT: -7.069224186      2.902      4.170
REMARK  8 active torsions:
REMARK  status: ('A' for Active; 'I' for Inactive)
REMARK    1  A    between atoms: N1_4  and  C4_5 
REMARK    2  A    between atoms: C4_5  and  C6_7 
REMARK    3  A    between atoms: C6_7  and  O1_8 
REMARK    4  A    between atoms: C10_13  and  C11_14 
REMARK    5  A    between atoms: C11_14  and  N2_15 
REMARK    6  A    between atoms: N2_15  and  C13_17 
REMARK    7  A    between atoms: C13_17  and  C14_18 
REMARK    8  A    between atoms: C18_24  and  N4_25 
ROOT
HETATM    1  N2  UNL     1      -8.805   6.856   0.142  1.00  0.00    -0.373 N 
HETATM    2  C12 UNL     1      -8.515   6.231  -1.077  1.00  0.00     0.154 C 
ENDROOT
BRANCH   1   3
HETATM    3  C11 UNL     1     -10.023   7.522   0.223  1.00  0.00     0.068 C 
BRANCH   3   4
HETATM    4  C10 UNL     1     -11.289   6.690   0.204  1.00  0.00     0.029 C 
HETATM    5  C2  UNL     1     -11.584   5.982   1.479  1.00  0.00     0.019 C 
HETATM    6  C1  UNL     1     -10.825   4.656   1.580  1.00  0.00     0.012 C 
HETATM    7  C3  UNL     1     -13.064   5.604   1.558  1.00  0.00     0.278 C 
HETATM    8  N1  UNL     1     -13.492   4.836   0.396  1.00  0.00     0.095 N 
HETATM    9  C7  UNL     1     -14.215   5.775  -0.456  1.00  0.00     0.273 C 
HETATM   10  C8  UNL     1     -13.185   6.441  -1.335  1.00  0.00     0.031 C 
HETATM   11  C9  UNL     1     -12.412   7.416  -0.432  1.00  0.00     0.012 C 
BRANCH   8  12
HETATM   12  C4  UNL     1     -14.333   3.719   0.804  1.00  0.00     0.242 C 
HETATM   13  C5  UNL     1     -13.733   2.936   1.946  1.00  0.00     0.045 C 
BRANCH  12  14
HETATM   14  C6  UNL     1     -15.710   4.176   1.201  1.00  0.00     0.199 C 
BRANCH  14  15
HETATM   15  O1  UNL     1     -16.093   3.423   2.326  1.00  0.00    -0.399 OA
ATOM     16  H1  UNL     1     -16.381   2.574   2.013  1.00  0.00     0.209 HD
ENDBRANCH  14  15
ENDBRANCH  12  14
ENDBRANCH   8  12
ENDBRANCH   3   4
ENDBRANCH   1   3
BRANCH   1  17
HETATM   17  C13 UNL     1      -7.925   6.782   1.204  1.00  0.00     0.105 C 
BRANCH  17  18
HETATM   18  C14 UNL     1      -7.832   7.722   2.282  1.00  0.00     0.030 A 
HETATM   19  C15 UNL     1      -7.051   8.867   2.072  1.00  0.00    -0.035 A 
HETATM   20  C16 UNL     1      -6.889   9.785   3.086  1.00  0.00    -0.035 A 
HETATM   21  C22 UNL     1      -6.436   9.045   0.750  1.00  0.00     0.040 C 
HETATM   22  C17 UNL     1      -7.482   9.607   4.317  1.00  0.00     0.097 A 
HETATM   23  C19 UNL     1      -6.068  11.013   2.901  1.00  0.00     0.040 C 
HETATM   24  N3  UNL     1      -8.214   8.526   4.509  1.00  0.00    -0.351 N 
HETATM   25  C18 UNL     1      -8.396   7.592   3.522  1.00  0.00     0.111 A 
ATOM     26  H3  UNL     1      -8.657   8.381   5.416  1.00  0.00     0.166 HD
HETATM   27  C20 UNL     1      -4.892  10.585   2.013  1.00  0.00     0.005 C 
HETATM   28  C21 UNL     1      -5.509  10.222   0.684  1.00  0.00     0.005 C 
BRANCH  25  29
HETATM   29  N4  UNL     1      -9.104   6.578   3.866  1.00  0.00    -0.385 N 
ATOM     30  H42 UNL     1     -10.105   6.762   3.942  1.00  0.00     0.157 HD
ATOM     31  H41 UNL     1      -8.702   5.664   4.077  1.00  0.00     0.157 HD
ENDBRANCH  25  29
ENDBRANCH  17  18
ENDBRANCH   1  17
TORSDOF 8
ENDMDL
