MODEL 1
REMARK VINA RESULT: -8.108148263      0.000      0.000
REMARK  10 active torsions:
REMARK  status: ('A' for Active; 'I' for Inactive)
REMARK    1  A    between atoms: O1_1  and  N1_3 
REMARK    2  A    between atoms: C1_5  and  O2_6 
REMARK    3  A    between atoms: C1_5  and  C2_8 
REMARK    4  A    between atoms: C2_8  and  C3_9 
REMARK    5  A    between atoms: C3_9  and  C4_10 
REMARK    6  A    between atoms: C4_10  and  C5_11 
REMARK    7  A    between atoms: C4_10  and  N3_17 
REMARK    8  A    between atoms: C5_11  and  N2_12 
REMARK    9  A    between atoms: N3_17  and  C10_19 
REMARK   10  A    between atoms: C10_19  and  N4_21 
ROOT
HETATM    1  C4  UNL     1      -9.479   7.024   0.606  1.00  0.00     0.112 C 
ENDROOT
BRANCH   1   2
HETATM    2  C3  UNL     1      -9.097   6.497   1.984  1.00  0.00     0.035 C 
BRANCH   2   3
HETATM    3  C2  UNL     1      -9.744   7.371   3.022  1.00  0.00     0.088 C 
BRANCH   3   4
HETATM    4  C1  UNL     1      -8.938   7.322   4.257  1.00  0.00     0.135 C 
HETATM    5  N1  UNL     1      -8.310   8.313   4.722  1.00  0.00    -0.251 N 
ATOM      6  H1  UNL     1      -7.775   8.197   5.582  1.00  0.00     0.196 HD
BRANCH   5   7
HETATM    7  O1  UNL     1      -8.322   9.537   4.113  1.00  0.00    -0.288 OA
ATOM      8  H1  UNL     1      -8.692  10.308   4.528  1.00  0.00     0.244 HD
ENDBRANCH   5   7
BRANCH   4   9
HETATM    9  O2  UNL     1      -8.883   6.097   4.932  1.00  0.00    -0.348 OA
ATOM     10  H2  UNL     1      -8.058   5.806   5.302  1.00  0.00     0.219 HD
ENDBRANCH   4   9
ENDBRANCH   3   4
ENDBRANCH   2   3
ENDBRANCH   1   2
BRANCH   1  11
HETATM   11  C5  UNL     1      -8.225   7.089  -0.246  1.00  0.00     0.297 C 
BRANCH  11  12
HETATM   12  N2  UNL     1      -7.760   8.445  -0.400  1.00  0.00     0.090 N 
HETATM   13  C6  UNL     1      -6.928   8.874   0.678  1.00  0.00     0.272 C 
HETATM   14  C7  UNL     1      -5.603   9.292   0.142  1.00  0.00     0.032 C 
HETATM   15  C8  UNL     1      -5.821   9.461  -1.345  1.00  0.00     0.032 C 
HETATM   16  C9  UNL     1      -7.076   8.679  -1.634  1.00  0.00     0.272 C 
ENDBRANCH  11  12
ENDBRANCH   1  11
BRANCH   1  17
HETATM   17  N3  UNL     1     -10.416   6.039   0.046  1.00  0.00    -0.361 N 
ATOM     18  H3  UNL     1     -10.030   5.254  -0.478  1.00  0.00     0.162 HD
BRANCH  17  19
HETATM   19  C10 UNL     1     -11.804   6.117   0.189  1.00  0.00     0.170 C 
HETATM   20  S1  UNL     1     -12.666   7.276  -0.550  1.00  0.00    -0.041 SA
BRANCH  19  21
HETATM   21  N4  UNL     1     -12.495   5.178   1.005  1.00  0.00    -0.354 N 
HETATM   22  C11 UNL     1     -13.941   5.167   1.080  1.00  0.00     0.130 C 
HETATM   23  C12 UNL     1     -14.413   3.700   1.089  1.00  0.00     0.059 C 
HETATM   24  C13 UNL     1     -13.871   3.141   2.384  1.00  0.00    -0.049 A 
HETATM   25  C14 UNL     1     -14.678   2.381   3.223  1.00  0.00     0.008 A 
HETATM   26  C18 UNL     1     -12.578   3.450   2.656  1.00  0.00    -0.034 A 
HETATM   27  C15 UNL     1     -14.132   1.908   4.412  1.00  0.00     0.001 A 
HETATM   28  C16 UNL     1     -12.835   2.204   4.711  1.00  0.00     0.001 A 
HETATM   29  C17 UNL     1     -12.054   2.963   3.858  1.00  0.00     0.009 A 
HETATM   30  C19 UNL     1     -11.730   4.231   1.762  1.00  0.00     0.164 C 
ENDBRANCH  19  21
ENDBRANCH  17  19
ENDBRANCH   1  17
TORSDOF 10
ENDMDL
MODEL 2
REMARK VINA RESULT: -8.104133997      1.228      1.726
REMARK  10 active torsions:
REMARK  status: ('A' for Active; 'I' for Inactive)
REMARK    1  A    between atoms: O1_1  and  N1_3 
REMARK    2  A    between atoms: C1_5  and  O2_6 
REMARK    3  A    between atoms: C1_5  and  C2_8 
REMARK    4  A    between atoms: C2_8  and  C3_9 
REMARK    5  A    between atoms: C3_9  and  C4_10 
REMARK    6  A    between atoms: C4_10  and  C5_11 
REMARK    7  A    between atoms: C4_10  and  N3_17 
REMARK    8  A    between atoms: C5_11  and  N2_12 
REMARK    9  A    between atoms: N3_17  and  C10_19 
REMARK   10  A    between atoms: C10_19  and  N4_21 
ROOT
HETATM    1  C4  UNL     1      -9.346   7.135   0.505  1.00  0.00     0.112 C 
ENDROOT
BRANCH   1   2
HETATM    2  C3  UNL     1      -8.721   6.802   1.854  1.00  0.00     0.035 C 
BRANCH   2   3
HETATM    3  C2  UNL     1      -9.640   7.296   2.937  1.00  0.00     0.088 C 
BRANCH   3   4
HETATM    4  C1  UNL     1      -8.921   7.260   4.226  1.00  0.00     0.135 C 
HETATM    5  N1  UNL     1      -8.335   8.260   4.726  1.00  0.00    -0.251 N 
ATOM      6  H1  UNL     1      -7.860   8.154   5.622  1.00  0.00     0.196 HD
BRANCH   5   7
HETATM    7  O1  UNL     1      -8.314   9.480   4.110  1.00  0.00    -0.288 OA
ATOM      8  H1  UNL     1      -8.217  10.292   4.593  1.00  0.00     0.244 HD
ENDBRANCH   5   7
BRANCH   4   9
HETATM    9  O2  UNL     1      -8.904   6.041   4.911  1.00  0.00    -0.348 OA
ATOM     10  H2  UNL     1      -9.691   5.509   4.937  1.00  0.00     0.219 HD
ENDBRANCH   4   9
ENDBRANCH   3   4
ENDBRANCH   2   3
ENDBRANCH   1   2
BRANCH   1  11
HETATM   11  C5  UNL     1      -8.239   7.211  -0.529  1.00  0.00     0.297 C 
BRANCH  11  12
HETATM   12  N2  UNL     1      -8.732   6.925  -1.854  1.00  0.00     0.090 N 
HETATM   13  C6  UNL     1      -8.560   8.015  -2.759  1.00  0.00     0.272 C 
HETATM   14  C7  UNL     1      -7.746   7.568  -3.921  1.00  0.00     0.032 C 
HETATM   15  C8  UNL     1      -7.771   6.056  -3.856  1.00  0.00     0.032 C 
HETATM   16  C9  UNL     1      -8.164   5.747  -2.434  1.00  0.00     0.272 C 
ENDBRANCH  11  12
ENDBRANCH   1  11
BRANCH   1  17
HETATM   17  N3  UNL     1     -10.247   6.016   0.194  1.00  0.00    -0.361 N 
ATOM     18  H3  UNL     1      -9.831   5.130  -0.094  1.00  0.00     0.162 HD
BRANCH  17  19
HETATM   19  C10 UNL     1     -11.641   6.094   0.270  1.00  0.00     0.170 C 
HETATM   20  S1  UNL     1     -12.465   7.250  -0.516  1.00  0.00    -0.041 SA
BRANCH  19  21
HETATM   21  N4  UNL     1     -12.371   5.160   1.056  1.00  0.00    -0.354 N 
HETATM   22  C11 UNL     1     -13.819   5.144   1.055  1.00  0.00     0.130 C 
HETATM   23  C12 UNL     1     -14.287   3.676   1.052  1.00  0.00     0.059 C 
HETATM   24  C13 UNL     1     -13.811   3.129   2.377  1.00  0.00    -0.049 A 
HETATM   25  C14 UNL     1     -14.659   2.374   3.179  1.00  0.00     0.008 A 
HETATM   26  C18 UNL     1     -12.535   3.445   2.714  1.00  0.00    -0.034 A 
HETATM   27  C15 UNL     1     -14.175   1.912   4.400  1.00  0.00     0.001 A 
HETATM   28  C16 UNL     1     -12.896   2.215   4.763  1.00  0.00     0.001 A 
HETATM   29  C17 UNL     1     -12.074   2.969   3.946  1.00  0.00     0.009 A 
HETATM   30  C19 UNL     1     -11.644   4.222   1.860  1.00  0.00     0.164 C 
ENDBRANCH  19  21
ENDBRANCH  17  19
ENDBRANCH   1  17
TORSDOF 10
ENDMDL
MODEL 3
REMARK VINA RESULT: -7.960950556      1.720      2.561
REMARK  10 active torsions:
REMARK  status: ('A' for Active; 'I' for Inactive)
REMARK    1  A    between atoms: O1_1  and  N1_3 
REMARK    2  A    between atoms: C1_5  and  O2_6 
REMARK    3  A    between atoms: C1_5  and  C2_8 
REMARK    4  A    between atoms: C2_8  and  C3_9 
REMARK    5  A    between atoms: C3_9  and  C4_10 
REMARK    6  A    between atoms: C4_10  and  C5_11 
REMARK    7  A    between atoms: C4_10  and  N3_17 
REMARK    8  A    between atoms: C5_11  and  N2_12 
REMARK    9  A    between atoms: N3_17  and  C10_19 
REMARK   10  A    between atoms: C10_19  and  N4_21 
ROOT
HETATM    1  C4  UNL     1      -9.752   7.362  -0.097  1.00  0.00     0.112 C 
ENDROOT
BRANCH   1   2
HETATM    2  C3  UNL     1      -8.626   7.253   0.924  1.00  0.00     0.035 C 
BRANCH   2   3
HETATM    3  C2  UNL     1      -9.228   6.916   2.260  1.00  0.00     0.088 C 
BRANCH   3   4
HETATM    4  C1  UNL     1      -8.512   7.666   3.309  1.00  0.00     0.135 C 
HETATM    5  N1  UNL     1      -8.511   7.336   4.527  1.00  0.00    -0.251 N 
ATOM      6  H1  UNL     1      -7.990   7.908   5.192  1.00  0.00     0.196 HD
BRANCH   5   7
HETATM    7  O1  UNL     1      -9.183   6.239   4.988  1.00  0.00    -0.288 OA
ATOM      8  H1  UNL     1      -8.746   5.528   5.441  1.00  0.00     0.244 HD
ENDBRANCH   5   7
BRANCH   4   9
HETATM    9  O2  UNL     1      -7.800   8.802   2.906  1.00  0.00    -0.348 OA
ATOM     10  H2  UNL     1      -8.051   9.654   3.243  1.00  0.00     0.219 HD
ENDBRANCH   4   9
ENDBRANCH   3   4
ENDBRANCH   2   3
ENDBRANCH   1   2
BRANCH   1  11
HETATM   11  C5  UNL     1      -9.138   7.406  -1.483  1.00  0.00     0.297 C 
BRANCH  11  12
HETATM   12  N2  UNL     1      -9.367   6.177  -2.202  1.00  0.00     0.090 N 
HETATM   13  C6  UNL     1     -10.155   6.358  -3.378  1.00  0.00     0.272 C 
HETATM   14  C7  UNL     1      -9.393   5.879  -4.562  1.00  0.00     0.032 C 
HETATM   15  C8  UNL     1      -8.269   5.043  -3.990  1.00  0.00     0.032 C 
HETATM   16  C9  UNL     1      -8.164   5.486  -2.553  1.00  0.00     0.272 C 
ENDBRANCH  11  12
ENDBRANCH   1  11
BRANCH   1  17
HETATM   17  N3  UNL     1     -10.554   6.140   0.059  1.00  0.00    -0.361 N 
ATOM     18  H3  UNL     1     -10.064   5.246   0.101  1.00  0.00     0.162 HD
BRANCH  17  19
HETATM   19  C10 UNL     1     -11.949   6.131   0.151  1.00  0.00     0.170 C 
HETATM   20  S1  UNL     1     -12.857   7.190  -0.676  1.00  0.00    -0.041 SA
BRANCH  19  21
HETATM   21  N4  UNL     1     -12.606   5.189   0.991  1.00  0.00    -0.354 N 
HETATM   22  C11 UNL     1     -14.048   5.167   1.112  1.00  0.00     0.130 C 
HETATM   23  C12 UNL     1     -14.509   3.697   1.140  1.00  0.00     0.059 C 
HETATM   24  C13 UNL     1     -13.921   3.145   2.418  1.00  0.00    -0.049 A 
HETATM   25  C14 UNL     1     -14.696   2.382   3.285  1.00  0.00     0.008 A 
HETATM   26  C18 UNL     1     -12.623   3.464   2.648  1.00  0.00    -0.034 A 
HETATM   27  C15 UNL     1     -14.108   1.915   4.457  1.00  0.00     0.001 A 
HETATM   28  C16 UNL     1     -12.804   2.223   4.713  1.00  0.00     0.001 A 
HETATM   29  C17 UNL     1     -12.057   2.984   3.833  1.00  0.00     0.009 A 
HETATM   30  C19 UNL     1     -11.810   4.249   1.726  1.00  0.00     0.164 C 
ENDBRANCH  19  21
ENDBRANCH  17  19
ENDBRANCH   1  17
TORSDOF 10
ENDMDL
MODEL 4
REMARK VINA RESULT: -7.789375627      2.036      2.661
REMARK  10 active torsions:
REMARK  status: ('A' for Active; 'I' for Inactive)
REMARK    1  A    between atoms: O1_1  and  N1_3 
REMARK    2  A    between atoms: C1_5  and  O2_6 
REMARK    3  A    between atoms: C1_5  and  C2_8 
REMARK    4  A    between atoms: C2_8  and  C3_9 
REMARK    5  A    between atoms: C3_9  and  C4_10 
REMARK    6  A    between atoms: C4_10  and  C5_11 
REMARK    7  A    between atoms: C4_10  and  N3_17 
REMARK    8  A    between atoms: C5_11  and  N2_12 
REMARK    9  A    between atoms: N3_17  and  C10_19 
REMARK   10  A    between atoms: C10_19  and  N4_21 
ROOT
HETATM    1  C4  UNL     1      -9.190   6.895  -0.532  1.00  0.00     0.112 C 
ENDROOT
BRANCH   1   2
HETATM    2  C3  UNL     1      -8.318   7.691   0.431  1.00  0.00     0.035 C 
BRANCH   2   3
HETATM    3  C2  UNL     1      -7.938   6.794   1.577  1.00  0.00     0.088 C 
BRANCH   3   4
HETATM    4  C1  UNL     1      -8.366   7.427   2.840  1.00  0.00     0.135 C 
HETATM    5  N1  UNL     1      -7.563   7.914   3.684  1.00  0.00    -0.251 N 
ATOM      6  H1  UNL     1      -7.939   8.335   4.534  1.00  0.00     0.196 HD
BRANCH   5   7
HETATM    7  O1  UNL     1      -6.209   7.895   3.501  1.00  0.00    -0.288 OA
ATOM      8  H1  UNL     1      -5.769   7.197   3.032  1.00  0.00     0.244 HD
ENDBRANCH   5   7
BRANCH   4   9
HETATM    9  O2  UNL     1      -9.741   7.481   3.091  1.00  0.00    -0.348 OA
ATOM     10  H2  UNL     1     -10.232   6.672   3.174  1.00  0.00     0.219 HD
ENDBRANCH   4   9
ENDBRANCH   3   4
ENDBRANCH   2   3
ENDBRANCH   1   2
BRANCH   1  11
HETATM   11  C5  UNL     1      -8.287   6.028  -1.390  1.00  0.00     0.297 C 
BRANCH  11  12
HETATM   12  N2  UNL     1      -8.440   6.330  -2.792  1.00  0.00     0.090 N 
HETATM   13  C6  UNL     1      -7.938   5.298  -3.640  1.00  0.00     0.272 C 
HETATM   14  C7  UNL     1      -9.029   4.815  -4.529  1.00  0.00     0.032 C 
HETATM   15  C8  UNL     1     -10.103   5.876  -4.439  1.00  0.00     0.032 C 
HETATM   16  C9  UNL     1      -9.787   6.626  -3.170  1.00  0.00     0.272 C 
ENDBRANCH  11  12
ENDBRANCH   1  11
BRANCH   1  17
HETATM   17  N3  UNL     1     -10.047   6.047   0.309  1.00  0.00    -0.361 N 
ATOM     18  H3  UNL     1      -9.599   5.336   0.888  1.00  0.00     0.162 HD
BRANCH  17  19
HETATM   19  C10 UNL     1     -11.439   6.158   0.363  1.00  0.00     0.170 C 
HETATM   20  S1  UNL     1     -12.219   7.368  -0.385  1.00  0.00    -0.041 SA
BRANCH  19  21
HETATM   21  N4  UNL     1     -12.207   5.208   1.093  1.00  0.00    -0.354 N 
HETATM   22  C11 UNL     1     -13.652   5.186   1.010  1.00  0.00     0.130 C 
HETATM   23  C12 UNL     1     -14.112   3.716   0.959  1.00  0.00     0.059 C 
HETATM   24  C13 UNL     1     -13.708   3.151   2.301  1.00  0.00    -0.049 A 
HETATM   25  C14 UNL     1     -14.596   2.380   3.043  1.00  0.00     0.008 A 
HETATM   26  C18 UNL     1     -12.455   3.467   2.714  1.00  0.00    -0.034 A 
HETATM   27  C15 UNL     1     -14.178   1.902   4.282  1.00  0.00     0.001 A 
HETATM   28  C16 UNL     1     -12.924   2.205   4.721  1.00  0.00     0.001 A 
HETATM   29  C17 UNL     1     -12.061   2.975   3.962  1.00  0.00     0.009 A 
HETATM   30  C19 UNL     1     -11.522   4.261   1.923  1.00  0.00     0.164 C 
ENDBRANCH  19  21
ENDBRANCH  17  19
ENDBRANCH   1  17
TORSDOF 10
ENDMDL
MODEL 5
REMARK VINA RESULT: -7.677977929      3.199      7.073
REMARK  10 active torsions:
REMARK  status: ('A' for Active; 'I' for Inactive)
REMARK    1  A    between atoms: O1_1  and  N1_3 
REMARK    2  A    between atoms: C1_5  and  O2_6 
REMARK    3  A    between atoms: C1_5  and  C2_8 
REMARK    4  A    between atoms: C2_8  and  C3_9 
REMARK    5  A    between atoms: C3_9  and  C4_10 
REMARK    6  A    between atoms: C4_10  and  C5_11 
REMARK    7  A    between atoms: C4_10  and  N3_17 
REMARK    8  A    between atoms: C5_11  and  N2_12 
REMARK    9  A    between atoms: N3_17  and  C10_19 
REMARK   10  A    between atoms: C10_19  and  N4_21 
ROOT
HETATM    1  C4  UNL     1     -11.815   5.337   0.810  1.00  0.00     0.112 C 
ENDROOT
BRANCH   1   2
HETATM    2  C3  UNL     1     -12.605   4.545   1.845  1.00  0.00     0.035 C 
BRANCH   2   3
HETATM    3  C2  UNL     1     -13.510   3.588   1.119  1.00  0.00     0.088 C 
BRANCH   3   4
HETATM    4  C1  UNL     1     -14.911   3.998   1.339  1.00  0.00     0.135 C 
HETATM    5  N1  UNL     1     -15.639   3.531   2.258  1.00  0.00    -0.251 N 
ATOM      6  H1  UNL     1     -16.598   3.867   2.344  1.00  0.00     0.196 HD
BRANCH   5   7
HETATM    7  O1  UNL     1     -15.188   2.592   3.142  1.00  0.00    -0.288 OA
ATOM      8  H1  UNL     1     -14.545   2.791   3.812  1.00  0.00     0.244 HD
ENDBRANCH   5   7
BRANCH   4   9
HETATM    9  O2  UNL     1     -15.437   4.959   0.468  1.00  0.00    -0.348 OA
ATOM     10  H2  UNL     1     -16.067   4.695  -0.192  1.00  0.00     0.219 HD
ENDBRANCH   4   9
ENDBRANCH   3   4
ENDBRANCH   2   3
ENDBRANCH   1   2
BRANCH   1  11
HETATM   11  C5  UNL     1     -12.329   6.764   0.804  1.00  0.00     0.297 C 
BRANCH  11  12
HETATM   12  N2  UNL     1     -12.862   7.130  -0.485  1.00  0.00     0.090 N 
HETATM   13  C6  UNL     1     -12.240   8.291  -1.034  1.00  0.00     0.272 C 
HETATM   14  C7  UNL     1     -11.648   7.955  -2.357  1.00  0.00     0.032 C 
HETATM   15  C8  UNL     1     -12.285   6.638  -2.745  1.00  0.00     0.032 C 
HETATM   16  C9  UNL     1     -12.805   6.074  -1.448  1.00  0.00     0.272 C 
ENDBRANCH  11  12
ENDBRANCH   1  11
BRANCH   1  17
HETATM   17  N3  UNL     1     -10.417   5.309   1.265  1.00  0.00    -0.361 N 
ATOM     18  H3  UNL     1     -10.136   4.568   1.908  1.00  0.00     0.162 HD
BRANCH  17  19
HETATM   19  C10 UNL     1      -9.451   6.238   0.870  1.00  0.00     0.170 C 
HETATM   20  S1  UNL     1      -8.929   6.312  -0.665  1.00  0.00    -0.041 SA
BRANCH  19  21
HETATM   21  N4  UNL     1      -8.891   7.139   1.818  1.00  0.00    -0.354 N 
HETATM   22  C11 UNL     1      -9.563   7.430   3.067  1.00  0.00     0.130 C 
HETATM   23  C12 UNL     1      -8.502   7.495   4.183  1.00  0.00     0.059 C 
HETATM   24  C13 UNL     1      -7.649   8.687   3.819  1.00  0.00    -0.049 A 
HETATM   25  C14 UNL     1      -7.299   9.630   4.779  1.00  0.00     0.008 A 
HETATM   26  C18 UNL     1      -7.282   8.765   2.515  1.00  0.00    -0.034 A 
HETATM   27  C15 UNL     1      -6.527  10.719   4.383  1.00  0.00     0.001 A 
HETATM   28  C16 UNL     1      -6.146  10.822   3.078  1.00  0.00     0.001 A 
HETATM   29  C17 UNL     1      -6.508   9.869   2.144  1.00  0.00     0.009 A 
HETATM   30  C19 UNL     1      -7.636   7.762   1.517  1.00  0.00     0.164 C 
ENDBRANCH  19  21
ENDBRANCH  17  19
ENDBRANCH   1  17
TORSDOF 10
ENDMDL
