MODEL 1
REMARK VINA RESULT: -7.413081965      0.000      0.000
REMARK  8 active torsions:
REMARK  status: ('A' for Active; 'I' for Inactive)
REMARK    1  A    between atoms: C2_2  and  C3_3 
REMARK    2  A    between atoms: C3_3  and  N1_4 
REMARK    3  A    between atoms: N1_4  and  C4_6 
REMARK    4  A    between atoms: C4_6  and  C5_10 
REMARK    5  A    between atoms: C5_10  and  C6_11 
REMARK    6  A    between atoms: C6_11  and  C7_12 
REMARK    7  A    between atoms: C11_17  and  C12_18 
REMARK    8  A    between atoms: C12_18  and  N4_22 
ROOT
HETATM    1  C7  UNL     1     -11.075   5.943   1.009  1.00  0.00     0.042 C 
HETATM    2  C8  UNL     1     -11.659   4.706   1.662  1.00  0.00     0.176 C 
HETATM    3  O1  UNL     1     -12.804   4.340   0.961  1.00  0.00    -0.390 OA
HETATM    4  C9  UNL     1     -13.749   5.370   1.168  1.00  0.00     0.172 C 
HETATM    5  C10 UNL     1     -13.391   6.582   0.332  1.00  0.00     0.065 C 
HETATM    6  C11 UNL     1     -11.939   6.381  -0.079  1.00  0.00    -0.028 C 
ENDROOT
BRANCH   1   7
HETATM    7  C6  UNL     1     -10.580   6.842   2.047  1.00  0.00     0.019 C 
BRANCH   7   8
HETATM    8  C5  UNL     1      -9.139   6.898   2.365  1.00  0.00     0.076 C 
BRANCH   8   9
HETATM    9  C4  UNL     1      -9.011   7.068   3.863  1.00  0.00     0.070 C 
HETATM   10  N2  UNL     1      -9.436   6.132   4.633  1.00  0.00    -0.389 N 
ATOM     11  H22 UNL     1      -9.349   6.247   5.643  1.00  0.00     0.157 HD
ATOM     12  H21 UNL     1      -9.849   5.299   4.215  1.00  0.00     0.157 HD
BRANCH   9  13
HETATM   13  N1  UNL     1      -8.442   8.214   4.438  1.00  0.00    -0.379 N 
ATOM     14  H1  UNL     1      -8.266   8.209   5.442  1.00  0.00     0.160 HD
BRANCH  13  15
HETATM   15  C3  UNL     1      -8.091   9.405   3.690  1.00  0.00     0.130 C 
BRANCH  15  16
HETATM   16  C2  UNL     1      -6.596   9.657   3.723  1.00  0.00    -0.024 C 
HETATM   17  C1  UNL     1      -6.269  11.122   3.812  1.00  0.00     0.017 C 
HETATM   18  C18 UNL     1      -5.949   8.975   4.909  1.00  0.00     0.037 C 
HETATM   19  C19 UNL     1      -4.513   8.680   4.532  1.00  0.00     0.168 C 
HETATM   20  O2  UNL     1      -4.521   7.575   3.681  1.00  0.00    -0.391 OA
HETATM   21  C20 UNL     1      -5.487   7.672   2.695  1.00  0.00     0.168 C 
HETATM   22  C21 UNL     1      -5.955   9.097   2.478  1.00  0.00     0.037 C 
ENDBRANCH  15  16
ENDBRANCH  13  15
ENDBRANCH   9  13
ENDBRANCH   8   9
ENDBRANCH   7   8
ENDBRANCH   1   7
BRANCH   6  23
HETATM   23  C12 UNL     1     -11.481   7.382  -1.026  1.00  0.00     0.099 C 
HETATM   24  N3  UNL     1     -11.962   8.549  -1.151  1.00  0.00    -0.385 N 
ATOM     25  H32 UNL     1     -12.745   8.792  -0.545  1.00  0.00     0.157 HD
ATOM     26  H31 UNL     1     -11.640   9.252  -1.817  1.00  0.00     0.157 HD
BRANCH  23  27
HETATM   27  N4  UNL     1     -10.390   7.043  -1.870  1.00  0.00    -0.367 N 
HETATM   28  C13 UNL     1     -10.606   6.332  -3.117  1.00  0.00     0.124 C 
HETATM   29  C14 UNL     1      -9.318   6.269  -3.903  1.00  0.00     0.020 C 
HETATM   30  C15 UNL     1      -8.281   5.554  -3.069  1.00  0.00     0.003 C 
HETATM   31  C16 UNL     1      -8.236   6.064  -1.648  1.00  0.00     0.020 C 
HETATM   32  C17 UNL     1      -9.010   7.379  -1.552  1.00  0.00     0.124 C 
ENDBRANCH  23  27
ENDBRANCH   6  23
TORSDOF 8
ENDMDL
MODEL 2
REMARK VINA RESULT: -7.239064409      2.599      5.190
REMARK  8 active torsions:
REMARK  status: ('A' for Active; 'I' for Inactive)
REMARK    1  A    between atoms: C2_2  and  C3_3 
REMARK    2  A    between atoms: C3_3  and  N1_4 
REMARK    3  A    between atoms: N1_4  and  C4_6 
REMARK    4  A    between atoms: C4_6  and  C5_10 
REMARK    5  A    between atoms: C5_10  and  C6_11 
REMARK    6  A    between atoms: C6_11  and  C7_12 
REMARK    7  A    between atoms: C11_17  and  C12_18 
REMARK    8  A    between atoms: C12_18  and  N4_22 
ROOT
HETATM    1  C7  UNL     1     -11.583   6.428   0.997  1.00  0.00     0.042 C 
HETATM    2  C8  UNL     1     -12.376   7.652   0.585  1.00  0.00     0.176 C 
HETATM    3  O1  UNL     1     -13.721   7.302   0.524  1.00  0.00    -0.390 OA
HETATM    4  C9  UNL     1     -13.850   6.382  -0.540  1.00  0.00     0.172 C 
HETATM    5  C10 UNL     1     -13.318   5.026  -0.123  1.00  0.00     0.065 C 
HETATM    6  C11 UNL     1     -12.474   5.281   1.117  1.00  0.00    -0.028 C 
ENDROOT
BRANCH   1   7
HETATM    7  C6  UNL     1     -10.333   6.393   0.243  1.00  0.00     0.019 C 
BRANCH   7   8
HETATM    8  C5  UNL     1     -10.128   7.295  -0.909  1.00  0.00     0.076 C 
BRANCH   8   9
HETATM    9  C4  UNL     1      -8.692   7.770  -0.862  1.00  0.00     0.070 C 
HETATM   10  N2  UNL     1      -8.203   8.372  -1.886  1.00  0.00    -0.389 N 
ATOM     11  H22 UNL     1      -7.235   8.692  -1.855  1.00  0.00     0.157 HD
ATOM     12  H21 UNL     1      -8.795   8.513  -2.705  1.00  0.00     0.157 HD
BRANCH   9  13
HETATM   13  N1  UNL     1      -7.879   7.577   0.263  1.00  0.00    -0.379 N 
ATOM     14  H1  UNL     1      -7.814   6.636   0.651  1.00  0.00     0.160 HD
BRANCH  13  15
HETATM   15  C3  UNL     1      -7.125   8.634   0.908  1.00  0.00     0.130 C 
BRANCH  15  16
HETATM   16  C2  UNL     1      -6.834   8.299   2.358  1.00  0.00    -0.024 C 
HETATM   17  C1  UNL     1      -5.425   7.817   2.559  1.00  0.00     0.017 C 
HETATM   18  C18 UNL     1      -7.032   9.506   3.252  1.00  0.00     0.037 C 
HETATM   19  C19 UNL     1      -7.399   8.992   4.628  1.00  0.00     0.168 C 
HETATM   20  O2  UNL     1      -8.735   8.591   4.583  1.00  0.00    -0.391 OA
HETATM   21  C20 UNL     1      -9.022   7.830   3.464  1.00  0.00     0.168 C 
HETATM   22  C21 UNL     1      -7.781   7.227   2.836  1.00  0.00     0.037 C 
ENDBRANCH  15  16
ENDBRANCH  13  15
ENDBRANCH   9  13
ENDBRANCH   8   9
ENDBRANCH   7   8
ENDBRANCH   1   7
BRANCH   6  23
HETATM   23  C12 UNL     1     -12.014   4.055   1.745  1.00  0.00     0.099 C 
HETATM   24  N3  UNL     1     -10.968   3.413   1.426  1.00  0.00    -0.385 N 
ATOM     25  H32 UNL     1     -10.417   3.786   0.653  1.00  0.00     0.157 HD
ATOM     26  H31 UNL     1     -10.646   2.552   1.867  1.00  0.00     0.157 HD
BRANCH  23  27
HETATM   27  N4  UNL     1     -12.782   3.536   2.822  1.00  0.00    -0.367 N 
HETATM   28  C13 UNL     1     -12.140   3.082   4.042  1.00  0.00     0.124 C 
HETATM   29  C14 UNL     1     -13.185   2.763   5.086  1.00  0.00     0.020 C 
HETATM   30  C15 UNL     1     -14.092   1.684   4.542  1.00  0.00     0.003 C 
HETATM   31  C16 UNL     1     -14.545   1.972   3.130  1.00  0.00     0.020 C 
HETATM   32  C17 UNL     1     -14.232   3.427   2.780  1.00  0.00     0.124 C 
ENDBRANCH  23  27
ENDBRANCH   6  23
TORSDOF 8
ENDMDL
MODEL 3
REMARK VINA RESULT: -7.132175945      1.338      1.800
REMARK  8 active torsions:
REMARK  status: ('A' for Active; 'I' for Inactive)
REMARK    1  A    between atoms: C2_2  and  C3_3 
REMARK    2  A    between atoms: C3_3  and  N1_4 
REMARK    3  A    between atoms: N1_4  and  C4_6 
REMARK    4  A    between atoms: C4_6  and  C5_10 
REMARK    5  A    between atoms: C5_10  and  C6_11 
REMARK    6  A    between atoms: C6_11  and  C7_12 
REMARK    7  A    between atoms: C11_17  and  C12_18 
REMARK    8  A    between atoms: C12_18  and  N4_22 
ROOT
HETATM    1  C7  UNL     1     -11.453   6.008   0.506  1.00  0.00     0.042 C 
HETATM    2  C8  UNL     1     -12.317   4.903   1.081  1.00  0.00     0.176 C 
HETATM    3  O1  UNL     1     -13.538   4.909   0.412  1.00  0.00    -0.390 OA
HETATM    4  C9  UNL     1     -14.179   6.120   0.757  1.00  0.00     0.172 C 
HETATM    5  C10 UNL     1     -13.546   7.276   0.011  1.00  0.00     0.065 C 
HETATM    6  C11 UNL     1     -12.207   6.754  -0.493  1.00  0.00    -0.028 C 
ENDROOT
BRANCH   1   7
HETATM    7  C6  UNL     1     -10.714   6.648   1.590  1.00  0.00     0.019 C 
BRANCH   7   8
HETATM    8  C5  UNL     1      -9.241   6.748   1.535  1.00  0.00     0.076 C 
BRANCH   8   9
HETATM    9  C4  UNL     1      -8.751   7.009   2.942  1.00  0.00     0.070 C 
HETATM   10  N2  UNL     1      -9.427   6.546   3.931  1.00  0.00    -0.389 N 
ATOM     11  H22 UNL     1      -9.097   6.722   4.880  1.00  0.00     0.157 HD
ATOM     12  H21 UNL     1     -10.277   6.016   3.742  1.00  0.00     0.157 HD
BRANCH   9  13
HETATM   13  N1  UNL     1      -7.582   7.738   3.201  1.00  0.00    -0.379 N 
ATOM     14  H1  UNL     1      -7.594   8.404   3.973  1.00  0.00     0.160 HD
BRANCH  13  15
HETATM   15  C3  UNL     1      -6.357   7.602   2.438  1.00  0.00     0.130 C 
BRANCH  15  16
HETATM   16  C2  UNL     1      -6.029   8.878   1.688  1.00  0.00    -0.024 C 
HETATM   17  C1  UNL     1      -6.579   8.871   0.289  1.00  0.00     0.017 C 
HETATM   18  C18 UNL     1      -6.598  10.093   2.392  1.00  0.00     0.037 C 
HETATM   19  C19 UNL     1      -5.718  11.272   2.037  1.00  0.00     0.168 C 
HETATM   20  O2  UNL     1      -4.550  11.167   2.792  1.00  0.00    -0.391 OA
HETATM   21  C20 UNL     1      -4.024   9.887   2.779  1.00  0.00     0.168 C 
HETATM   22  C21 UNL     1      -4.534   9.061   1.616  1.00  0.00     0.037 C 
ENDBRANCH  15  16
ENDBRANCH  13  15
ENDBRANCH   9  13
ENDBRANCH   8   9
ENDBRANCH   7   8
ENDBRANCH   1   7
BRANCH   6  23
HETATM   23  C12 UNL     1     -11.535   7.693  -1.374  1.00  0.00     0.099 C 
HETATM   24  N3  UNL     1     -11.757   8.941  -1.424  1.00  0.00    -0.385 N 
ATOM     25  H32 UNL     1     -12.480   9.306  -0.804  1.00  0.00     0.157 HD
ATOM     26  H31 UNL     1     -11.284   9.600  -2.043  1.00  0.00     0.157 HD
BRANCH  23  27
HETATM   27  N4  UNL     1     -10.528   7.185  -2.236  1.00  0.00    -0.367 N 
HETATM   28  C13 UNL     1     -10.865   6.284  -3.324  1.00  0.00     0.124 C 
HETATM   29  C14 UNL     1      -9.652   6.051  -4.194  1.00  0.00     0.020 C 
HETATM   30  C15 UNL     1      -8.559   5.450  -3.341  1.00  0.00     0.003 C 
HETATM   31  C16 UNL     1      -8.381   6.186  -2.034  1.00  0.00     0.020 C 
HETATM   32  C17 UNL     1      -9.120   7.523  -2.095  1.00  0.00     0.124 C 
ENDBRANCH  23  27
ENDBRANCH   6  23
TORSDOF 8
ENDMDL
MODEL 4
REMARK VINA RESULT: -7.111409535      1.235      1.840
REMARK  8 active torsions:
REMARK  status: ('A' for Active; 'I' for Inactive)
REMARK    1  A    between atoms: C2_2  and  C3_3 
REMARK    2  A    between atoms: C3_3  and  N1_4 
REMARK    3  A    between atoms: N1_4  and  C4_6 
REMARK    4  A    between atoms: C4_6  and  C5_10 
REMARK    5  A    between atoms: C5_10  and  C6_11 
REMARK    6  A    between atoms: C6_11  and  C7_12 
REMARK    7  A    between atoms: C11_17  and  C12_18 
REMARK    8  A    between atoms: C12_18  and  N4_22 
ROOT
HETATM    1  C7  UNL     1     -11.150   5.881   0.920  1.00  0.00     0.042 C 
HETATM    2  C8  UNL     1     -11.808   4.664   1.540  1.00  0.00     0.176 C 
HETATM    3  O1  UNL     1     -13.001   4.421   0.866  1.00  0.00    -0.390 OA
HETATM    4  C9  UNL     1     -13.854   5.510   1.152  1.00  0.00     0.172 C 
HETATM    5  C10 UNL     1     -13.429   6.728   0.357  1.00  0.00     0.065 C 
HETATM    6  C11 UNL     1     -12.013   6.434  -0.116  1.00  0.00    -0.028 C 
ENDROOT
BRANCH   1   7
HETATM    7  C6  UNL     1     -10.551   6.690   1.977  1.00  0.00     0.019 C 
BRANCH   7   8
HETATM    8  C5  UNL     1      -9.083   6.812   2.087  1.00  0.00     0.076 C 
BRANCH   8   9
HETATM    9  C4  UNL     1      -8.758   7.096   3.537  1.00  0.00     0.070 C 
HETATM   10  N2  UNL     1      -9.358   6.423   4.451  1.00  0.00    -0.389 N 
ATOM     11  H22 UNL     1      -9.140   6.615   5.429  1.00  0.00     0.157 HD
ATOM     12  H21 UNL     1     -10.038   5.714   4.176  1.00  0.00     0.157 HD
BRANCH   9  13
HETATM   13  N1  UNL     1      -7.824   8.071   3.915  1.00  0.00    -0.379 N 
ATOM     14  H1  UNL     1      -7.311   7.930   4.785  1.00  0.00     0.160 HD
BRANCH  13  15
HETATM   15  C3  UNL     1      -7.542   9.265   3.143  1.00  0.00     0.130 C 
BRANCH  15  16
HETATM   16  C2  UNL     1      -6.202   9.166   2.441  1.00  0.00    -0.024 C 
HETATM   17  C1  UNL     1      -5.402   7.982   2.909  1.00  0.00     0.017 C 
HETATM   18  C18 UNL     1      -6.373   9.035   0.942  1.00  0.00     0.037 C 
HETATM   19  C19 UNL     1      -5.132   9.612   0.295  1.00  0.00     0.168 C 
HETATM   20  O2  UNL     1      -5.235  11.002   0.358  1.00  0.00    -0.391 OA
HETATM   21  C20 UNL     1      -5.632  11.448   1.607  1.00  0.00     0.168 C 
HETATM   22  C21 UNL     1      -5.399  10.418   2.693  1.00  0.00     0.037 C 
ENDBRANCH  15  16
ENDBRANCH  13  15
ENDBRANCH   9  13
ENDBRANCH   8   9
ENDBRANCH   7   8
ENDBRANCH   1   7
BRANCH   6  23
HETATM   23  C12 UNL     1     -11.508   7.439  -1.035  1.00  0.00     0.099 C 
HETATM   24  N3  UNL     1     -11.951   8.623  -1.143  1.00  0.00    -0.385 N 
ATOM     25  H32 UNL     1     -12.735   8.879  -0.544  1.00  0.00     0.157 HD
ATOM     26  H31 UNL     1     -11.596   9.329  -1.789  1.00  0.00     0.157 HD
BRANCH  23  27
HETATM   27  N4  UNL     1     -10.416   7.083  -1.869  1.00  0.00    -0.367 N 
HETATM   28  C13 UNL     1     -10.626   6.323  -3.088  1.00  0.00     0.124 C 
HETATM   29  C14 UNL     1      -9.340   6.247  -3.876  1.00  0.00     0.020 C 
HETATM   30  C15 UNL     1      -8.291   5.577  -3.019  1.00  0.00     0.003 C 
HETATM   31  C16 UNL     1      -8.248   6.140  -1.618  1.00  0.00     0.020 C 
HETATM   32  C17 UNL     1      -9.039   7.447  -1.568  1.00  0.00     0.124 C 
ENDBRANCH  23  27
ENDBRANCH   6  23
TORSDOF 8
ENDMDL
MODEL 5
REMARK VINA RESULT: -7.083199064      2.566      4.920
REMARK  8 active torsions:
REMARK  status: ('A' for Active; 'I' for Inactive)
REMARK    1  A    between atoms: C2_2  and  C3_3 
REMARK    2  A    between atoms: C3_3  and  N1_4 
REMARK    3  A    between atoms: N1_4  and  C4_6 
REMARK    4  A    between atoms: C4_6  and  C5_10 
REMARK    5  A    between atoms: C5_10  and  C6_11 
REMARK    6  A    between atoms: C6_11  and  C7_12 
REMARK    7  A    between atoms: C11_17  and  C12_18 
REMARK    8  A    between atoms: C12_18  and  N4_22 
ROOT
HETATM    1  C7  UNL     1     -11.666   6.455   1.029  1.00  0.00     0.042 C 
HETATM    2  C8  UNL     1     -12.490   7.660   0.620  1.00  0.00     0.176 C 
HETATM    3  O1  UNL     1     -13.824   7.270   0.536  1.00  0.00    -0.390 OA
HETATM    4  C9  UNL     1     -13.908   6.359  -0.540  1.00  0.00     0.172 C 
HETATM    5  C10 UNL     1     -13.341   5.015  -0.132  1.00  0.00     0.065 C 
HETATM    6  C11 UNL     1     -12.522   5.281   1.124  1.00  0.00    -0.028 C 
ENDROOT
BRANCH   1   7
HETATM    7  C6  UNL     1     -10.405   6.468   0.293  1.00  0.00     0.019 C 
BRANCH   7   8
HETATM    8  C5  UNL     1      -9.118   6.553   1.014  1.00  0.00     0.076 C 
BRANCH   8   9
HETATM    9  C4  UNL     1      -8.308   7.654   0.366  1.00  0.00     0.070 C 
HETATM   10  N2  UNL     1      -8.650   8.073  -0.800  1.00  0.00    -0.389 N 
ATOM     11  H22 UNL     1      -8.103   8.815  -1.237  1.00  0.00     0.157 HD
ATOM     12  H21 UNL     1      -9.458   7.653  -1.258  1.00  0.00     0.157 HD
BRANCH   9  13
HETATM   13  N1  UNL     1      -7.196   8.232   0.995  1.00  0.00    -0.379 N 
ATOM     14  H1  UNL     1      -6.727   9.004   0.523  1.00  0.00     0.160 HD
BRANCH  13  15
HETATM   15  C3  UNL     1      -6.675   7.798   2.276  1.00  0.00     0.130 C 
BRANCH  15  16
HETATM   16  C2  UNL     1      -6.858   8.865   3.337  1.00  0.00    -0.024 C 
HETATM   17  C1  UNL     1      -8.162   8.720   4.071  1.00  0.00     0.017 C 
HETATM   18  C18 UNL     1      -5.750   8.813   4.368  1.00  0.00     0.037 C 
HETATM   19  C19 UNL     1      -5.593  10.209   4.933  1.00  0.00     0.168 C 
HETATM   20  O2  UNL     1      -4.909  10.970   3.984  1.00  0.00    -0.391 OA
HETATM   21  C20 UNL     1      -5.408  10.796   2.705  1.00  0.00     0.168 C 
HETATM   22  C21 UNL     1      -6.815  10.232   2.702  1.00  0.00     0.037 C 
ENDBRANCH  15  16
ENDBRANCH  13  15
ENDBRANCH   9  13
ENDBRANCH   8   9
ENDBRANCH   7   8
ENDBRANCH   1   7
BRANCH   6  23
HETATM   23  C12 UNL     1     -12.035   4.061   1.744  1.00  0.00     0.099 C 
HETATM   24  N3  UNL     1     -10.983   3.437   1.409  1.00  0.00    -0.385 N 
ATOM     25  H32 UNL     1     -10.449   3.819   0.629  1.00  0.00     0.157 HD
ATOM     26  H31 UNL     1     -10.640   2.580   1.845  1.00  0.00     0.157 HD
BRANCH  23  27
HETATM   27  N4  UNL     1     -12.778   3.530   2.831  1.00  0.00    -0.367 N 
HETATM   28  C13 UNL     1     -12.109   3.050   4.026  1.00  0.00     0.124 C 
HETATM   29  C14 UNL     1     -13.129   2.720   5.090  1.00  0.00     0.020 C 
HETATM   30  C15 UNL     1     -14.058   1.658   4.552  1.00  0.00     0.003 C 
HETATM   31  C16 UNL     1     -14.545   1.973   3.157  1.00  0.00     0.020 C 
HETATM   32  C17 UNL     1     -14.230   3.432   2.824  1.00  0.00     0.124 C 
ENDBRANCH  23  27
ENDBRANCH   6  23
TORSDOF 8
ENDMDL
