MODEL 1
REMARK VINA RESULT: -7.681029893      0.000      0.000
REMARK  7 active torsions:
REMARK  status: ('A' for Active; 'I' for Inactive)
REMARK    1  A    between atoms: C2_2  and  N1_3 
REMARK    2  A    between atoms: C2_2  and  C3_7 
REMARK    3  A    between atoms: C2_2  and  C4_10 
REMARK    4  A    between atoms: C3_7  and  O1_8 
REMARK    5  A    between atoms: C4_10  and  C5_11 
REMARK    6  A    between atoms: C6_14  and  C7_15 
REMARK       I    between atoms: N3_19  and  C11_20 
REMARK    7  A    between atoms: C11_20  and  C12_22 
ROOT
HETATM    1  C5  UNL     1     -11.968   4.608   1.509  1.00  0.00     0.150 A 
HETATM    2  N2  UNL     1     -11.340   5.747   1.167  1.00  0.00    -0.325 N 
ATOM      3  H2  UNL     1     -10.466   6.082   1.574  1.00  0.00     0.169 HD
HETATM    4  C6  UNL     1     -12.041   6.374   0.208  1.00  0.00     0.127 A 
HETATM    5  N4  UNL     1     -13.096   5.573  -0.006  1.00  0.00    -0.245 N 
ATOM      6  H4  UNL     1     -13.838   5.754  -0.682  1.00  0.00     0.196 HD
HETATM    7  O3  UNL     1     -13.038   4.539   0.767  1.00  0.00    -0.223 OA
ENDROOT
BRANCH   4   8
HETATM    8  C7  UNL     1     -11.692   7.661  -0.445  1.00  0.00     0.157 C 
HETATM    9  C8  UNL     1     -12.940   8.302  -0.942  1.00  0.00     0.035 C 
HETATM   10  C9  UNL     1     -12.554   8.843  -2.298  1.00  0.00     0.022 C 
HETATM   11  C10 UNL     1     -11.575   7.772  -2.753  1.00  0.00     0.127 C 
HETATM   12  N3  UNL     1     -10.806   7.455  -1.581  1.00  0.00    -0.340 N 
HETATM   13  C11 UNL     1      -9.473   7.030  -1.540  1.00  0.00     0.229 C 
HETATM   14  O2  UNL     1      -9.022   6.789  -0.351  1.00  0.00    -0.272 OA
BRANCH  13  15
HETATM   15  C12 UNL     1      -8.549   6.831  -2.666  1.00  0.00     0.042 C 
HETATM   16  C13 UNL     1      -9.158   6.039  -3.771  1.00  0.00     0.024 C 
HETATM   17  C14 UNL     1      -8.231   5.958  -4.977  1.00  0.00    -0.013 C 
HETATM   18  C15 UNL     1      -7.034   5.143  -4.533  1.00  0.00     0.009 C 
HETATM   19  C19 UNL     1      -7.884   7.359  -5.367  1.00  0.00     0.009 C 
HETATM   20  C16 UNL     1      -6.402   5.858  -3.358  1.00  0.00    -0.013 C 
HETATM   21  C17 UNL     1      -5.876   7.168  -3.865  1.00  0.00     0.009 C 
HETATM   22  C21 UNL     1      -7.339   5.975  -2.192  1.00  0.00     0.024 C 
HETATM   23  C18 UNL     1      -7.065   8.005  -4.295  1.00  0.00    -0.013 C 
HETATM   24  C20 UNL     1      -7.945   8.141  -3.057  1.00  0.00     0.024 C 
ENDBRANCH  13  15
ENDBRANCH   4   8
BRANCH   1  25
HETATM   25  C4  UNL     1     -11.471   3.670   2.537  1.00  0.00     0.127 C 
BRANCH  25  26
HETATM   26  C2  UNL     1     -12.429   3.312   3.612  1.00  0.00     0.148 C 
HETATM   27  C1  UNL     1     -11.830   3.301   4.992  1.00  0.00     0.049 C 
BRANCH  26  28
HETATM   28  N1  UNL     1     -13.422   4.415   3.640  1.00  0.00    -0.068 N 
ATOM     29  H13 UNL     1     -14.137   4.311   4.360  1.00  0.00     0.275 HD
ATOM     30  H12 UNL     1     -13.046   5.302   3.978  1.00  0.00     0.275 HD
ATOM     31  H11 UNL     1     -13.791   4.456   2.691  1.00  0.00     0.275 HD
ENDBRANCH  26  28
BRANCH  26  32
HETATM   32  C3  UNL     1     -13.242   2.073   3.371  1.00  0.00     0.202 C 
BRANCH  32  33
HETATM   33  O1  UNL     1     -14.597   2.221   3.479  1.00  0.00    -0.398 OA
ATOM     34  H1  UNL     1     -15.114   1.788   2.809  1.00  0.00     0.209 HD
ENDBRANCH  32  33
ENDBRANCH  26  32
ENDBRANCH  25  26
ENDBRANCH   1  25
TORSDOF 7
ENDMDL
MODEL 2
REMARK VINA RESULT: -7.638309432      1.244      1.975
REMARK  7 active torsions:
REMARK  status: ('A' for Active; 'I' for Inactive)
REMARK    1  A    between atoms: C2_2  and  N1_3 
REMARK    2  A    between atoms: C2_2  and  C3_7 
REMARK    3  A    between atoms: C2_2  and  C4_10 
REMARK    4  A    between atoms: C3_7  and  O1_8 
REMARK    5  A    between atoms: C4_10  and  C5_11 
REMARK    6  A    between atoms: C6_14  and  C7_15 
REMARK       I    between atoms: N3_19  and  C11_20 
REMARK    7  A    between atoms: C11_20  and  C12_22 
ROOT
HETATM    1  C5  UNL     1     -12.233   3.994   2.409  1.00  0.00     0.150 A 
HETATM    2  N2  UNL     1     -12.643   5.109   1.781  1.00  0.00    -0.325 N 
ATOM      3  H2  UNL     1     -13.616   5.366   1.610  1.00  0.00     0.169 HD
HETATM    4  C6  UNL     1     -11.574   5.834   1.413  1.00  0.00     0.127 A 
HETATM    5  N4  UNL     1     -10.525   5.117   1.843  1.00  0.00    -0.245 N 
ATOM      6  H4  UNL     1      -9.548   5.385   1.727  1.00  0.00     0.196 HD
HETATM    7  O3  UNL     1     -10.929   4.037   2.426  1.00  0.00    -0.223 OA
ENDROOT
BRANCH   4   8
HETATM    8  C7  UNL     1     -11.590   7.135   0.696  1.00  0.00     0.157 C 
HETATM    9  C8  UNL     1     -13.000   7.485   0.368  1.00  0.00     0.035 C 
HETATM   10  C9  UNL     1     -12.918   8.031  -1.037  1.00  0.00     0.022 C 
HETATM   11  C10 UNL     1     -11.808   7.163  -1.607  1.00  0.00     0.127 C 
HETATM   12  N3  UNL     1     -10.841   7.063  -0.548  1.00  0.00    -0.340 N 
HETATM   13  C11 UNL     1      -9.455   6.921  -0.687  1.00  0.00     0.229 C 
HETATM   14  O2  UNL     1      -8.809   6.831   0.431  1.00  0.00    -0.272 OA
BRANCH  13  15
HETATM   15  C12 UNL     1      -8.668   6.863  -1.928  1.00  0.00     0.042 C 
HETATM   16  C13 UNL     1      -7.430   6.050  -1.782  1.00  0.00     0.024 C 
HETATM   17  C14 UNL     1      -6.701   5.896  -3.111  1.00  0.00    -0.013 C 
HETATM   18  C15 UNL     1      -6.212   7.281  -3.484  1.00  0.00     0.009 C 
HETATM   19  C19 UNL     1      -7.678   5.329  -4.091  1.00  0.00     0.009 C 
HETATM   20  C16 UNL     1      -7.422   8.185  -3.581  1.00  0.00    -0.013 C 
HETATM   21  C17 UNL     1      -8.254   7.692  -4.727  1.00  0.00     0.009 C 
HETATM   22  C21 UNL     1      -8.160   8.291  -2.279  1.00  0.00     0.024 C 
HETATM   23  C18 UNL     1      -8.770   6.314  -4.361  1.00  0.00    -0.013 C 
HETATM   24  C20 UNL     1      -9.561   6.497  -3.070  1.00  0.00     0.024 C 
ENDBRANCH  13  15
ENDBRANCH   4   8
BRANCH   1  25
HETATM   25  C4  UNL     1     -13.149   2.968   2.948  1.00  0.00     0.127 C 
BRANCH  25  26
HETATM   26  C2  UNL     1     -13.242   2.885   4.426  1.00  0.00     0.148 C 
HETATM   27  C1  UNL     1     -12.046   2.250   5.083  1.00  0.00     0.049 C 
BRANCH  26  28
HETATM   28  N1  UNL     1     -13.231   4.291   4.902  1.00  0.00    -0.068 N 
ATOM     29  H13 UNL     1     -13.811   4.920   4.348  1.00  0.00     0.275 HD
ATOM     30  H12 UNL     1     -13.718   4.433   5.787  1.00  0.00     0.275 HD
ATOM     31  H11 UNL     1     -12.244   4.548   4.926  1.00  0.00     0.275 HD
ENDBRANCH  26  28
BRANCH  26  32
HETATM   32  C3  UNL     1     -14.518   2.309   4.966  1.00  0.00     0.202 C 
BRANCH  32  33
HETATM   33  O1  UNL     1     -15.059   2.962   6.039  1.00  0.00    -0.398 OA
ATOM     34  H1  UNL     1     -15.890   2.626   6.351  1.00  0.00     0.209 HD
ENDBRANCH  32  33
ENDBRANCH  26  32
ENDBRANCH  25  26
ENDBRANCH   1  25
TORSDOF 7
ENDMDL
MODEL 3
REMARK VINA RESULT: -7.614321561      0.367      1.415
REMARK  7 active torsions:
REMARK  status: ('A' for Active; 'I' for Inactive)
REMARK    1  A    between atoms: C2_2  and  N1_3 
REMARK    2  A    between atoms: C2_2  and  C3_7 
REMARK    3  A    between atoms: C2_2  and  C4_10 
REMARK    4  A    between atoms: C3_7  and  O1_8 
REMARK    5  A    between atoms: C4_10  and  C5_11 
REMARK    6  A    between atoms: C6_14  and  C7_15 
REMARK       I    between atoms: N3_19  and  C11_20 
REMARK    7  A    between atoms: C11_20  and  C12_22 
ROOT
HETATM    1  C5  UNL     1     -11.879   4.467   1.885  1.00  0.00     0.150 A 
HETATM    2  N2  UNL     1     -11.310   5.631   1.524  1.00  0.00    -0.325 N 
ATOM      3  H2  UNL     1     -10.464   6.025   1.935  1.00  0.00     0.169 HD
HETATM    4  C6  UNL     1     -12.028   6.194   0.539  1.00  0.00     0.127 A 
HETATM    5  N4  UNL     1     -13.033   5.330   0.329  1.00  0.00    -0.245 N 
ATOM      6  H4  UNL     1     -13.772   5.452  -0.364  1.00  0.00     0.196 HD
HETATM    7  O3  UNL     1     -12.931   4.320   1.128  1.00  0.00    -0.223 OA
ENDROOT
BRANCH   4   8
HETATM    8  C7  UNL     1     -11.741   7.482  -0.141  1.00  0.00     0.157 C 
HETATM    9  C8  UNL     1     -13.021   8.065  -0.628  1.00  0.00     0.035 C 
HETATM   10  C9  UNL     1     -12.679   8.598  -1.998  1.00  0.00     0.022 C 
HETATM   11  C10 UNL     1     -11.666   7.559  -2.453  1.00  0.00     0.127 C 
HETATM   12  N3  UNL     1     -10.867   7.292  -1.289  1.00  0.00    -0.340 N 
HETATM   13  C11 UNL     1      -9.517   6.920  -1.263  1.00  0.00     0.229 C 
HETATM   14  O2  UNL     1      -9.037   6.717  -0.079  1.00  0.00    -0.272 OA
BRANCH  13  15
HETATM   15  C12 UNL     1      -8.604   6.737  -2.402  1.00  0.00     0.042 C 
HETATM   16  C13 UNL     1      -7.396   5.944  -2.044  1.00  0.00     0.024 C 
HETATM   17  C14 UNL     1      -6.533   5.658  -3.267  1.00  0.00    -0.013 C 
HETATM   18  C15 UNL     1      -5.994   6.998  -3.723  1.00  0.00     0.009 C 
HETATM   19  C19 UNL     1      -7.406   4.992  -4.282  1.00  0.00     0.009 C 
HETATM   20  C16 UNL     1      -7.178   7.886  -4.039  1.00  0.00    -0.013 C 
HETATM   21  C17 UNL     1      -7.889   7.279  -5.211  1.00  0.00     0.009 C 
HETATM   22  C21 UNL     1      -8.048   8.123  -2.839  1.00  0.00     0.024 C 
HETATM   23  C18 UNL     1      -8.455   5.944  -4.765  1.00  0.00    -0.013 C 
HETATM   24  C20 UNL     1      -9.375   6.256  -3.590  1.00  0.00     0.024 C 
ENDBRANCH  13  15
ENDBRANCH   4   8
BRANCH   1  25
HETATM   25  C4  UNL     1     -11.348   3.584   2.944  1.00  0.00     0.127 C 
BRANCH  25  26
HETATM   26  C2  UNL     1     -12.319   3.146   3.976  1.00  0.00     0.148 C 
HETATM   27  C1  UNL     1     -11.703   2.863   5.319  1.00  0.00     0.049 C 
BRANCH  26  28
HETATM   28  N1  UNL     1     -13.205   4.314   4.206  1.00  0.00    -0.068 N 
ATOM     29  H13 UNL     1     -13.523   4.409   5.170  1.00  0.00     0.275 HD
ATOM     30  H12 UNL     1     -12.728   5.214   4.152  1.00  0.00     0.275 HD
ATOM     31  H11 UNL     1     -13.960   4.203   3.530  1.00  0.00     0.275 HD
ENDBRANCH  26  28
BRANCH  26  32
HETATM   32  C3  UNL     1     -13.246   2.038   3.567  1.00  0.00     0.202 C 
BRANCH  32  33
HETATM   33  O1  UNL     1     -14.513   2.419   3.223  1.00  0.00    -0.398 OA
ATOM     34  H1  UNL     1     -14.974   1.835   2.633  1.00  0.00     0.209 HD
ENDBRANCH  32  33
ENDBRANCH  26  32
ENDBRANCH  25  26
ENDBRANCH   1  25
TORSDOF 7
ENDMDL
MODEL 4
REMARK VINA RESULT: -7.600173437      0.994      1.180
REMARK  7 active torsions:
REMARK  status: ('A' for Active; 'I' for Inactive)
REMARK    1  A    between atoms: C2_2  and  N1_3 
REMARK    2  A    between atoms: C2_2  and  C3_7 
REMARK    3  A    between atoms: C2_2  and  C4_10 
REMARK    4  A    between atoms: C3_7  and  O1_8 
REMARK    5  A    between atoms: C4_10  and  C5_11 
REMARK    6  A    between atoms: C6_14  and  C7_15 
REMARK       I    between atoms: N3_19  and  C11_20 
REMARK    7  A    between atoms: C11_20  and  C12_22 
ROOT
HETATM    1  C5  UNL     1     -11.816   4.234   2.012  1.00  0.00     0.150 A 
HETATM    2  N2  UNL     1     -12.182   5.252   1.213  1.00  0.00    -0.325 N 
ATOM      3  H2  UNL     1     -13.099   5.358   0.778  1.00  0.00     0.169 HD
HETATM    4  C6  UNL     1     -11.155   6.105   1.077  1.00  0.00     0.127 A 
HETATM    5  N4  UNL     1     -10.176   5.564   1.817  1.00  0.00    -0.245 N 
ATOM      6  H4  UNL     1      -9.245   5.964   1.935  1.00  0.00     0.196 HD
HETATM    7  O3  UNL     1     -10.581   4.464   2.360  1.00  0.00    -0.223 OA
ENDROOT
BRANCH   4   8
HETATM    8  C7  UNL     1     -11.145   7.358   0.279  1.00  0.00     0.157 C 
HETATM    9  C8  UNL     1     -12.550   7.754  -0.013  1.00  0.00     0.035 C 
HETATM   10  C9  UNL     1     -12.507   8.207  -1.452  1.00  0.00     0.022 C 
HETATM   11  C10 UNL     1     -11.462   7.253  -2.011  1.00  0.00     0.127 C 
HETATM   12  N3  UNL     1     -10.455   7.174  -0.989  1.00  0.00    -0.340 N 
HETATM   13  C11 UNL     1      -9.084   6.957  -1.175  1.00  0.00     0.229 C 
HETATM   14  O2  UNL     1      -8.395   6.906  -0.082  1.00  0.00    -0.272 OA
BRANCH  13  15
HETATM   15  C12 UNL     1      -8.357   6.785  -2.441  1.00  0.00     0.042 C 
HETATM   16  C13 UNL     1      -9.188   6.137  -3.494  1.00  0.00     0.024 C 
HETATM   17  C14 UNL     1      -8.460   6.089  -4.831  1.00  0.00    -0.013 C 
HETATM   18  C15 UNL     1      -7.285   5.152  -4.636  1.00  0.00     0.009 C 
HETATM   19  C19 UNL     1      -8.053   7.487  -5.167  1.00  0.00     0.009 C 
HETATM   20  C16 UNL     1      -6.428   5.717  -3.523  1.00  0.00    -0.013 C 
HETATM   21  C17 UNL     1      -5.870   7.021  -4.009  1.00  0.00     0.009 C 
HETATM   22  C21 UNL     1      -7.169   5.804  -2.221  1.00  0.00     0.024 C 
HETATM   23  C18 UNL     1      -7.032   7.978  -4.189  1.00  0.00    -0.013 C 
HETATM   24  C20 UNL     1      -7.705   8.075  -2.824  1.00  0.00     0.024 C 
ENDBRANCH  13  15
ENDBRANCH   4   8
BRANCH   1  25
HETATM   25  C4  UNL     1     -12.705   3.111   2.376  1.00  0.00     0.127 C 
BRANCH  25  26
HETATM   26  C2  UNL     1     -13.094   3.023   3.805  1.00  0.00     0.148 C 
HETATM   27  C1  UNL     1     -12.029   2.444   4.697  1.00  0.00     0.049 C 
BRANCH  26  28
HETATM   28  N1  UNL     1     -13.246   4.427   4.261  1.00  0.00    -0.068 N 
ATOM     29  H13 UNL     1     -13.350   4.525   5.271  1.00  0.00     0.275 HD
ATOM     30  H12 UNL     1     -12.395   4.984   4.177  1.00  0.00     0.275 HD
ATOM     31  H11 UNL     1     -14.034   4.789   3.725  1.00  0.00     0.275 HD
ENDBRANCH  26  28
BRANCH  26  32
HETATM   32  C3  UNL     1     -14.426   2.386   4.077  1.00  0.00     0.202 C 
BRANCH  32  33
HETATM   33  O1  UNL     1     -14.663   2.037   5.377  1.00  0.00    -0.398 OA
ATOM     34  H1  UNL     1     -14.396   1.159   5.624  1.00  0.00     0.209 HD
ENDBRANCH  32  33
ENDBRANCH  26  32
ENDBRANCH  25  26
ENDBRANCH   1  25
TORSDOF 7
ENDMDL
MODEL 5
REMARK VINA RESULT: -7.442009810      1.473      1.713
REMARK  7 active torsions:
REMARK  status: ('A' for Active; 'I' for Inactive)
REMARK    1  A    between atoms: C2_2  and  N1_3 
REMARK    2  A    between atoms: C2_2  and  C3_7 
REMARK    3  A    between atoms: C2_2  and  C4_10 
REMARK    4  A    between atoms: C3_7  and  O1_8 
REMARK    5  A    between atoms: C4_10  and  C5_11 
REMARK    6  A    between atoms: C6_14  and  C7_15 
REMARK       I    between atoms: N3_19  and  C11_20 
REMARK    7  A    between atoms: C11_20  and  C12_22 
ROOT
HETATM    1  C5  UNL     1     -11.906   3.983   2.434  1.00  0.00     0.150 A 
HETATM    2  N2  UNL     1     -12.363   5.092   1.825  1.00  0.00    -0.325 N 
ATOM      3  H2  UNL     1     -13.347   5.334   1.703  1.00  0.00     0.169 HD
HETATM    4  C6  UNL     1     -11.324   5.831   1.403  1.00  0.00     0.127 A 
HETATM    5  N4  UNL     1     -10.245   5.129   1.780  1.00  0.00    -0.245 N 
ATOM      6  H4  UNL     1      -9.279   5.410   1.614  1.00  0.00     0.196 HD
HETATM    7  O3  UNL     1     -10.604   4.045   2.385  1.00  0.00    -0.223 OA
ENDROOT
BRANCH   4   8
HETATM    8  C7  UNL     1     -11.395   7.130   0.686  1.00  0.00     0.157 C 
HETATM    9  C8  UNL     1     -12.824   7.461   0.431  1.00  0.00     0.035 C 
HETATM   10  C9  UNL     1     -12.824   8.006  -0.976  1.00  0.00     0.022 C 
HETATM   11  C10 UNL     1     -11.733   7.151  -1.603  1.00  0.00     0.127 C 
HETATM   12  N3  UNL     1     -10.711   7.065  -0.596  1.00  0.00    -0.340 N 
HETATM   13  C11 UNL     1      -9.332   6.940  -0.807  1.00  0.00     0.229 C 
HETATM   14  O2  UNL     1      -8.628   6.861   0.275  1.00  0.00    -0.272 OA
BRANCH  13  15
HETATM   15  C12 UNL     1      -8.612   6.890  -2.088  1.00  0.00     0.042 C 
HETATM   16  C13 UNL     1      -9.462   6.389  -3.203  1.00  0.00     0.024 C 
HETATM   17  C14 UNL     1      -8.737   6.470  -4.540  1.00  0.00    -0.013 C 
HETATM   18  C15 UNL     1      -7.590   5.483  -4.456  1.00  0.00     0.009 C 
HETATM   19  C19 UNL     1      -8.290   7.885  -4.719  1.00  0.00     0.009 C 
HETATM   20  C16 UNL     1      -6.715   5.894  -3.290  1.00  0.00    -0.013 C 
HETATM   21  C17 UNL     1      -6.120   7.228  -3.629  1.00  0.00     0.009 C 
HETATM   22  C21 UNL     1      -7.453   5.857  -1.984  1.00  0.00     0.024 C 
HETATM   23  C18 UNL     1      -7.254   8.233  -3.696  1.00  0.00    -0.013 C 
HETATM   24  C20 UNL     1      -7.922   8.195  -2.327  1.00  0.00     0.024 C 
ENDBRANCH  13  15
ENDBRANCH   4   8
BRANCH   1  25
HETATM   25  C4  UNL     1     -12.780   2.946   3.019  1.00  0.00     0.127 C 
BRANCH  25  26
HETATM   26  C2  UNL     1     -12.781   2.852   4.499  1.00  0.00     0.148 C 
HETATM   27  C1  UNL     1     -13.231   4.109   5.194  1.00  0.00     0.049 C 
BRANCH  26  28
HETATM   28  N1  UNL     1     -13.819   1.845   4.831  1.00  0.00    -0.068 N 
ATOM     29  H13 UNL     1     -13.630   1.321   5.685  1.00  0.00     0.275 HD
ATOM     30  H12 UNL     1     -14.705   2.248   5.137  1.00  0.00     0.275 HD
ATOM     31  H11 UNL     1     -13.894   1.265   3.996  1.00  0.00     0.275 HD
ENDBRANCH  26  28
BRANCH  26  32
HETATM   32  C3  UNL     1     -11.521   2.320   5.117  1.00  0.00     0.202 C 
BRANCH  32  33
HETATM   33  O1  UNL     1     -10.542   3.244   5.361  1.00  0.00    -0.398 OA
ATOM     34  H1  UNL     1      -9.839   3.278   4.723  1.00  0.00     0.209 HD
ENDBRANCH  32  33
ENDBRANCH  26  32
ENDBRANCH  25  26
ENDBRANCH   1  25
TORSDOF 7
ENDMDL
