MODEL 1
REMARK VINA RESULT: -7.409076439      0.000      0.000
REMARK  7 active torsions:
REMARK  status: ('A' for Active; 'I' for Inactive)
REMARK    1  A    between atoms: C4_4  and  C6_7 
REMARK    2  A    between atoms: C6_7  and  O1_8 
REMARK    3  A    between atoms: C6_7  and  C7_10 
REMARK    4  A    between atoms: C7_10  and  C8_11 
REMARK    5  A    between atoms: C8_11  and  C9_12 
REMARK    6  A    between atoms: C9_12  and  C10_13 
REMARK       I    between atoms: C10_13  and  N2_15 
REMARK    7  A    between atoms: N2_15  and  C11_17 
ROOT
HETATM    1  C1  UNL     1      -5.848   8.237   2.375  1.00  0.00     0.044 C 
HETATM    2  C2  UNL     1      -7.299   7.773   2.507  1.00  0.00    -0.068 C 
HETATM    3  C3  UNL     1      -7.774   7.728   3.906  1.00  0.00     0.044 C 
HETATM    4  C4  UNL     1      -7.953   7.491   1.443  1.00  0.00     0.052 C 
HETATM    5  C5  UNL     1      -7.250   7.640   0.163  1.00  0.00     0.098 C 
HETATM    6  N1  UNL     1      -6.714   7.752  -0.854  1.00  0.00    -0.192 NA
ENDROOT
BRANCH   4   7
HETATM    7  C6  UNL     1      -9.392   7.019   1.300  1.00  0.00     0.162 C 
BRANCH   7   8
HETATM    8  O1  UNL     1      -9.306   5.728   1.948  1.00  0.00    -0.390 OA
ATOM      9  H1  UNL     1     -10.214   5.455   1.903  1.00  0.00     0.210 HD
ENDBRANCH   7   8
BRANCH   7  10
HETATM   10  C7  UNL     1      -9.653   6.838  -0.129  1.00  0.00     0.047 C 
BRANCH  10  11
HETATM   11  C8  UNL     1     -10.893   7.130  -0.837  1.00  0.00    -0.028 C 
HETATM   12  C17 UNL     1     -11.325   8.591  -0.669  1.00  0.00     0.025 C 
HETATM   13  C18 UNL     1     -12.205   9.031  -1.798  1.00  0.00     0.141 C 
HETATM   14  S1  UNL     1     -11.058   9.444  -3.137  1.00  0.00     0.144 S 
HETATM   15  O3  UNL     1     -10.557  10.829  -3.001  1.00  0.00    -0.228 OA
HETATM   16  O4  UNL     1     -11.639   9.102  -4.456  1.00  0.00    -0.228 OA
HETATM   17  C19 UNL     1      -9.759   8.219  -2.828  1.00  0.00     0.141 C 
HETATM   18  C20 UNL     1     -10.501   7.013  -2.350  1.00  0.00     0.025 C 
BRANCH  11  19
HETATM   19  C9  UNL     1     -12.021   6.198  -0.698  1.00  0.00     0.112 C 
BRANCH  19  20
HETATM   20  C10 UNL     1     -12.506   5.802   0.607  1.00  0.00     0.218 C 
HETATM   21  O2  UNL     1     -13.376   6.448   1.282  1.00  0.00    -0.274 OA
HETATM   22  N2  UNL     1     -12.030   4.624   1.253  1.00  0.00    -0.356 N 
ATOM     23  H2  UNL     1     -11.335   4.060   0.765  1.00  0.00     0.162 HD
BRANCH  22  24
HETATM   24  C11 UNL     1     -12.471   4.182   2.549  1.00  0.00     0.084 C 
HETATM   25  C12 UNL     1     -11.402   3.633   3.431  1.00  0.00     0.025 C 
HETATM   26  C13 UNL     1     -12.020   3.260   4.760  1.00  0.00     0.002 C 
HETATM   27  C14 UNL     1     -13.184   2.333   4.620  1.00  0.00     0.000 C 
HETATM   28  C15 UNL     1     -14.200   2.810   3.606  1.00  0.00     0.002 C 
HETATM   29  C16 UNL     1     -13.456   3.027   2.298  1.00  0.00     0.025 C 
ENDBRANCH  22  24
ENDBRANCH  19  20
ENDBRANCH  11  19
ENDBRANCH  10  11
ENDBRANCH   7  10
ENDBRANCH   4   7
TORSDOF 7
ENDMDL
MODEL 2
REMARK VINA RESULT: -7.402572343      3.478      6.856
REMARK  7 active torsions:
REMARK  status: ('A' for Active; 'I' for Inactive)
REMARK    1  A    between atoms: C4_4  and  C6_7 
REMARK    2  A    between atoms: C6_7  and  O1_8 
REMARK    3  A    between atoms: C6_7  and  C7_10 
REMARK    4  A    between atoms: C7_10  and  C8_11 
REMARK    5  A    between atoms: C8_11  and  C9_12 
REMARK    6  A    between atoms: C9_12  and  C10_13 
REMARK       I    between atoms: C10_13  and  N2_15 
REMARK    7  A    between atoms: N2_15  and  C11_17 
ROOT
HETATM    1  C1  UNL     1     -10.986   4.341   2.255  1.00  0.00     0.044 C 
HETATM    2  C2  UNL     1     -10.924   5.596   1.382  1.00  0.00    -0.068 C 
HETATM    3  C3  UNL     1      -9.603   6.260   1.404  1.00  0.00     0.044 C 
HETATM    4  C4  UNL     1     -11.968   5.940   0.725  1.00  0.00     0.052 C 
HETATM    5  C5  UNL     1     -13.157   5.090   0.862  1.00  0.00     0.098 C 
HETATM    6  N1  UNL     1     -14.103   4.432   0.955  1.00  0.00    -0.192 NA
ENDROOT
BRANCH   4   7
HETATM    7  C6  UNL     1     -12.166   7.125  -0.207  1.00  0.00     0.162 C 
BRANCH   7   8
HETATM    8  O1  UNL     1     -13.593   7.043  -0.430  1.00  0.00    -0.390 OA
ATOM      9  H1  UNL     1     -13.645   7.374  -1.318  1.00  0.00     0.210 HD
ENDBRANCH   7   8
BRANCH   7  10
HETATM   10  C7  UNL     1     -11.454   6.825  -1.451  1.00  0.00     0.047 C 
BRANCH  10  11
HETATM   11  C8  UNL     1     -10.767   7.775  -2.318  1.00  0.00    -0.028 C 
HETATM   12  C17 UNL     1     -10.092   8.898  -1.525  1.00  0.00     0.025 C 
HETATM   13  C18 UNL     1      -8.958   9.502  -2.296  1.00  0.00     0.141 C 
HETATM   14  S1  UNL     1      -7.569   8.371  -2.026  1.00  0.00     0.144 S 
HETATM   15  O3  UNL     1      -6.865   8.685  -0.765  1.00  0.00    -0.228 OA
HETATM   16  O4  UNL     1      -6.713   8.289  -3.232  1.00  0.00    -0.228 OA
HETATM   17  C19 UNL     1      -8.459   6.796  -1.933  1.00  0.00     0.141 C 
HETATM   18  C20 UNL     1      -9.576   6.949  -2.915  1.00  0.00     0.025 C 
BRANCH  11  19
HETATM   19  C9  UNL     1     -11.470   8.279  -3.507  1.00  0.00     0.112 C 
BRANCH  19  20
HETATM   20  C10 UNL     1     -12.776   8.893  -3.398  1.00  0.00     0.218 C 
HETATM   21  O2  UNL     1     -13.214   9.482  -2.353  1.00  0.00    -0.274 OA
HETATM   22  N2  UNL     1     -13.697   8.883  -4.485  1.00  0.00    -0.356 N 
ATOM     23  H2  UNL     1     -13.408   8.430  -5.352  1.00  0.00     0.162 HD
BRANCH  22  24
HETATM   24  C11 UNL     1     -15.009   9.472  -4.436  1.00  0.00     0.084 C 
HETATM   25  C12 UNL     1     -16.075   8.710  -5.146  1.00  0.00     0.025 C 
HETATM   26  C13 UNL     1     -17.389   9.435  -4.960  1.00  0.00     0.002 C 
HETATM   27  C14 UNL     1     -17.327  10.868  -5.380  1.00  0.00     0.000 C 
HETATM   28  C15 UNL     1     -16.151  11.607  -4.783  1.00  0.00     0.002 C 
HETATM   29  C16 UNL     1     -14.899  10.828  -5.153  1.00  0.00     0.025 C 
ENDBRANCH  22  24
ENDBRANCH  19  20
ENDBRANCH  11  19
ENDBRANCH  10  11
ENDBRANCH   7  10
ENDBRANCH   4   7
TORSDOF 7
ENDMDL
MODEL 3
REMARK VINA RESULT: -7.273406558      2.920      5.295
REMARK  7 active torsions:
REMARK  status: ('A' for Active; 'I' for Inactive)
REMARK    1  A    between atoms: C4_4  and  C6_7 
REMARK    2  A    between atoms: C6_7  and  O1_8 
REMARK    3  A    between atoms: C6_7  and  C7_10 
REMARK    4  A    between atoms: C7_10  and  C8_11 
REMARK    5  A    between atoms: C8_11  and  C9_12 
REMARK    6  A    between atoms: C9_12  and  C10_13 
REMARK       I    between atoms: C10_13  and  N2_15 
REMARK    7  A    between atoms: N2_15  and  C11_17 
ROOT
HETATM    1  C1  UNL     1     -10.184   6.595  -4.992  1.00  0.00     0.044 C 
HETATM    2  C2  UNL     1      -9.354   7.463  -4.045  1.00  0.00    -0.068 C 
HETATM    3  C3  UNL     1      -9.986   8.763  -3.736  1.00  0.00     0.044 C 
HETATM    4  C4  UNL     1      -8.241   7.003  -3.608  1.00  0.00     0.052 C 
HETATM    5  C5  UNL     1      -7.846   5.662  -4.055  1.00  0.00     0.098 C 
HETATM    6  N1  UNL     1      -7.519   4.607  -4.394  1.00  0.00    -0.192 NA
ENDROOT
BRANCH   4   7
HETATM    7  C6  UNL     1      -7.242   7.653  -2.663  1.00  0.00     0.162 C 
BRANCH   7   8
HETATM    8  O1  UNL     1      -6.000   7.299  -3.316  1.00  0.00    -0.390 OA
ATOM      9  H1  UNL     1      -5.376   7.668  -2.704  1.00  0.00     0.210 HD
ENDBRANCH   7   8
BRANCH   7  10
HETATM   10  C7  UNL     1      -7.340   6.957  -1.378  1.00  0.00     0.047 C 
BRANCH  10  11
HETATM   11  C8  UNL     1      -7.926   7.470  -0.146  1.00  0.00    -0.028 C 
HETATM   12  C17 UNL     1      -7.623   6.571   1.057  1.00  0.00     0.025 C 
HETATM   13  C18 UNL     1      -7.697   7.339   2.341  1.00  0.00     0.141 C 
HETATM   14  S1  UNL     1      -6.097   8.177   2.466  1.00  0.00     0.144 S 
HETATM   15  O3  UNL     1      -5.077   7.291   3.067  1.00  0.00    -0.228 OA
HETATM   16  O4  UNL     1      -6.244   9.505   3.105  1.00  0.00    -0.228 OA
HETATM   17  C19 UNL     1      -5.771   8.496   0.713  1.00  0.00     0.141 C 
HETATM   18  C20 UNL     1      -7.120   8.784   0.137  1.00  0.00     0.025 C 
BRANCH  11  19
HETATM   19  C9  UNL     1      -9.325   7.919  -0.165  1.00  0.00     0.112 C 
BRANCH  19  20
HETATM   20  C10 UNL     1     -10.416   6.967  -0.170  1.00  0.00     0.218 C 
HETATM   21  O2  UNL     1     -11.067   6.621  -1.212  1.00  0.00    -0.274 OA
HETATM   22  N2  UNL     1     -10.853   6.328   1.026  1.00  0.00    -0.356 N 
ATOM     23  H2  UNL     1     -10.372   6.558   1.894  1.00  0.00     0.162 HD
BRANCH  22  24
HETATM   24  C11 UNL     1     -11.932   5.377   1.083  1.00  0.00     0.084 C 
HETATM   25  C12 UNL     1     -13.258   5.942   1.460  1.00  0.00     0.025 C 
HETATM   26  C13 UNL     1     -14.282   4.830   1.429  1.00  0.00     0.002 C 
HETATM   27  C14 UNL     1     -13.893   3.659   2.273  1.00  0.00     0.000 C 
HETATM   28  C15 UNL     1     -12.485   3.178   2.003  1.00  0.00     0.002 C 
HETATM   29  C16 UNL     1     -11.562   4.373   2.188  1.00  0.00     0.025 C 
ENDBRANCH  22  24
ENDBRANCH  19  20
ENDBRANCH  11  19
ENDBRANCH  10  11
ENDBRANCH   7  10
ENDBRANCH   4   7
TORSDOF 7
ENDMDL
MODEL 4
REMARK VINA RESULT: -7.193953935      1.995      5.891
REMARK  7 active torsions:
REMARK  status: ('A' for Active; 'I' for Inactive)
REMARK    1  A    between atoms: C4_4  and  C6_7 
REMARK    2  A    between atoms: C6_7  and  O1_8 
REMARK    3  A    between atoms: C6_7  and  C7_10 
REMARK    4  A    between atoms: C7_10  and  C8_11 
REMARK    5  A    between atoms: C8_11  and  C9_12 
REMARK    6  A    between atoms: C9_12  and  C10_13 
REMARK       I    between atoms: C10_13  and  N2_15 
REMARK    7  A    between atoms: N2_15  and  C11_17 
ROOT
HETATM    1  C1  UNL     1     -13.867   4.783   1.629  1.00  0.00     0.044 C 
HETATM    2  C2  UNL     1     -12.348   4.926   1.527  1.00  0.00    -0.068 C 
HETATM    3  C3  UNL     1     -11.613   3.755   2.049  1.00  0.00     0.044 C 
HETATM    4  C4  UNL     1     -11.865   5.993   1.008  1.00  0.00     0.052 C 
HETATM    5  C5  UNL     1     -12.820   7.006   0.543  1.00  0.00     0.098 C 
HETATM    6  N1  UNL     1     -13.556   7.815   0.171  1.00  0.00    -0.192 NA
ENDROOT
BRANCH   4   7
HETATM    7  C6  UNL     1     -10.410   6.376   0.786  1.00  0.00     0.162 C 
BRANCH   7   8
HETATM    8  O1  UNL     1     -10.289   7.481   1.713  1.00  0.00    -0.390 OA
ATOM      9  H1  UNL     1      -9.615   7.991   1.281  1.00  0.00     0.210 HD
ENDBRANCH   7   8
BRANCH   7  10
HETATM   10  C7  UNL     1     -10.291   6.868  -0.588  1.00  0.00     0.047 C 
BRANCH  10  11
HETATM   11  C8  UNL     1      -9.061   7.182  -1.303  1.00  0.00    -0.028 C 
HETATM   12  C17 UNL     1      -9.157   6.844  -2.795  1.00  0.00     0.025 C 
HETATM   13  C18 UNL     1      -8.191   7.658  -3.599  1.00  0.00     0.141 C 
HETATM   14  S1  UNL     1      -9.018   9.253  -3.828  1.00  0.00     0.144 S 
HETATM   15  O3  UNL     1      -9.935   9.215  -4.987  1.00  0.00    -0.228 OA
HETATM   16  O4  UNL     1      -8.036  10.363  -3.828  1.00  0.00    -0.228 OA
HETATM   17  C19 UNL     1      -9.913   9.373  -2.257  1.00  0.00     0.141 C 
HETATM   18  C20 UNL     1      -8.988   8.747  -1.263  1.00  0.00     0.025 C 
BRANCH  11  19
HETATM   19  C9  UNL     1      -7.779   6.760  -0.720  1.00  0.00     0.112 C 
BRANCH  19  20
HETATM   20  C10 UNL     1      -7.046   7.628   0.178  1.00  0.00     0.218 C 
HETATM   21  O2  UNL     1      -6.231   8.535  -0.199  1.00  0.00    -0.274 OA
HETATM   22  N2  UNL     1      -7.187   7.526   1.592  1.00  0.00    -0.356 N 
ATOM     23  H2  UNL     1      -7.826   6.822   1.960  1.00  0.00     0.162 HD
BRANCH  22  24
HETATM   24  C11 UNL     1      -6.483   8.357   2.533  1.00  0.00     0.084 C 
HETATM   25  C12 UNL     1      -5.154   7.840   2.968  1.00  0.00     0.025 C 
HETATM   26  C13 UNL     1      -4.532   8.844   3.912  1.00  0.00     0.002 C 
HETATM   27  C14 UNL     1      -5.422   9.187   5.063  1.00  0.00     0.000 C 
HETATM   28  C15 UNL     1      -6.823   9.562   4.635  1.00  0.00     0.002 C 
HETATM   29  C16 UNL     1      -7.357   8.411   3.797  1.00  0.00     0.025 C 
ENDBRANCH  22  24
ENDBRANCH  19  20
ENDBRANCH  11  19
ENDBRANCH  10  11
ENDBRANCH   7  10
ENDBRANCH   4   7
TORSDOF 7
ENDMDL
MODEL 5
REMARK VINA RESULT: -7.190872787      2.587      6.540
REMARK  7 active torsions:
REMARK  status: ('A' for Active; 'I' for Inactive)
REMARK    1  A    between atoms: C4_4  and  C6_7 
REMARK    2  A    between atoms: C6_7  and  O1_8 
REMARK    3  A    between atoms: C6_7  and  C7_10 
REMARK    4  A    between atoms: C7_10  and  C8_11 
REMARK    5  A    between atoms: C8_11  and  C9_12 
REMARK    6  A    between atoms: C9_12  and  C10_13 
REMARK       I    between atoms: C10_13  and  N2_15 
REMARK    7  A    between atoms: N2_15  and  C11_17 
ROOT
HETATM    1  C1  UNL     1     -13.188   5.186   1.406  1.00  0.00     0.044 C 
HETATM    2  C2  UNL     1     -11.669   5.119   1.567  1.00  0.00    -0.068 C 
HETATM    3  C3  UNL     1     -11.207   3.902   2.266  1.00  0.00     0.044 C 
HETATM    4  C4  UNL     1     -10.958   6.072   1.089  1.00  0.00     0.052 C 
HETATM    5  C5  UNL     1     -11.667   7.166   0.415  1.00  0.00     0.098 C 
HETATM    6  N1  UNL     1     -12.208   8.036  -0.120  1.00  0.00    -0.192 NA
ENDROOT
BRANCH   4   7
HETATM    7  C6  UNL     1      -9.447   6.242   1.110  1.00  0.00     0.162 C 
BRANCH   7   8
HETATM    8  O1  UNL     1      -9.237   6.516   2.515  1.00  0.00    -0.390 OA
ATOM      9  H1  UNL     1      -8.295   6.410   2.569  1.00  0.00     0.210 HD
ENDBRANCH   7   8
BRANCH   7  10
HETATM   10  C7  UNL     1      -9.131   7.435   0.321  1.00  0.00     0.047 C 
BRANCH  10  11
HETATM   11  C8  UNL     1      -8.001   7.613  -0.582  1.00  0.00    -0.028 C 
HETATM   12  C17 UNL     1      -7.589   6.302  -1.259  1.00  0.00     0.025 C 
HETATM   13  C18 UNL     1      -6.875   6.558  -2.550  1.00  0.00     0.141 C 
HETATM   14  S1  UNL     1      -8.197   6.853  -3.753  1.00  0.00     0.144 S 
HETATM   15  O3  UNL     1      -8.710   5.580  -4.302  1.00  0.00    -0.228 OA
HETATM   16  O4  UNL     1      -7.783   7.860  -4.757  1.00  0.00    -0.228 OA
HETATM   17  C19 UNL     1      -9.412   7.674  -2.690  1.00  0.00     0.141 C 
HETATM   18  C20 UNL     1      -8.583   8.486  -1.747  1.00  0.00     0.025 C 
BRANCH  11  19
HETATM   19  C9  UNL     1      -6.841   8.387  -0.117  1.00  0.00     0.112 C 
BRANCH  19  20
HETATM   20  C10 UNL     1      -6.418   8.338   1.267  1.00  0.00     0.218 C 
HETATM   21  O2  UNL     1      -6.352   7.271   1.965  1.00  0.00    -0.274 OA
HETATM   22  N2  UNL     1      -6.031   9.515   1.970  1.00  0.00    -0.356 N 
ATOM     23  H2  UNL     1      -6.058  10.402   1.468  1.00  0.00     0.162 HD
BRANCH  22  24
HETATM   24  C11 UNL     1      -5.606   9.529   3.344  1.00  0.00     0.084 C 
HETATM   25  C12 UNL     1      -6.705   9.564   4.350  1.00  0.00     0.025 C 
HETATM   26  C13 UNL     1      -6.093   9.530   5.733  1.00  0.00     0.002 C 
HETATM   27  C14 UNL     1      -5.080  10.608   5.947  1.00  0.00     0.000 C 
HETATM   28  C15 UNL     1      -4.049  10.678   4.843  1.00  0.00     0.002 C 
HETATM   29  C16 UNL     1      -4.808  10.831   3.534  1.00  0.00     0.025 C 
ENDBRANCH  22  24
ENDBRANCH  19  20
ENDBRANCH  11  19
ENDBRANCH  10  11
ENDBRANCH   7  10
ENDBRANCH   4   7
TORSDOF 7
ENDMDL
