MODEL 1
REMARK VINA RESULT: -7.426969076      0.000      0.000
REMARK  6 active torsions:
REMARK  status: ('A' for Active; 'I' for Inactive)
REMARK    1  A    between atoms: C2_2  and  S1_3 
REMARK    2  A    between atoms: S1_3  and  C3_6 
REMARK    3  A    between atoms: C3_6  and  C4_7 
REMARK    4  A    between atoms: C4_7  and  C5_8 
REMARK    5  A    between atoms: C5_8  and  N1_9 
REMARK       I    between atoms: N1_9  and  C6_11 
REMARK       I    between atoms: C6_11  and  N2_13 
REMARK    6  A    between atoms: N2_13  and  C7_15 
ROOT
HETATM    1  N1  UNL     1       9.874   4.560  -1.225  1.00  0.00    -0.343 N 
ATOM      2  H1  UNL     1       9.377   3.929  -0.598  1.00  0.00     0.164 HD
HETATM    3  C6  UNL     1       9.209   5.637  -1.824  1.00  0.00     0.316 C 
HETATM    4  O3  UNL     1       9.829   6.404  -2.589  1.00  0.00    -0.247 OA
HETATM    5  N2  UNL     1       7.841   5.843  -1.555  1.00  0.00    -0.334 N 
ATOM      6  H2  UNL     1       7.385   5.186  -0.922  1.00  0.00     0.165 HD
ENDROOT
BRANCH   5   7
HETATM    7  C7  UNL     1       7.034   6.910  -2.100  1.00  0.00     0.035 C 
HETATM    8  C8  UNL     1       6.907   7.989  -1.078  1.00  0.00     0.035 C 
HETATM    9  C9  UNL     1       5.921   9.079  -1.435  1.00  0.00    -0.012 C 
HETATM   10  C10 UNL     1       6.526  10.168  -2.254  1.00  0.00     0.005 C 
HETATM   11  C15 UNL     1       4.623   8.561  -1.984  1.00  0.00     0.009 C 
HETATM   12  C11 UNL     1       7.134   9.814  -3.529  1.00  0.00     0.005 C 
HETATM   13  C12 UNL     1       6.874   8.462  -4.084  1.00  0.00    -0.012 C 
HETATM   14  C13 UNL     1       5.425   8.124  -4.234  1.00  0.00     0.009 C 
HETATM   15  C17 UNL     1       7.661   7.370  -3.378  1.00  0.00     0.035 C 
HETATM   16  C14 UNL     1       4.831   7.482  -3.022  1.00  0.00    -0.012 C 
HETATM   17  C16 UNL     1       5.646   6.385  -2.433  1.00  0.00     0.035 C 
ENDBRANCH   5   7
BRANCH   1  18
HETATM   18  C5  UNL     1      11.285   4.357  -1.511  1.00  0.00     0.125 C 
BRANCH  18  19
HETATM   19  C4  UNL     1      11.616   2.928  -1.745  1.00  0.00     0.035 C 
BRANCH  19  20
HETATM   20  C3  UNL     1      13.044   2.755  -2.145  1.00  0.00     0.146 C 
BRANCH  20  21
HETATM   21  S1  UNL     1      13.244   1.819  -3.607  1.00  0.00     0.165 S 
HETATM   22  O1  UNL     1      13.686   0.423  -3.404  1.00  0.00    -0.224 OA
HETATM   23  O2  UNL     1      14.334   2.453  -4.494  1.00  0.00    -0.224 OA
BRANCH  21  24
HETATM   24  C2  UNL     1      11.745   1.853  -4.536  1.00  0.00     0.098 C 
HETATM   25  C1  UNL     1      11.622   2.596  -5.606  1.00  0.00     0.023 C 
ENDBRANCH  21  24
ENDBRANCH  20  21
ENDBRANCH  19  20
ENDBRANCH  18  19
ENDBRANCH   1  18
TORSDOF 6
ENDMDL
MODEL 2
REMARK VINA RESULT: -7.270723605      0.841      1.855
REMARK  6 active torsions:
REMARK  status: ('A' for Active; 'I' for Inactive)
REMARK    1  A    between atoms: C2_2  and  S1_3 
REMARK    2  A    between atoms: S1_3  and  C3_6 
REMARK    3  A    between atoms: C3_6  and  C4_7 
REMARK    4  A    between atoms: C4_7  and  C5_8 
REMARK    5  A    between atoms: C5_8  and  N1_9 
REMARK       I    between atoms: N1_9  and  C6_11 
REMARK       I    between atoms: C6_11  and  N2_13 
REMARK    6  A    between atoms: N2_13  and  C7_15 
ROOT
HETATM    1  N1  UNL     1      10.086   4.561  -1.473  1.00  0.00    -0.343 N 
ATOM      2  H1  UNL     1       9.885   3.775  -2.091  1.00  0.00     0.164 HD
HETATM    3  C6  UNL     1       9.226   5.664  -1.425  1.00  0.00     0.316 C 
HETATM    4  O3  UNL     1       9.482   6.620  -0.664  1.00  0.00    -0.247 OA
HETATM    5  N2  UNL     1       8.076   5.683  -2.238  1.00  0.00    -0.334 N 
ATOM      6  H2  UNL     1       7.915   4.875  -2.841  1.00  0.00     0.165 HD
ENDROOT
BRANCH   5   7
HETATM    7  C7  UNL     1       7.104   6.751  -2.289  1.00  0.00     0.035 C 
HETATM    8  C8  UNL     1       7.530   7.740  -3.323  1.00  0.00     0.035 C 
HETATM    9  C9  UNL     1       6.715   9.014  -3.345  1.00  0.00    -0.012 C 
HETATM   10  C10 UNL     1       5.496   8.913  -4.196  1.00  0.00     0.005 C 
HETATM   11  C15 UNL     1       6.454   9.586  -1.982  1.00  0.00     0.009 C 
HETATM   12  C11 UNL     1       4.520   7.879  -3.881  1.00  0.00     0.005 C 
HETATM   13  C12 UNL     1       4.633   7.174  -2.579  1.00  0.00    -0.012 C 
HETATM   14  C13 UNL     1       4.647   8.078  -1.387  1.00  0.00     0.009 C 
HETATM   15  C17 UNL     1       5.759   6.153  -2.554  1.00  0.00     0.035 C 
HETATM   16  C14 UNL     1       6.015   8.530  -0.993  1.00  0.00    -0.012 C 
HETATM   17  C16 UNL     1       7.039   7.451  -0.941  1.00  0.00     0.035 C 
ENDBRANCH   5   7
BRANCH   1  18
HETATM   18  C5  UNL     1      11.270   4.553  -0.630  1.00  0.00     0.125 C 
BRANCH  18  19
HETATM   19  C4  UNL     1      12.380   3.760  -1.218  1.00  0.00     0.035 C 
BRANCH  19  20
HETATM   20  C3  UNL     1      11.868   2.687  -2.121  1.00  0.00     0.146 C 
BRANCH  20  21
HETATM   21  S1  UNL     1      13.108   1.984  -3.132  1.00  0.00     0.165 S 
HETATM   22  O1  UNL     1      13.584   0.651  -2.707  1.00  0.00    -0.224 OA
HETATM   23  O2  UNL     1      14.365   2.876  -3.120  1.00  0.00    -0.224 OA
BRANCH  21  24
HETATM   24  C2  UNL     1      12.540   1.923  -4.801  1.00  0.00     0.098 C 
HETATM   25  C1  UNL     1      11.330   2.301  -5.125  1.00  0.00     0.023 C 
ENDBRANCH  21  24
ENDBRANCH  20  21
ENDBRANCH  19  20
ENDBRANCH  18  19
ENDBRANCH   1  18
TORSDOF 6
ENDMDL
MODEL 3
REMARK VINA RESULT: -7.176509977      0.354      1.821
REMARK  6 active torsions:
REMARK  status: ('A' for Active; 'I' for Inactive)
REMARK    1  A    between atoms: C2_2  and  S1_3 
REMARK    2  A    between atoms: S1_3  and  C3_6 
REMARK    3  A    between atoms: C3_6  and  C4_7 
REMARK    4  A    between atoms: C4_7  and  C5_8 
REMARK    5  A    between atoms: C5_8  and  N1_9 
REMARK       I    between atoms: N1_9  and  C6_11 
REMARK       I    between atoms: C6_11  and  N2_13 
REMARK    6  A    between atoms: N2_13  and  C7_15 
ROOT
HETATM    1  N1  UNL     1       9.886   4.468  -1.198  1.00  0.00    -0.343 N 
ATOM      2  H1  UNL     1       9.393   3.795  -0.612  1.00  0.00     0.164 HD
HETATM    3  C6  UNL     1       9.212   5.572  -1.734  1.00  0.00     0.316 C 
HETATM    4  O3  UNL     1       9.827   6.390  -2.449  1.00  0.00    -0.247 OA
HETATM    5  N2  UNL     1       7.841   5.748  -1.459  1.00  0.00    -0.334 N 
ATOM      6  H2  UNL     1       7.389   5.050  -0.869  1.00  0.00     0.165 HD
ENDROOT
BRANCH   5   7
HETATM    7  C7  UNL     1       7.025   6.837  -1.944  1.00  0.00     0.035 C 
HETATM    8  C8  UNL     1       5.701   6.294  -2.368  1.00  0.00     0.035 C 
HETATM    9  C9  UNL     1       4.816   7.289  -3.086  1.00  0.00    -0.012 C 
HETATM   10  C10 UNL     1       3.985   8.107  -2.157  1.00  0.00     0.005 C 
HETATM   11  C15 UNL     1       5.538   8.099  -4.123  1.00  0.00     0.009 C 
HETATM   12  C11 UNL     1       4.664   8.907  -1.148  1.00  0.00     0.005 C 
HETATM   13  C12 UNL     1       6.132   9.100  -1.271  1.00  0.00    -0.012 C 
HETATM   14  C13 UNL     1       6.573   9.666  -2.583  1.00  0.00     0.009 C 
HETATM   15  C17 UNL     1       6.926   7.869  -0.865  1.00  0.00     0.035 C 
HETATM   16  C14 UNL     1       6.861   8.627  -3.617  1.00  0.00    -0.012 C 
HETATM   17  C16 UNL     1       7.694   7.488  -3.144  1.00  0.00     0.035 C 
ENDBRANCH   5   7
BRANCH   1  18
HETATM   18  C5  UNL     1      11.299   4.297  -1.489  1.00  0.00     0.125 C 
BRANCH  18  19
HETATM   19  C4  UNL     1      11.661   2.875  -1.725  1.00  0.00     0.035 C 
BRANCH  19  20
HETATM   20  C3  UNL     1      13.077   2.739  -2.180  1.00  0.00     0.146 C 
BRANCH  20  21
HETATM   21  S1  UNL     1      13.244   1.816  -3.654  1.00  0.00     0.165 S 
HETATM   22  O1  UNL     1      13.675   0.414  -3.472  1.00  0.00    -0.224 OA
HETATM   23  O2  UNL     1      14.325   2.449  -4.552  1.00  0.00    -0.224 OA
BRANCH  21  24
HETATM   24  C2  UNL     1      11.730   1.874  -4.558  1.00  0.00     0.098 C 
HETATM   25  C1  UNL     1      11.605   2.611  -5.632  1.00  0.00     0.023 C 
ENDBRANCH  21  24
ENDBRANCH  20  21
ENDBRANCH  19  20
ENDBRANCH  18  19
ENDBRANCH   1  18
TORSDOF 6
ENDMDL
MODEL 4
REMARK VINA RESULT: -7.068482603      0.786      1.647
REMARK  6 active torsions:
REMARK  status: ('A' for Active; 'I' for Inactive)
REMARK    1  A    between atoms: C2_2  and  S1_3 
REMARK    2  A    between atoms: S1_3  and  C3_6 
REMARK    3  A    between atoms: C3_6  and  C4_7 
REMARK    4  A    between atoms: C4_7  and  C5_8 
REMARK    5  A    between atoms: C5_8  and  N1_9 
REMARK       I    between atoms: N1_9  and  C6_11 
REMARK       I    between atoms: C6_11  and  N2_13 
REMARK    6  A    between atoms: N2_13  and  C7_15 
ROOT
HETATM    1  N1  UNL     1       9.631   4.694  -1.169  1.00  0.00    -0.343 N 
ATOM      2  H1  UNL     1       9.120   4.123  -0.496  1.00  0.00     0.164 HD
HETATM    3  C6  UNL     1       9.001   5.762  -1.818  1.00  0.00     0.316 C 
HETATM    4  O3  UNL     1       9.637   6.455  -2.638  1.00  0.00    -0.247 OA
HETATM    5  N2  UNL     1       7.649   6.045  -1.535  1.00  0.00    -0.334 N 
ATOM      6  H2  UNL     1       7.178   5.447  -0.857  1.00  0.00     0.165 HD
ENDROOT
BRANCH   5   7
HETATM    7  C7  UNL     1       6.877   7.113  -2.128  1.00  0.00     0.035 C 
HETATM    8  C8  UNL     1       6.756   8.226  -1.141  1.00  0.00     0.035 C 
HETATM    9  C9  UNL     1       5.803   9.326  -1.550  1.00  0.00    -0.012 C 
HETATM   10  C10 UNL     1       6.449  10.376  -2.389  1.00  0.00     0.005 C 
HETATM   11  C15 UNL     1       4.504   8.822  -2.108  1.00  0.00     0.009 C 
HETATM   12  C11 UNL     1       7.072   9.970  -3.641  1.00  0.00     0.005 C 
HETATM   13  C12 UNL     1       6.791   8.607  -4.160  1.00  0.00    -0.012 C 
HETATM   14  C13 UNL     1       5.337   8.299  -4.328  1.00  0.00     0.009 C 
HETATM   15  C17 UNL     1       7.539   7.520  -3.407  1.00  0.00     0.035 C 
HETATM   16  C14 UNL     1       4.706   7.707  -3.110  1.00  0.00    -0.012 C 
HETATM   17  C16 UNL     1       5.484   6.610  -2.472  1.00  0.00     0.035 C 
ENDBRANCH   5   7
BRANCH   1  18
HETATM   18  C5  UNL     1      11.025   4.412  -1.468  1.00  0.00     0.125 C 
BRANCH  18  19
HETATM   19  C4  UNL     1      11.289   2.958  -1.619  1.00  0.00     0.035 C 
BRANCH  19  20
HETATM   20  C3  UNL     1      11.833   2.637  -2.972  1.00  0.00     0.146 C 
BRANCH  20  21
HETATM   21  S1  UNL     1      13.499   2.112  -2.941  1.00  0.00     0.165 S 
HETATM   22  O1  UNL     1      14.326   2.578  -4.073  1.00  0.00    -0.224 OA
HETATM   23  O2  UNL     1      13.568   0.573  -3.008  1.00  0.00    -0.224 OA
BRANCH  21  24
HETATM   24  C2  UNL     1      14.237   2.589  -1.412  1.00  0.00     0.098 C 
HETATM   25  C1  UNL     1      14.692   3.802  -1.222  1.00  0.00     0.023 C 
ENDBRANCH  21  24
ENDBRANCH  20  21
ENDBRANCH  19  20
ENDBRANCH  18  19
ENDBRANCH   1  18
TORSDOF 6
ENDMDL
MODEL 5
REMARK VINA RESULT: -7.049155358      5.513      6.823
REMARK  6 active torsions:
REMARK  status: ('A' for Active; 'I' for Inactive)
REMARK    1  A    between atoms: C2_2  and  S1_3 
REMARK    2  A    between atoms: S1_3  and  C3_6 
REMARK    3  A    between atoms: C3_6  and  C4_7 
REMARK    4  A    between atoms: C4_7  and  C5_8 
REMARK    5  A    between atoms: C5_8  and  N1_9 
REMARK       I    between atoms: N1_9  and  C6_11 
REMARK       I    between atoms: C6_11  and  N2_13 
REMARK    6  A    between atoms: N2_13  and  C7_15 
ROOT
HETATM    1  N1  UNL     1      13.155   4.589   0.104  1.00  0.00    -0.343 N 
ATOM      2  H1  UNL     1      14.174   4.586   0.063  1.00  0.00     0.164 HD
HETATM    3  C6  UNL     1      12.486   5.329   1.086  1.00  0.00     0.316 C 
HETATM    4  O3  UNL     1      11.238   5.327   1.125  1.00  0.00    -0.247 OA
HETATM    5  N2  UNL     1      13.232   6.071   2.023  1.00  0.00    -0.334 N 
ATOM      6  H2  UNL     1      14.248   6.037   1.945  1.00  0.00     0.165 HD
ENDROOT
BRANCH   5   7
HETATM    7  C7  UNL     1      12.674   6.877   3.086  1.00  0.00     0.035 C 
HETATM    8  C8  UNL     1      11.717   7.858   2.494  1.00  0.00     0.035 C 
HETATM    9  C9  UNL     1      11.210   8.901   3.464  1.00  0.00    -0.012 C 
HETATM   10  C10 UNL     1      10.008   8.455   4.226  1.00  0.00     0.005 C 
HETATM   11  C15 UNL     1      12.285   9.496   4.327  1.00  0.00     0.009 C 
HETATM   12  C11 UNL     1      10.115   7.249   5.035  1.00  0.00     0.005 C 
HETATM   13  C12 UNL     1      11.466   6.688   5.293  1.00  0.00    -0.012 C 
HETATM   14  C13 UNL     1      12.428   7.656   5.905  1.00  0.00     0.009 C 
HETATM   15  C17 UNL     1      12.046   5.963   4.090  1.00  0.00     0.035 C 
HETATM   16  C14 UNL     1      13.206   8.443   4.900  1.00  0.00    -0.012 C 
HETATM   17  C16 UNL     1      13.785   7.640   3.789  1.00  0.00     0.035 C 
ENDBRANCH   5   7
BRANCH   1  18
HETATM   18  C5  UNL     1      12.375   3.827  -0.857  1.00  0.00     0.125 C 
BRANCH  18  19
HETATM   19  C4  UNL     1      12.994   2.515  -1.176  1.00  0.00     0.035 C 
BRANCH  19  20
HETATM   20  C3  UNL     1      14.015   2.638  -2.258  1.00  0.00     0.146 C 
BRANCH  20  21
HETATM   21  S1  UNL     1      13.568   1.807  -3.728  1.00  0.00     0.165 S 
HETATM   22  O1  UNL     1      13.656   0.333  -3.668  1.00  0.00    -0.224 OA
HETATM   23  O2  UNL     1      14.518   2.213  -4.873  1.00  0.00    -0.224 OA
BRANCH  21  24
HETATM   24  C2  UNL     1      11.945   2.300  -4.212  1.00  0.00     0.098 C 
HETATM   25  C1  UNL     1      11.433   1.931  -5.358  1.00  0.00     0.023 C 
ENDBRANCH  21  24
ENDBRANCH  20  21
ENDBRANCH  19  20
ENDBRANCH  18  19
ENDBRANCH   1  18
TORSDOF 6
ENDMDL
