MODEL 1
REMARK VINA RESULT: -7.181389745      0.000      0.000
REMARK  7 active torsions:
REMARK  status: ('A' for Active; 'I' for Inactive)
REMARK    1  A    between atoms: C1_2  and  C2_3 
REMARK       I    between atoms: C1_2  and  N2_13 
REMARK    2  A    between atoms: C2_3  and  C3_4 
REMARK    3  A    between atoms: C3_4  and  N1_5 
REMARK    4  A    between atoms: N2_13  and  C11_15 
REMARK    5  A    between atoms: C11_15  and  C12_16 
REMARK    6  A    between atoms: C18_22  and  C19_23 
REMARK    7  A    between atoms: C19_23  and  O2_24 
ROOT
HETATM    1  O1  UNL     1       8.208   5.969  -2.133  1.00  0.00    -0.273 OA
HETATM    2  C1  UNL     1       7.836   6.486  -1.075  1.00  0.00     0.222 C 
HETATM    3  N2  UNL     1       6.638   7.195  -0.951  1.00  0.00    -0.360 N 
ATOM      4  H2  UNL     1       6.436   7.564  -0.022  1.00  0.00     0.162 HD
ENDROOT
BRANCH   3   5
HETATM    5  C11 UNL     1       5.654   7.469  -1.958  1.00  0.00     0.127 C 
BRANCH   5   6
HETATM    6  C12 UNL     1       5.614   8.759  -2.619  1.00  0.00     0.008 C 
HETATM    7  C13 UNL     1       6.502   9.885  -2.285  1.00  0.00     0.007 C 
HETATM    8  C14 UNL     1       6.365  10.882  -3.457  1.00  0.00     0.005 C 
HETATM    9  C15 UNL     1       5.314  10.285  -4.306  1.00  0.00    -0.010 C 
HETATM   10  C16 UNL     1       5.509  10.425  -5.769  1.00  0.00     0.005 C 
HETATM   11  C20 UNL     1       5.530   8.774  -4.105  1.00  0.00     0.001 C 
HETATM   12  C17 UNL     1       6.573   9.436  -6.105  1.00  0.00     0.007 C 
HETATM   13  C18 UNL     1       6.576   8.377  -4.982  1.00  0.00     0.014 C 
BRANCH  13  14
HETATM   14  C19 UNL     1       7.977   8.190  -4.592  1.00  0.00     0.169 C 
BRANCH  14  15
HETATM   15  O2  UNL     1       8.395   6.880  -4.974  1.00  0.00    -0.400 OA
ATOM     16  H2  UNL     1       9.323   6.899  -5.179  1.00  0.00     0.209 HD
ENDBRANCH  14  15
ENDBRANCH  13  14
ENDBRANCH   5   6
ENDBRANCH   3   5
BRANCH   2  17
HETATM   17  C2  UNL     1       8.761   6.309   0.100  1.00  0.00     0.147 C 
BRANCH  17  18
HETATM   18  C3  UNL     1       9.505   5.005  -0.012  1.00  0.00     0.072 C 
BRANCH  18  19
HETATM   19  N1  UNL     1      10.870   5.103  -0.263  1.00  0.00    -0.369 N 
HETATM   20  C4  UNL     1      11.523   4.278  -1.179  1.00  0.00     0.064 C 
HETATM   21  C5  UNL     1      12.864   3.748  -0.716  1.00  0.00     0.049 C 
HETATM   22  C6  UNL     1      13.627   4.778   0.053  1.00  0.00    -0.008 C 
HETATM   23  C7  UNL     1      13.712   6.046  -0.750  1.00  0.00     0.007 C 
HETATM   24  C10 UNL     1      12.802   5.208   1.239  1.00  0.00     0.030 C 
HETATM   25  C8  UNL     1      12.467   6.848  -0.406  1.00  0.00     0.026 C 
HETATM   26  C9  UNL     1      11.665   5.938   0.540  1.00  0.00     0.088 C 
ENDBRANCH  18  19
ENDBRANCH  17  18
ENDBRANCH   2  17
TORSDOF 7
ENDMDL
MODEL 2
REMARK VINA RESULT: -7.070260490      1.308      2.157
REMARK  7 active torsions:
REMARK  status: ('A' for Active; 'I' for Inactive)
REMARK    1  A    between atoms: C1_2  and  C2_3 
REMARK       I    between atoms: C1_2  and  N2_13 
REMARK    2  A    between atoms: C2_3  and  C3_4 
REMARK    3  A    between atoms: C3_4  and  N1_5 
REMARK    4  A    between atoms: N2_13  and  C11_15 
REMARK    5  A    between atoms: C11_15  and  C12_16 
REMARK    6  A    between atoms: C18_22  and  C19_23 
REMARK    7  A    between atoms: C19_23  and  O2_24 
ROOT
HETATM    1  O1  UNL     1       6.835   5.984  -1.178  1.00  0.00    -0.273 OA
HETATM    2  C1  UNL     1       8.056   6.100  -1.316  1.00  0.00     0.222 C 
HETATM    3  N2  UNL     1       8.651   6.568  -2.491  1.00  0.00    -0.360 N 
ATOM      4  H2  UNL     1       9.669   6.630  -2.478  1.00  0.00     0.162 HD
ENDROOT
BRANCH   3   5
HETATM    5  C11 UNL     1       8.018   6.974  -3.713  1.00  0.00     0.127 C 
BRANCH   5   6
HETATM    6  C12 UNL     1       7.606   8.350  -3.910  1.00  0.00     0.008 C 
HETATM    7  C13 UNL     1       7.058   8.875  -5.172  1.00  0.00     0.007 C 
HETATM    8  C14 UNL     1       6.425  10.237  -4.815  1.00  0.00     0.005 C 
HETATM    9  C15 UNL     1       6.774  10.425  -3.392  1.00  0.00    -0.010 C 
HETATM   10  C16 UNL     1       5.733  11.062  -2.550  1.00  0.00     0.005 C 
HETATM   11  C20 UNL     1       6.777   8.984  -2.848  1.00  0.00     0.001 C 
HETATM   12  C17 UNL     1       4.718   9.992  -2.331  1.00  0.00     0.007 C 
HETATM   13  C18 UNL     1       5.429   8.641  -2.556  1.00  0.00     0.014 C 
BRANCH  13  14
HETATM   14  C19 UNL     1       4.553   7.850  -3.426  1.00  0.00     0.169 C 
BRANCH  14  15
HETATM   15  O2  UNL     1       4.665   6.473  -3.069  1.00  0.00    -0.400 OA
ATOM     16  H2  UNL     1       4.073   5.964  -3.611  1.00  0.00     0.209 HD
ENDBRANCH  14  15
ENDBRANCH  13  14
ENDBRANCH   5   6
ENDBRANCH   3   5
BRANCH   2  17
HETATM   17  C2  UNL     1       8.890   5.704  -0.127  1.00  0.00     0.147 C 
BRANCH  17  18
HETATM   18  C3  UNL     1       9.792   4.551  -0.482  1.00  0.00     0.072 C 
BRANCH  18  19
HETATM   19  N1  UNL     1      11.153   4.834  -0.521  1.00  0.00    -0.369 N 
HETATM   20  C4  UNL     1      12.056   4.064  -1.255  1.00  0.00     0.064 C 
HETATM   21  C5  UNL     1      13.360   3.762  -0.547  1.00  0.00     0.049 C 
HETATM   22  C6  UNL     1      13.837   4.934   0.251  1.00  0.00    -0.008 C 
HETATM   23  C7  UNL     1      13.883   6.155  -0.624  1.00  0.00     0.007 C 
HETATM   24  C10 UNL     1      12.774   5.302   1.254  1.00  0.00     0.030 C 
HETATM   25  C8  UNL     1      12.500   6.783  -0.545  1.00  0.00     0.026 C 
HETATM   26  C9  UNL     1      11.683   5.818   0.330  1.00  0.00     0.088 C 
ENDBRANCH  18  19
ENDBRANCH  17  18
ENDBRANCH   2  17
TORSDOF 7
ENDMDL
MODEL 3
REMARK VINA RESULT: -7.064605847      0.731      1.382
REMARK  7 active torsions:
REMARK  status: ('A' for Active; 'I' for Inactive)
REMARK    1  A    between atoms: C1_2  and  C2_3 
REMARK       I    between atoms: C1_2  and  N2_13 
REMARK    2  A    between atoms: C2_3  and  C3_4 
REMARK    3  A    between atoms: C3_4  and  N1_5 
REMARK    4  A    between atoms: N2_13  and  C11_15 
REMARK    5  A    between atoms: C11_15  and  C12_16 
REMARK    6  A    between atoms: C18_22  and  C19_23 
REMARK    7  A    between atoms: C19_23  and  O2_24 
ROOT
HETATM    1  O1  UNL     1       8.672   6.031  -2.023  1.00  0.00    -0.273 OA
HETATM    2  C1  UNL     1       7.963   6.035  -1.013  1.00  0.00     0.222 C 
HETATM    3  N2  UNL     1       6.602   6.354  -1.035  1.00  0.00    -0.360 N 
ATOM      4  H2  UNL     1       6.122   6.310  -0.136  1.00  0.00     0.162 HD
ENDROOT
BRANCH   3   5
HETATM    5  C11 UNL     1       5.792   6.736  -2.156  1.00  0.00     0.127 C 
BRANCH   5   6
HETATM    6  C12 UNL     1       5.647   8.132  -2.521  1.00  0.00     0.008 C 
HETATM    7  C13 UNL     1       6.468   9.220  -1.963  1.00  0.00     0.007 C 
HETATM    8  C14 UNL     1       6.230  10.434  -2.889  1.00  0.00     0.005 C 
HETATM    9  C15 UNL     1       5.197   9.961  -3.831  1.00  0.00    -0.010 C 
HETATM   10  C16 UNL     1       5.337  10.427  -5.232  1.00  0.00     0.005 C 
HETATM   11  C20 UNL     1       5.519   8.461  -3.967  1.00  0.00     0.001 C 
HETATM   12  C17 UNL     1       6.455   9.611  -5.790  1.00  0.00     0.007 C 
HETATM   13  C18 UNL     1       6.562   8.338  -4.924  1.00  0.00     0.014 C 
BRANCH  13  14
HETATM   14  C19 UNL     1       7.984   8.172  -4.604  1.00  0.00     0.169 C 
BRANCH  14  15
HETATM   15  O2  UNL     1       8.383   6.845  -4.942  1.00  0.00    -0.400 OA
ATOM     16  H2  UNL     1       9.304   6.850  -5.178  1.00  0.00     0.209 HD
ENDBRANCH  14  15
ENDBRANCH  13  14
ENDBRANCH   5   6
ENDBRANCH   3   5
BRANCH   2  17
HETATM   17  C2  UNL     1       8.654   5.667   0.273  1.00  0.00     0.147 C 
BRANCH  17  18
HETATM   18  C3  UNL     1       9.869   6.534   0.480  1.00  0.00     0.072 C 
BRANCH  18  19
HETATM   19  N1  UNL     1      11.096   5.880   0.438  1.00  0.00    -0.369 N 
HETATM   20  C4  UNL     1      11.759   5.461   1.592  1.00  0.00     0.064 C 
HETATM   21  C5  UNL     1      13.251   5.719   1.600  1.00  0.00     0.049 C 
HETATM   22  C6  UNL     1      13.857   5.489   0.253  1.00  0.00    -0.008 C 
HETATM   23  C7  UNL     1      13.473   4.124  -0.246  1.00  0.00     0.007 C 
HETATM   24  C10 UNL     1      13.179   6.394  -0.744  1.00  0.00     0.030 C 
HETATM   25  C8  UNL     1      12.150   4.297  -0.974  1.00  0.00     0.026 C 
HETATM   26  C9  UNL     1      11.788   5.779  -0.780  1.00  0.00     0.088 C 
ENDBRANCH  18  19
ENDBRANCH  17  18
ENDBRANCH   2  17
TORSDOF 7
ENDMDL
MODEL 4
REMARK VINA RESULT: -7.032795843      1.684      2.459
REMARK  7 active torsions:
REMARK  status: ('A' for Active; 'I' for Inactive)
REMARK    1  A    between atoms: C1_2  and  C2_3 
REMARK       I    between atoms: C1_2  and  N2_13 
REMARK    2  A    between atoms: C2_3  and  C3_4 
REMARK    3  A    between atoms: C3_4  and  N1_5 
REMARK    4  A    between atoms: N2_13  and  C11_15 
REMARK    5  A    between atoms: C11_15  and  C12_16 
REMARK    6  A    between atoms: C18_22  and  C19_23 
REMARK    7  A    between atoms: C19_23  and  O2_24 
ROOT
HETATM    1  O1  UNL     1       6.886   7.060   0.664  1.00  0.00    -0.273 OA
HETATM    2  C1  UNL     1       7.585   6.356  -0.070  1.00  0.00     0.222 C 
HETATM    3  N2  UNL     1       7.231   6.034  -1.384  1.00  0.00    -0.360 N 
ATOM      4  H2  UNL     1       7.899   5.455  -1.893  1.00  0.00     0.162 HD
ENDROOT
BRANCH   3   5
HETATM    5  C11 UNL     1       6.052   6.410  -2.108  1.00  0.00     0.127 C 
BRANCH   5   6
HETATM    6  C12 UNL     1       6.078   7.526  -3.034  1.00  0.00     0.008 C 
HETATM    7  C13 UNL     1       4.936   7.930  -3.872  1.00  0.00     0.007 C 
HETATM    8  C14 UNL     1       5.282   9.343  -4.390  1.00  0.00     0.005 C 
HETATM    9  C15 UNL     1       6.653   9.574  -3.893  1.00  0.00    -0.010 C 
HETATM   10  C16 UNL     1       6.955  10.957  -3.450  1.00  0.00     0.005 C 
HETATM   11  C20 UNL     1       6.666   8.808  -2.557  1.00  0.00     0.001 C 
HETATM   12  C17 UNL     1       6.276  11.085  -2.128  1.00  0.00     0.007 C 
HETATM   13  C18 UNL     1       6.081   9.656  -1.578  1.00  0.00     0.014 C 
BRANCH  13  14
HETATM   14  C19 UNL     1       4.693   9.575  -1.114  1.00  0.00     0.169 C 
BRANCH  14  15
HETATM   15  O2  UNL     1       4.647   8.797   0.081  1.00  0.00    -0.400 OA
ATOM     16  H2  UNL     1       5.199   9.206   0.737  1.00  0.00     0.209 HD
ENDBRANCH  14  15
ENDBRANCH  13  14
ENDBRANCH   5   6
ENDBRANCH   3   5
BRANCH   2  17
HETATM   17  C2  UNL     1       8.870   5.855   0.534  1.00  0.00     0.147 C 
BRANCH  17  18
HETATM   18  C3  UNL     1       9.568   4.923  -0.421  1.00  0.00     0.072 C 
BRANCH  18  19
HETATM   19  N1  UNL     1      10.952   5.045  -0.488  1.00  0.00    -0.369 N 
HETATM   20  C4  UNL     1      11.742   4.188  -1.255  1.00  0.00     0.064 C 
HETATM   21  C5  UNL     1      13.016   3.722  -0.582  1.00  0.00     0.049 C 
HETATM   22  C6  UNL     1      13.645   4.814   0.222  1.00  0.00    -0.008 C 
HETATM   23  C7  UNL     1      13.815   6.038  -0.635  1.00  0.00     0.007 C 
HETATM   24  C10 UNL     1      12.655   5.286   1.256  1.00  0.00     0.030 C 
HETATM   25  C8  UNL     1      12.518   6.822  -0.513  1.00  0.00     0.026 C 
HETATM   26  C9  UNL     1      11.612   5.944   0.366  1.00  0.00     0.088 C 
ENDBRANCH  18  19
ENDBRANCH  17  18
ENDBRANCH   2  17
TORSDOF 7
ENDMDL
MODEL 5
REMARK VINA RESULT: -7.002907215      1.444      2.507
REMARK  7 active torsions:
REMARK  status: ('A' for Active; 'I' for Inactive)
REMARK    1  A    between atoms: C1_2  and  C2_3 
REMARK       I    between atoms: C1_2  and  N2_13 
REMARK    2  A    between atoms: C2_3  and  C3_4 
REMARK    3  A    between atoms: C3_4  and  N1_5 
REMARK    4  A    between atoms: N2_13  and  C11_15 
REMARK    5  A    between atoms: C11_15  and  C12_16 
REMARK    6  A    between atoms: C18_22  and  C19_23 
REMARK    7  A    between atoms: C19_23  and  O2_24 
ROOT
HETATM    1  O1  UNL     1       6.681   5.918  -0.875  1.00  0.00    -0.273 OA
HETATM    2  C1  UNL     1       7.912   5.982  -0.953  1.00  0.00     0.222 C 
HETATM    3  N2  UNL     1       8.584   6.374  -2.115  1.00  0.00    -0.360 N 
ATOM      4  H2  UNL     1       9.601   6.399  -2.051  1.00  0.00     0.162 HD
ENDROOT
BRANCH   3   5
HETATM    5  C11 UNL     1       8.030   6.745  -3.385  1.00  0.00     0.127 C 
BRANCH   5   6
HETATM    6  C12 UNL     1       7.691   8.127  -3.668  1.00  0.00     0.008 C 
HETATM    7  C13 UNL     1       7.282   8.621  -4.993  1.00  0.00     0.007 C 
HETATM    8  C14 UNL     1       6.673  10.019  -4.745  1.00  0.00     0.005 C 
HETATM    9  C15 UNL     1       6.899  10.249  -3.304  1.00  0.00    -0.010 C 
HETATM   10  C16 UNL     1       5.812  10.956  -2.584  1.00  0.00     0.005 C 
HETATM   11  C20 UNL     1       6.795   8.831  -2.711  1.00  0.00     0.001 C 
HETATM   12  C17 UNL     1       4.739   9.932  -2.422  1.00  0.00     0.007 C 
HETATM   13  C18 UNL     1       5.414   8.548  -2.532  1.00  0.00     0.014 C 
BRANCH  13  14
HETATM   14  C19 UNL     1       4.590   7.756  -3.450  1.00  0.00     0.169 C 
BRANCH  14  15
HETATM   15  O2  UNL     1       4.646   6.385  -3.060  1.00  0.00    -0.400 OA
ATOM     16  H2  UNL     1       5.173   5.906  -3.689  1.00  0.00     0.209 HD
ENDBRANCH  14  15
ENDBRANCH  13  14
ENDBRANCH   5   6
ENDBRANCH   3   5
BRANCH   2  17
HETATM   17  C2  UNL     1       8.668   5.611   0.295  1.00  0.00     0.147 C 
BRANCH  17  18
HETATM   18  C3  UNL     1       9.873   6.500   0.459  1.00  0.00     0.072 C 
BRANCH  18  19
HETATM   19  N1  UNL     1      11.108   5.862   0.421  1.00  0.00    -0.369 N 
HETATM   20  C4  UNL     1      11.779   5.463   1.577  1.00  0.00     0.064 C 
HETATM   21  C5  UNL     1      13.268   5.741   1.579  1.00  0.00     0.049 C 
HETATM   22  C6  UNL     1      13.874   5.506   0.233  1.00  0.00    -0.008 C 
HETATM   23  C7  UNL     1      13.507   4.131  -0.252  1.00  0.00     0.007 C 
HETATM   24  C10 UNL     1      13.182   6.392  -0.771  1.00  0.00     0.030 C 
HETATM   25  C8  UNL     1      12.180   4.280  -0.979  1.00  0.00     0.026 C 
HETATM   26  C9  UNL     1      11.799   5.759  -0.798  1.00  0.00     0.088 C 
ENDBRANCH  18  19
ENDBRANCH  17  18
ENDBRANCH   2  17
TORSDOF 7
ENDMDL
