MODEL 1
REMARK VINA RESULT: -6.198078632      0.000      0.000
REMARK  15 active torsions:
REMARK  status: ('A' for Active; 'I' for Inactive)
REMARK    1  A    between atoms: N1_1  and  C1_4 
REMARK    2  A    between atoms: C2_7  and  O1_8 
REMARK    3  A    between atoms: O1_8  and  C3_9 
REMARK    4  A    between atoms: C3_9  and  C4_10 
REMARK    5  A    between atoms: C4_10  and  N3_11 
REMARK    6  A    between atoms: C4_10  and  C10_28 
REMARK    7  A    between atoms: N3_11  and  N4_13 
REMARK       I    between atoms: N4_13  and  C5_15 
REMARK    8  A    between atoms: C5_15  and  C6_17 
REMARK    9  A    between atoms: C7_19  and  O4_20 
REMARK   10  A    between atoms: C8_22  and  O5_23 
REMARK   11  A    between atoms: C9_25  and  O6_26 
REMARK   12  A    between atoms: C11_31  and  N5_32 
REMARK   13  A    between atoms: C12_38  and  O9_39 
REMARK   14  A    between atoms: C13_41  and  O10_42 
REMARK   15  A    between atoms: C14_46  and  N10_47 
ROOT
HETATM    1  C1  UNL     1      12.656   7.631  -1.828  1.00  0.00     0.152 A 
HETATM    2  N2  UNL     1      12.416   6.771  -0.786  1.00  0.00    -0.317 N 
ATOM      3  H2  UNL     1      12.790   5.822  -0.784  1.00  0.00     0.169 HD
HETATM    4  C2  UNL     1      11.673   7.229   0.226  1.00  0.00     0.190 A 
HETATM    5  C11 UNL     1      11.163   8.522   0.228  1.00  0.00     0.177 A 
HETATM    6  N9  UNL     1      11.414   9.348  -0.811  1.00  0.00    -0.316 N 
ATOM      7  H9  UNL     1      11.040  10.297  -0.810  1.00  0.00     0.169 HD
HETATM    8  C14 UNL     1      12.163   8.918  -1.855  1.00  0.00     0.219 A 
ENDROOT
BRANCH   4   9
HETATM    9  O1  UNL     1      11.364   6.459   1.321  1.00  0.00    -0.330 OA
BRANCH   9  10
HETATM   10  C3  UNL     1      12.332   6.153   2.288  1.00  0.00     0.215 C 
BRANCH  10  11
HETATM   11  C4  UNL     1      11.783   5.650   3.599  1.00  0.00     0.224 C 
BRANCH  11  12
HETATM   12  N3  UNL     1      10.626   6.252   4.044  1.00  0.00    -0.316 N 
ATOM     13  H3  UNL     1      10.698   6.760   4.926  1.00  0.00     0.181 HD
BRANCH  12  14
HETATM   14  N4  UNL     1       9.412   6.253   3.463  1.00  0.00    -0.268 N 
HETATM   15  C5  UNL     1       8.164   6.184   4.048  1.00  0.00     0.296 C 
HETATM   16  O2  UNL     1       8.029   6.120   5.298  1.00  0.00    -0.264 OA
ATOM     17  H4  UNL     1       9.415   6.316   2.445  1.00  0.00     0.190 HD
BRANCH  15  18
HETATM   18  C6  UNL     1       6.931   6.178   3.271  1.00  0.00     0.183 A 
HETATM   19  O3  UNL     1       5.709   6.150   3.810  1.00  0.00    -0.277 OA
HETATM   20  C7  UNL     1       4.786   6.154   2.898  1.00  0.00     0.221 A 
HETATM   21  C8  UNL     1       5.368   6.185   1.654  1.00  0.00     0.161 A 
HETATM   22  C9  UNL     1       6.738   6.201   1.919  1.00  0.00     0.144 A 
BRANCH  20  23
HETATM   23  O4  UNL     1       3.394   6.129   3.122  1.00  0.00    -0.339 OA
ATOM     24  H4  UNL     1       2.724   5.952   2.471  1.00  0.00     0.220 HD
ENDBRANCH  20  23
BRANCH  21  25
HETATM   25  O5  UNL     1       4.783   6.197   0.402  1.00  0.00    -0.354 OA
ATOM     26  H5  UNL     1       5.179   6.305  -0.454  1.00  0.00     0.218 HD
ENDBRANCH  21  25
BRANCH  22  27
HETATM   27  O6  UNL     1       7.693   6.232   0.909  1.00  0.00    -0.355 OA
ATOM     28  H6  UNL     1       7.626   5.900   0.021  1.00  0.00     0.218 HD
ENDBRANCH  22  27
ENDBRANCH  15  18
ENDBRANCH  12  14
ENDBRANCH  11  12
BRANCH  11  29
HETATM   29  C10 UNL     1      11.713   4.143   3.507  1.00  0.00     0.200 C 
HETATM   30  O7  UNL     1      10.718   3.525   3.876  1.00  0.00    -0.646 OA
HETATM   31  O8  UNL     1      12.827   3.485   2.983  1.00  0.00    -0.646 OA
ENDBRANCH  11  29
ENDBRANCH  10  11
ENDBRANCH   9  10
ENDBRANCH   4   9
BRANCH   5  32
HETATM   32  N5  UNL     1      10.407   8.958   1.337  1.00  0.00    -0.222 N 
HETATM   33  N6  UNL     1       9.036   8.752   1.468  1.00  0.00    -0.000 NA
HETATM   34  N7  UNL     1       8.509   9.689   2.327  1.00  0.00    -0.228 N 
HETATM   35  N8  UNL     1       9.050  10.914   2.373  1.00  0.00    -0.291 N 
ATOM     36  H7  UNL     1       7.715   9.453   2.923  1.00  0.00     0.205 HD
HETATM   37  C12 UNL     1      10.450  11.091   2.352  1.00  0.00     0.284 C 
ATOM     38  H8  UNL     1       8.441  11.730   2.424  1.00  0.00     0.184 HD
HETATM   39  C13 UNL     1      11.079   9.685   2.424  1.00  0.00     0.291 C 
BRANCH  37  40
HETATM   40  O9  UNL     1      10.960  11.787   3.450  1.00  0.00    -0.371 OA
ATOM     41  H9  UNL     1      11.833  12.140   3.321  1.00  0.00     0.212 HD
ENDBRANCH  37  40
BRANCH  39  42
HETATM   42  O10 UNL     1      10.718   9.071   3.626  1.00  0.00    -0.371 OA
ATOM     43  H10 UNL     1      10.374   9.745   4.199  1.00  0.00     0.212 HD
ENDBRANCH  39  42
ENDBRANCH   5  32
BRANCH   1  44
HETATM   44  N1  UNL     1      13.364   7.248  -2.827  1.00  0.00    -0.382 N 
ATOM     45  H12 UNL     1      14.271   7.696  -2.960  1.00  0.00     0.157 HD
ATOM     46  H11 UNL     1      13.015   6.521  -3.451  1.00  0.00     0.157 HD
ENDBRANCH   1  44
BRANCH   8  47
HETATM   47  N10 UNL     1      12.448   9.760  -2.966  1.00  0.00    -0.094 N 
HETATM   48  O11 UNL     1      11.656   9.920  -3.911  1.00  0.00    -0.530 OA
HETATM   49  O12 UNL     1      13.641  10.445  -3.032  1.00  0.00    -0.530 OA
ENDBRANCH   8  47
TORSDOF 15
ENDMDL
MODEL 2
REMARK VINA RESULT: -5.872836383      2.428      5.243
REMARK  15 active torsions:
REMARK  status: ('A' for Active; 'I' for Inactive)
REMARK    1  A    between atoms: N1_1  and  C1_4 
REMARK    2  A    between atoms: C2_7  and  O1_8 
REMARK    3  A    between atoms: O1_8  and  C3_9 
REMARK    4  A    between atoms: C3_9  and  C4_10 
REMARK    5  A    between atoms: C4_10  and  N3_11 
REMARK    6  A    between atoms: C4_10  and  C10_28 
REMARK    7  A    between atoms: N3_11  and  N4_13 
REMARK       I    between atoms: N4_13  and  C5_15 
REMARK    8  A    between atoms: C5_15  and  C6_17 
REMARK    9  A    between atoms: C7_19  and  O4_20 
REMARK   10  A    between atoms: C8_22  and  O5_23 
REMARK   11  A    between atoms: C9_25  and  O6_26 
REMARK   12  A    between atoms: C11_31  and  N5_32 
REMARK   13  A    between atoms: C12_38  and  O9_39 
REMARK   14  A    between atoms: C13_41  and  O10_42 
REMARK   15  A    between atoms: C14_46  and  N10_47 
ROOT
HETATM    1  C1  UNL     1       7.403   9.428   5.840  1.00  0.00     0.152 A 
HETATM    2  N2  UNL     1       8.635   8.880   5.587  1.00  0.00    -0.317 N 
ATOM      3  H2  UNL     1       9.175   8.425   6.323  1.00  0.00     0.169 HD
HETATM    4  C2  UNL     1       9.099   8.967   4.337  1.00  0.00     0.190 A 
HETATM    5  C11 UNL     1       8.366   9.585   3.330  1.00  0.00     0.177 A 
HETATM    6  N9  UNL     1       7.155  10.116   3.606  1.00  0.00    -0.316 N 
ATOM      7  H9  UNL     1       6.617  10.569   2.867  1.00  0.00     0.169 HD
HETATM    8  C14 UNL     1       6.654  10.048   4.863  1.00  0.00     0.219 A 
ENDROOT
BRANCH   4   9
HETATM    9  O1  UNL     1      10.320   8.458   3.965  1.00  0.00    -0.330 OA
BRANCH   9  10
HETATM   10  C3  UNL     1      10.843   7.310   4.575  1.00  0.00     0.215 C 
BRANCH  10  11
HETATM   11  C4  UNL     1      11.036   6.132   3.654  1.00  0.00     0.224 C 
BRANCH  11  12
HETATM   12  N3  UNL     1       9.909   5.390   3.373  1.00  0.00    -0.316 N 
ATOM     13  H3  UNL     1      10.010   4.378   3.457  1.00  0.00     0.181 HD
BRANCH  12  14
HETATM   14  N4  UNL     1       8.694   5.832   3.002  1.00  0.00    -0.268 N 
HETATM   15  C5  UNL     1       7.579   6.075   3.779  1.00  0.00     0.296 C 
HETATM   16  O2  UNL     1       7.600   5.905   5.027  1.00  0.00    -0.264 OA
ATOM     17  H4  UNL     1       8.579   6.013   2.005  1.00  0.00     0.190 HD
BRANCH  15  18
HETATM   18  C6  UNL     1       6.317   6.539   3.218  1.00  0.00     0.183 A 
HETATM   19  O3  UNL     1       5.222   6.785   3.945  1.00  0.00    -0.277 OA
HETATM   20  C7  UNL     1       4.239   7.189   3.202  1.00  0.00     0.221 A 
HETATM   21  C8  UNL     1       4.640   7.233   1.889  1.00  0.00     0.161 A 
HETATM   22  C9  UNL     1       5.971   6.815   1.926  1.00  0.00     0.144 A 
BRANCH  20  23
HETATM   23  O4  UNL     1       2.945   7.534   3.647  1.00  0.00    -0.339 OA
ATOM     24  H4  UNL     1       2.544   8.394   3.594  1.00  0.00     0.220 HD
ENDBRANCH  20  23
BRANCH  21  25
HETATM   25  O5  UNL     1       3.935   7.597   0.758  1.00  0.00    -0.354 OA
ATOM     26  H5  UNL     1       4.154   8.223   0.079  1.00  0.00     0.218 HD
ENDBRANCH  21  25
BRANCH  22  27
HETATM   27  O6  UNL     1       6.755   6.717   0.782  1.00  0.00    -0.355 OA
ATOM     28  H6  UNL     1       6.742   7.268   0.007  1.00  0.00     0.218 HD
ENDBRANCH  22  27
ENDBRANCH  15  18
ENDBRANCH  12  14
ENDBRANCH  11  12
BRANCH  11  29
HETATM   29  C10 UNL     1      11.780   6.633   2.438  1.00  0.00     0.200 C 
HETATM   30  O7  UNL     1      12.759   7.367   2.544  1.00  0.00    -0.646 OA
HETATM   31  O8  UNL     1      11.308   6.224   1.189  1.00  0.00    -0.646 OA
ENDBRANCH  11  29
ENDBRANCH  10  11
ENDBRANCH   9  10
ENDBRANCH   4   9
BRANCH   5  32
HETATM   32  N5  UNL     1       8.895   9.622   2.022  1.00  0.00    -0.222 N 
HETATM   33  N6  UNL     1       8.901   8.529   1.159  1.00  0.00    -0.000 NA
HETATM   34  N7  UNL     1       9.892   8.689   0.219  1.00  0.00    -0.228 N 
HETATM   35  N8  UNL     1      11.018   9.333   0.557  1.00  0.00    -0.291 N 
ATOM     36  H7  UNL     1       9.772   8.323  -0.725  1.00  0.00     0.205 HD
HETATM   37  C12 UNL     1      10.978  10.505   1.341  1.00  0.00     0.284 C 
ATOM     38  H8  UNL     1      11.918   8.970   0.243  1.00  0.00     0.184 HD
HETATM   39  C13 UNL     1       9.490  10.870   1.522  1.00  0.00     0.291 C 
BRANCH  37  40
HETATM   40  O9  UNL     1      11.567  11.621   0.743  1.00  0.00    -0.371 OA
ATOM     41  H9  UNL     1      11.307  12.453   1.120  1.00  0.00     0.212 HD
ENDBRANCH  37  40
BRANCH  39  42
HETATM   42  O10 UNL     1       8.918  11.139   0.276  1.00  0.00    -0.371 OA
ATOM     43  H10 UNL     1       8.942  12.080   0.147  1.00  0.00     0.212 HD
ENDBRANCH  39  42
ENDBRANCH   5  32
BRANCH   1  44
HETATM   44  N1  UNL     1       6.905   9.373   7.021  1.00  0.00    -0.382 N 
ATOM     45  H12 UNL     1       7.555   9.403   7.807  1.00  0.00     0.157 HD
ATOM     46  H11 UNL     1       5.896   9.304   7.147  1.00  0.00     0.157 HD
ENDBRANCH   1  44
BRANCH   8  47
HETATM   47  N10 UNL     1       5.382  10.596   5.190  1.00  0.00    -0.094 N 
HETATM   48  O11 UNL     1       5.208  11.806   5.420  1.00  0.00    -0.530 OA
HETATM   49  O12 UNL     1       4.272   9.784   5.263  1.00  0.00    -0.530 OA
ENDBRANCH   8  47
TORSDOF 15
ENDMDL
MODEL 3
REMARK VINA RESULT: -5.766767162      2.154      3.886
REMARK  15 active torsions:
REMARK  status: ('A' for Active; 'I' for Inactive)
REMARK    1  A    between atoms: N1_1  and  C1_4 
REMARK    2  A    between atoms: C2_7  and  O1_8 
REMARK    3  A    between atoms: O1_8  and  C3_9 
REMARK    4  A    between atoms: C3_9  and  C4_10 
REMARK    5  A    between atoms: C4_10  and  N3_11 
REMARK    6  A    between atoms: C4_10  and  C10_28 
REMARK    7  A    between atoms: N3_11  and  N4_13 
REMARK       I    between atoms: N4_13  and  C5_15 
REMARK    8  A    between atoms: C5_15  and  C6_17 
REMARK    9  A    between atoms: C7_19  and  O4_20 
REMARK   10  A    between atoms: C8_22  and  O5_23 
REMARK   11  A    between atoms: C9_25  and  O6_26 
REMARK   12  A    between atoms: C11_31  and  N5_32 
REMARK   13  A    between atoms: C12_38  and  O9_39 
REMARK   14  A    between atoms: C13_41  and  O10_42 
REMARK   15  A    between atoms: C14_46  and  N10_47 
ROOT
HETATM    1  C1  UNL     1       9.657  10.947   0.531  1.00  0.00     0.152 A 
HETATM    2  N2  UNL     1       9.565  10.719   1.881  1.00  0.00    -0.317 N 
ATOM      3  H2  UNL     1       9.288  11.460   2.527  1.00  0.00     0.169 HD
HETATM    4  C2  UNL     1       9.851   9.489   2.316  1.00  0.00     0.190 A 
HETATM    5  C11 UNL     1      10.226   8.477   1.440  1.00  0.00     0.177 A 
HETATM    6  N9  UNL     1      10.309   8.728   0.115  1.00  0.00    -0.316 N 
ATOM      7  H9  UNL     1      10.585   7.985  -0.527  1.00  0.00     0.169 HD
HETATM    8  C14 UNL     1      10.028   9.964  -0.361  1.00  0.00     0.219 A 
ENDROOT
BRANCH   4   9
HETATM    9  O1  UNL     1       9.795   9.144   3.644  1.00  0.00    -0.330 OA
BRANCH   9  10
HETATM   10  C3  UNL     1       9.842  10.119   4.650  1.00  0.00     0.215 C 
BRANCH  10  11
HETATM   11  C4  UNL     1       9.589   9.606   6.045  1.00  0.00     0.224 C 
BRANCH  11  12
HETATM   12  N3  UNL     1       8.445   8.859   6.219  1.00  0.00    -0.316 N 
ATOM     13  H3  UNL     1       8.228   8.593   7.180  1.00  0.00     0.181 HD
BRANCH  12  14
HETATM   14  N4  UNL     1       7.577   8.436   5.282  1.00  0.00    -0.268 N 
HETATM   15  C5  UNL     1       7.326   7.151   4.843  1.00  0.00     0.296 C 
HETATM   16  O2  UNL     1       7.930   6.161   5.331  1.00  0.00    -0.264 OA
ATOM     17  H4  UNL     1       7.026   9.167   4.833  1.00  0.00     0.190 HD
BRANCH  15  18
HETATM   18  C6  UNL     1       6.357   6.856   3.795  1.00  0.00     0.183 A 
HETATM   19  O3  UNL     1       5.667   5.714   3.716  1.00  0.00    -0.277 OA
HETATM   20  C7  UNL     1       4.871   5.708   2.692  1.00  0.00     0.221 A 
HETATM   21  C8  UNL     1       4.994   6.891   2.006  1.00  0.00     0.161 A 
HETATM   22  C9  UNL     1       5.948   7.608   2.731  1.00  0.00     0.144 A 
BRANCH  20  23
HETATM   23  O4  UNL     1       4.004   4.661   2.317  1.00  0.00    -0.339 OA
ATOM     24  H4  UNL     1       4.264   3.797   2.014  1.00  0.00     0.220 HD
ENDBRANCH  20  23
BRANCH  21  25
HETATM   25  O5  UNL     1       4.351   7.323   0.862  1.00  0.00    -0.354 OA
ATOM     26  H5  UNL     1       4.127   8.203   0.584  1.00  0.00     0.218 HD
ENDBRANCH  21  25
BRANCH  22  27
HETATM   27  O6  UNL     1       6.365   8.881   2.360  1.00  0.00    -0.355 OA
ATOM     28  H6  UNL     1       6.543   9.215   1.488  1.00  0.00     0.218 HD
ENDBRANCH  22  27
ENDBRANCH  15  18
ENDBRANCH  12  14
ENDBRANCH  11  12
BRANCH  11  29
HETATM   29  C10 UNL     1      10.859   8.932   6.511  1.00  0.00     0.200 C 
HETATM   30  O7  UNL     1      10.828   7.930   7.221  1.00  0.00    -0.646 OA
HETATM   31  O8  UNL     1      12.068   9.495   6.100  1.00  0.00    -0.646 OA
ENDBRANCH  11  29
ENDBRANCH  10  11
ENDBRANCH   9  10
ENDBRANCH   4   9
BRANCH   5  32
HETATM   32  N5  UNL     1      10.489   7.188   1.954  1.00  0.00    -0.222 N 
HETATM   33  N6  UNL     1       9.511   6.215   2.139  1.00  0.00    -0.000 NA
HETATM   34  N7  UNL     1       9.930   5.314   3.089  1.00  0.00    -0.228 N 
HETATM   35  N8  UNL     1      10.709   5.737   4.094  1.00  0.00    -0.291 N 
ATOM     36  H7  UNL     1       9.652   4.334   3.029  1.00  0.00     0.205 HD
HETATM   37  C12 UNL     1      11.769   6.639   3.862  1.00  0.00     0.284 C 
ATOM     38  H8  UNL     1      10.534   5.400   5.041  1.00  0.00     0.184 HD
HETATM   39  C13 UNL     1      11.864   6.833   2.336  1.00  0.00     0.291 C 
BRANCH  37  40
HETATM   40  O9  UNL     1      13.023   6.172   4.260  1.00  0.00    -0.371 OA
ATOM     41  H9  UNL     1      13.717   6.323   3.629  1.00  0.00     0.212 HD
ENDBRANCH  37  40
BRANCH  39  42
HETATM   42  O10 UNL     1      12.167   5.614   1.726  1.00  0.00    -0.371 OA
ATOM     43  H10 UNL     1      12.244   4.962   2.413  1.00  0.00     0.212 HD
ENDBRANCH  39  42
ENDBRANCH   5  32
BRANCH   1  44
HETATM   44  N1  UNL     1       9.394  12.109   0.056  1.00  0.00    -0.382 N 
ATOM     45  H12 UNL     1       8.495  12.525   0.302  1.00  0.00     0.157 HD
ATOM     46  H11 UNL     1      10.071  12.581  -0.543  1.00  0.00     0.157 HD
ENDBRANCH   1  44
BRANCH   8  47
HETATM   47  N10 UNL     1      10.105  10.264  -1.750  1.00  0.00    -0.094 N 
HETATM   48  O11 UNL     1      11.176  10.527  -2.324  1.00  0.00    -0.530 OA
HETATM   49  O12 UNL     1       8.967  10.272  -2.525  1.00  0.00    -0.530 OA
ENDBRANCH   8  47
TORSDOF 15
ENDMDL
MODEL 4
REMARK VINA RESULT: -5.759915858      1.955      2.405
REMARK  15 active torsions:
REMARK  status: ('A' for Active; 'I' for Inactive)
REMARK    1  A    between atoms: N1_1  and  C1_4 
REMARK    2  A    between atoms: C2_7  and  O1_8 
REMARK    3  A    between atoms: O1_8  and  C3_9 
REMARK    4  A    between atoms: C3_9  and  C4_10 
REMARK    5  A    between atoms: C4_10  and  N3_11 
REMARK    6  A    between atoms: C4_10  and  C10_28 
REMARK    7  A    between atoms: N3_11  and  N4_13 
REMARK       I    between atoms: N4_13  and  C5_15 
REMARK    8  A    between atoms: C5_15  and  C6_17 
REMARK    9  A    between atoms: C7_19  and  O4_20 
REMARK   10  A    between atoms: C8_22  and  O5_23 
REMARK   11  A    between atoms: C9_25  and  O6_26 
REMARK   12  A    between atoms: C11_31  and  N5_32 
REMARK   13  A    between atoms: C12_38  and  O9_39 
REMARK   14  A    between atoms: C13_41  and  O10_42 
REMARK   15  A    between atoms: C14_46  and  N10_47 
ROOT
HETATM    1  C1  UNL     1      10.679   9.898  -2.375  1.00  0.00     0.152 A 
HETATM    2  N2  UNL     1      11.492   8.902  -1.894  1.00  0.00    -0.317 N 
ATOM      3  H2  UNL     1      11.948   8.238  -2.521  1.00  0.00     0.169 HD
HETATM    4  C2  UNL     1      11.663   8.838  -0.570  1.00  0.00     0.190 A 
HETATM    5  C11 UNL     1      11.046   9.740   0.288  1.00  0.00     0.177 A 
HETATM    6  N9  UNL     1      10.250  10.711  -0.212  1.00  0.00    -0.316 N 
ATOM      7  H9  UNL     1       9.798  11.373   0.418  1.00  0.00     0.169 HD
HETATM    8  C14 UNL     1      10.053  10.806  -1.549  1.00  0.00     0.219 A 
ENDROOT
BRANCH   4   9
HETATM    9  O1  UNL     1      12.451   7.884   0.027  1.00  0.00    -0.330 OA
BRANCH   9  10
HETATM   10  C3  UNL     1      11.941   6.617   0.346  1.00  0.00     0.215 C 
BRANCH  10  11
HETATM   11  C4  UNL     1      12.319   6.106   1.713  1.00  0.00     0.224 C 
BRANCH  11  12
HETATM   12  N3  UNL     1      11.274   5.829   2.568  1.00  0.00    -0.316 N 
ATOM     13  H3  UNL     1      11.522   5.349   3.433  1.00  0.00     0.181 HD
BRANCH  12  14
HETATM   14  N4  UNL     1       9.969   6.112   2.405  1.00  0.00    -0.268 N 
HETATM   15  C5  UNL     1       8.883   5.666   3.131  1.00  0.00     0.296 C 
HETATM   16  O2  UNL     1       9.024   4.892   4.114  1.00  0.00    -0.264 OA
ATOM     17  H4  UNL     1       9.751   6.746   1.637  1.00  0.00     0.190 HD
BRANCH  15  18
HETATM   18  C6  UNL     1       7.514   6.055   2.814  1.00  0.00     0.183 A 
HETATM   19  O3  UNL     1       6.507   6.023   3.692  1.00  0.00    -0.277 OA
HETATM   20  C7  UNL     1       5.395   6.421   3.156  1.00  0.00     0.221 A 
HETATM   21  C8  UNL     1       5.610   6.751   1.841  1.00  0.00     0.161 A 
HETATM   22  C9  UNL     1       6.972   6.509   1.647  1.00  0.00     0.144 A 
BRANCH  20  23
HETATM   23  O4  UNL     1       4.144   6.510   3.801  1.00  0.00    -0.339 OA
ATOM     24  H4  UNL     1       3.329   6.122   3.502  1.00  0.00     0.220 HD
ENDBRANCH  20  23
BRANCH  21  25
HETATM   25  O5  UNL     1       4.725   7.216   0.887  1.00  0.00    -0.354 OA
ATOM     26  H5  UNL     1       4.891   7.692   0.082  1.00  0.00     0.218 HD
ENDBRANCH  21  25
BRANCH  22  27
HETATM   27  O6  UNL     1       7.601   6.720   0.425  1.00  0.00    -0.355 OA
ATOM     28  H6  UNL     1       7.205   6.862  -0.427  1.00  0.00     0.218 HD
ENDBRANCH  22  27
ENDBRANCH  15  18
ENDBRANCH  12  14
ENDBRANCH  11  12
BRANCH  11  29
HETATM   29  C10 UNL     1      13.288   4.965   1.512  1.00  0.00     0.200 C 
HETATM   30  O7  UNL     1      14.174   5.019   0.662  1.00  0.00    -0.646 OA
HETATM   31  O8  UNL     1      13.136   3.847   2.335  1.00  0.00    -0.646 OA
ENDBRANCH  11  29
ENDBRANCH  10  11
ENDBRANCH   9  10
ENDBRANCH   4   9
BRANCH   5  32
HETATM   32  N5  UNL     1      11.285   9.640   1.676  1.00  0.00    -0.222 N 
HETATM   33  N6  UNL     1      10.403   9.041   2.572  1.00  0.00    -0.000 NA
HETATM   34  N7  UNL     1      10.626   9.532   3.836  1.00  0.00    -0.228 N 
HETATM   35  N8  UNL     1      11.036  10.799   3.985  1.00  0.00    -0.291 N 
ATOM     36  H7  UNL     1      10.481   8.938   4.653  1.00  0.00     0.205 HD
HETATM   37  C12 UNL     1      12.017  11.350   3.132  1.00  0.00     0.284 C 
ATOM     38  H8  UNL     1      10.635  11.374   4.725  1.00  0.00     0.184 HD
HETATM   39  C13 UNL     1      12.523  10.203   2.235  1.00  0.00     0.291 C 
BRANCH  37  40
HETATM   40  O9  UNL     1      13.147  11.838   3.791  1.00  0.00    -0.371 OA
ATOM     41  H9  UNL     1      12.978  12.180   4.662  1.00  0.00     0.212 HD
ENDBRANCH  37  40
BRANCH  39  42
HETATM   42  O10 UNL     1      13.115   9.214   3.025  1.00  0.00    -0.371 OA
ATOM     43  H10 UNL     1      13.657   9.652   3.671  1.00  0.00     0.212 HD
ENDBRANCH  39  42
ENDBRANCH   5  32
BRANCH   1  44
HETATM   44  N1  UNL     1      10.479  10.010  -3.637  1.00  0.00    -0.382 N 
ATOM     45  H12 UNL     1      11.218   9.685  -4.261  1.00  0.00     0.157 HD
ATOM     46  H11 UNL     1       9.607  10.410  -3.982  1.00  0.00     0.157 HD
ENDBRANCH   1  44
BRANCH   8  47
HETATM   47  N10 UNL     1       9.223  11.815  -2.111  1.00  0.00    -0.094 N 
HETATM   48  O11 UNL     1       9.620  12.607  -2.983  1.00  0.00    -0.530 OA
HETATM   49  O12 UNL     1       7.916  11.952  -1.696  1.00  0.00    -0.530 OA
ENDBRANCH   8  47
TORSDOF 15
ENDMDL
MODEL 5
REMARK VINA RESULT: -5.754634044      2.747      6.176
REMARK  15 active torsions:
REMARK  status: ('A' for Active; 'I' for Inactive)
REMARK    1  A    between atoms: N1_1  and  C1_4 
REMARK    2  A    between atoms: C2_7  and  O1_8 
REMARK    3  A    between atoms: O1_8  and  C3_9 
REMARK    4  A    between atoms: C3_9  and  C4_10 
REMARK    5  A    between atoms: C4_10  and  N3_11 
REMARK    6  A    between atoms: C4_10  and  C10_28 
REMARK    7  A    between atoms: N3_11  and  N4_13 
REMARK       I    between atoms: N4_13  and  C5_15 
REMARK    8  A    between atoms: C5_15  and  C6_17 
REMARK    9  A    between atoms: C7_19  and  O4_20 
REMARK   10  A    between atoms: C8_22  and  O5_23 
REMARK   11  A    between atoms: C9_25  and  O6_26 
REMARK   12  A    between atoms: C11_31  and  N5_32 
REMARK   13  A    between atoms: C12_38  and  O9_39 
REMARK   14  A    between atoms: C13_41  and  O10_42 
REMARK   15  A    between atoms: C14_46  and  N10_47 
ROOT
HETATM    1  C1  UNL     1      12.872   9.742   5.869  1.00  0.00     0.152 A 
HETATM    2  N2  UNL     1      12.013   9.937   4.818  1.00  0.00    -0.317 N 
ATOM      3  H2  UNL     1      11.704  10.873   4.551  1.00  0.00     0.169 HD
HETATM    4  C2  UNL     1      11.597   8.852   4.158  1.00  0.00     0.190 A 
HETATM    5  C11 UNL     1      12.017   7.577   4.517  1.00  0.00     0.177 A 
HETATM    6  N9  UNL     1      12.864   7.413   5.557  1.00  0.00    -0.316 N 
ATOM      7  H9  UNL     1      13.171   6.477   5.820  1.00  0.00     0.169 HD
HETATM    8  C14 UNL     1      13.304   8.490   6.250  1.00  0.00     0.219 A 
ENDROOT
BRANCH   4   9
HETATM    9  O1  UNL     1      10.735   8.923   3.091  1.00  0.00    -0.330 OA
BRANCH   9  10
HETATM   10  C3  UNL     1      11.185   9.300   1.818  1.00  0.00     0.215 C 
BRANCH  10  11
HETATM   11  C4  UNL     1      10.269   8.922   0.682  1.00  0.00     0.224 C 
BRANCH  11  12
HETATM   12  N3  UNL     1       9.554   7.755   0.842  1.00  0.00    -0.316 N 
ATOM     13  H3  UNL     1       9.685   7.049   0.118  1.00  0.00     0.181 HD
BRANCH  12  14
HETATM   14  N4  UNL     1       8.704   7.430   1.833  1.00  0.00    -0.268 N 
HETATM   15  C5  UNL     1       7.437   6.887   1.752  1.00  0.00     0.296 C 
HETATM   16  O2  UNL     1       6.913   6.604   0.643  1.00  0.00    -0.264 OA
ATOM     17  H4  UNL     1       9.043   7.610   2.778  1.00  0.00     0.190 HD
BRANCH  15  18
HETATM   18  C6  UNL     1       6.627   6.606   2.931  1.00  0.00     0.183 A 
HETATM   19  O3  UNL     1       5.384   6.116   2.884  1.00  0.00    -0.277 OA
HETATM   20  C7  UNL     1       4.890   5.957   4.072  1.00  0.00     0.221 A 
HETATM   21  C8  UNL     1       5.812   6.350   5.012  1.00  0.00     0.161 A 
HETATM   22  C9  UNL     1       6.913   6.759   4.257  1.00  0.00     0.144 A 
BRANCH  20  23
HETATM   23  O4  UNL     1       3.606   5.461   4.381  1.00  0.00    -0.339 OA
ATOM     24  H4  UNL     1       3.247   4.623   4.111  1.00  0.00     0.220 HD
ENDBRANCH  20  23
BRANCH  21  25
HETATM   25  O5  UNL     1       5.723   6.360   6.390  1.00  0.00    -0.354 OA
ATOM     26  H5  UNL     1       6.281   5.948   7.040  1.00  0.00     0.218 HD
ENDBRANCH  21  25
BRANCH  22  27
HETATM   27  O6  UNL     1       8.080   7.238   4.841  1.00  0.00    -0.355 OA
ATOM     28  H6  UNL     1       8.980   7.077   4.582  1.00  0.00     0.218 HD
ENDBRANCH  22  27
ENDBRANCH  15  18
ENDBRANCH  12  14
ENDBRANCH  11  12
BRANCH  11  29
HETATM   29  C10 UNL     1       9.430  10.136   0.360  1.00  0.00     0.200 C 
HETATM   30  O7  UNL     1       9.541  10.725  -0.713  1.00  0.00    -0.646 OA
HETATM   31  O8  UNL     1       8.522  10.560   1.332  1.00  0.00    -0.646 OA
ENDBRANCH  11  29
ENDBRANCH  10  11
ENDBRANCH   9  10
ENDBRANCH   4   9
BRANCH   5  32
HETATM   32  N5  UNL     1      11.566   6.470   3.765  1.00  0.00    -0.222 N 
HETATM   33  N6  UNL     1      10.367   5.806   4.010  1.00  0.00    -0.000 NA
HETATM   34  N7  UNL     1      10.438   4.527   3.510  1.00  0.00    -0.228 N 
HETATM   35  N8  UNL     1      11.615   3.888   3.509  1.00  0.00    -0.291 N 
ATOM     36  H7  UNL     1       9.603   4.070   3.143  1.00  0.00     0.205 HD
HETATM   37  C12 UNL     1      12.805   4.556   3.147  1.00  0.00     0.284 C 
ATOM     38  H8  UNL     1      11.653   2.904   3.774  1.00  0.00     0.184 HD
HETATM   39  C13 UNL     1      12.397   5.962   2.664  1.00  0.00     0.291 C 
BRANCH  37  40
HETATM   40  O9  UNL     1      13.491   3.976   2.078  1.00  0.00    -0.371 OA
ATOM     41  H9  UNL     1      13.349   4.403   1.241  1.00  0.00     0.212 HD
ENDBRANCH  37  40
BRANCH  39  42
HETATM   42  O10 UNL     1      11.579   5.852   1.537  1.00  0.00    -0.371 OA
ATOM     43  H10 UNL     1      11.083   6.659   1.465  1.00  0.00     0.212 HD
ENDBRANCH  39  42
ENDBRANCH   5  32
BRANCH   1  44
HETATM   44  N1  UNL     1      13.306  10.747   6.540  1.00  0.00    -0.382 N 
ATOM     45  H12 UNL     1      13.245  11.666   6.102  1.00  0.00     0.157 HD
ATOM     46  H11 UNL     1      13.691  10.609   7.474  1.00  0.00     0.157 HD
ENDBRANCH   1  44
BRANCH   8  47
HETATM   47  N10 UNL     1      14.197   8.355   7.350  1.00  0.00    -0.094 N 
HETATM   48  O11 UNL     1      13.806   8.173   8.517  1.00  0.00    -0.530 OA
HETATM   49  O12 UNL     1      15.558   8.423   7.155  1.00  0.00    -0.530 OA
ENDBRANCH   8  47
TORSDOF 15
ENDMDL
