MODEL 1
REMARK VINA RESULT: -6.363174438      0.000      0.000
REMARK  17 active torsions:
REMARK  status: ('A' for Active; 'I' for Inactive)
REMARK    1  A    between atoms: N1_1  and  C1_4 
REMARK    2  A    between atoms: C2_7  and  C3_8 
REMARK    3  A    between atoms: N6_15  and  C4_16 
REMARK    4  A    between atoms: C5_18  and  N7_19 
REMARK    5  A    between atoms: N7_19  and  N8_21 
REMARK    6  A    between atoms: N8_21  and  C6_22 
REMARK    7  A    between atoms: C6_22  and  O2_23 
REMARK    8  A    between atoms: C6_22  and  C7_25 
REMARK    9  A    between atoms: C7_25  and  C8_26 
REMARK   10  A    between atoms: C9_27  and  O3_28 
REMARK   11  A    between atoms: C10_31  and  C11_32 
REMARK   12  A    between atoms: C11_32  and  O5_33 
REMARK   13  A    between atoms: C12_35  and  O6_36 
REMARK   14  A    between atoms: C13_38  and  O7_39 
REMARK   15  A    between atoms: C14_41  and  O8_42 
REMARK   16  A    between atoms: C15_44  and  N9_45 
REMARK   17  A    between atoms: N9_45  and  N10_47 
ROOT
HETATM    1  C4  UNL     1      11.002   7.204   3.141  1.00  0.00     0.281 C 
HETATM    2  O1  UNL     1      12.181   7.427   2.533  1.00  0.00    -0.334 OA
HETATM    3  C5  UNL     1      12.407   8.803   2.634  1.00  0.00     0.267 C 
HETATM    4  C13 UNL     1      11.998   9.162   4.027  1.00  0.00     0.201 C 
HETATM    5  C14 UNL     1      10.905   8.163   4.292  1.00  0.00     0.202 C 
ENDROOT
BRANCH   1   6
HETATM    6  N6  UNL     1      10.619   5.873   3.471  1.00  0.00    -0.225 N 
HETATM    7  C3  UNL     1       9.486   5.276   3.746  1.00  0.00     0.172 A 
HETATM    8  N3  UNL     1       9.766   3.955   3.966  1.00  0.00    -0.267 N 
HETATM    9  N4  UNL     1      11.045   3.751   3.829  1.00  0.00    -0.226 N 
ATOM     10  H3  UNL     1       9.078   3.239   4.201  1.00  0.00     0.190 HD
HETATM   11  N5  UNL     1      11.568   4.903   3.530  1.00  0.00    -0.222 N 
ATOM     12  H4  UNL     1      11.537   2.864   3.935  1.00  0.00     0.210 HD
ATOM     13  H5  UNL     1      12.562   5.059   3.363  1.00  0.00     0.210 HD
BRANCH   7  14
HETATM   14  C2  UNL     1       8.156   5.851   3.808  1.00  0.00     0.127 A 
HETATM   15  N2  UNL     1       7.459   6.132   4.901  1.00  0.00    -0.186 N 
HETATM   16  C1  UNL     1       6.250   6.675   4.875  1.00  0.00     0.677 A 
ATOM     17  H2  UNL     1       7.875   5.920   5.808  1.00  0.00     0.184 HD
HETATM   18  N12 UNL     1       5.644   6.978   3.719  1.00  0.00    -0.177 N 
HETATM   19  C16 UNL     1       6.295   6.718   2.576  1.00  0.00     0.162 A 
ATOM     20  H12 UNL     1       4.713   7.396   3.709  1.00  0.00     0.185 HD
HETATM   21  C15 UNL     1       7.548   6.156   2.592  1.00  0.00     0.120 A 
HETATM   22  N11 UNL     1       5.639   7.052   1.343  1.00  0.00    -0.080 NA
BRANCH  16  23
HETATM   23  N1  UNL     1       5.571   6.948   5.957  1.00  0.00    -0.234 N 
ATOM     24  H12 UNL     1       5.840   7.803   6.442  1.00  0.00     0.174 HD
ATOM     25  H11 UNL     1       4.817   6.354   6.303  1.00  0.00     0.174 HD
ENDBRANCH  16  23
BRANCH  21  26
HETATM   26  N9  UNL     1       8.157   5.911   1.323  1.00  0.00    -0.302 N 
ATOM     27  H9  UNL     1       8.338   4.958   1.006  1.00  0.00     0.186 HD
BRANCH  26  28
HETATM   28  N10 UNL     1       8.499   7.003   0.526  1.00  0.00    -0.345 N 
ATOM     29 2H10 UNL     1       7.766   7.591   0.131  1.00  0.00     0.176 HD
ATOM     30 1H10 UNL     1       9.487   7.191   0.355  1.00  0.00     0.176 HD
ENDBRANCH  26  28
ENDBRANCH  21  26
ENDBRANCH   7  14
ENDBRANCH   1   6
BRANCH   5  31
HETATM   31  O8  UNL     1      11.034   7.532   5.540  1.00  0.00    -0.388 OA
ATOM     32  H8  UNL     1      10.218   7.503   6.025  1.00  0.00     0.210 HD
ENDBRANCH   5  31
BRANCH   3  33
HETATM   33  N7  UNL     1      11.754   9.467   1.579  1.00  0.00    -0.306 N 
ATOM     34  H7  UNL     1      10.839   9.901   1.699  1.00  0.00     0.178 HD
BRANCH  33  35
HETATM   35  N8  UNL     1      12.437   9.495   0.352  1.00  0.00    -0.111 NA
BRANCH  35  36
HETATM   36  C6  UNL     1      11.397   9.576  -0.658  1.00  0.00     0.235 C 
BRANCH  36  37
HETATM   37  O2  UNL     1      10.161   9.164  -0.139  1.00  0.00    -0.378 OA
ATOM     38  H2  UNL     1       9.673   8.664  -0.782  1.00  0.00     0.211 HD
ENDBRANCH  36  37
BRANCH  36  39
HETATM   39  C7  UNL     1      11.744   8.755  -1.847  1.00  0.00     0.097 C 
BRANCH  39  40
HETATM   40  C8  UNL     1      12.634   7.613  -1.553  1.00  0.00     0.040 A 
HETATM   41  C9  UNL     1      13.860   7.320  -2.092  1.00  0.00     0.192 A 
HETATM   42  O4  UNL     1      14.287   6.194  -1.529  1.00  0.00    -0.287 OA
HETATM   43  C10 UNL     1      13.429   5.747  -0.676  1.00  0.00     0.113 A 
HETATM   44  C12 UNL     1      12.364   6.595  -0.642  1.00  0.00     0.108 A 
BRANCH  41  45
HETATM   45  O3  UNL     1      14.604   7.985  -3.037  1.00  0.00    -0.340 OA
ATOM     46  H3  UNL     1      14.859   7.729  -3.915  1.00  0.00     0.220 HD
ENDBRANCH  41  45
BRANCH  43  47
HETATM   47  C11 UNL     1      13.568   4.514   0.142  1.00  0.00     0.232 C 
BRANCH  47  48
HETATM   48  O5  UNL     1      13.503   4.789   1.506  1.00  0.00    -0.394 OA
ATOM     49  H5  UNL     1      13.492   3.994   2.025  1.00  0.00     0.209 HD
ENDBRANCH  47  48
ENDBRANCH  43  47
BRANCH  44  50
HETATM   50  O6  UNL     1      11.230   6.508   0.116  1.00  0.00    -0.357 OA
ATOM     51  H6  UNL     1      10.755   5.704   0.291  1.00  0.00     0.217 HD
ENDBRANCH  44  50
ENDBRANCH  39  40
ENDBRANCH  36  39
ENDBRANCH  35  36
ENDBRANCH  33  35
ENDBRANCH   3  33
BRANCH   4  52
HETATM   52  O7  UNL     1      13.049   9.039   4.938  1.00  0.00    -0.388 OA
ATOM     53  H7  UNL     1      12.957   8.275   5.495  1.00  0.00     0.210 HD
ENDBRANCH   4  52
TORSDOF 17
ENDMDL
MODEL 2
REMARK VINA RESULT: -6.219031659      1.350      1.750
REMARK  17 active torsions:
REMARK  status: ('A' for Active; 'I' for Inactive)
REMARK    1  A    between atoms: N1_1  and  C1_4 
REMARK    2  A    between atoms: C2_7  and  C3_8 
REMARK    3  A    between atoms: N6_15  and  C4_16 
REMARK    4  A    between atoms: C5_18  and  N7_19 
REMARK    5  A    between atoms: N7_19  and  N8_21 
REMARK    6  A    between atoms: N8_21  and  C6_22 
REMARK    7  A    between atoms: C6_22  and  O2_23 
REMARK    8  A    between atoms: C6_22  and  C7_25 
REMARK    9  A    between atoms: C7_25  and  C8_26 
REMARK   10  A    between atoms: C9_27  and  O3_28 
REMARK   11  A    between atoms: C10_31  and  C11_32 
REMARK   12  A    between atoms: C11_32  and  O5_33 
REMARK   13  A    between atoms: C12_35  and  O6_36 
REMARK   14  A    between atoms: C13_38  and  O7_39 
REMARK   15  A    between atoms: C14_41  and  O8_42 
REMARK   16  A    between atoms: C15_44  and  N9_45 
REMARK   17  A    between atoms: N9_45  and  N10_47 
ROOT
HETATM    1  C4  UNL     1      11.412   7.849   2.993  1.00  0.00     0.281 C 
HETATM    2  O1  UNL     1      11.989   8.293   1.861  1.00  0.00    -0.334 OA
HETATM    3  C5  UNL     1      12.236   9.654   2.069  1.00  0.00     0.267 C 
HETATM    4  C13 UNL     1      12.751   9.744   3.471  1.00  0.00     0.201 C 
HETATM    5  C14 UNL     1      12.033   8.601   4.135  1.00  0.00     0.202 C 
ENDROOT
BRANCH   1   6
HETATM    6  N6  UNL     1      11.299   6.448   3.225  1.00  0.00    -0.225 N 
HETATM    7  C3  UNL     1      10.311   5.630   3.487  1.00  0.00     0.172 A 
HETATM    8  N3  UNL     1      10.841   4.373   3.588  1.00  0.00    -0.267 N 
HETATM    9  N4  UNL     1      12.127   4.424   3.392  1.00  0.00    -0.226 N 
ATOM     10  H3  UNL     1      10.309   3.525   3.786  1.00  0.00     0.190 HD
HETATM   11  N5  UNL     1      12.413   5.673   3.172  1.00  0.00    -0.222 N 
ATOM     12  H4  UNL     1      12.779   3.641   3.408  1.00  0.00     0.210 HD
ATOM     13  H5  UNL     1      13.352   6.026   2.984  1.00  0.00     0.210 HD
BRANCH   7  14
HETATM   14  C2  UNL     1       8.902   5.939   3.641  1.00  0.00     0.127 A 
HETATM   15  N2  UNL     1       8.217   5.993   4.776  1.00  0.00    -0.186 N 
HETATM   16  C1  UNL     1       6.929   6.299   4.836  1.00  0.00     0.677 A 
ATOM     17  H2  UNL     1       8.707   5.789   5.647  1.00  0.00     0.184 HD
HETATM   18  N12 UNL     1       6.224   6.578   3.731  1.00  0.00    -0.177 N 
HETATM   19  C16 UNL     1       6.858   6.539   2.550  1.00  0.00     0.162 A 
ATOM     20  H12 UNL     1       5.232   6.812   3.787  1.00  0.00     0.185 HD
HETATM   21  C15 UNL     1       8.192   6.223   2.477  1.00  0.00     0.120 A 
HETATM   22  N11 UNL     1       6.094   6.845   1.372  1.00  0.00    -0.080 NA
BRANCH  16  23
HETATM   23  N1  UNL     1       6.262   6.349   5.958  1.00  0.00    -0.234 N 
ATOM     24  H12 UNL     1       6.202   5.472   6.475  1.00  0.00     0.174 HD
ATOM     25  H11 UNL     1       5.826   7.204   6.306  1.00  0.00     0.174 HD
ENDBRANCH  16  23
BRANCH  21  26
HETATM   26  N9  UNL     1       8.776   6.203   1.173  1.00  0.00    -0.302 N 
ATOM     27  H9  UNL     1       8.962   5.319   0.698  1.00  0.00     0.186 HD
BRANCH  26  28
HETATM   28  N10 UNL     1       9.086   7.418   0.563  1.00  0.00    -0.345 N 
ATOM     29 2H10 UNL     1       9.628   8.116   1.071  1.00  0.00     0.176 HD
ATOM     30 1H10 UNL     1       8.760   7.582  -0.390  1.00  0.00     0.176 HD
ENDBRANCH  26  28
ENDBRANCH  21  26
ENDBRANCH   7  14
ENDBRANCH   1   6
BRANCH   5  31
HETATM   31  O8  UNL     1      12.885   7.803   4.915  1.00  0.00    -0.388 OA
ATOM     32  H8  UNL     1      12.463   7.468   5.697  1.00  0.00     0.210 HD
ENDBRANCH   5  31
BRANCH   3  33
HETATM   33  N7  UNL     1      11.084  10.396   1.756  1.00  0.00    -0.306 N 
ATOM     34  H7  UNL     1      10.764  11.169   2.341  1.00  0.00     0.178 HD
BRANCH  33  35
HETATM   35  N8  UNL     1      10.399  10.010   0.593  1.00  0.00    -0.111 NA
BRANCH  35  36
HETATM   36  C6  UNL     1      10.976  10.812  -0.471  1.00  0.00     0.235 C 
BRANCH  36  37
HETATM   37  O2  UNL     1      10.381  12.083  -0.519  1.00  0.00    -0.378 OA
ATOM     38  H2  UNL     1      10.491  12.476  -1.376  1.00  0.00     0.211 HD
ENDBRANCH  36  37
BRANCH  36  39
HETATM   39  C7  UNL     1      10.830  10.137  -1.787  1.00  0.00     0.097 C 
BRANCH  39  40
HETATM   40  C8  UNL     1      12.038   9.415  -2.233  1.00  0.00     0.040 A 
HETATM   41  C9  UNL     1      12.963   9.788  -3.174  1.00  0.00     0.192 A 
HETATM   42  O4  UNL     1      13.876   8.823  -3.243  1.00  0.00    -0.287 OA
HETATM   43  C10 UNL     1      13.605   7.867  -2.422  1.00  0.00     0.113 A 
HETATM   44  C12 UNL     1      12.459   8.176  -1.753  1.00  0.00     0.108 A 
BRANCH  41  45
HETATM   45  O3  UNL     1      13.038  10.914  -3.958  1.00  0.00    -0.340 OA
ATOM     46  H3  UNL     1      13.791  11.383  -4.295  1.00  0.00     0.220 HD
ENDBRANCH  41  45
BRANCH  43  47
HETATM   47  C11 UNL     1      14.403   6.628  -2.227  1.00  0.00     0.232 C 
BRANCH  47  48
HETATM   48  O5  UNL     1      13.910   5.857  -1.177  1.00  0.00    -0.394 OA
ATOM     49  H5  UNL     1      14.601   5.582  -0.588  1.00  0.00     0.209 HD
ENDBRANCH  47  48
ENDBRANCH  43  47
BRANCH  44  50
HETATM   50  O6  UNL     1      11.811   7.450  -0.795  1.00  0.00    -0.357 OA
ATOM     51  H6  UNL     1      12.224   7.076  -0.025  1.00  0.00     0.217 HD
ENDBRANCH  44  50
ENDBRANCH  39  40
ENDBRANCH  36  39
ENDBRANCH  35  36
ENDBRANCH  33  35
ENDBRANCH   3  33
BRANCH   4  52
HETATM   52  O7  UNL     1      14.138   9.598   3.538  1.00  0.00    -0.388 OA
ATOM     53  H7  UNL     1      14.397   8.792   3.967  1.00  0.00     0.210 HD
ENDBRANCH   4  52
TORSDOF 17
ENDMDL
MODEL 3
REMARK VINA RESULT: -6.003651133      2.102      2.737
REMARK  17 active torsions:
REMARK  status: ('A' for Active; 'I' for Inactive)
REMARK    1  A    between atoms: N1_1  and  C1_4 
REMARK    2  A    between atoms: C2_7  and  C3_8 
REMARK    3  A    between atoms: N6_15  and  C4_16 
REMARK    4  A    between atoms: C5_18  and  N7_19 
REMARK    5  A    between atoms: N7_19  and  N8_21 
REMARK    6  A    between atoms: N8_21  and  C6_22 
REMARK    7  A    between atoms: C6_22  and  O2_23 
REMARK    8  A    between atoms: C6_22  and  C7_25 
REMARK    9  A    between atoms: C7_25  and  C8_26 
REMARK   10  A    between atoms: C9_27  and  O3_28 
REMARK   11  A    between atoms: C10_31  and  C11_32 
REMARK   12  A    between atoms: C11_32  and  O5_33 
REMARK   13  A    between atoms: C12_35  and  O6_36 
REMARK   14  A    between atoms: C13_38  and  O7_39 
REMARK   15  A    between atoms: C14_41  and  O8_42 
REMARK   16  A    between atoms: C15_44  and  N9_45 
REMARK   17  A    between atoms: N9_45  and  N10_47 
ROOT
HETATM    1  C4  UNL     1       9.932   8.558   4.202  1.00  0.00     0.281 C 
HETATM    2  O1  UNL     1      10.835   9.402   3.670  1.00  0.00    -0.334 OA
HETATM    3  C5  UNL     1      10.694  10.602   4.374  1.00  0.00     0.267 C 
HETATM    4  C13 UNL     1      10.533  10.195   5.805  1.00  0.00     0.201 C 
HETATM    5  C14 UNL     1       9.844   8.865   5.669  1.00  0.00     0.202 C 
ENDROOT
BRANCH   1   6
HETATM    6  N6  UNL     1      10.011   7.166   3.912  1.00  0.00    -0.225 N 
HETATM    7  C3  UNL     1       9.139   6.208   3.723  1.00  0.00     0.172 A 
HETATM    8  N3  UNL     1       9.842   5.064   3.458  1.00  0.00    -0.267 N 
HETATM    9  N4  UNL     1      11.119   5.320   3.487  1.00  0.00    -0.226 N 
ATOM     10  H3  UNL     1       9.430   4.151   3.268  1.00  0.00     0.190 HD
HETATM   11  N5  UNL     1      11.230   6.587   3.761  1.00  0.00    -0.222 N 
ATOM     12  H4  UNL     1      11.878   4.659   3.327  1.00  0.00     0.210 HD
ATOM     13  H5  UNL     1      12.118   7.081   3.850  1.00  0.00     0.210 HD
BRANCH   7  14
HETATM   14  C2  UNL     1       7.691   6.287   3.762  1.00  0.00     0.127 A 
HETATM   15  N2  UNL     1       6.904   5.993   4.788  1.00  0.00    -0.186 N 
HETATM   16  C1  UNL     1       5.584   6.107   4.750  1.00  0.00     0.677 A 
ATOM     17  H2  UNL     1       7.336   5.662   5.650  1.00  0.00     0.184 HD
HETATM   18  N12 UNL     1       4.950   6.534   3.649  1.00  0.00    -0.177 N 
HETATM   19  C16 UNL     1       5.689   6.847   2.575  1.00  0.00     0.162 A 
ATOM     20  H12 UNL     1       3.933   6.618   3.629  1.00  0.00     0.185 HD
HETATM   21  C15 UNL     1       7.057   6.732   2.605  1.00  0.00     0.120 A 
HETATM   22  N11 UNL     1       5.000   7.309   1.402  1.00  0.00    -0.080 NA
BRANCH  16  23
HETATM   23  N1  UNL     1       4.816   5.814   5.766  1.00  0.00    -0.234 N 
ATOM     24  H12 UNL     1       4.401   4.883   5.750  1.00  0.00     0.174 HD
ATOM     25  H11 UNL     1       4.637   6.465   6.531  1.00  0.00     0.174 HD
ENDBRANCH  16  23
BRANCH  21  26
HETATM   26  N9  UNL     1       7.755   7.084   1.408  1.00  0.00    -0.302 N 
ATOM     27  H9  UNL     1       8.297   7.947   1.355  1.00  0.00     0.186 HD
BRANCH  26  28
HETATM   28  N10 UNL     1       7.680   6.222   0.315  1.00  0.00    -0.345 N 
ATOM     29 2H10 UNL     1       7.480   6.596  -0.612  1.00  0.00     0.176 HD
ATOM     30 1H10 UNL     1       7.828   5.224   0.470  1.00  0.00     0.176 HD
ENDBRANCH  26  28
ENDBRANCH  21  26
ENDBRANCH   7  14
ENDBRANCH   1   6
BRANCH   5  31
HETATM   31  O8  UNL     1      10.422   7.868   6.471  1.00  0.00    -0.388 OA
ATOM     32  H8  UNL     1      10.086   7.867   7.359  1.00  0.00     0.210 HD
ENDBRANCH   5  31
BRANCH   3  33
HETATM   33  N7  UNL     1       9.663  11.367   3.802  1.00  0.00    -0.306 N 
ATOM     34  H7  UNL     1       8.699  11.308   4.132  1.00  0.00     0.178 HD
BRANCH  33  35
HETATM   35  N8  UNL     1      10.037  12.217   2.748  1.00  0.00    -0.111 NA
BRANCH  35  36
HETATM   36  C6  UNL     1       9.141  11.885   1.655  1.00  0.00     0.235 C 
BRANCH  36  37
HETATM   37  O2  UNL     1       8.365  10.758   1.969  1.00  0.00    -0.378 OA
ATOM     38  H2  UNL     1       8.364  10.137   1.251  1.00  0.00     0.211 HD
ENDBRANCH  36  37
BRANCH  36  39
HETATM   39  C7  UNL     1       9.898  11.642   0.400  1.00  0.00     0.097 C 
BRANCH  39  40
HETATM   40  C8  UNL     1      10.821  10.490   0.464  1.00  0.00     0.040 A 
HETATM   41  C9  UNL     1      12.142  10.469   0.829  1.00  0.00     0.192 A 
HETATM   42  O4  UNL     1      12.564   9.211   0.733  1.00  0.00    -0.287 OA
HETATM   43  C10 UNL     1      11.616   8.432   0.335  1.00  0.00     0.113 A 
HETATM   44  C12 UNL     1      10.490   9.175   0.148  1.00  0.00     0.108 A 
BRANCH  41  45
HETATM   45  O3  UNL     1      12.976  11.484   1.233  1.00  0.00    -0.340 OA
ATOM     46  H3  UNL     1      12.981  12.406   1.008  1.00  0.00     0.220 HD
ENDBRANCH  41  45
BRANCH  43  47
HETATM   47  C11 UNL     1      11.723   6.966   0.116  1.00  0.00     0.232 C 
BRANCH  47  48
HETATM   48  O5  UNL     1      10.599   6.291   0.588  1.00  0.00    -0.394 OA
ATOM     49  H5  UNL     1      10.755   5.358   0.663  1.00  0.00     0.209 HD
ENDBRANCH  47  48
ENDBRANCH  43  47
BRANCH  44  50
HETATM   50  O6  UNL     1       9.256   8.759  -0.267  1.00  0.00    -0.357 OA
ATOM     51  H6  UNL     1       8.922   7.874  -0.174  1.00  0.00     0.217 HD
ENDBRANCH  44  50
ENDBRANCH  39  40
ENDBRANCH  36  39
ENDBRANCH  35  36
ENDBRANCH  33  35
ENDBRANCH   3  33
BRANCH   4  52
HETATM   52  O7  UNL     1      11.758  10.083   6.466  1.00  0.00    -0.388 OA
ATOM     53  H7  UNL     1      12.013   9.178   6.605  1.00  0.00     0.210 HD
ENDBRANCH   4  52
TORSDOF 17
ENDMDL
MODEL 4
REMARK VINA RESULT: -5.984233562      2.033      4.989
REMARK  17 active torsions:
REMARK  status: ('A' for Active; 'I' for Inactive)
REMARK    1  A    between atoms: N1_1  and  C1_4 
REMARK    2  A    between atoms: C2_7  and  C3_8 
REMARK    3  A    between atoms: N6_15  and  C4_16 
REMARK    4  A    between atoms: C5_18  and  N7_19 
REMARK    5  A    between atoms: N7_19  and  N8_21 
REMARK    6  A    between atoms: N8_21  and  C6_22 
REMARK    7  A    between atoms: C6_22  and  O2_23 
REMARK    8  A    between atoms: C6_22  and  C7_25 
REMARK    9  A    between atoms: C7_25  and  C8_26 
REMARK   10  A    between atoms: C9_27  and  O3_28 
REMARK   11  A    between atoms: C10_31  and  C11_32 
REMARK   12  A    between atoms: C11_32  and  O5_33 
REMARK   13  A    between atoms: C12_35  and  O6_36 
REMARK   14  A    between atoms: C13_38  and  O7_39 
REMARK   15  A    between atoms: C14_41  and  O8_42 
REMARK   16  A    between atoms: C15_44  and  N9_45 
REMARK   17  A    between atoms: N9_45  and  N10_47 
ROOT
HETATM    1  C4  UNL     1      11.561   7.271   2.403  1.00  0.00     0.281 C 
HETATM    2  O1  UNL     1      10.904   8.397   2.738  1.00  0.00    -0.334 OA
HETATM    3  C5  UNL     1      11.281   9.353   1.790  1.00  0.00     0.267 C 
HETATM    4  C13 UNL     1      11.271   8.626   0.482  1.00  0.00     0.201 C 
HETATM    5  C14 UNL     1      11.642   7.231   0.904  1.00  0.00     0.202 C 
ENDROOT
BRANCH   1   6
HETATM    6  N6  UNL     1      11.178   6.030   2.989  1.00  0.00    -0.225 N 
HETATM    7  C3  UNL     1      10.119   5.593   3.623  1.00  0.00     0.172 A 
HETATM    8  N3  UNL     1      10.343   4.278   3.929  1.00  0.00    -0.267 N 
HETATM    9  N4  UNL     1      11.516   3.922   3.491  1.00  0.00    -0.226 N 
ATOM     10  H3  UNL     1       9.691   3.671   4.426  1.00  0.00     0.190 HD
HETATM   11  N5  UNL     1      12.028   4.973   2.922  1.00  0.00    -0.222 N 
ATOM     12  H4  UNL     1      11.947   3.002   3.578  1.00  0.00     0.210 HD
ATOM     13  H5  UNL     1      12.948   5.000   2.482  1.00  0.00     0.210 HD
BRANCH   7  14
HETATM   14  C2  UNL     1       8.906   6.315   3.956  1.00  0.00     0.127 A 
HETATM   15  N2  UNL     1       8.635   6.937   5.096  1.00  0.00    -0.186 N 
HETATM   16  C1  UNL     1       7.504   7.591   5.318  1.00  0.00     0.677 A 
ATOM     17  H2  UNL     1       9.333   6.910   5.839  1.00  0.00     0.184 HD
HETATM   18  N12 UNL     1       6.544   7.666   4.387  1.00  0.00    -0.177 N 
HETATM   19  C16 UNL     1       6.755   7.057   3.211  1.00  0.00     0.162 A 
ATOM     20  H12 UNL     1       5.676   8.172   4.568  1.00  0.00     0.185 HD
HETATM   21  C15 UNL     1       7.924   6.377   2.971  1.00  0.00     0.120 A 
HETATM   22  N11 UNL     1       5.722   7.148   2.218  1.00  0.00    -0.080 NA
BRANCH  16  23
HETATM   23  N1  UNL     1       7.246   8.200   6.445  1.00  0.00    -0.234 N 
ATOM     24  H12 UNL     1       7.864   7.968   7.223  1.00  0.00     0.174 HD
ATOM     25  H11 UNL     1       6.482   8.867   6.552  1.00  0.00     0.174 HD
ENDBRANCH  16  23
BRANCH  21  26
HETATM   26  N9  UNL     1       8.052   5.756   1.689  1.00  0.00    -0.302 N 
ATOM     27  H9  UNL     1       8.155   4.744   1.608  1.00  0.00     0.186 HD
BRANCH  26  28
HETATM   28  N10 UNL     1       8.032   6.564   0.553  1.00  0.00    -0.345 N 
ATOM     29 2H10 UNL     1       7.434   7.389   0.529  1.00  0.00     0.176 HD
ATOM     30 1H10 UNL     1       8.625   6.307  -0.237  1.00  0.00     0.176 HD
ENDBRANCH  26  28
ENDBRANCH  21  26
ENDBRANCH   7  14
ENDBRANCH   1   6
BRANCH   5  31
HETATM   31  O8  UNL     1      10.810   6.251   0.339  1.00  0.00    -0.388 OA
ATOM     32  H8  UNL     1      10.605   5.547   0.942  1.00  0.00     0.210 HD
ENDBRANCH   5  31
BRANCH   3  33
HETATM   33  N7  UNL     1      12.489   9.957   2.182  1.00  0.00    -0.306 N 
ATOM     34  H7  UNL     1      13.290  10.021   1.554  1.00  0.00     0.178 HD
BRANCH  33  35
HETATM   35  N8  UNL     1      12.527  10.465   3.491  1.00  0.00    -0.111 NA
BRANCH  35  36
HETATM   36  C6  UNL     1      13.836  10.098   4.003  1.00  0.00     0.235 C 
BRANCH  36  37
HETATM   37  O2  UNL     1      14.824  10.275   3.022  1.00  0.00    -0.378 OA
ATOM     38  H2  UNL     1      15.171   9.438   2.737  1.00  0.00     0.211 HD
ENDBRANCH  36  37
BRANCH  36  39
HETATM   39  C7  UNL     1      13.846   8.691   4.481  1.00  0.00     0.097 C 
BRANCH  39  40
HETATM   40  C8  UNL     1      13.421   8.528   5.887  1.00  0.00     0.040 A 
HETATM   41  C9  UNL     1      14.190   8.269   6.991  1.00  0.00     0.192 A 
HETATM   42  O4  UNL     1      13.376   8.203   8.041  1.00  0.00    -0.287 OA
HETATM   43  C10 UNL     1      12.150   8.399   7.691  1.00  0.00     0.113 A 
HETATM   44  C12 UNL     1      12.108   8.610   6.346  1.00  0.00     0.108 A 
BRANCH  41  45
HETATM   45  O3  UNL     1      15.547   8.091   7.115  1.00  0.00    -0.340 OA
ATOM     46  H3  UNL     1      16.222   8.680   7.430  1.00  0.00     0.220 HD
ENDBRANCH  41  45
BRANCH  43  47
HETATM   47  C11 UNL     1      10.971   8.398   8.595  1.00  0.00     0.232 C 
BRANCH  47  48
HETATM   48  O5  UNL     1       9.807   8.034   7.924  1.00  0.00    -0.394 OA
ATOM     49  H5  UNL     1       9.619   7.109   8.021  1.00  0.00     0.209 HD
ENDBRANCH  47  48
ENDBRANCH  43  47
BRANCH  44  50
HETATM   50  O6  UNL     1      11.020   8.857   5.557  1.00  0.00    -0.357 OA
ATOM     51  H6  UNL     1      10.551   9.683   5.523  1.00  0.00     0.217 HD
ENDBRANCH  44  50
ENDBRANCH  39  40
ENDBRANCH  36  39
ENDBRANCH  35  36
ENDBRANCH  33  35
ENDBRANCH   3  33
BRANCH   4  52
HETATM   52  O7  UNL     1      10.021   8.669  -0.140  1.00  0.00    -0.388 OA
ATOM     53  H7  UNL     1       9.986   9.312  -0.837  1.00  0.00     0.210 HD
ENDBRANCH   4  52
TORSDOF 17
ENDMDL
MODEL 5
REMARK VINA RESULT: -5.945746572      2.205      5.023
REMARK  17 active torsions:
REMARK  status: ('A' for Active; 'I' for Inactive)
REMARK    1  A    between atoms: N1_1  and  C1_4 
REMARK    2  A    between atoms: C2_7  and  C3_8 
REMARK    3  A    between atoms: N6_15  and  C4_16 
REMARK    4  A    between atoms: C5_18  and  N7_19 
REMARK    5  A    between atoms: N7_19  and  N8_21 
REMARK    6  A    between atoms: N8_21  and  C6_22 
REMARK    7  A    between atoms: C6_22  and  O2_23 
REMARK    8  A    between atoms: C6_22  and  C7_25 
REMARK    9  A    between atoms: C7_25  and  C8_26 
REMARK   10  A    between atoms: C9_27  and  O3_28 
REMARK   11  A    between atoms: C10_31  and  C11_32 
REMARK   12  A    between atoms: C11_32  and  O5_33 
REMARK   13  A    between atoms: C12_35  and  O6_36 
REMARK   14  A    between atoms: C13_38  and  O7_39 
REMARK   15  A    between atoms: C14_41  and  O8_42 
REMARK   16  A    between atoms: C15_44  and  N9_45 
REMARK   17  A    between atoms: N9_45  and  N10_47 
ROOT
HETATM    1  C4  UNL     1      11.372   7.354   2.448  1.00  0.00     0.281 C 
HETATM    2  O1  UNL     1      10.665   8.445   2.795  1.00  0.00    -0.334 OA
HETATM    3  C5  UNL     1      11.006   9.431   1.863  1.00  0.00     0.267 C 
HETATM    4  C13 UNL     1      11.036   8.724   0.545  1.00  0.00     0.201 C 
HETATM    5  C14 UNL     1      11.465   7.340   0.950  1.00  0.00     0.202 C 
ENDROOT
BRANCH   1   6
HETATM    6  N6  UNL     1      11.040   6.090   3.013  1.00  0.00    -0.225 N 
HETATM    7  C3  UNL     1       9.995   5.596   3.628  1.00  0.00     0.172 A 
HETATM    8  N3  UNL     1      10.276   4.289   3.921  1.00  0.00    -0.267 N 
HETATM    9  N4  UNL     1      11.469   3.992   3.493  1.00  0.00    -0.226 N 
ATOM     10  H3  UNL     1       9.646   3.645   4.401  1.00  0.00     0.190 HD
HETATM   11  N5  UNL     1      11.938   5.073   2.943  1.00  0.00    -0.222 N 
ATOM     12  H4  UNL     1      11.941   3.092   3.573  1.00  0.00     0.210 HD
ATOM     13  H5  UNL     1      12.862   5.149   2.515  1.00  0.00     0.210 HD
BRANCH   7  14
HETATM   14  C2  UNL     1       8.746   6.256   3.955  1.00  0.00     0.127 A 
HETATM   15  N2  UNL     1       8.431   6.845   5.102  1.00  0.00    -0.186 N 
HETATM   16  C1  UNL     1       7.269   7.444   5.318  1.00  0.00     0.677 A 
ATOM     17  H2  UNL     1       9.119   6.836   5.855  1.00  0.00     0.184 HD
HETATM   18  N12 UNL     1       6.320   7.492   4.374  1.00  0.00    -0.177 N 
HETATM   19  C16 UNL     1       6.575   6.914   3.191  1.00  0.00     0.162 A 
ATOM     20  H12 UNL     1       5.427   7.956   4.550  1.00  0.00     0.185 HD
HETATM   21  C15 UNL     1       7.776   6.292   2.957  1.00  0.00     0.120 A 
HETATM   22  N11 UNL     1       5.553   6.976   2.184  1.00  0.00    -0.080 NA
BRANCH  16  23
HETATM   23  N1  UNL     1       6.968   8.021   6.451  1.00  0.00    -0.234 N 
ATOM     24  H12 UNL     1       5.972   8.158   6.625  1.00  0.00     0.174 HD
ATOM     25  H11 UNL     1       7.672   8.318   7.126  1.00  0.00     0.174 HD
ENDBRANCH  16  23
BRANCH  21  26
HETATM   26  N9  UNL     1       7.950   5.700   1.667  1.00  0.00    -0.302 N 
ATOM     27  H9  UNL     1       8.110   4.697   1.570  1.00  0.00     0.186 HD
BRANCH  26  28
HETATM   28  N10 UNL     1       7.897   6.524   0.544  1.00  0.00    -0.345 N 
ATOM     29 2H10 UNL     1       8.755   6.751   0.041  1.00  0.00     0.176 HD
ATOM     30 1H10 UNL     1       6.990   6.886   0.247  1.00  0.00     0.176 HD
ENDBRANCH  26  28
ENDBRANCH  21  26
ENDBRANCH   7  14
ENDBRANCH   1   6
BRANCH   5  31
HETATM   31  O8  UNL     1      10.681   6.334   0.364  1.00  0.00    -0.388 OA
ATOM     32  H8  UNL     1      10.891   5.466   0.687  1.00  0.00     0.210 HD
ENDBRANCH   5  31
BRANCH   3  33
HETATM   33  N7  UNL     1      12.183  10.081   2.274  1.00  0.00    -0.306 N 
ATOM     34  H7  UNL     1      12.927  10.318   1.617  1.00  0.00     0.178 HD
BRANCH  33  35
HETATM   35  N8  UNL     1      12.275  10.384   3.642  1.00  0.00    -0.111 NA
BRANCH  35  36
HETATM   36  C6  UNL     1      13.646  10.078   4.008  1.00  0.00     0.235 C 
BRANCH  36  37
HETATM   37  O2  UNL     1      14.521  10.354   2.945  1.00  0.00    -0.378 OA
ATOM     38  H2  UNL     1      14.344   9.786   2.205  1.00  0.00     0.211 HD
ENDBRANCH  36  37
BRANCH  36  39
HETATM   39  C7  UNL     1      13.784   8.657   4.419  1.00  0.00     0.097 C 
BRANCH  39  40
HETATM   40  C8  UNL     1      13.401   8.394   5.821  1.00  0.00     0.040 A 
HETATM   41  C9  UNL     1      12.147   8.329   6.370  1.00  0.00     0.192 A 
HETATM   42  O4  UNL     1      12.290   8.072   7.667  1.00  0.00    -0.287 OA
HETATM   43  C10 UNL     1      13.535   7.971   7.986  1.00  0.00     0.113 A 
HETATM   44  C12 UNL     1      14.289   8.163   6.869  1.00  0.00     0.108 A 
BRANCH  41  45
HETATM   45  O3  UNL     1      10.909   8.481   5.794  1.00  0.00    -0.340 OA
ATOM     46  H3  UNL     1      10.623   9.040   5.081  1.00  0.00     0.220 HD
ENDBRANCH  41  45
BRANCH  43  47
HETATM   47  C11 UNL     1      14.070   7.689   9.344  1.00  0.00     0.232 C 
BRANCH  47  48
HETATM   48  O5  UNL     1      15.063   6.713   9.315  1.00  0.00    -0.394 OA
ATOM     49  H5  UNL     1      14.986   6.112  10.046  1.00  0.00     0.209 HD
ENDBRANCH  47  48
ENDBRANCH  43  47
BRANCH  44  50
HETATM   50  O6  UNL     1      15.650   8.143   6.747  1.00  0.00    -0.357 OA
ATOM     51  H6  UNL     1      16.261   8.329   7.452  1.00  0.00     0.217 HD
ENDBRANCH  44  50
ENDBRANCH  39  40
ENDBRANCH  36  39
ENDBRANCH  35  36
ENDBRANCH  33  35
ENDBRANCH   3  33
BRANCH   4  52
HETATM   52  O7  UNL     1       9.790   8.721  -0.085  1.00  0.00    -0.388 OA
ATOM     53  H7  UNL     1       9.138   8.234   0.405  1.00  0.00     0.210 HD
ENDBRANCH   4  52
TORSDOF 17
ENDMDL
