MODEL 1
REMARK VINA RESULT: -6.275001666      0.000      0.000
REMARK  18 active torsions:
REMARK  status: ('A' for Active; 'I' for Inactive)
REMARK    1  A    between atoms: N1_1  and  N2_4 
REMARK    2  A    between atoms: N2_4  and  C1_5 
REMARK    3  A    between atoms: C1_5  and  N3_6 
REMARK    4  A    between atoms: C2_11  and  S1_12 
REMARK    5  A    between atoms: S1_12  and  C3_13 
REMARK    6  A    between atoms: C4_17  and  C5_18 
REMARK    7  A    between atoms: C5_18  and  N5_19 
REMARK    8  A    between atoms: C5_18  and  C12_37 
REMARK    9  A    between atoms: N5_19  and  C6_21 
REMARK   10  A    between atoms: C7_24  and  C8_25 
REMARK   11  A    between atoms: C9_28  and  O4_29 
REMARK   12  A    between atoms: C10_31  and  O5_32 
REMARK   13  A    between atoms: C11_34  and  O6_35 
REMARK   14  A    between atoms: C12_37  and  O7_38 
REMARK   15  A    between atoms: C12_37  and  O8_40 
REMARK   16  A    between atoms: C13_44  and  C14_45 
REMARK   17  A    between atoms: C14_45  and  O11_46 
REMARK   18  A    between atoms: C15_48  and  O12_49 
ROOT
HETATM    1  C3  UNL     1       9.303   7.050   4.988  1.00  0.00     0.395 C 
HETATM    2  N4  UNL     1       9.683   5.915   4.121  1.00  0.00    -0.011 N 
ATOM      3  H41 UNL     1       9.063   5.496   3.428  1.00  0.00     0.284 HD
ATOM      4  H42 UNL     1       9.815   4.961   4.459  1.00  0.00     0.284 HD
HETATM    5  C4  UNL     1      10.761   6.801   3.795  1.00  0.00     0.355 C 
HETATM    6  O9  UNL     1       9.802   7.846   3.917  1.00  0.00    -0.315 OA
ENDROOT
BRANCH   5   7
HETATM    7  C5  UNL     1      11.448   6.693   2.497  1.00  0.00     0.194 C 
BRANCH   7   8
HETATM    8  N5  UNL     1      11.763   8.018   1.998  1.00  0.00    -0.360 N 
ATOM      9  H5  UNL     1      12.221   8.656   2.648  1.00  0.00     0.162 HD
BRANCH   8  10
HETATM   10  C6  UNL     1      11.504   8.505   0.726  1.00  0.00     0.139 A 
HETATM   11  N6  UNL     1      12.268   8.145  -0.319  1.00  0.00    -0.333 N 
HETATM   12  C7  UNL     1      12.116   8.562  -1.575  1.00  0.00     0.147 A 
ATOM     13  H6  UNL     1      13.032   7.496  -0.134  1.00  0.00     0.168 HD
HETATM   14  C9  UNL     1      11.065   9.448  -1.800  1.00  0.00     0.136 A 
HETATM   15  C10 UNL     1      10.233   9.873  -0.803  1.00  0.00     0.139 A 
HETATM   16  C11 UNL     1      10.478   9.375   0.484  1.00  0.00     0.146 A 
BRANCH  12  17
HETATM   17  C8  UNL     1      12.961   8.148  -2.663  1.00  0.00     0.229 C 
HETATM   18  O2  UNL     1      13.268   6.947  -2.797  1.00  0.00    -0.643 OA
HETATM   19  O3  UNL     1      13.439   9.072  -3.567  1.00  0.00    -0.643 OA
ENDBRANCH  12  17
BRANCH  14  20
HETATM   20  O4  UNL     1      10.853   9.919  -3.086  1.00  0.00    -0.356 OA
ATOM     21  H4  UNL     1      10.022  10.330  -3.291  1.00  0.00     0.218 HD
ENDBRANCH  14  20
BRANCH  15  22
HETATM   22  O5  UNL     1       9.184  10.751  -1.006  1.00  0.00    -0.355 OA
ATOM     23  H5  UNL     1       8.303  10.474  -1.229  1.00  0.00     0.218 HD
ENDBRANCH  15  22
BRANCH  16  24
HETATM   24  O6  UNL     1       9.624   9.820   1.463  1.00  0.00    -0.355 OA
ATOM     25  H6  UNL     1       9.798  10.588   1.994  1.00  0.00     0.218 HD
ENDBRANCH  16  24
ENDBRANCH   8  10
ENDBRANCH   7   8
BRANCH   7  26
HETATM   26  C12 UNL     1      12.608   5.766   2.477  1.00  0.00     0.280 C 
BRANCH  26  27
HETATM   27  O7  UNL     1      12.328   4.539   3.092  1.00  0.00    -0.369 OA
ATOM     28  H7  UNL     1      12.556   3.796   2.546  1.00  0.00     0.212 HD
ENDBRANCH  26  27
BRANCH  26  29
HETATM   29  O8  UNL     1      13.064   5.451   1.195  1.00  0.00    -0.369 OA
ATOM     30  H8  UNL     1      13.584   6.135   0.789  1.00  0.00     0.212 HD
ENDBRANCH  26  29
ENDBRANCH   7  26
ENDBRANCH   5   7
BRANCH   1  31
HETATM   31  S1  UNL     1       7.576   7.230   5.351  1.00  0.00    -0.049 SA
BRANCH  31  32
HETATM   32  C2  UNL     1       6.539   7.599   3.939  1.00  0.00     0.334 C 
HETATM   33  O1  UNL     1       5.184   7.540   4.234  1.00  0.00    -0.298 OA
HETATM   34  C1  UNL     1       4.571   6.385   3.817  1.00  0.00     0.348 C 
HETATM   35  C15 UNL     1       4.689   6.159   2.327  1.00  0.00     0.232 C 
HETATM   36  C13 UNL     1       5.950   6.814   1.850  1.00  0.00     0.184 C 
HETATM   37  O10 UNL     1       6.894   6.803   2.869  1.00  0.00    -0.342 OA
BRANCH  34  38
HETATM   38  N2  UNL     1       4.970   5.197   4.499  1.00  0.00    -0.078 NA
BRANCH  38  39
HETATM   39  N1  UNL     1       3.895   4.424   4.943  1.00  0.00    -0.344 N 
ATOM     40  H12 UNL     1       3.133   4.814   5.497  1.00  0.00     0.172 HD
ATOM     41  H11 UNL     1       3.953   3.446   4.658  1.00  0.00     0.172 HD
ENDBRANCH  38  39
ENDBRANCH  34  38
BRANCH  34  42
HETATM   42  N3  UNL     1       3.132   6.559   4.078  1.00  0.00    -0.027 N 
ATOM     43  H33 UNL     1       2.705   7.286   3.503  1.00  0.00     0.279 HD
ATOM     44  H32 UNL     1       2.564   5.781   3.743  1.00  0.00     0.279 HD
ATOM     45  H31 UNL     1       3.033   6.727   5.079  1.00  0.00     0.279 HD
ENDBRANCH  34  42
BRANCH  35  46
HETATM   46  O12 UNL     1       4.620   4.801   2.016  1.00  0.00    -0.386 OA
ATOM     47  H12 UNL     1       5.312   4.315   2.449  1.00  0.00     0.210 HD
ENDBRANCH  35  46
BRANCH  36  48
HETATM   48  C14 UNL     1       6.493   5.969   0.712  1.00  0.00     0.199 C 
BRANCH  48  49
HETATM   49  O11 UNL     1       7.620   6.599   0.170  1.00  0.00    -0.398 OA
ATOM     50  H11 UNL     1       7.546   6.609  -0.777  1.00  0.00     0.209 HD
ENDBRANCH  48  49
ENDBRANCH  36  48
ENDBRANCH  31  32
ENDBRANCH   1  31
TORSDOF 18
ENDMDL
MODEL 2
REMARK VINA RESULT: -5.974816039      2.235      6.809
REMARK  18 active torsions:
REMARK  status: ('A' for Active; 'I' for Inactive)
REMARK    1  A    between atoms: N1_1  and  N2_4 
REMARK    2  A    between atoms: N2_4  and  C1_5 
REMARK    3  A    between atoms: C1_5  and  N3_6 
REMARK    4  A    between atoms: C2_11  and  S1_12 
REMARK    5  A    between atoms: S1_12  and  C3_13 
REMARK    6  A    between atoms: C4_17  and  C5_18 
REMARK    7  A    between atoms: C5_18  and  N5_19 
REMARK    8  A    between atoms: C5_18  and  C12_37 
REMARK    9  A    between atoms: N5_19  and  C6_21 
REMARK   10  A    between atoms: C7_24  and  C8_25 
REMARK   11  A    between atoms: C9_28  and  O4_29 
REMARK   12  A    between atoms: C10_31  and  O5_32 
REMARK   13  A    between atoms: C11_34  and  O6_35 
REMARK   14  A    between atoms: C12_37  and  O7_38 
REMARK   15  A    between atoms: C12_37  and  O8_40 
REMARK   16  A    between atoms: C13_44  and  C14_45 
REMARK   17  A    between atoms: C14_45  and  O11_46 
REMARK   18  A    between atoms: C15_48  and  O12_49 
ROOT
HETATM    1  C3  UNL     1       9.886   9.784   3.525  1.00  0.00     0.395 C 
HETATM    2  N4  UNL     1       9.264   8.491   3.170  1.00  0.00    -0.011 N 
ATOM      3  H41 UNL     1       9.679   7.819   2.524  1.00  0.00     0.284 HD
ATOM      4  H42 UNL     1       8.427   8.403   2.594  1.00  0.00     0.284 HD
HETATM    5  C4  UNL     1       9.273   8.339   4.595  1.00  0.00     0.355 C 
HETATM    6  O9  UNL     1      10.516   9.031   4.558  1.00  0.00    -0.315 OA
ENDROOT
BRANCH   5   7
HETATM    7  C5  UNL     1       9.291   6.996   5.200  1.00  0.00     0.194 C 
BRANCH   7   8
HETATM    8  N5  UNL     1       7.934   6.562   5.469  1.00  0.00    -0.360 N 
ATOM      9  H5  UNL     1       7.769   6.101   6.364  1.00  0.00     0.162 HD
BRANCH   8  10
HETATM   10  C6  UNL     1       6.838   6.709   4.634  1.00  0.00     0.139 A 
HETATM   11  N6  UNL     1       6.919   6.400   3.328  1.00  0.00    -0.333 N 
HETATM   12  C7  UNL     1       5.935   6.515   2.439  1.00  0.00     0.147 A 
ATOM     13  H6  UNL     1       7.814   6.047   2.990  1.00  0.00     0.168 HD
HETATM   14  C9  UNL     1       4.724   7.001   2.927  1.00  0.00     0.136 A 
HETATM   15  C10 UNL     1       4.542   7.342   4.238  1.00  0.00     0.139 A 
HETATM   16  C11 UNL     1       5.641   7.183   5.093  1.00  0.00     0.146 A 
BRANCH  12  17
HETATM   17  C8  UNL     1       6.069   6.170   1.048  1.00  0.00     0.229 C 
HETATM   18  O2  UNL     1       5.172   5.525   0.471  1.00  0.00    -0.643 OA
HETATM   19  O3  UNL     1       7.189   6.549   0.340  1.00  0.00    -0.643 OA
ENDBRANCH  12  17
BRANCH  14  20
HETATM   20  O4  UNL     1       3.660   7.143   2.052  1.00  0.00    -0.356 OA
ATOM     21  H4  UNL     1       2.913   7.665   2.320  1.00  0.00     0.218 HD
ENDBRANCH  14  20
BRANCH  15  22
HETATM   22  O5  UNL     1       3.348   7.824   4.743  1.00  0.00    -0.355 OA
ATOM     23  H5  UNL     1       3.134   8.749   4.789  1.00  0.00     0.218 HD
ENDBRANCH  15  22
BRANCH  16  24
HETATM   24  O6  UNL     1       5.426   7.534   6.404  1.00  0.00    -0.355 OA
ATOM     25  H6  UNL     1       4.905   8.286   6.661  1.00  0.00     0.218 HD
ENDBRANCH  16  24
ENDBRANCH   8  10
ENDBRANCH   7   8
BRANCH   7  26
HETATM   26  C12 UNL     1      10.097   5.988   4.466  1.00  0.00     0.280 C 
BRANCH  26  27
HETATM   27  O7  UNL     1       9.643   5.785   3.156  1.00  0.00    -0.369 OA
ATOM     28  H7  UNL     1       8.855   5.257   3.120  1.00  0.00     0.212 HD
ENDBRANCH  26  27
BRANCH  26  29
HETATM   29  O8  UNL     1      11.450   6.314   4.351  1.00  0.00    -0.369 OA
ATOM     30  H8  UNL     1      11.959   5.685   3.852  1.00  0.00     0.212 HD
ENDBRANCH  26  29
ENDBRANCH   7  26
ENDBRANCH   5   7
BRANCH   1  31
HETATM   31  S1  UNL     1      10.970  10.503   2.319  1.00  0.00    -0.049 SA
BRANCH  31  32
HETATM   32  C2  UNL     1      10.783   9.867   0.656  1.00  0.00     0.334 C 
HETATM   33  O1  UNL     1      10.203   8.607   0.622  1.00  0.00    -0.298 OA
HETATM   34  C1  UNL     1      11.100   7.585   0.432  1.00  0.00     0.348 C 
HETATM   35  C15 UNL     1      11.888   7.723  -0.851  1.00  0.00     0.232 C 
HETATM   36  C13 UNL     1      11.995   9.180  -1.184  1.00  0.00     0.184 C 
HETATM   37  O10 UNL     1      11.989   9.927  -0.012  1.00  0.00    -0.342 OA
BRANCH  34  38
HETATM   38  N2  UNL     1      12.005   7.353   1.509  1.00  0.00    -0.078 NA
BRANCH  38  39
HETATM   39  N1  UNL     1      12.305   6.003   1.701  1.00  0.00    -0.344 N 
ATOM     40  H12 UNL     1      13.259   5.669   1.836  1.00  0.00     0.172 HD
ATOM     41  H11 UNL     1      11.483   5.399   1.690  1.00  0.00     0.172 HD
ENDBRANCH  38  39
ENDBRANCH  34  38
BRANCH  34  42
HETATM   42  N3  UNL     1      10.303   6.356   0.275  1.00  0.00    -0.027 N 
ATOM     43  H33 UNL     1      10.697   5.556   0.769  1.00  0.00     0.279 HD
ATOM     44  H32 UNL     1       9.413   6.387   0.771  1.00  0.00     0.279 HD
ATOM     45  H31 UNL     1      10.199   6.199  -0.728  1.00  0.00     0.279 HD
ENDBRANCH  34  42
BRANCH  35  46
HETATM   46  O12 UNL     1      13.125   7.086  -0.752  1.00  0.00    -0.386 OA
ATOM     47  H12 UNL     1      13.795   7.562  -1.229  1.00  0.00     0.210 HD
ENDBRANCH  35  46
BRANCH  36  48
HETATM   48  C14 UNL     1      13.340   9.390  -1.855  1.00  0.00     0.199 C 
BRANCH  48  49
HETATM   49  O11 UNL     1      14.248   9.894  -0.915  1.00  0.00    -0.398 OA
ATOM     50  H11 UNL     1      13.916  10.714  -0.569  1.00  0.00     0.209 HD
ENDBRANCH  48  49
ENDBRANCH  36  48
ENDBRANCH  31  32
ENDBRANCH   1  31
TORSDOF 18
ENDMDL
MODEL 3
REMARK VINA RESULT: -5.962354483      1.751      2.868
REMARK  18 active torsions:
REMARK  status: ('A' for Active; 'I' for Inactive)
REMARK    1  A    between atoms: N1_1  and  N2_4 
REMARK    2  A    between atoms: N2_4  and  C1_5 
REMARK    3  A    between atoms: C1_5  and  N3_6 
REMARK    4  A    between atoms: C2_11  and  S1_12 
REMARK    5  A    between atoms: S1_12  and  C3_13 
REMARK    6  A    between atoms: C4_17  and  C5_18 
REMARK    7  A    between atoms: C5_18  and  N5_19 
REMARK    8  A    between atoms: C5_18  and  C12_37 
REMARK    9  A    between atoms: N5_19  and  C6_21 
REMARK   10  A    between atoms: C7_24  and  C8_25 
REMARK   11  A    between atoms: C9_28  and  O4_29 
REMARK   12  A    between atoms: C10_31  and  O5_32 
REMARK   13  A    between atoms: C11_34  and  O6_35 
REMARK   14  A    between atoms: C12_37  and  O7_38 
REMARK   15  A    between atoms: C12_37  and  O8_40 
REMARK   16  A    between atoms: C13_44  and  C14_45 
REMARK   17  A    between atoms: C14_45  and  O11_46 
REMARK   18  A    between atoms: C15_48  and  O12_49 
ROOT
HETATM    1  C3  UNL     1       8.499   9.159   3.953  1.00  0.00     0.395 C 
HETATM    2  N4  UNL     1       8.270   7.709   4.120  1.00  0.00    -0.011 N 
ATOM      3  H41 UNL     1       7.534   7.191   3.640  1.00  0.00     0.284 HD
ATOM      4  H42 UNL     1       7.900   7.287   4.971  1.00  0.00     0.284 HD
HETATM    5  C4  UNL     1       9.652   7.664   3.744  1.00  0.00     0.355 C 
HETATM    6  O9  UNL     1       9.346   8.755   2.882  1.00  0.00    -0.315 OA
ENDROOT
BRANCH   5   7
HETATM    7  C5  UNL     1      10.211   6.462   3.102  1.00  0.00     0.194 C 
BRANCH   7   8
HETATM    8  N5  UNL     1      11.523   6.760   2.561  1.00  0.00    -0.360 N 
ATOM      9  H5  UNL     1      12.307   6.722   3.212  1.00  0.00     0.162 HD
BRANCH   8  10
HETATM   10  C6  UNL     1      11.820   7.092   1.248  1.00  0.00     0.139 A 
HETATM   11  N6  UNL     1      11.307   8.199   0.685  1.00  0.00    -0.333 N 
HETATM   12  C7  UNL     1      11.517   8.603  -0.567  1.00  0.00     0.147 A 
ATOM     13  H6  UNL     1      10.705   8.781   1.267  1.00  0.00     0.168 HD
HETATM   14  C9  UNL     1      12.343   7.791  -1.341  1.00  0.00     0.136 A 
HETATM   15  C10 UNL     1      12.911   6.646  -0.858  1.00  0.00     0.139 A 
HETATM   16  C11 UNL     1      12.628   6.309   0.473  1.00  0.00     0.146 A 
BRANCH  12  17
HETATM   17  C8  UNL     1      10.946   9.799  -1.127  1.00  0.00     0.229 C 
HETATM   18  O2  UNL     1      11.684  10.679  -1.613  1.00  0.00    -0.643 OA
HETATM   19  O3  UNL     1       9.581   9.984  -1.134  1.00  0.00    -0.643 OA
ENDBRANCH  12  17
BRANCH  14  20
HETATM   20  O4  UNL     1      12.600   8.157  -2.652  1.00  0.00    -0.356 OA
ATOM     21  H4  UNL     1      11.992   7.888  -3.330  1.00  0.00     0.218 HD
ENDBRANCH  14  20
BRANCH  15  22
HETATM   22  O5  UNL     1      13.734   5.826  -1.609  1.00  0.00    -0.355 OA
ATOM     23  H5  UNL     1      14.388   5.251  -1.230  1.00  0.00     0.218 HD
ENDBRANCH  15  22
BRANCH  16  24
HETATM   24  O6  UNL     1      13.214   5.153   0.928  1.00  0.00    -0.355 OA
ATOM     25  H6  UNL     1      12.932   4.287   0.658  1.00  0.00     0.218 HD
ENDBRANCH  16  24
ENDBRANCH   8  10
ENDBRANCH   7   8
BRANCH   7  26
HETATM   26  C12 UNL     1      10.186   5.236   3.940  1.00  0.00     0.280 C 
BRANCH  26  27
HETATM   27  O7  UNL     1       8.926   4.625   3.964  1.00  0.00    -0.369 OA
ATOM     28  H7  UNL     1       8.915   3.829   4.483  1.00  0.00     0.212 HD
ENDBRANCH  26  27
BRANCH  26  29
HETATM   29  O8  UNL     1      11.079   4.244   3.526  1.00  0.00    -0.369 OA
ATOM     30  H8  UNL     1      11.449   3.735   4.237  1.00  0.00     0.212 HD
ENDBRANCH  26  29
ENDBRANCH   7  26
ENDBRANCH   5   7
BRANCH   1  31
HETATM   31  S1  UNL     1       7.092  10.141   3.502  1.00  0.00    -0.049 SA
BRANCH  31  32
HETATM   32  C2  UNL     1       5.754   9.238   2.730  1.00  0.00     0.334 C 
HETATM   33  O1  UNL     1       4.650   9.094   3.557  1.00  0.00    -0.298 OA
HETATM   34  C1  UNL     1       4.549   7.857   4.144  1.00  0.00     0.348 C 
HETATM   35  C15 UNL     1       4.471   6.732   3.138  1.00  0.00     0.232 C 
HETATM   36  C13 UNL     1       5.193   7.159   1.896  1.00  0.00     0.184 C 
HETATM   37  O10 UNL     1       6.217   8.037   2.233  1.00  0.00    -0.342 OA
BRANCH  34  38
HETATM   38  N2  UNL     1       5.555   7.550   5.107  1.00  0.00    -0.078 NA
BRANCH  38  39
HETATM   39  N1  UNL     1       5.076   6.818   6.196  1.00  0.00    -0.344 N 
ATOM     40  H12 UNL     1       4.735   5.861   6.104  1.00  0.00     0.172 HD
ATOM     41  H11 UNL     1       5.103   7.335   7.075  1.00  0.00     0.172 HD
ENDBRANCH  38  39
ENDBRANCH  34  38
BRANCH  34  42
HETATM   42  N3  UNL     1       3.260   7.839   4.857  1.00  0.00    -0.027 N 
ATOM     43  H33 UNL     1       3.362   7.818   5.872  1.00  0.00     0.279 HD
ATOM     44  H32 UNL     1       2.754   8.722   4.798  1.00  0.00     0.279 HD
ATOM     45  H31 UNL     1       2.732   7.047   4.489  1.00  0.00     0.279 HD
ENDBRANCH  34  42
BRANCH  35  46
HETATM   46  O12 UNL     1       4.956   5.540   3.677  1.00  0.00    -0.386 OA
ATOM     47  H12 UNL     1       5.657   5.183   3.144  1.00  0.00     0.210 HD
ENDBRANCH  35  46
BRANCH  36  48
HETATM   48  C14 UNL     1       5.830   5.919   1.297  1.00  0.00     0.199 C 
BRANCH  48  49
HETATM   49  O11 UNL     1       7.105   5.744   1.851  1.00  0.00    -0.398 OA
ATOM     50  H11 UNL     1       7.281   4.815   1.940  1.00  0.00     0.209 HD
ENDBRANCH  48  49
ENDBRANCH  36  48
ENDBRANCH  31  32
ENDBRANCH   1  31
TORSDOF 18
ENDMDL
MODEL 4
REMARK VINA RESULT: -5.922353928      2.912      7.389
REMARK  18 active torsions:
REMARK  status: ('A' for Active; 'I' for Inactive)
REMARK    1  A    between atoms: N1_1  and  N2_4 
REMARK    2  A    between atoms: N2_4  and  C1_5 
REMARK    3  A    between atoms: C1_5  and  N3_6 
REMARK    4  A    between atoms: C2_11  and  S1_12 
REMARK    5  A    between atoms: S1_12  and  C3_13 
REMARK    6  A    between atoms: C4_17  and  C5_18 
REMARK    7  A    between atoms: C5_18  and  N5_19 
REMARK    8  A    between atoms: C5_18  and  C12_37 
REMARK    9  A    between atoms: N5_19  and  C6_21 
REMARK   10  A    between atoms: C7_24  and  C8_25 
REMARK   11  A    between atoms: C9_28  and  O4_29 
REMARK   12  A    between atoms: C10_31  and  O5_32 
REMARK   13  A    between atoms: C11_34  and  O6_35 
REMARK   14  A    between atoms: C12_37  and  O7_38 
REMARK   15  A    between atoms: C12_37  and  O8_40 
REMARK   16  A    between atoms: C13_44  and  C14_45 
REMARK   17  A    between atoms: C14_45  and  O11_46 
REMARK   18  A    between atoms: C15_48  and  O12_49 
ROOT
HETATM    1  C3  UNL     1       8.913   9.992   2.627  1.00  0.00     0.395 C 
HETATM    2  N4  UNL     1       8.940   8.944   3.669  1.00  0.00    -0.011 N 
ATOM      3  H41 UNL     1       9.723   8.797   4.306  1.00  0.00     0.284 HD
ATOM      4  H42 UNL     1       9.021   7.947   3.470  1.00  0.00     0.284 HD
HETATM    5  C4  UNL     1       7.715   9.586   4.044  1.00  0.00     0.355 C 
HETATM    6  O9  UNL     1       8.352  10.799   3.658  1.00  0.00    -0.315 OA
ENDROOT
BRANCH   5   7
HETATM    7  C5  UNL     1       7.232   9.515   5.434  1.00  0.00     0.194 C 
BRANCH   7   8
HETATM    8  N5  UNL     1       5.869   9.021   5.454  1.00  0.00    -0.360 N 
ATOM      9  H5  UNL     1       5.198   9.550   6.011  1.00  0.00     0.162 HD
BRANCH   8  10
HETATM   10  C6  UNL     1       5.386   7.902   4.794  1.00  0.00     0.139 A 
HETATM   11  N6  UNL     1       5.190   7.917   3.465  1.00  0.00    -0.333 N 
HETATM   12  C7  UNL     1       4.720   6.906   2.736  1.00  0.00     0.147 A 
ATOM     13  H6  UNL     1       5.421   8.779   2.970  1.00  0.00     0.168 HD
HETATM   14  C9  UNL     1       4.411   5.741   3.434  1.00  0.00     0.136 A 
HETATM   15  C10 UNL     1       4.576   5.628   4.786  1.00  0.00     0.139 A 
HETATM   16  C11 UNL     1       5.077   6.750   5.461  1.00  0.00     0.146 A 
BRANCH  12  17
HETATM   17  C8  UNL     1       4.527   6.969   1.311  1.00  0.00     0.229 C 
HETATM   18  O2  UNL     1       4.986   6.074   0.575  1.00  0.00    -0.643 OA
HETATM   19  O3  UNL     1       3.834   8.018   0.746  1.00  0.00    -0.643 OA
ENDBRANCH  12  17
BRANCH  14  20
HETATM   20  O4  UNL     1       3.918   4.653   2.734  1.00  0.00    -0.356 OA
ATOM     21  H4  UNL     1       3.074   4.294   2.981  1.00  0.00     0.218 HD
ENDBRANCH  14  20
BRANCH  15  22
HETATM   22  O5  UNL     1       4.276   4.481   5.499  1.00  0.00    -0.355 OA
ATOM     23  H5  UNL     1       3.530   3.925   5.308  1.00  0.00     0.218 HD
ENDBRANCH  15  22
BRANCH  16  24
HETATM   24  O6  UNL     1       5.232   6.604   6.818  1.00  0.00    -0.355 OA
ATOM     25  H6  UNL     1       5.511   5.792   7.224  1.00  0.00     0.218 HD
ENDBRANCH  16  24
ENDBRANCH   8  10
ENDBRANCH   7   8
BRANCH   7  26
HETATM   26  C12 UNL     1       8.132   8.800   6.374  1.00  0.00     0.280 C 
BRANCH  26  27
HETATM   27  O7  UNL     1       8.278   7.444   6.054  1.00  0.00    -0.369 OA
ATOM     28  H7  UNL     1       8.544   6.919   6.800  1.00  0.00     0.212 HD
ENDBRANCH  26  27
BRANCH  26  29
HETATM   29  O8  UNL     1       9.428   9.317   6.428  1.00  0.00    -0.369 OA
ATOM     30  H8  UNL     1      10.019   8.824   6.985  1.00  0.00     0.212 HD
ENDBRANCH  26  29
ENDBRANCH   7  26
ENDBRANCH   5   7
BRANCH   1  31
HETATM   31  S1  UNL     1      10.482  10.523   1.992  1.00  0.00    -0.049 SA
BRANCH  31  32
HETATM   32  C2  UNL     1      11.802   9.322   2.129  1.00  0.00     0.334 C 
HETATM   33  O1  UNL     1      11.868   8.465   1.039  1.00  0.00    -0.298 OA
HETATM   34  C1  UNL     1      11.322   7.227   1.269  1.00  0.00     0.348 C 
HETATM   35  C15 UNL     1      11.977   6.497   2.420  1.00  0.00     0.232 C 
HETATM   36  C13 UNL     1      12.507   7.516   3.383  1.00  0.00     0.184 C 
HETATM   37  O10 UNL     1      11.715   8.657   3.335  1.00  0.00    -0.342 OA
BRANCH  34  38
HETATM   38  N2  UNL     1       9.908   7.202   1.450  1.00  0.00    -0.078 NA
BRANCH  38  39
HETATM   39  N1  UNL     1       9.250   6.345   0.565  1.00  0.00    -0.344 N 
ATOM     40  H12 UNL     1       9.648   5.453   0.270  1.00  0.00     0.172 HD
ATOM     41  H11 UNL     1       8.347   6.701   0.252  1.00  0.00     0.172 HD
ENDBRANCH  38  39
ENDBRANCH  34  38
BRANCH  34  42
HETATM   42  N3  UNL     1      11.611   6.416   0.073  1.00  0.00    -0.027 N 
ATOM     43  H33 UNL     1      11.776   5.432   0.284  1.00  0.00     0.279 HD
ATOM     44  H32 UNL     1      10.799   6.283  -0.529  1.00  0.00     0.279 HD
ATOM     45  H31 UNL     1      12.395   6.863  -0.402  1.00  0.00     0.279 HD
ENDBRANCH  34  42
BRANCH  35  46
HETATM   46  O12 UNL     1      11.097   5.588   3.006  1.00  0.00    -0.386 OA
ATOM     47  H12 UNL     1      10.961   4.833   2.447  1.00  0.00     0.210 HD
ENDBRANCH  35  46
BRANCH  36  48
HETATM   48  C14 UNL     1      12.380   6.928   4.776  1.00  0.00     0.199 C 
BRANCH  48  49
HETATM   49  O11 UNL     1      11.141   7.293   5.318  1.00  0.00    -0.398 OA
ATOM     50  H11 UNL     1      11.140   7.101   6.248  1.00  0.00     0.209 HD
ENDBRANCH  48  49
ENDBRANCH  36  48
ENDBRANCH  31  32
ENDBRANCH   1  31
TORSDOF 18
ENDMDL
MODEL 5
REMARK VINA RESULT: -5.811173663      2.214      7.247
REMARK  18 active torsions:
REMARK  status: ('A' for Active; 'I' for Inactive)
REMARK    1  A    between atoms: N1_1  and  N2_4 
REMARK    2  A    between atoms: N2_4  and  C1_5 
REMARK    3  A    between atoms: C1_5  and  N3_6 
REMARK    4  A    between atoms: C2_11  and  S1_12 
REMARK    5  A    between atoms: S1_12  and  C3_13 
REMARK    6  A    between atoms: C4_17  and  C5_18 
REMARK    7  A    between atoms: C5_18  and  N5_19 
REMARK    8  A    between atoms: C5_18  and  C12_37 
REMARK    9  A    between atoms: N5_19  and  C6_21 
REMARK   10  A    between atoms: C7_24  and  C8_25 
REMARK   11  A    between atoms: C9_28  and  O4_29 
REMARK   12  A    between atoms: C10_31  and  O5_32 
REMARK   13  A    between atoms: C11_34  and  O6_35 
REMARK   14  A    between atoms: C12_37  and  O7_38 
REMARK   15  A    between atoms: C12_37  and  O8_40 
REMARK   16  A    between atoms: C13_44  and  C14_45 
REMARK   17  A    between atoms: C14_45  and  O11_46 
REMARK   18  A    between atoms: C15_48  and  O12_49 
ROOT
HETATM    1  C3  UNL     1      12.062   9.185   3.826  1.00  0.00     0.395 C 
HETATM    2  N4  UNL     1      10.664   9.004   3.384  1.00  0.00    -0.011 N 
ATOM      3  H41 UNL     1      10.376   8.979   2.406  1.00  0.00     0.284 HD
ATOM      4  H42 UNL     1       9.937   9.711   3.495  1.00  0.00     0.284 HD
HETATM    5  C4  UNL     1      10.777   7.840   4.212  1.00  0.00     0.355 C 
HETATM    6  O9  UNL     1      12.119   7.764   3.744  1.00  0.00    -0.315 OA
ENDROOT
BRANCH   5   7
HETATM    7  C5  UNL     1       9.930   6.662   3.961  1.00  0.00     0.194 C 
BRANCH   7   8
HETATM    8  N5  UNL     1       9.050   6.921   2.838  1.00  0.00    -0.360 N 
ATOM      9  H5  UNL     1       9.471   7.355   2.017  1.00  0.00     0.162 HD
BRANCH   8  10
HETATM   10  C6  UNL     1       7.695   6.640   2.767  1.00  0.00     0.139 A 
HETATM   11  N6  UNL     1       6.956   6.520   3.883  1.00  0.00    -0.333 N 
HETATM   12  C7  UNL     1       5.655   6.241   3.929  1.00  0.00     0.147 A 
ATOM     13  H6  UNL     1       7.434   6.655   4.774  1.00  0.00     0.168 HD
HETATM   14  C9  UNL     1       5.025   6.060   2.699  1.00  0.00     0.136 A 
HETATM   15  C10 UNL     1       5.690   6.162   1.510  1.00  0.00     0.139 A 
HETATM   16  C11 UNL     1       7.059   6.460   1.571  1.00  0.00     0.146 A 
BRANCH  12  17
HETATM   17  C8  UNL     1       4.905   6.123   5.151  1.00  0.00     0.229 C 
HETATM   18  O2  UNL     1       4.336   5.051   5.438  1.00  0.00    -0.643 OA
HETATM   19  O3  UNL     1       4.807   7.191   6.016  1.00  0.00    -0.643 OA
ENDBRANCH  12  17
BRANCH  14  20
HETATM   20  O4  UNL     1       3.672   5.767   2.679  1.00  0.00    -0.356 OA
ATOM     21  H4  UNL     1       3.315   5.307   1.928  1.00  0.00     0.218 HD
ENDBRANCH  14  20
BRANCH  15  22
HETATM   22  O5  UNL     1       5.085   5.988   0.279  1.00  0.00    -0.355 OA
ATOM     23  H5  UNL     1       5.161   5.192  -0.235  1.00  0.00     0.218 HD
ENDBRANCH  15  22
BRANCH  16  24
HETATM   24  O6  UNL     1       7.698   6.556   0.359  1.00  0.00    -0.355 OA
ATOM     25  H6  UNL     1       7.291   6.928  -0.415  1.00  0.00     0.218 HD
ENDBRANCH  16  24
ENDBRANCH   8  10
ENDBRANCH   7   8
BRANCH   7  26
HETATM   26  C12 UNL     1      10.663   5.375   3.849  1.00  0.00     0.280 C 
BRANCH  26  27
HETATM   27  O7  UNL     1       9.805   4.277   3.710  1.00  0.00    -0.369 OA
ATOM     28  H7  UNL     1       9.092   4.288   4.337  1.00  0.00     0.212 HD
ENDBRANCH  26  27
BRANCH  26  29
HETATM   29  O8  UNL     1      11.538   5.311   2.762  1.00  0.00    -0.369 OA
ATOM     30  H8  UNL     1      12.276   4.728   2.893  1.00  0.00     0.212 HD
ENDBRANCH  26  29
ENDBRANCH   7  26
ENDBRANCH   5   7
BRANCH   1  31
HETATM   31  S1  UNL     1      13.137  10.070   2.727  1.00  0.00    -0.049 SA
BRANCH  31  32
HETATM   32  C2  UNL     1      12.397  10.556   1.171  1.00  0.00     0.334 C 
HETATM   33  O1  UNL     1      11.128  10.026   0.988  1.00  0.00    -0.298 OA
HETATM   34  C1  UNL     1      11.092   8.938   0.151  1.00  0.00     0.348 C 
HETATM   35  C15 UNL     1      11.628   9.238  -1.230  1.00  0.00     0.232 C 
HETATM   36  C13 UNL     1      12.638  10.339  -1.114  1.00  0.00     0.184 C 
HETATM   37  O10 UNL     1      13.256  10.274   0.129  1.00  0.00    -0.342 OA
BRANCH  34  38
HETATM   38  N2  UNL     1      11.724   7.760   0.648  1.00  0.00    -0.078 NA
BRANCH  38  39
HETATM   39  N1  UNL     1      11.067   6.583   0.284  1.00  0.00    -0.344 N 
ATOM     40  H12 UNL     1      11.516   5.855  -0.271  1.00  0.00     0.172 HD
ATOM     41  H11 UNL     1      10.108   6.531   0.628  1.00  0.00     0.172 HD
ENDBRANCH  38  39
ENDBRANCH  34  38
BRANCH  34  42
HETATM   42  N3  UNL     1       9.669   8.607  -0.041  1.00  0.00    -0.027 N 
ATOM     43  H33 UNL     1       9.101   9.412  -0.305  1.00  0.00     0.279 HD
ATOM     44  H32 UNL     1       9.495   8.048  -0.875  1.00  0.00     0.279 HD
ATOM     45  H31 UNL     1       9.354   8.156   0.818  1.00  0.00     0.279 HD
ENDBRANCH  34  42
BRANCH  35  46
HETATM   46  O12 UNL     1      12.131   8.087  -1.836  1.00  0.00    -0.386 OA
ATOM     47  H12 UNL     1      12.369   7.435  -1.188  1.00  0.00     0.210 HD
ENDBRANCH  35  46
BRANCH  36  48
HETATM   48  C14 UNL     1      13.701  10.087  -2.168  1.00  0.00     0.199 C 
BRANCH  48  49
HETATM   49  O11 UNL     1      14.700   9.268  -1.626  1.00  0.00    -0.398 OA
ATOM     50  H11 UNL     1      14.962   8.625  -2.274  1.00  0.00     0.209 HD
ENDBRANCH  48  49
ENDBRANCH  36  48
ENDBRANCH  31  32
ENDBRANCH   1  31
TORSDOF 18
ENDMDL
