MODEL 1
REMARK VINA RESULT: -6.550203336      0.000      0.000
REMARK  16 active torsions:
REMARK  status: ('A' for Active; 'I' for Inactive)
REMARK    1  A    between atoms: N2_3  and  C2_5 
REMARK    2  A    between atoms: C2_5  and  N3_6 
REMARK    3  A    between atoms: C2_5  and  C10_41 
REMARK    4  A    between atoms: N3_6  and  C3_8 
REMARK    5  A    between atoms: C3_8  and  O1_9 
REMARK    6  A    between atoms: C3_8  and  C4_11 
REMARK    7  A    between atoms: C6_15  and  N5_16 
REMARK    8  A    between atoms: N5_16  and  N6_18 
REMARK    9  A    between atoms: N6_18  and  C7_20 
REMARK   10  A    between atoms: N8_23  and  N9_24 
REMARK   11  A    between atoms: C9_32  and  N12_33 
REMARK   12  A    between atoms: C12_43  and  N16_44 
REMARK   13  A    between atoms: N16_44  and  C13_46 
REMARK   14  A    between atoms: C13_46  and  O2_47 
REMARK   15  A    between atoms: C13_46  and  O3_49 
REMARK   16  A    between atoms: C14_53  and  N18_54 
ROOT
HETATM    1  N1  UNL     1       7.526   6.710   1.842  1.00  0.00    -0.172 NA
HETATM    2  C1  UNL     1       8.507   6.619   1.235  1.00  0.00     0.179 C 
HETATM    3  N2  UNL     1       9.680   6.519   0.511  1.00  0.00    -0.301 N 
ATOM      4  H2  UNL     1       9.662   6.036  -0.387  1.00  0.00     0.174 HD
ENDROOT
BRANCH   3   5
HETATM    5  C2  UNL     1      10.943   7.078   0.980  1.00  0.00     0.241 C 
BRANCH   5   6
HETATM    6  N3  UNL     1      11.847   6.129   1.493  1.00  0.00    -0.365 N 
ATOM      7  H3  UNL     1      12.390   5.553   0.850  1.00  0.00     0.158 HD
BRANCH   6   8
HETATM    8  C3  UNL     1      12.012   5.964   2.874  1.00  0.00     0.285 C 
BRANCH   8   9
HETATM    9  O1  UNL     1      12.380   4.625   3.143  1.00  0.00    -0.370 OA
ATOM     10  H1  UNL     1      13.030   4.612   3.836  1.00  0.00     0.212 HD
ENDBRANCH   8   9
BRANCH   8  11
HETATM   11  C4  UNL     1      10.932   6.412   3.751  1.00  0.00     0.145 A 
HETATM   12  N4  UNL     1      10.931   7.603   4.374  1.00  0.00    -0.347 N 
HETATM   13  C5  UNL     1       9.940   8.014   5.178  1.00  0.00     0.140 A 
ATOM     14  H4  UNL     1      11.725   8.226   4.228  1.00  0.00     0.166 HD
HETATM   15  C6  UNL     1       8.849   7.202   5.403  1.00  0.00     0.150 A 
HETATM   16  N14 UNL     1       8.857   6.013   4.775  1.00  0.00    -0.282 N 
HETATM   17  N15 UNL     1       9.857   5.625   3.978  1.00  0.00    -0.284 N 
ATOM     18  H14 UNL     1       8.069   5.381   4.914  1.00  0.00     0.188 HD
ATOM     19  H15 UNL     1       9.808   4.711   3.530  1.00  0.00     0.188 HD
BRANCH  15  20
HETATM   20  N5  UNL     1       7.771   7.601   6.253  1.00  0.00    -0.269 N 
ATOM     21  H5  UNL     1       7.865   7.539   7.266  1.00  0.00     0.189 HD
BRANCH  20  22
HETATM   22  N6  UNL     1       6.589   8.074   5.685  1.00  0.00    -0.128 N 
ATOM     23  H6  UNL     1       6.449   9.080   5.595  1.00  0.00     0.205 HD
BRANCH  22  24
HETATM   24  C7  UNL     1       5.577   7.189   5.228  1.00  0.00     0.750 A 
HETATM   25  N7  UNL     1       5.363   5.898   5.556  1.00  0.00    -0.093 N 
HETATM   26  N8  UNL     1       4.317   5.416   4.917  1.00  0.00    -0.009 N 
ATOM     27  H7  UNL     1       5.935   5.366   6.212  1.00  0.00     0.208 HD
HETATM   28  C8  UNL     1       3.841   6.412   4.158  1.00  0.00     0.770 A 
HETATM   29  N10 UNL     1       2.869   6.699   3.282  1.00  0.00    -0.113 N 
HETATM   30  N13 UNL     1       4.608   7.498   4.346  1.00  0.00     0.207 N 
HETATM   31  N11 UNL     1       3.018   7.957   2.915  1.00  0.00    -0.116 N 
ATOM     32  H10 UNL     1       2.144   6.059   2.958  1.00  0.00     0.206 HD
HETATM   33  C9  UNL     1       4.069   8.451   3.554  1.00  0.00     0.727 A 
ATOM     34  H11 UNL     1       2.427   8.462   2.255  1.00  0.00     0.206 HD
BRANCH  26  35
HETATM   35  N9  UNL     1       3.820   4.121   5.024  1.00  0.00    -0.308 N 
ATOM     36  H92 UNL     1       3.895   3.368   4.338  1.00  0.00     0.179 HD
ATOM     37  H91 UNL     1       3.304   3.741   5.817  1.00  0.00     0.179 HD
ENDBRANCH  26  35
BRANCH  33  38
HETATM   38  N12 UNL     1       4.540   9.644   3.465  1.00  0.00    -0.232 N 
ATOM     39 2H12 UNL     1       4.726  10.108   2.576  1.00  0.00     0.174 HD
ATOM     40 1H12 UNL     1       4.783  10.267   4.235  1.00  0.00     0.174 HD
ENDBRANCH  33  38
ENDBRANCH  22  24
ENDBRANCH  20  22
ENDBRANCH  15  20
ENDBRANCH   8  11
ENDBRANCH   6   8
ENDBRANCH   5   6
BRANCH   5  41
HETATM   41  C10 UNL     1      11.564   7.679  -0.250  1.00  0.00     0.072 A 
HETATM   42  C11 UNL     1      12.566   7.047  -0.963  1.00  0.00     0.078 A 
HETATM   43  C12 UNL     1      13.116   7.635  -2.100  1.00  0.00     0.122 A 
HETATM   44  N17 UNL     1      12.670   8.828  -2.508  1.00  0.00    -0.177 N 
HETATM   45  C14 UNL     1      11.704   9.427  -1.813  1.00  0.00     0.677 A 
ATOM     46  H17 UNL     1      13.063   9.272  -3.338  1.00  0.00     0.185 HD
HETATM   47  N19 UNL     1      11.164   8.873  -0.716  1.00  0.00    -0.192 N 
ATOM     48  H19 UNL     1      10.427   9.375  -0.221  1.00  0.00     0.184 HD
BRANCH  43  49
HETATM   49  N16 UNL     1      14.034   7.033  -2.734  1.00  0.00    -0.328 N 
ATOM     50  H16 UNL     1      13.748   6.401  -3.482  1.00  0.00     0.166 HD
BRANCH  49  51
HETATM   51  C13 UNL     1      15.441   7.164  -2.489  1.00  0.00     0.366 C 
BRANCH  51  52
HETATM   52  O2  UNL     1      15.764   8.375  -1.893  1.00  0.00    -0.355 OA
ATOM     53  H2  UNL     1      15.480   9.122  -2.408  1.00  0.00     0.214 HD
ENDBRANCH  51  52
BRANCH  51  54
HETATM   54  O3  UNL     1      15.846   6.128  -1.642  1.00  0.00    -0.355 OA
ATOM     55  H3  UNL     1      16.680   6.363  -1.252  1.00  0.00     0.214 HD
ENDBRANCH  51  54
ENDBRANCH  49  51
ENDBRANCH  43  49
BRANCH  45  56
HETATM   56  N18 UNL     1      11.275  10.593  -2.221  1.00  0.00    -0.234 N 
ATOM     57 2H18 UNL     1      10.441  10.997  -1.795  1.00  0.00     0.174 HD
ATOM     58 1H18 UNL     1      11.791  11.068  -2.962  1.00  0.00     0.174 HD
ENDBRANCH  45  56
ENDBRANCH   5  41
ENDBRANCH   3   5
TORSDOF 16
ENDMDL
MODEL 2
REMARK VINA RESULT: -6.520687116      2.063      2.765
REMARK  16 active torsions:
REMARK  status: ('A' for Active; 'I' for Inactive)
REMARK    1  A    between atoms: N2_3  and  C2_5 
REMARK    2  A    between atoms: C2_5  and  N3_6 
REMARK    3  A    between atoms: C2_5  and  C10_41 
REMARK    4  A    between atoms: N3_6  and  C3_8 
REMARK    5  A    between atoms: C3_8  and  O1_9 
REMARK    6  A    between atoms: C3_8  and  C4_11 
REMARK    7  A    between atoms: C6_15  and  N5_16 
REMARK    8  A    between atoms: N5_16  and  N6_18 
REMARK    9  A    between atoms: N6_18  and  C7_20 
REMARK   10  A    between atoms: N8_23  and  N9_24 
REMARK   11  A    between atoms: C9_32  and  N12_33 
REMARK   12  A    between atoms: C12_43  and  N16_44 
REMARK   13  A    between atoms: N16_44  and  C13_46 
REMARK   14  A    between atoms: C13_46  and  O2_47 
REMARK   15  A    between atoms: C13_46  and  O3_49 
REMARK   16  A    between atoms: C14_53  and  N18_54 
ROOT
HETATM    1  N1  UNL     1       6.996   6.530   0.852  1.00  0.00    -0.172 NA
HETATM    2  C1  UNL     1       8.145   6.411   0.920  1.00  0.00     0.179 C 
HETATM    3  N2  UNL     1       9.519   6.277   0.995  1.00  0.00    -0.301 N 
ATOM      4  H2  UNL     1       9.942   5.400   0.692  1.00  0.00     0.174 HD
ENDROOT
BRANCH   3   5
HETATM    5  C2  UNL     1      10.387   7.338   1.491  1.00  0.00     0.241 C 
BRANCH   5   6
HETATM    6  N3  UNL     1      11.468   6.892   2.274  1.00  0.00    -0.365 N 
ATOM      7  H3  UNL     1      12.420   7.009   1.929  1.00  0.00     0.158 HD
BRANCH   6   8
HETATM    8  C3  UNL     1      11.254   6.288   3.520  1.00  0.00     0.285 C 
BRANCH   8   9
HETATM    9  O1  UNL     1      11.125   4.890   3.345  1.00  0.00    -0.370 OA
ATOM     10  H1  UNL     1      10.405   4.714   2.750  1.00  0.00     0.212 HD
ENDBRANCH   8   9
BRANCH   8  11
HETATM   11  C4  UNL     1      10.193   6.826   4.369  1.00  0.00     0.145 A 
HETATM   12  N4  UNL     1      10.220   8.062   4.894  1.00  0.00    -0.347 N 
HETATM   13  C5  UNL     1       9.245   8.554   5.672  1.00  0.00     0.140 A 
ATOM     14  H4  UNL     1      11.023   8.657   4.690  1.00  0.00     0.166 HD
HETATM   15  C6  UNL     1       8.142   7.784   5.972  1.00  0.00     0.150 A 
HETATM   16  N14 UNL     1       8.123   6.548   5.442  1.00  0.00    -0.282 N 
HETATM   17  N15 UNL     1       9.107   6.079   4.669  1.00  0.00    -0.284 N 
ATOM     18  H14 UNL     1       7.325   5.944   5.639  1.00  0.00     0.188 HD
ATOM     19  H15 UNL     1       9.037   5.133   4.296  1.00  0.00     0.188 HD
BRANCH  15  20
HETATM   20  N5  UNL     1       7.081   8.269   6.797  1.00  0.00    -0.269 N 
ATOM     21  H5  UNL     1       7.263   8.534   7.765  1.00  0.00     0.189 HD
BRANCH  20  22
HETATM   22  N6  UNL     1       5.797   8.378   6.269  1.00  0.00    -0.128 N 
ATOM     23  H6  UNL     1       5.264   9.232   6.428  1.00  0.00     0.205 HD
BRANCH  22  24
HETATM   24  C7  UNL     1       5.212   7.327   5.514  1.00  0.00     0.750 A 
HETATM   25  N7  UNL     1       4.830   6.098   5.917  1.00  0.00    -0.093 N 
HETATM   26  N8  UNL     1       4.328   5.406   4.916  1.00  0.00    -0.009 N 
ATOM     27  H7  UNL     1       4.918   5.750   6.872  1.00  0.00     0.208 HD
HETATM   28  C8  UNL     1       4.384   6.200   3.838  1.00  0.00     0.770 A 
HETATM   29  N10 UNL     1       4.089   6.228   2.532  1.00  0.00    -0.113 N 
HETATM   30  N13 UNL     1       4.923   7.376   4.199  1.00  0.00     0.207 N 
HETATM   31  N11 UNL     1       4.439   7.411   2.066  1.00  0.00    -0.116 N 
ATOM     32  H10 UNL     1       3.668   5.470   1.994  1.00  0.00     0.206 HD
HETATM   33  C9  UNL     1       4.946   8.115   3.068  1.00  0.00     0.727 A 
ATOM     34  H11 UNL     1       4.337   7.729   1.102  1.00  0.00     0.206 HD
BRANCH  26  35
HETATM   35  N9  UNL     1       3.840   4.105   4.985  1.00  0.00    -0.308 N 
ATOM     36  H92 UNL     1       3.758   3.431   4.223  1.00  0.00     0.179 HD
ATOM     37  H91 UNL     1       3.490   3.640   5.822  1.00  0.00     0.179 HD
ENDBRANCH  26  35
BRANCH  33  38
HETATM   38  N12 UNL     1       5.401   9.316   3.020  1.00  0.00    -0.232 N 
ATOM     39 2H12 UNL     1       5.389   9.886   2.174  1.00  0.00     0.174 HD
ATOM     40 1H12 UNL     1       5.818   9.847   3.785  1.00  0.00     0.174 HD
ENDBRANCH  33  38
ENDBRANCH  22  24
ENDBRANCH  20  22
ENDBRANCH  15  20
ENDBRANCH   8  11
ENDBRANCH   6   8
ENDBRANCH   5   6
BRANCH   5  41
HETATM   41  C10 UNL     1      10.954   7.967   0.249  1.00  0.00     0.072 A 
HETATM   42  C11 UNL     1      10.500   9.174  -0.248  1.00  0.00     0.078 A 
HETATM   43  C12 UNL     1      11.052   9.728  -1.402  1.00  0.00     0.122 A 
HETATM   44  N17 UNL     1      12.035   9.082  -2.038  1.00  0.00    -0.177 N 
HETATM   45  C14 UNL     1      12.464   7.919  -1.549  1.00  0.00     0.677 A 
ATOM     46  H17 UNL     1      12.449   9.472  -2.884  1.00  0.00     0.185 HD
HETATM   47  N19 UNL     1      11.943   7.374  -0.439  1.00  0.00    -0.192 N 
ATOM     48  H19 UNL     1      12.309   6.482  -0.108  1.00  0.00     0.184 HD
BRANCH  43  49
HETATM   49  N16 UNL     1      10.615  10.836  -1.835  1.00  0.00    -0.328 N 
ATOM     50  H16 UNL     1      11.094  11.680  -1.523  1.00  0.00     0.166 HD
BRANCH  49  51
HETATM   51  C13 UNL     1       9.505  11.003  -2.727  1.00  0.00     0.366 C 
BRANCH  51  52
HETATM   52  O2  UNL     1       9.107   9.807  -3.308  1.00  0.00    -0.355 OA
ATOM     53  H2  UNL     1       8.248   9.527  -3.012  1.00  0.00     0.214 HD
ENDBRANCH  51  52
BRANCH  51  54
HETATM   54  O3  UNL     1       8.428  11.528  -2.006  1.00  0.00    -0.355 OA
ATOM     55  H3  UNL     1       8.253  12.409  -2.319  1.00  0.00     0.214 HD
ENDBRANCH  51  54
ENDBRANCH  49  51
ENDBRANCH  43  49
BRANCH  45  56
HETATM   56  N18 UNL     1      13.427   7.296  -2.179  1.00  0.00    -0.234 N 
ATOM     57 2H18 UNL     1      14.348   7.731  -2.241  1.00  0.00     0.174 HD
ATOM     58 1H18 UNL     1      13.227   6.386  -2.593  1.00  0.00     0.174 HD
ENDBRANCH  45  56
ENDBRANCH   5  41
ENDBRANCH   3   5
TORSDOF 16
ENDMDL
MODEL 3
REMARK VINA RESULT: -6.516484017      2.289      3.555
REMARK  16 active torsions:
REMARK  status: ('A' for Active; 'I' for Inactive)
REMARK    1  A    between atoms: N2_3  and  C2_5 
REMARK    2  A    between atoms: C2_5  and  N3_6 
REMARK    3  A    between atoms: C2_5  and  C10_41 
REMARK    4  A    between atoms: N3_6  and  C3_8 
REMARK    5  A    between atoms: C3_8  and  O1_9 
REMARK    6  A    between atoms: C3_8  and  C4_11 
REMARK    7  A    between atoms: C6_15  and  N5_16 
REMARK    8  A    between atoms: N5_16  and  N6_18 
REMARK    9  A    between atoms: N6_18  and  C7_20 
REMARK   10  A    between atoms: N8_23  and  N9_24 
REMARK   11  A    between atoms: C9_32  and  N12_33 
REMARK   12  A    between atoms: C12_43  and  N16_44 
REMARK   13  A    between atoms: N16_44  and  C13_46 
REMARK   14  A    between atoms: C13_46  and  O2_47 
REMARK   15  A    between atoms: C13_46  and  O3_49 
REMARK   16  A    between atoms: C14_53  and  N18_54 
ROOT
HETATM    1  N1  UNL     1       6.314   6.551   0.877  1.00  0.00    -0.172 NA
HETATM    2  C1  UNL     1       7.450   6.344   0.950  1.00  0.00     0.179 C 
HETATM    3  N2  UNL     1       8.809   6.107   1.033  1.00  0.00    -0.301 N 
ATOM      4  H2  UNL     1       9.185   5.261   0.605  1.00  0.00     0.174 HD
ENDROOT
BRANCH   3   5
HETATM    5  C2  UNL     1       9.727   7.016   1.710  1.00  0.00     0.241 C 
BRANCH   5   6
HETATM    6  N3  UNL     1      10.679   6.383   2.529  1.00  0.00    -0.365 N 
ATOM      7  H3  UNL     1      11.658   6.369   2.243  1.00  0.00     0.158 HD
BRANCH   6   8
HETATM    8  C3  UNL     1      10.303   5.770   3.731  1.00  0.00     0.285 C 
BRANCH   8   9
HETATM    9  O1  UNL     1       9.945   4.425   3.478  1.00  0.00    -0.370 OA
ATOM     10  H1  UNL     1       9.455   4.086   4.218  1.00  0.00     0.212 HD
ENDBRANCH   8   9
BRANCH   8  11
HETATM   11  C4  UNL     1       9.307   6.445   4.562  1.00  0.00     0.145 A 
HETATM   12  N4  UNL     1       9.530   7.618   5.177  1.00  0.00    -0.347 N 
HETATM   13  C5  UNL     1       8.616   8.237   5.938  1.00  0.00     0.140 A 
ATOM     14  H4  UNL     1      10.441   8.061   5.059  1.00  0.00     0.166 HD
HETATM   15  C6  UNL     1       7.372   7.672   6.124  1.00  0.00     0.150 A 
HETATM   16  N14 UNL     1       7.157   6.498   5.504  1.00  0.00    -0.282 N 
HETATM   17  N15 UNL     1       8.085   5.901   4.750  1.00  0.00    -0.284 N 
ATOM     18  H14 UNL     1       6.250   6.046   5.614  1.00  0.00     0.188 HD
ATOM     19  H15 UNL     1       7.864   5.010   4.305  1.00  0.00     0.188 HD
BRANCH  15  20
HETATM   20  N5  UNL     1       6.369   8.298   6.927  1.00  0.00    -0.269 N 
ATOM     21  H5  UNL     1       6.534   8.462   7.920  1.00  0.00     0.189 HD
BRANCH  20  22
HETATM   22  N6  UNL     1       5.163   8.680   6.342  1.00  0.00    -0.128 N 
ATOM     23  H6  UNL     1       4.301   8.600   6.881  1.00  0.00     0.205 HD
BRANCH  22  24
HETATM   24  C7  UNL     1       5.106   9.180   5.015  1.00  0.00     0.750 A 
HETATM   25  N7  UNL     1       5.559  10.352   4.525  1.00  0.00    -0.093 N 
HETATM   26  N8  UNL     1       5.318  10.451   3.234  1.00  0.00    -0.009 N 
ATOM     27  H7  UNL     1       6.027  11.068   5.081  1.00  0.00     0.208 HD
HETATM   28  C8  UNL     1       4.695   9.320   2.875  1.00  0.00     0.770 A 
HETATM   29  N10 UNL     1       4.162   8.700   1.815  1.00  0.00    -0.113 N 
HETATM   30  N13 UNL     1       4.565   8.540   3.961  1.00  0.00     0.207 N 
HETATM   31  N11 UNL     1       3.694   7.536   2.222  1.00  0.00    -0.116 N 
ATOM     32  H10 UNL     1       4.124   9.063   0.862  1.00  0.00     0.206 HD
HETATM   33  C9  UNL     1       3.933   7.429   3.522  1.00  0.00     0.727 A 
ATOM     34  H11 UNL     1       3.231   6.840   1.639  1.00  0.00     0.206 HD
BRANCH  26  35
HETATM   35  N9  UNL     1       5.652  11.528   2.420  1.00  0.00    -0.308 N 
ATOM     36  H92 UNL     1       5.279  12.477   2.461  1.00  0.00     0.179 HD
ATOM     37  H91 UNL     1       6.329  11.515   1.657  1.00  0.00     0.179 HD
ENDBRANCH  26  35
BRANCH  33  38
HETATM   38  N12 UNL     1       3.631   6.441   4.286  1.00  0.00    -0.232 N 
ATOM     39 2H12 UNL     1       2.779   6.407   4.847  1.00  0.00     0.174 HD
ATOM     40 1H12 UNL     1       4.173   5.590   4.436  1.00  0.00     0.174 HD
ENDBRANCH  33  38
ENDBRANCH  22  24
ENDBRANCH  20  22
ENDBRANCH  15  20
ENDBRANCH   8  11
ENDBRANCH   6   8
ENDBRANCH   5   6
BRANCH   5  41
HETATM   41  C10 UNL     1      10.468   7.697   0.593  1.00  0.00     0.072 A 
HETATM   42  C11 UNL     1      10.132   8.958   0.137  1.00  0.00     0.078 A 
HETATM   43  C12 UNL     1      10.844   9.559  -0.900  1.00  0.00     0.122 A 
HETATM   44  N17 UNL     1      11.866   8.906  -1.462  1.00  0.00    -0.177 N 
HETATM   45  C14 UNL     1      12.180   7.691  -1.014  1.00  0.00     0.677 A 
ATOM     46  H17 UNL     1      12.398   9.330  -2.222  1.00  0.00     0.185 HD
HETATM   47  N19 UNL     1      11.505   7.100  -0.017  1.00  0.00    -0.192 N 
ATOM     48  H19 UNL     1      11.787   6.169   0.288  1.00  0.00     0.184 HD
BRANCH  43  49
HETATM   49  N16 UNL     1      10.514  10.716  -1.297  1.00  0.00    -0.328 N 
ATOM     50  H16 UNL     1      10.985  11.510  -0.864  1.00  0.00     0.166 HD
BRANCH  49  51
HETATM   51  C13 UNL     1       9.534  11.003  -2.304  1.00  0.00     0.366 C 
BRANCH  51  52
HETATM   52  O2  UNL     1       9.168   9.875  -3.025  1.00  0.00    -0.355 OA
ATOM     53  H2  UNL     1       8.226   9.793  -3.120  1.00  0.00     0.214 HD
ENDBRANCH  51  52
BRANCH  51  54
HETATM   54  O3  UNL     1       8.395  11.524  -1.683  1.00  0.00    -0.355 OA
ATOM     55  H3  UNL     1       8.287  12.428  -1.956  1.00  0.00     0.214 HD
ENDBRANCH  51  54
ENDBRANCH  49  51
ENDBRANCH  43  49
BRANCH  45  56
HETATM   56  N18 UNL     1      13.183   7.062  -1.571  1.00  0.00    -0.234 N 
ATOM     57 2H18 UNL     1      13.084   6.076  -1.812  1.00  0.00     0.174 HD
ATOM     58 1H18 UNL     1      14.043   7.581  -1.749  1.00  0.00     0.174 HD
ENDBRANCH  45  56
ENDBRANCH   5  41
ENDBRANCH   3   5
TORSDOF 16
ENDMDL
MODEL 4
REMARK VINA RESULT: -6.417529325      2.350      3.302
REMARK  16 active torsions:
REMARK  status: ('A' for Active; 'I' for Inactive)
REMARK    1  A    between atoms: N2_3  and  C2_5 
REMARK    2  A    between atoms: C2_5  and  N3_6 
REMARK    3  A    between atoms: C2_5  and  C10_41 
REMARK    4  A    between atoms: N3_6  and  C3_8 
REMARK    5  A    between atoms: C3_8  and  O1_9 
REMARK    6  A    between atoms: C3_8  and  C4_11 
REMARK    7  A    between atoms: C6_15  and  N5_16 
REMARK    8  A    between atoms: N5_16  and  N6_18 
REMARK    9  A    between atoms: N6_18  and  C7_20 
REMARK   10  A    between atoms: N8_23  and  N9_24 
REMARK   11  A    between atoms: C9_32  and  N12_33 
REMARK   12  A    between atoms: C12_43  and  N16_44 
REMARK   13  A    between atoms: N16_44  and  C13_46 
REMARK   14  A    between atoms: C13_46  and  O2_47 
REMARK   15  A    between atoms: C13_46  and  O3_49 
REMARK   16  A    between atoms: C14_53  and  N18_54 
ROOT
HETATM    1  N1  UNL     1       6.636   6.611   0.890  1.00  0.00    -0.172 NA
HETATM    2  C1  UNL     1       7.772   6.404   0.978  1.00  0.00     0.179 C 
HETATM    3  N2  UNL     1       9.129   6.166   1.078  1.00  0.00    -0.301 N 
ATOM      4  H2  UNL     1       9.498   5.281   0.729  1.00  0.00     0.174 HD
ENDROOT
BRANCH   3   5
HETATM    5  C2  UNL     1      10.056   7.129   1.662  1.00  0.00     0.241 C 
BRANCH   5   6
HETATM    6  N3  UNL     1      11.080   6.556   2.440  1.00  0.00    -0.365 N 
ATOM      7  H3  UNL     1      12.045   6.606   2.115  1.00  0.00     0.158 HD
BRANCH   6   8
HETATM    8  C3  UNL     1      10.792   5.920   3.654  1.00  0.00     0.285 C 
BRANCH   8   9
HETATM    9  O1  UNL     1      10.647   4.531   3.429  1.00  0.00    -0.370 OA
ATOM     10  H1  UNL     1      10.441   4.381   2.514  1.00  0.00     0.212 HD
ENDBRANCH   8   9
BRANCH   8  11
HETATM   11  C4  UNL     1       9.698   6.452   4.464  1.00  0.00     0.145 A 
HETATM   12  N4  UNL     1       9.757   7.631   5.105  1.00  0.00    -0.347 N 
HETATM   13  C5  UNL     1       8.753   8.119   5.847  1.00  0.00     0.140 A 
ATOM     14  H4  UNL     1      10.610   8.184   5.022  1.00  0.00     0.166 HD
HETATM   15  C6  UNL     1       7.583   7.402   5.986  1.00  0.00     0.150 A 
HETATM   16  N14 UNL     1       7.532   6.223   5.341  1.00  0.00    -0.282 N 
HETATM   17  N15 UNL     1       8.547   5.758   4.606  1.00  0.00    -0.284 N 
ATOM     18  H14 UNL     1       6.684   5.661   5.416  1.00  0.00     0.188 HD
ATOM     19  H15 UNL     1       8.449   4.857   4.141  1.00  0.00     0.188 HD
BRANCH  15  20
HETATM   20  N5  UNL     1       6.488   7.885   6.768  1.00  0.00    -0.269 N 
ATOM     21  H5  UNL     1       6.633   8.626   7.453  1.00  0.00     0.189 HD
BRANCH  20  22
HETATM   22  N6  UNL     1       5.222   7.333   6.587  1.00  0.00    -0.128 N 
ATOM     23  H6  UNL     1       5.044   6.380   6.904  1.00  0.00     0.205 HD
BRANCH  22  24
HETATM   24  C7  UNL     1       4.173   8.066   5.972  1.00  0.00     0.750 A 
HETATM   25  N7  UNL     1       3.421   9.066   6.478  1.00  0.00    -0.093 N 
HETATM   26  N8  UNL     1       2.544   9.492   5.593  1.00  0.00    -0.009 N 
ATOM     27  H7  UNL     1       3.520   9.442   7.421  1.00  0.00     0.208 HD
HETATM   28  C8  UNL     1       2.727   8.756   4.489  1.00  0.00     0.770 A 
HETATM   29  N10 UNL     1       2.266   8.590   3.243  1.00  0.00    -0.113 N 
HETATM   30  N13 UNL     1       3.723   7.883   4.716  1.00  0.00     0.207 N 
HETATM   31  N11 UNL     1       2.960   7.619   2.682  1.00  0.00    -0.116 N 
ATOM     32  H10 UNL     1       1.512   9.120   2.805  1.00  0.00     0.206 HD
HETATM   33  C9  UNL     1       3.846   7.183   3.567  1.00  0.00     0.727 A 
ATOM     34  H11 UNL     1       2.837   7.265   1.734  1.00  0.00     0.206 HD
BRANCH  26  35
HETATM   35  N9  UNL     1       1.616  10.511   5.787  1.00  0.00    -0.308 N 
ATOM     36  H92 UNL     1       0.628  10.507   5.534  1.00  0.00     0.179 HD
ATOM     37  H91 UNL     1       1.803  11.417   6.216  1.00  0.00     0.179 HD
ENDBRANCH  26  35
BRANCH  33  38
HETATM   38  N12 UNL     1       4.709   6.244   3.403  1.00  0.00    -0.232 N 
ATOM     39 2H12 UNL     1       5.216   6.096   2.530  1.00  0.00     0.174 HD
ATOM     40 1H12 UNL     1       4.996   5.546   4.088  1.00  0.00     0.174 HD
ENDBRANCH  33  38
ENDBRANCH  22  24
ENDBRANCH  20  22
ENDBRANCH  15  20
ENDBRANCH   8  11
ENDBRANCH   6   8
ENDBRANCH   5   6
BRANCH   5  41
HETATM   41  C10 UNL     1      10.701   7.791   0.477  1.00  0.00     0.072 A 
HETATM   42  C11 UNL     1      10.317   9.038   0.020  1.00  0.00     0.078 A 
HETATM   43  C12 UNL     1      10.941   9.622  -1.081  1.00  0.00     0.122 A 
HETATM   44  N17 UNL     1      11.924   8.966  -1.706  1.00  0.00    -0.177 N 
HETATM   45  C14 UNL     1      12.286   7.765  -1.256  1.00  0.00     0.677 A 
ATOM     46  H17 UNL     1      12.391   9.379  -2.514  1.00  0.00     0.185 HD
HETATM   47  N19 UNL     1      11.695   7.191  -0.198  1.00  0.00    -0.192 N 
ATOM     48  H19 UNL     1      12.011   6.270   0.105  1.00  0.00     0.184 HD
BRANCH  43  49
HETATM   49  N16 UNL     1      10.567  10.766  -1.478  1.00  0.00    -0.328 N 
ATOM     50  H16 UNL     1      11.054  11.575  -1.092  1.00  0.00     0.166 HD
BRANCH  49  51
HETATM   51  C13 UNL     1       9.518  11.020  -2.422  1.00  0.00     0.366 C 
BRANCH  51  52
HETATM   52  O2  UNL     1       9.148   9.880  -3.122  1.00  0.00    -0.355 OA
ATOM     53  H2  UNL     1       8.205   9.796  -3.207  1.00  0.00     0.214 HD
ENDBRANCH  51  52
BRANCH  51  54
HETATM   54  O3  UNL     1       8.402  11.501  -1.731  1.00  0.00    -0.355 OA
ATOM     55  H3  UNL     1       8.692  11.872  -0.905  1.00  0.00     0.214 HD
ENDBRANCH  51  54
ENDBRANCH  49  51
ENDBRANCH  43  49
BRANCH  45  56
HETATM   56  N18 UNL     1      13.250   7.133  -1.875  1.00  0.00    -0.234 N 
ATOM     57 2H18 UNL     1      13.422   7.324  -2.862  1.00  0.00     0.174 HD
ATOM     58 1H18 UNL     1      13.808   6.462  -1.347  1.00  0.00     0.174 HD
ENDBRANCH  45  56
ENDBRANCH   5  41
ENDBRANCH   3   5
TORSDOF 16
ENDMDL
MODEL 5
REMARK VINA RESULT: -6.415018734      3.735     10.375
REMARK  16 active torsions:
REMARK  status: ('A' for Active; 'I' for Inactive)
REMARK    1  A    between atoms: N2_3  and  C2_5 
REMARK    2  A    between atoms: C2_5  and  N3_6 
REMARK    3  A    between atoms: C2_5  and  C10_41 
REMARK    4  A    between atoms: N3_6  and  C3_8 
REMARK    5  A    between atoms: C3_8  and  O1_9 
REMARK    6  A    between atoms: C3_8  and  C4_11 
REMARK    7  A    between atoms: C6_15  and  N5_16 
REMARK    8  A    between atoms: N5_16  and  N6_18 
REMARK    9  A    between atoms: N6_18  and  C7_20 
REMARK   10  A    between atoms: N8_23  and  N9_24 
REMARK   11  A    between atoms: C9_32  and  N12_33 
REMARK   12  A    between atoms: C12_43  and  N16_44 
REMARK   13  A    between atoms: N16_44  and  C13_46 
REMARK   14  A    between atoms: C13_46  and  O2_47 
REMARK   15  A    between atoms: C13_46  and  O3_49 
REMARK   16  A    between atoms: C14_53  and  N18_54 
ROOT
HETATM    1  N1  UNL     1       5.155   5.767   0.771  1.00  0.00    -0.172 NA
HETATM    2  C1  UNL     1       4.809   5.863   1.871  1.00  0.00     0.179 C 
HETATM    3  N2  UNL     1       4.404   5.972   3.188  1.00  0.00    -0.301 N 
ATOM      4  H2  UNL     1       3.419   5.831   3.410  1.00  0.00     0.174 HD
ENDROOT
BRANCH   3   5
HETATM    5  C2  UNL     1       5.329   6.280   4.273  1.00  0.00     0.241 C 
BRANCH   5   6
HETATM    6  N3  UNL     1       6.558   6.825   3.856  1.00  0.00    -0.365 N 
ATOM      7  H3  UNL     1       6.575   7.744   3.413  1.00  0.00     0.158 HD
BRANCH   6   8
HETATM    8  C3  UNL     1       7.757   6.125   4.040  1.00  0.00     0.285 C 
BRANCH   8   9
HETATM    9  O1  UNL     1       8.126   6.183   5.404  1.00  0.00    -0.370 OA
ATOM     10  H1  UNL     1       9.036   5.926   5.494  1.00  0.00     0.212 HD
ENDBRANCH   8   9
BRANCH   8  11
HETATM   11  C4  UNL     1       8.880   6.449   3.163  1.00  0.00     0.145 A 
HETATM   12  N4  UNL     1      10.020   7.013   3.598  1.00  0.00    -0.347 N 
HETATM   13  C5  UNL     1      11.050   7.309   2.794  1.00  0.00     0.140 A 
ATOM     14  H4  UNL     1      10.105   7.226   4.592  1.00  0.00     0.166 HD
HETATM   15  C6  UNL     1      10.976   7.037   1.444  1.00  0.00     0.150 A 
HETATM   16  N14 UNL     1       9.832   6.472   1.017  1.00  0.00    -0.282 N 
HETATM   17  N15 UNL     1       8.818   6.187   1.839  1.00  0.00    -0.284 N 
ATOM     18  H14 UNL     1       9.735   6.254   0.026  1.00  0.00     0.188 HD
ATOM     19  H15 UNL     1       7.976   5.759   1.457  1.00  0.00     0.188 HD
BRANCH  15  20
HETATM   20  N5  UNL     1      12.051   7.337   0.551  1.00  0.00    -0.269 N 
ATOM     21  H5  UNL     1      12.898   7.786   0.898  1.00  0.00     0.189 HD
BRANCH  20  22
HETATM   22  N6  UNL     1      11.932   7.010  -0.798  1.00  0.00    -0.128 N 
ATOM     23  H6  UNL     1      11.564   6.095  -1.058  1.00  0.00     0.205 HD
BRANCH  22  24
HETATM   24  C7  UNL     1      12.311   7.920  -1.820  1.00  0.00     0.750 A 
HETATM   25  N7  UNL     1      11.627   8.968  -2.324  1.00  0.00    -0.093 N 
HETATM   26  N8  UNL     1      12.317   9.574  -3.267  1.00  0.00    -0.009 N 
ATOM     27  H7  UNL     1      10.697   9.253  -2.016  1.00  0.00     0.208 HD
HETATM   28  C8  UNL     1      13.475   8.908  -3.380  1.00  0.00     0.770 A 
HETATM   29  N10 UNL     1      14.626   8.902  -4.064  1.00  0.00    -0.113 N 
HETATM   30  N13 UNL     1      13.475   7.897  -2.496  1.00  0.00     0.207 N 
HETATM   31  N11 UNL     1      15.353   7.895  -3.620  1.00  0.00    -0.116 N 
ATOM     32  H10 UNL     1      14.894   9.559  -4.796  1.00  0.00     0.206 HD
HETATM   33  C9  UNL     1      14.664   7.278  -2.669  1.00  0.00     0.727 A 
ATOM     34  H11 UNL     1      16.282   7.635  -3.950  1.00  0.00     0.206 HD
BRANCH  26  35
HETATM   35  N9  UNL     1      11.907  10.687  -3.993  1.00  0.00    -0.308 N 
ATOM     36  H92 UNL     1      11.367  11.484  -3.656  1.00  0.00     0.179 HD
ATOM     37  H91 UNL     1      12.094  10.861  -4.981  1.00  0.00     0.179 HD
ENDBRANCH  26  35
BRANCH  33  38
HETATM   38  N12 UNL     1      15.029   6.250  -1.990  1.00  0.00    -0.232 N 
ATOM     39 2H12 UNL     1      15.736   5.589  -2.312  1.00  0.00     0.174 HD
ATOM     40 1H12 UNL     1      14.681   5.961  -1.076  1.00  0.00     0.174 HD
ENDBRANCH  33  38
ENDBRANCH  22  24
ENDBRANCH  20  22
ENDBRANCH  15  20
ENDBRANCH   8  11
ENDBRANCH   6   8
ENDBRANCH   5   6
BRANCH   5  41
HETATM   41  C10 UNL     1       4.618   7.328   5.083  1.00  0.00     0.072 A 
HETATM   42  C11 UNL     1       3.659   8.164   4.542  1.00  0.00     0.078 A 
HETATM   43  C12 UNL     1       3.020   9.123   5.326  1.00  0.00     0.122 A 
HETATM   44  N17 UNL     1       3.338   9.236   6.619  1.00  0.00    -0.177 N 
HETATM   45  C14 UNL     1       4.263   8.424   7.129  1.00  0.00     0.677 A 
ATOM     46  H17 UNL     1       2.880   9.933   7.207  1.00  0.00     0.185 HD
HETATM   47  N19 UNL     1       4.887   7.497   6.388  1.00  0.00    -0.192 N 
ATOM     48  H19 UNL     1       5.588   6.901   6.828  1.00  0.00     0.184 HD
BRANCH  43  49
HETATM   49  N16 UNL     1       2.144   9.876   4.803  1.00  0.00    -0.328 N 
ATOM     50  H16 UNL     1       2.464  10.546   4.104  1.00  0.00     0.166 HD
BRANCH  49  51
HETATM   51  C13 UNL     1       0.744   9.865   5.111  1.00  0.00     0.366 C 
BRANCH  51  52
HETATM   52  O2  UNL     1       0.107   8.724   4.644  1.00  0.00    -0.355 OA
ATOM     53  H2  UNL     1      -0.821   8.716   4.850  1.00  0.00     0.214 HD
ENDBRANCH  51  52
BRANCH  51  54
HETATM   54  O3  UNL     1       0.592   9.924   6.499  1.00  0.00    -0.355 OA
ATOM     55  H3  UNL     1      -0.331  10.036   6.699  1.00  0.00     0.214 HD
ENDBRANCH  51  54
ENDBRANCH  49  51
ENDBRANCH  43  49
BRANCH  45  56
HETATM   56  N18 UNL     1       4.566   8.544   8.397  1.00  0.00    -0.234 N 
ATOM     57 2H18 UNL     1       3.827   8.744   9.071  1.00  0.00     0.174 HD
ATOM     58 1H18 UNL     1       5.540   8.432   8.676  1.00  0.00     0.174 HD
ENDBRANCH  45  56
ENDBRANCH   5  41
ENDBRANCH   3   5
TORSDOF 16
ENDMDL
