MODEL 1
REMARK VINA RESULT: -8.198510795      0.000      0.000
REMARK  7 active torsions:
REMARK  status: ('A' for Active; 'I' for Inactive)
REMARK    1  A    between atoms: O1_2  and  C2_3 
REMARK    2  A    between atoms: C2_3  and  C3_4 
REMARK    3  A    between atoms: C3_4  and  C4_5 
REMARK    4  A    between atoms: C4_5  and  C5_6 
REMARK    5  A    between atoms: C5_6  and  C6_7 
REMARK    6  A    between atoms: C6_7  and  C7_8 
REMARK    7  A    between atoms: C18_19  and  O2_20 
ROOT
HETATM    1  C7  UNL     1     -12.837  -6.917 -15.081  1.00  0.00    -0.014 C 
HETATM    2  C8  UNL     1     -13.673  -7.569 -16.129  1.00  0.00     0.005 C 
HETATM    3  C9  UNL     1     -12.929  -7.893 -17.396  1.00  0.00     0.010 C 
HETATM    4  C10 UNL     1     -12.113  -6.690 -17.820  1.00  0.00    -0.036 C 
HETATM    5  C11 UNL     1     -13.107  -5.605 -18.212  1.00  0.00     0.016 C 
HETATM    6  C12 UNL     1     -11.214  -6.221 -16.723  1.00  0.00    -0.006 C 
HETATM    7  C13 UNL     1      -9.780  -6.067 -17.122  1.00  0.00     0.006 C 
HETATM    8  C14 UNL     1      -9.188  -7.299 -17.730  1.00  0.00     0.006 C 
HETATM    9  C15 UNL     1     -10.126  -7.925 -18.722  1.00  0.00    -0.005 C 
HETATM   10  C16 UNL     1      -9.342  -8.088 -20.026  1.00  0.00     0.001 C 
HETATM   11  C17 UNL     1      -8.031  -8.773 -19.800  1.00  0.00     0.037 C 
HETATM   12  C18 UNL     1      -8.061 -10.058 -20.592  1.00  0.00     0.119 C 
HETATM   13  C19 UNL     1      -9.513 -10.295 -20.954  1.00  0.00     0.041 C 
HETATM   14  C20 UNL     1     -10.146  -8.928 -20.975  1.00  0.00    -0.038 C 
HETATM   15  C21 UNL     1     -10.035  -8.323 -22.353  1.00  0.00     0.015 C 
HETATM   16  C22 UNL     1     -11.572  -8.969 -20.516  1.00  0.00     0.010 C 
HETATM   17  C23 UNL     1     -12.036  -7.546 -20.180  1.00  0.00     0.006 C 
HETATM   18  C24 UNL     1     -11.275  -6.978 -19.034  1.00  0.00    -0.002 C 
HETATM   19  C25 UNL     1     -11.373  -7.128 -15.495  1.00  0.00     0.010 C 
ENDROOT
BRANCH   1  20
HETATM   20  C6  UNL     1     -13.083  -7.440 -13.690  1.00  0.00     0.005 C 
BRANCH  20  21
HETATM   21  C5  UNL     1     -12.169  -8.631 -13.486  1.00  0.00     0.000 C 
BRANCH  21  22
HETATM   22  C4  UNL     1     -12.928  -9.863 -13.106  1.00  0.00     0.002 C 
BRANCH  22  23
HETATM   23  C3  UNL     1     -13.179 -10.817 -14.217  1.00  0.00     0.026 C 
BRANCH  23  24
HETATM   24  C2  UNL     1     -12.135 -10.898 -15.276  1.00  0.00     0.167 C 
BRANCH  24  25
HETATM   25  O1  UNL     1     -11.168 -11.849 -15.120  1.00  0.00    -0.396 OA
HETATM   26  C1  UNL     1     -11.757 -13.085 -14.918  1.00  0.00     0.201 C 
ENDBRANCH  24  25
ENDBRANCH  23  24
ENDBRANCH  22  23
ENDBRANCH  21  22
ENDBRANCH  20  21
ENDBRANCH   1  20
BRANCH  12  27
HETATM   27  O2  UNL     1      -7.271  -9.987 -21.724  1.00  0.00    -0.396 OA
ATOM     28  H2  UNL     1      -7.790  -9.974 -22.520  1.00  0.00     0.210 HD
ENDBRANCH  12  27
TORSDOF 7
ENDMDL
MODEL 2
REMARK VINA RESULT: -7.805752545      2.329      6.663
REMARK  7 active torsions:
REMARK  status: ('A' for Active; 'I' for Inactive)
REMARK    1  A    between atoms: O1_2  and  C2_3 
REMARK    2  A    between atoms: C2_3  and  C3_4 
REMARK    3  A    between atoms: C3_4  and  C4_5 
REMARK    4  A    between atoms: C4_5  and  C5_6 
REMARK    5  A    between atoms: C5_6  and  C6_7 
REMARK    6  A    between atoms: C6_7  and  C7_8 
REMARK    7  A    between atoms: C18_19  and  O2_20 
ROOT
HETATM    1  C7  UNL     1      -9.971  -8.133 -21.745  1.00  0.00    -0.014 C 
HETATM    2  C8  UNL     1     -11.019  -9.192 -21.702  1.00  0.00     0.005 C 
HETATM    3  C9  UNL     1     -11.348  -9.676 -20.317  1.00  0.00     0.010 C 
HETATM    4  C10 UNL     1     -10.063  -9.952 -19.564  1.00  0.00    -0.036 C 
HETATM    5  C11 UNL     1      -9.402 -11.139 -20.251  1.00  0.00     0.016 C 
HETATM    6  C12 UNL     1      -9.160  -8.763 -19.563  1.00  0.00    -0.006 C 
HETATM    7  C13 UNL     1      -8.680  -8.351 -18.207  1.00  0.00     0.006 C 
HETATM    8  C14 UNL     1      -9.782  -8.114 -17.224  1.00  0.00     0.006 C 
HETATM    9  C15 UNL     1     -10.824  -9.193 -17.299  1.00  0.00    -0.005 C 
HETATM   10  C16 UNL     1     -10.998  -9.736 -15.879  1.00  0.00     0.001 C 
HETATM   11  C17 UNL     1     -11.224  -8.635 -14.891  1.00  0.00     0.037 C 
HETATM   12  C18 UNL     1     -12.589  -8.860 -14.284  1.00  0.00     0.119 C 
HETATM   13  C19 UNL     1     -13.294  -9.848 -15.191  1.00  0.00     0.041 C 
HETATM   14  C20 UNL     1     -12.194 -10.641 -15.847  1.00  0.00    -0.038 C 
HETATM   15  C21 UNL     1     -11.852 -11.849 -15.010  1.00  0.00     0.015 C 
HETATM   16  C22 UNL     1     -12.555 -11.037 -17.247  1.00  0.00     0.010 C 
HETATM   17  C23 UNL     1     -11.288 -11.479 -17.990  1.00  0.00     0.006 C 
HETATM   18  C24 UNL     1     -10.321 -10.356 -18.139  1.00  0.00    -0.002 C 
HETATM   19  C25 UNL     1      -9.828  -7.601 -20.312  1.00  0.00     0.010 C 
ENDROOT
BRANCH   1  20
HETATM   20  C6  UNL     1     -10.272  -7.013 -22.707  1.00  0.00     0.005 C 
BRANCH  20  21
HETATM   21  C5  UNL     1     -11.771  -7.000 -22.933  1.00  0.00     0.000 C 
BRANCH  21  22
HETATM   22  C4  UNL     1     -12.427  -5.822 -22.285  1.00  0.00     0.002 C 
BRANCH  22  23
HETATM   23  C3  UNL     1     -13.163  -6.122 -21.029  1.00  0.00     0.026 C 
BRANCH  23  24
HETATM   24  C2  UNL     1     -13.586  -4.953 -20.209  1.00  0.00     0.167 C 
BRANCH  24  25
HETATM   25  O1  UNL     1     -13.048  -4.848 -18.958  1.00  0.00    -0.396 OA
HETATM   26  C1  UNL     1     -12.694  -6.103 -18.495  1.00  0.00     0.201 C 
ENDBRANCH  24  25
ENDBRANCH  23  24
ENDBRANCH  22  23
ENDBRANCH  21  22
ENDBRANCH  20  21
ENDBRANCH   1  20
BRANCH  12  27
HETATM   27  O2  UNL     1     -12.507  -9.341 -12.991  1.00  0.00    -0.396 OA
ATOM     28  H2  UNL     1     -11.656  -9.177 -12.603  1.00  0.00     0.210 HD
ENDBRANCH  12  27
TORSDOF 7
ENDMDL
MODEL 3
REMARK VINA RESULT: -7.783668128      2.409      6.867
REMARK  7 active torsions:
REMARK  status: ('A' for Active; 'I' for Inactive)
REMARK    1  A    between atoms: O1_2  and  C2_3 
REMARK    2  A    between atoms: C2_3  and  C3_4 
REMARK    3  A    between atoms: C3_4  and  C4_5 
REMARK    4  A    between atoms: C4_5  and  C5_6 
REMARK    5  A    between atoms: C5_6  and  C6_7 
REMARK    6  A    between atoms: C6_7  and  C7_8 
REMARK    7  A    between atoms: C18_19  and  O2_20 
ROOT
HETATM    1  C7  UNL     1      -9.588  -8.281 -21.865  1.00  0.00    -0.014 C 
HETATM    2  C8  UNL     1     -10.817  -9.103 -21.673  1.00  0.00     0.005 C 
HETATM    3  C9  UNL     1     -11.219  -9.283 -20.236  1.00  0.00     0.010 C 
HETATM    4  C10 UNL     1     -10.002  -9.668 -19.420  1.00  0.00    -0.036 C 
HETATM    5  C11 UNL     1      -9.584 -11.055 -19.890  1.00  0.00     0.016 C 
HETATM    6  C12 UNL     1      -8.890  -8.686 -19.592  1.00  0.00    -0.006 C 
HETATM    7  C13 UNL     1      -8.329  -8.156 -18.311  1.00  0.00     0.006 C 
HETATM    8  C14 UNL     1      -9.357  -7.558 -17.404  1.00  0.00     0.006 C 
HETATM    9  C15 UNL     1     -10.585  -8.419 -17.326  1.00  0.00    -0.005 C 
HETATM   10  C16 UNL     1     -10.845  -8.680 -15.840  1.00  0.00     0.001 C 
HETATM   11  C17 UNL     1     -10.850  -7.410 -15.049  1.00  0.00     0.037 C 
HETATM   12  C18 UNL     1     -12.227  -7.272 -14.444  1.00  0.00     0.119 C 
HETATM   13  C19 UNL     1     -13.115  -8.244 -15.193  1.00  0.00     0.041 C 
HETATM   14  C20 UNL     1     -12.191  -9.326 -15.688  1.00  0.00    -0.038 C 
HETATM   15  C21 UNL     1     -12.075 -10.424 -14.659  1.00  0.00     0.015 C 
HETATM   16  C22 UNL     1     -12.633  -9.871 -17.013  1.00  0.00     0.010 C 
HETATM   17  C23 UNL     1     -11.479 -10.659 -17.645  1.00  0.00     0.006 C 
HETATM   18  C24 UNL     1     -10.319  -9.778 -17.954  1.00  0.00    -0.002 C 
HETATM   19  C25 UNL     1      -9.334  -7.558 -20.534  1.00  0.00     0.010 C 
ENDROOT
BRANCH   1  20
HETATM   20  C6  UNL     1      -9.681  -7.297 -23.002  1.00  0.00     0.005 C 
BRANCH  20  21
HETATM   21  C5  UNL     1     -11.138  -7.214 -23.412  1.00  0.00     0.000 C 
BRANCH  21  22
HETATM   22  C4  UNL     1     -11.830  -6.040 -22.794  1.00  0.00     0.002 C 
BRANCH  22  23
HETATM   23  C3  UNL     1     -13.040  -6.369 -21.999  1.00  0.00     0.026 C 
BRANCH  23  24
HETATM   24  C2  UNL     1     -13.028  -5.964 -20.565  1.00  0.00     0.167 C 
BRANCH  24  25
HETATM   25  O1  UNL     1     -13.453  -4.698 -20.277  1.00  0.00    -0.396 OA
HETATM   26  C1  UNL     1     -14.744  -4.740 -19.783  1.00  0.00     0.201 C 
ENDBRANCH  24  25
ENDBRANCH  23  24
ENDBRANCH  22  23
ENDBRANCH  21  22
ENDBRANCH  20  21
ENDBRANCH   1  20
BRANCH  12  27
HETATM   27  O2  UNL     1     -12.226  -7.541 -13.089  1.00  0.00    -0.396 OA
ATOM     28  H2  UNL     1     -13.039  -7.942 -12.805  1.00  0.00     0.210 HD
ENDBRANCH  12  27
TORSDOF 7
ENDMDL
MODEL 4
REMARK VINA RESULT: -7.742949465      2.475      5.444
REMARK  7 active torsions:
REMARK  status: ('A' for Active; 'I' for Inactive)
REMARK    1  A    between atoms: O1_2  and  C2_3 
REMARK    2  A    between atoms: C2_3  and  C3_4 
REMARK    3  A    between atoms: C3_4  and  C4_5 
REMARK    4  A    between atoms: C4_5  and  C5_6 
REMARK    5  A    between atoms: C5_6  and  C6_7 
REMARK    6  A    between atoms: C6_7  and  C7_8 
REMARK    7  A    between atoms: C18_19  and  O2_20 
ROOT
HETATM    1  C7  UNL     1     -12.575  -5.618 -19.788  1.00  0.00    -0.014 C 
HETATM    2  C8  UNL     1     -12.434  -6.837 -20.633  1.00  0.00     0.005 C 
HETATM    3  C9  UNL     1     -12.061  -8.076 -19.868  1.00  0.00     0.010 C 
HETATM    4  C10 UNL     1     -10.918  -7.758 -18.926  1.00  0.00    -0.036 C 
HETATM    5  C11 UNL     1      -9.707  -7.453 -19.798  1.00  0.00     0.016 C 
HETATM    6  C12 UNL     1     -11.242  -6.603 -18.037  1.00  0.00    -0.006 C 
HETATM    7  C13 UNL     1     -11.036  -6.868 -16.579  1.00  0.00     0.006 C 
HETATM    8  C14 UNL     1     -11.763  -8.075 -16.076  1.00  0.00     0.006 C 
HETATM    9  C15 UNL     1     -11.621  -9.232 -17.023  1.00  0.00    -0.005 C 
HETATM   10  C16 UNL     1     -11.099 -10.412 -16.201  1.00  0.00     0.001 C 
HETATM   11  C17 UNL     1     -11.920 -10.633 -14.970  1.00  0.00     0.037 C 
HETATM   12  C18 UNL     1     -12.523 -12.013 -15.083  1.00  0.00     0.119 C 
HETATM   13  C19 UNL     1     -12.367 -12.423 -16.533  1.00  0.00     0.041 C 
HETATM   14  C20 UNL     1     -11.171 -11.657 -17.036  1.00  0.00    -0.038 C 
HETATM   15  C21 UNL     1      -9.909 -12.453 -16.808  1.00  0.00     0.015 C 
HETATM   16  C22 UNL     1     -11.320 -11.279 -18.478  1.00  0.00     0.010 C 
HETATM   17  C23 UNL     1     -10.296 -10.190 -18.824  1.00  0.00     0.006 C 
HETATM   18  C24 UNL     1     -10.553  -8.936 -18.065  1.00  0.00    -0.002 C 
HETATM   19  C25 UNL     1     -12.662  -6.101 -18.333  1.00  0.00     0.010 C 
ENDROOT
BRANCH   1  20
HETATM   20  C6  UNL     1     -13.764  -4.762 -20.142  1.00  0.00     0.005 C 
BRANCH  20  21
HETATM   21  C5  UNL     1     -14.435  -4.360 -18.844  1.00  0.00     0.000 C 
BRANCH  21  22
HETATM   22  C4  UNL     1     -15.895  -4.688 -18.841  1.00  0.00     0.002 C 
BRANCH  22  23
HETATM   23  C3  UNL     1     -16.284  -5.823 -17.965  1.00  0.00     0.026 C 
BRANCH  23  24
HETATM   24  C2  UNL     1     -16.767  -7.057 -18.645  1.00  0.00     0.167 C 
BRANCH  24  25
HETATM   25  O1  UNL     1     -16.512  -8.246 -18.023  1.00  0.00    -0.396 OA
HETATM   26  C1  UNL     1     -15.152  -8.378 -17.807  1.00  0.00     0.201 C 
ENDBRANCH  24  25
ENDBRANCH  23  24
ENDBRANCH  22  23
ENDBRANCH  21  22
ENDBRANCH  20  21
ENDBRANCH   1  20
BRANCH  12  27
HETATM   27  O2  UNL     1     -11.906 -12.918 -14.240  1.00  0.00    -0.396 OA
ATOM     28  H2  UNL     1     -11.054 -13.184 -14.566  1.00  0.00     0.210 HD
ENDBRANCH  12  27
TORSDOF 7
ENDMDL
MODEL 5
REMARK VINA RESULT: -7.366013540      2.379      4.737
REMARK  7 active torsions:
REMARK  status: ('A' for Active; 'I' for Inactive)
REMARK    1  A    between atoms: O1_2  and  C2_3 
REMARK    2  A    between atoms: C2_3  and  C3_4 
REMARK    3  A    between atoms: C3_4  and  C4_5 
REMARK    4  A    between atoms: C4_5  and  C5_6 
REMARK    5  A    between atoms: C5_6  and  C6_7 
REMARK    6  A    between atoms: C6_7  and  C7_8 
REMARK    7  A    between atoms: C18_19  and  O2_20 
ROOT
HETATM    1  C7  UNL     1     -14.991  -7.200 -16.790  1.00  0.00    -0.014 C 
HETATM    2  C8  UNL     1     -13.922  -6.184 -16.576  1.00  0.00     0.005 C 
HETATM    3  C9  UNL     1     -12.589  -6.560 -17.162  1.00  0.00     0.010 C 
HETATM    4  C10 UNL     1     -12.262  -7.990 -16.784  1.00  0.00    -0.036 C 
HETATM    5  C11 UNL     1     -12.049  -8.004 -15.276  1.00  0.00     0.016 C 
HETATM    6  C12 UNL     1     -13.355  -8.928 -17.179  1.00  0.00    -0.006 C 
HETATM    7  C13 UNL     1     -12.900 -10.103 -17.985  1.00  0.00     0.006 C 
HETATM    8  C14 UNL     1     -12.125  -9.732 -19.209  1.00  0.00     0.006 C 
HETATM    9  C15 UNL     1     -11.120  -8.655 -18.914  1.00  0.00    -0.005 C 
HETATM   10  C16 UNL     1      -9.766  -9.172 -19.405  1.00  0.00     0.001 C 
HETATM   11  C17 UNL     1      -9.842  -9.668 -20.815  1.00  0.00     0.037 C 
HETATM   12  C18 UNL     1      -8.912  -8.808 -21.636  1.00  0.00     0.119 C 
HETATM   13  C19 UNL     1      -8.603  -7.592 -20.787  1.00  0.00     0.041 C 
HETATM   14  C20 UNL     1      -8.772  -8.049 -19.362  1.00  0.00    -0.038 C 
HETATM   15  C21 UNL     1      -7.468  -8.591 -18.830  1.00  0.00     0.015 C 
HETATM   16  C22 UNL     1      -9.299  -6.953 -18.486  1.00  0.00     0.010 C 
HETATM   17  C23 UNL     1      -9.819  -7.558 -17.176  1.00  0.00     0.006 C 
HETATM   18  C24 UNL     1     -10.980  -8.460 -17.413  1.00  0.00    -0.002 C 
HETATM   19  C25 UNL     1     -14.479  -8.152 -17.880  1.00  0.00     0.010 C 
ENDROOT
BRANCH   1  20
HETATM   20  C6  UNL     1     -16.326  -6.614 -17.173  1.00  0.00     0.005 C 
BRANCH  20  21
HETATM   21  C5  UNL     1     -16.276  -6.306 -18.656  1.00  0.00     0.000 C 
BRANCH  21  22
HETATM   22  C4  UNL     1     -15.995  -4.860 -18.920  1.00  0.00     0.002 C 
BRANCH  22  23
HETATM   23  C3  UNL     1     -14.776  -4.591 -19.725  1.00  0.00     0.026 C 
BRANCH  23  24
HETATM   24  C2  UNL     1     -14.255  -5.720 -20.545  1.00  0.00     0.167 C 
BRANCH  24  25
HETATM   25  O1  UNL     1     -12.908  -5.939 -20.511  1.00  0.00    -0.396 OA
HETATM   26  C1  UNL     1     -12.511  -6.587 -21.667  1.00  0.00     0.201 C 
ENDBRANCH  24  25
ENDBRANCH  23  24
ENDBRANCH  22  23
ENDBRANCH  21  22
ENDBRANCH  20  21
ENDBRANCH   1  20
BRANCH  12  27
HETATM   27  O2  UNL     1      -7.755  -9.481 -21.981  1.00  0.00    -0.396 OA
ATOM     28  H2  UNL     1      -7.888 -10.421 -22.020  1.00  0.00     0.210 HD
ENDBRANCH  12  27
TORSDOF 7
ENDMDL
