MODEL 1
REMARK VINA RESULT: -8.374238510      0.000      0.000
REMARK  7 active torsions:
REMARK  status: ('A' for Active; 'I' for Inactive)
REMARK    1  A    between atoms: C2_2  and  C3_3 
REMARK    2  A    between atoms: C2_2  and  C22_24 
REMARK    3  A    between atoms: C3_3  and  C4_4 
REMARK    4  A    between atoms: C4_4  and  C5_5 
REMARK    5  A    between atoms: C5_5  and  C6_6 
REMARK    6  A    between atoms: C6_6  and  N1_9 
REMARK    7  A    between atoms: N1_9  and  C9_11 
ROOT
HETATM    1  N1  UNL     1     -12.982  -6.211 -18.302  1.00  0.00    -0.405 N 
ATOM      2  H1  UNL     1     -12.220  -5.702 -18.751  1.00  0.00     0.154 HD
ENDROOT
BRANCH   1   3
HETATM    3  C6  UNL     1     -14.260  -5.902 -18.704  1.00  0.00     0.019 C 
HETATM    4  C7  UNL     1     -15.380  -6.806 -18.268  1.00  0.00     0.037 C 
HETATM    5  C8  UNL     1     -14.723  -4.469 -18.408  1.00  0.00     0.037 C 
BRANCH   3   6
HETATM    6  C5  UNL     1     -14.278  -5.963 -20.249  1.00  0.00     0.030 C 
BRANCH   6   7
HETATM    7  C4  UNL     1     -12.870  -5.882 -20.783  1.00  0.00     0.003 C 
BRANCH   7   8
HETATM    8  C3  UNL     1     -12.631  -6.740 -21.960  1.00  0.00     0.007 C 
BRANCH   8   9
HETATM    9  C2  UNL     1     -11.270  -6.683 -22.547  1.00  0.00     0.011 C 
HETATM   10  C1  UNL     1     -11.385  -6.714 -24.065  1.00  0.00     0.012 C 
BRANCH   9  11
HETATM   11  C22 UNL     1     -10.521  -7.962 -22.187  1.00  0.00     0.136 A 
HETATM   12  C23 UNL     1      -9.640  -7.826 -20.998  1.00  0.00     0.043 A 
HETATM   13  C24 UNL     1      -9.989  -8.991 -20.135  1.00  0.00     0.113 A 
HETATM   14  C25 UNL     1     -11.145  -9.668 -20.792  1.00  0.00     0.259 A 
HETATM   15  O1  UNL     1     -11.823 -10.627 -20.363  1.00  0.00    -0.265 OA
HETATM   16  O2  UNL     1     -11.365  -9.051 -21.996  1.00  0.00    -0.316 OA
ENDBRANCH   9  11
ENDBRANCH   8   9
ENDBRANCH   7   8
ENDBRANCH   6   7
ENDBRANCH   3   6
ENDBRANCH   1   3
BRANCH   1  17
HETATM   17  C9  UNL     1     -12.632  -7.149 -17.346  1.00  0.00     0.028 C 
HETATM   18  C10 UNL     1     -13.178  -6.907 -15.957  1.00  0.00     0.039 C 
HETATM   19  C11 UNL     1     -12.556  -7.823 -14.926  1.00  0.00    -0.040 C 
HETATM   20  C12 UNL     1     -13.132  -7.445 -13.576  1.00  0.00     0.015 C 
HETATM   21  C13 UNL     1     -11.071  -7.571 -14.860  1.00  0.00     0.018 C 
HETATM   22  C19 UNL     1     -12.878  -9.241 -15.278  1.00  0.00     0.018 C 
HETATM   23  C14 UNL     1     -10.517  -7.942 -16.218  1.00  0.00    -0.040 C 
HETATM   24  C15 UNL     1      -9.037  -7.740 -16.182  1.00  0.00     0.015 C 
HETATM   25  C16 UNL     1     -10.821  -9.374 -16.581  1.00  0.00     0.018 C 
HETATM   26  C21 UNL     1     -11.103  -7.057 -17.244  1.00  0.00     0.039 C 
HETATM   27  C17 UNL     1     -12.300  -9.521 -16.660  1.00  0.00    -0.040 C 
HETATM   28  C18 UNL     1     -12.643 -10.950 -16.988  1.00  0.00     0.015 C 
HETATM   29  C20 UNL     1     -12.930  -8.592 -17.693  1.00  0.00     0.039 C 
ENDBRANCH   1  17
TORSDOF 7
ENDMDL
MODEL 2
REMARK VINA RESULT: -8.344245885      1.160      1.943
REMARK  7 active torsions:
REMARK  status: ('A' for Active; 'I' for Inactive)
REMARK    1  A    between atoms: C2_2  and  C3_3 
REMARK    2  A    between atoms: C2_2  and  C22_24 
REMARK    3  A    between atoms: C3_3  and  C4_4 
REMARK    4  A    between atoms: C4_4  and  C5_5 
REMARK    5  A    between atoms: C5_5  and  C6_6 
REMARK    6  A    between atoms: C6_6  and  N1_9 
REMARK    7  A    between atoms: N1_9  and  C9_11 
ROOT
HETATM    1  N1  UNL     1     -13.791  -6.031 -17.543  1.00  0.00    -0.405 N 
ATOM      2  H1  UNL     1     -13.334  -5.121 -17.600  1.00  0.00     0.154 HD
ENDROOT
BRANCH   1   3
HETATM    3  C6  UNL     1     -14.997  -6.166 -18.190  1.00  0.00     0.019 C 
HETATM    4  C7  UNL     1     -15.757  -7.452 -18.015  1.00  0.00     0.037 C 
HETATM    5  C8  UNL     1     -16.007  -5.032 -17.959  1.00  0.00     0.037 C 
BRANCH   3   6
HETATM    6  C5  UNL     1     -14.711  -6.075 -19.707  1.00  0.00     0.030 C 
BRANCH   6   7
HETATM    7  C4  UNL     1     -13.420  -5.332 -19.943  1.00  0.00     0.003 C 
BRANCH   7   8
HETATM    8  C3  UNL     1     -12.596  -5.904 -21.026  1.00  0.00     0.007 C 
BRANCH   8   9
HETATM    9  C2  UNL     1     -12.204  -7.326 -20.869  1.00  0.00     0.011 C 
HETATM   10  C1  UNL     1     -10.911  -7.397 -20.071  1.00  0.00     0.012 C 
BRANCH   9  11
HETATM   11  C22 UNL     1     -11.848  -7.895 -22.239  1.00  0.00     0.136 A 
HETATM   12  C23 UNL     1     -12.006  -6.923 -23.352  1.00  0.00     0.043 A 
HETATM   13  C24 UNL     1     -10.723  -7.004 -24.109  1.00  0.00     0.113 A 
HETATM   14  C25 UNL     1      -9.832  -7.909 -23.327  1.00  0.00     0.259 A 
HETATM   15  O1  UNL     1      -8.630  -8.179 -23.540  1.00  0.00    -0.265 OA
HETATM   16  O2  UNL     1     -10.562  -8.426 -22.289  1.00  0.00    -0.316 OA
ENDBRANCH   9  11
ENDBRANCH   8   9
ENDBRANCH   7   8
ENDBRANCH   6   7
ENDBRANCH   3   6
ENDBRANCH   1   3
BRANCH   1  17
HETATM   17  C9  UNL     1     -13.140  -7.016 -16.821  1.00  0.00     0.028 C 
HETATM   18  C10 UNL     1     -13.517  -7.120 -15.360  1.00  0.00     0.039 C 
HETATM   19  C11 UNL     1     -12.593  -8.039 -14.590  1.00  0.00    -0.040 C 
HETATM   20  C12 UNL     1     -13.032  -8.011 -13.140  1.00  0.00     0.015 C 
HETATM   21  C13 UNL     1     -11.189  -7.495 -14.639  1.00  0.00     0.018 C 
HETATM   22  C19 UNL     1     -12.692  -9.417 -15.163  1.00  0.00     0.018 C 
HETATM   23  C14 UNL     1     -10.774  -7.518 -16.094  1.00  0.00    -0.040 C 
HETATM   24  C15 UNL     1      -9.369  -7.019 -16.180  1.00  0.00     0.015 C 
HETATM   25  C16 UNL     1     -10.853  -8.906 -16.681  1.00  0.00     0.018 C 
HETATM   26  C21 UNL     1     -11.656  -6.623 -16.868  1.00  0.00     0.039 C 
HETATM   27  C17 UNL     1     -12.274  -9.344 -16.627  1.00  0.00    -0.040 C 
HETATM   28  C18 UNL     1     -12.387 -10.742 -17.177  1.00  0.00     0.015 C 
HETATM   29  C20 UNL     1     -13.208  -8.415 -17.396  1.00  0.00     0.039 C 
ENDBRANCH   1  17
TORSDOF 7
ENDMDL
MODEL 3
REMARK VINA RESULT: -8.293677726      0.574      2.192
REMARK  7 active torsions:
REMARK  status: ('A' for Active; 'I' for Inactive)
REMARK    1  A    between atoms: C2_2  and  C3_3 
REMARK    2  A    between atoms: C2_2  and  C22_24 
REMARK    3  A    between atoms: C3_3  and  C4_4 
REMARK    4  A    between atoms: C4_4  and  C5_5 
REMARK    5  A    between atoms: C5_5  and  C6_6 
REMARK    6  A    between atoms: C6_6  and  N1_9 
REMARK    7  A    between atoms: N1_9  and  C9_11 
ROOT
HETATM    1  N1  UNL     1     -14.008  -7.340 -18.494  1.00  0.00    -0.405 N 
ATOM      2  H1  UNL     1     -14.242  -8.090 -19.145  1.00  0.00     0.154 HD
ENDROOT
BRANCH   1   3
HETATM    3  C6  UNL     1     -14.545  -6.100 -18.753  1.00  0.00     0.019 C 
HETATM    4  C7  UNL     1     -15.988  -5.864 -18.406  1.00  0.00     0.037 C 
HETATM    5  C8  UNL     1     -13.763  -4.906 -18.187  1.00  0.00     0.037 C 
BRANCH   3   6
HETATM    6  C5  UNL     1     -14.461  -5.879 -20.282  1.00  0.00     0.030 C 
BRANCH   6   7
HETATM    7  C4  UNL     1     -13.021  -5.930 -20.730  1.00  0.00     0.003 C 
BRANCH   7   8
HETATM    8  C3  UNL     1     -12.815  -6.694 -21.977  1.00  0.00     0.007 C 
BRANCH   8   9
HETATM    9  C2  UNL     1     -11.452  -6.640 -22.560  1.00  0.00     0.011 C 
HETATM   10  C1  UNL     1     -11.563  -6.632 -24.077  1.00  0.00     0.012 C 
BRANCH   9  11
HETATM   11  C22 UNL     1     -10.721  -7.938 -22.230  1.00  0.00     0.136 A 
HETATM   12  C23 UNL     1      -9.720  -7.802 -21.140  1.00  0.00     0.043 A 
HETATM   13  C24 UNL     1     -10.027  -8.924 -20.205  1.00  0.00     0.113 A 
HETATM   14  C25 UNL     1     -11.268  -9.570 -20.718  1.00  0.00     0.259 A 
HETATM   15  O1  UNL     1     -11.937 -10.485 -20.189  1.00  0.00    -0.265 OA
HETATM   16  O2  UNL     1     -11.585  -8.983 -21.916  1.00  0.00    -0.316 OA
ENDBRANCH   9  11
ENDBRANCH   8   9
ENDBRANCH   7   8
ENDBRANCH   6   7
ENDBRANCH   3   6
ENDBRANCH   1   3
BRANCH   1  17
HETATM   17  C9  UNL     1     -13.182  -7.664 -17.432  1.00  0.00     0.028 C 
HETATM   18  C10 UNL     1     -11.733  -7.259 -17.579  1.00  0.00     0.039 C 
HETATM   19  C11 UNL     1     -10.854  -7.862 -16.505  1.00  0.00    -0.040 C 
HETATM   20  C12 UNL     1      -9.428  -7.437 -16.793  1.00  0.00     0.015 C 
HETATM   21  C13 UNL     1     -10.898  -9.365 -16.605  1.00  0.00     0.018 C 
HETATM   22  C19 UNL     1     -11.310  -7.366 -15.169  1.00  0.00     0.018 C 
HETATM   23  C14 UNL     1     -12.329  -9.768 -16.327  1.00  0.00    -0.040 C 
HETATM   24  C15 UNL     1     -12.407 -11.259 -16.381  1.00  0.00     0.015 C 
HETATM   25  C16 UNL     1     -12.799  -9.289 -14.976  1.00  0.00     0.018 C 
HETATM   26  C21 UNL     1     -13.209  -9.198 -17.367  1.00  0.00     0.039 C 
HETATM   27  C17 UNL     1     -12.759  -7.801 -14.981  1.00  0.00    -0.040 C 
HETATM   28  C18 UNL     1     -13.191  -7.286 -13.634  1.00  0.00     0.015 C 
HETATM   29  C20 UNL     1     -13.638  -7.191 -16.069  1.00  0.00     0.039 C 
ENDBRANCH   1  17
TORSDOF 7
ENDMDL
MODEL 4
REMARK VINA RESULT: -8.240546582      1.261      2.649
REMARK  7 active torsions:
REMARK  status: ('A' for Active; 'I' for Inactive)
REMARK    1  A    between atoms: C2_2  and  C3_3 
REMARK    2  A    between atoms: C2_2  and  C22_24 
REMARK    3  A    between atoms: C3_3  and  C4_4 
REMARK    4  A    between atoms: C4_4  and  C5_5 
REMARK    5  A    between atoms: C5_5  and  C6_6 
REMARK    6  A    between atoms: C6_6  and  N1_9 
REMARK    7  A    between atoms: N1_9  and  C9_11 
ROOT
HETATM    1  N1  UNL     1     -13.584  -5.868 -17.237  1.00  0.00    -0.405 N 
ATOM      2  H1  UNL     1     -13.919  -5.222 -16.523  1.00  0.00     0.154 HD
ENDROOT
BRANCH   1   3
HETATM    3  C6  UNL     1     -13.937  -5.599 -18.538  1.00  0.00     0.019 C 
HETATM    4  C7  UNL     1     -14.958  -6.485 -19.196  1.00  0.00     0.037 C 
HETATM    5  C8  UNL     1     -14.371  -4.154 -18.825  1.00  0.00     0.037 C 
BRANCH   3   6
HETATM    6  C5  UNL     1     -12.661  -5.756 -19.398  1.00  0.00     0.030 C 
BRANCH   6   7
HETATM    7  C4  UNL     1     -12.975  -6.541 -20.647  1.00  0.00     0.003 C 
BRANCH   7   8
HETATM    8  C3  UNL     1     -11.864  -6.582 -21.618  1.00  0.00     0.007 C 
BRANCH   8   9
HETATM    9  C2  UNL     1     -11.183  -7.890 -21.778  1.00  0.00     0.011 C 
HETATM   10  C1  UNL     1     -11.696  -8.848 -20.713  1.00  0.00     0.012 C 
BRANCH   9  11
HETATM   11  C22 UNL     1      -9.700  -7.717 -21.464  1.00  0.00     0.136 A 
HETATM   12  C23 UNL     1      -9.401  -7.626 -20.011  1.00  0.00     0.043 A 
HETATM   13  C24 UNL     1      -8.296  -8.604 -19.792  1.00  0.00     0.113 A 
HETATM   14  C25 UNL     1      -8.099  -9.312 -21.089  1.00  0.00     0.259 A 
HETATM   15  O1  UNL     1      -7.346 -10.281 -21.333  1.00  0.00    -0.265 OA
HETATM   16  O2  UNL     1      -8.907  -8.716 -22.021  1.00  0.00    -0.316 OA
ENDBRANCH   9  11
ENDBRANCH   8   9
ENDBRANCH   7   8
ENDBRANCH   6   7
ENDBRANCH   3   6
ENDBRANCH   1   3
BRANCH   1  17
HETATM   17  C9  UNL     1     -12.815  -6.935 -16.806  1.00  0.00     0.028 C 
HETATM   18  C10 UNL     1     -13.125  -8.270 -17.445  1.00  0.00     0.039 C 
HETATM   19  C11 UNL     1     -12.425  -9.418 -16.751  1.00  0.00    -0.040 C 
HETATM   20  C12 UNL     1     -12.860 -10.697 -17.437  1.00  0.00     0.015 C 
HETATM   21  C13 UNL     1     -12.893  -9.501 -15.321  1.00  0.00     0.018 C 
HETATM   22  C19 UNL     1     -10.946  -9.220 -16.856  1.00  0.00     0.018 C 
HETATM   23  C14 UNL     1     -12.461  -8.212 -14.656  1.00  0.00    -0.040 C 
HETATM   24  C15 UNL     1     -12.877  -8.271 -13.223  1.00  0.00     0.015 C 
HETATM   25  C16 UNL     1     -10.969  -8.005 -14.740  1.00  0.00     0.018 C 
HETATM   26  C21 UNL     1     -13.137  -7.074 -15.311  1.00  0.00     0.039 C 
HETATM   27  C17 UNL     1     -10.604  -7.897 -16.179  1.00  0.00    -0.040 C 
HETATM   28  C18 UNL     1      -9.113  -7.723 -16.304  1.00  0.00     0.015 C 
HETATM   29  C20 UNL     1     -11.315  -6.746 -16.883  1.00  0.00     0.039 C 
ENDBRANCH   1  17
TORSDOF 7
ENDMDL
MODEL 5
REMARK VINA RESULT: -8.217182318      2.062      5.775
REMARK  7 active torsions:
REMARK  status: ('A' for Active; 'I' for Inactive)
REMARK    1  A    between atoms: C2_2  and  C3_3 
REMARK    2  A    between atoms: C2_2  and  C22_24 
REMARK    3  A    between atoms: C3_3  and  C4_4 
REMARK    4  A    between atoms: C4_4  and  C5_5 
REMARK    5  A    between atoms: C5_5  and  C6_6 
REMARK    6  A    between atoms: C6_6  and  N1_9 
REMARK    7  A    between atoms: N1_9  and  C9_11 
ROOT
HETATM    1  N1  UNL     1     -12.528  -7.320 -17.871  1.00  0.00    -0.405 N 
ATOM      2  H1  UNL     1     -12.017  -6.690 -17.253  1.00  0.00     0.154 HD
ENDROOT
BRANCH   1   3
HETATM    3  C6  UNL     1     -13.865  -7.503 -17.609  1.00  0.00     0.019 C 
HETATM    4  C7  UNL     1     -14.860  -6.690 -18.391  1.00  0.00     0.037 C 
HETATM    5  C8  UNL     1     -14.361  -8.955 -17.659  1.00  0.00     0.037 C 
BRANCH   3   6
HETATM    6  C5  UNL     1     -14.098  -7.105 -16.133  1.00  0.00     0.030 C 
BRANCH   6   7
HETATM    7  C4  UNL     1     -12.781  -6.780 -15.475  1.00  0.00     0.003 C 
BRANCH   7   8
HETATM    8  C3  UNL     1     -12.671  -7.276 -14.089  1.00  0.00     0.007 C 
BRANCH   8   9
HETATM    9  C2  UNL     1     -11.393  -7.936 -13.729  1.00  0.00     0.011 C 
HETATM   10  C1  UNL     1     -10.434  -7.832 -14.906  1.00  0.00     0.012 C 
BRANCH   9  11
HETATM   11  C22 UNL     1     -11.638  -9.432 -13.559  1.00  0.00     0.136 A 
HETATM   12  C23 UNL     1     -12.966  -9.760 -12.976  1.00  0.00     0.043 A 
HETATM   13  C24 UNL     1     -13.530 -10.799 -13.885  1.00  0.00     0.113 A 
HETATM   14  C25 UNL     1     -12.573 -10.927 -15.022  1.00  0.00     0.259 A 
HETATM   15  O1  UNL     1     -12.699 -11.608 -16.063  1.00  0.00    -0.265 OA
HETATM   16  O2  UNL     1     -11.482 -10.147 -14.743  1.00  0.00    -0.316 OA
ENDBRANCH   9  11
ENDBRANCH   8   9
ENDBRANCH   7   8
ENDBRANCH   6   7
ENDBRANCH   3   6
ENDBRANCH   1   3
BRANCH   1  17
HETATM   17  C9  UNL     1     -11.810  -7.912 -18.896  1.00  0.00     0.028 C 
HETATM   18  C10 UNL     1     -11.815  -9.424 -18.915  1.00  0.00     0.039 C 
HETATM   19  C11 UNL     1     -10.817  -9.991 -19.901  1.00  0.00    -0.040 C 
HETATM   20  C12 UNL     1     -10.872 -11.501 -19.784  1.00  0.00     0.015 C 
HETATM   21  C13 UNL     1      -9.426  -9.566 -19.508  1.00  0.00     0.018 C 
HETATM   22  C19 UNL     1     -11.185  -9.539 -21.279  1.00  0.00     0.018 C 
HETATM   23  C14 UNL     1      -9.395  -8.058 -19.619  1.00  0.00    -0.040 C 
HETATM   24  C15 UNL     1      -8.017  -7.598 -19.272  1.00  0.00     0.015 C 
HETATM   25  C16 UNL     1      -9.748  -7.586 -21.008  1.00  0.00     0.018 C 
HETATM   26  C21 UNL     1     -10.356  -7.477 -18.661  1.00  0.00     0.039 C 
HETATM   27  C17 UNL     1     -11.145  -8.014 -21.295  1.00  0.00    -0.040 C 
HETATM   28  C18 UNL     1     -11.522  -7.589 -22.689  1.00  0.00     0.015 C 
HETATM   29  C20 UNL     1     -12.151  -7.451 -20.297  1.00  0.00     0.039 C 
ENDBRANCH   1  17
TORSDOF 7
ENDMDL
