MODEL 1
REMARK VINA RESULT: -8.711441915      0.000      0.000
REMARK  8 active torsions:
REMARK  status: ('A' for Active; 'I' for Inactive)
REMARK    1  A    between atoms: C4_4  and  C5_5 
REMARK    2  A    between atoms: C5_5  and  C6_6 
REMARK    3  A    between atoms: C15_17  and  C16_18 
REMARK    4  A    between atoms: C16_18  and  C18_20 
REMARK    5  A    between atoms: C18_20  and  C19_21 
REMARK    6  A    between atoms: C19_21  and  C20_22 
REMARK    7  A    between atoms: C22_24  and  C23_25 
REMARK    8  A    between atoms: C23_25  and  C24_26 
ROOT
HETATM    1  C1  UNL     1       4.721  10.905  17.315  1.00  0.00     0.036 C 
HETATM    2  C2  UNL     1       5.587   9.771  16.991  1.00  0.00    -0.025 C 
HETATM    3  C3  UNL     1       5.262   8.486  16.815  1.00  0.00    -0.037 C 
HETATM    4  C4  UNL     1       6.197   7.356  16.490  1.00  0.00     0.110 C 
HETATM    5  C10 UNL     1       6.184   7.060  15.032  1.00  0.00     0.148 C 
HETATM    6  O1  UNL     1       6.728   6.016  14.751  1.00  0.00    -0.296 OA
HETATM    7  C11 UNL     1       5.634   7.796  13.866  1.00  0.00     0.091 C 
HETATM    8  C12 UNL     1       4.192   8.243  14.156  1.00  0.00     0.060 C 
HETATM    9  C13 UNL     1       3.331   8.048  12.940  1.00  0.00     0.018 C 
HETATM   10  C14 UNL     1       3.728   7.377  15.263  1.00  0.00     0.151 C 
HETATM   11  O2  UNL     1       2.951   6.493  15.061  1.00  0.00    -0.296 OA
HETATM   12  C15 UNL     1       4.187   7.526  16.726  1.00  0.00     0.111 C 
HETATM   13  C27 UNL     1       5.091   6.437  17.063  1.00  0.00     0.168 C 
HETATM   14  O3  UNL     1       5.050   5.342  17.548  1.00  0.00    -0.295 OA
ENDROOT
BRANCH  12  15
HETATM   15  C16 UNL     1       2.909   7.585  17.522  1.00  0.00     0.010 C 
HETATM   16  C17 UNL     1       2.153   8.845  17.155  1.00  0.00     0.012 C 
BRANCH  15  17
HETATM   17  C18 UNL     1       3.165   7.494  18.982  1.00  0.00     0.010 C 
BRANCH  17  18
HETATM   18  C19 UNL     1       2.185   6.697  19.753  1.00  0.00     0.034 C 
BRANCH  18  19
HETATM   19  C20 UNL     1       2.619   5.465  20.416  1.00  0.00    -0.087 C 
HETATM   20  C21 UNL     1       2.559   4.136  19.768  1.00  0.00     0.043 C 
HETATM   21  C22 UNL     1       3.075   5.458  21.689  1.00  0.00    -0.024 C 
BRANCH  21  22
HETATM   22  C23 UNL     1       3.206   6.616  22.565  1.00  0.00     0.031 C 
BRANCH  22  23
HETATM   23  C24 UNL     1       4.584   7.261  22.470  1.00  0.00    -0.019 C 
HETATM   24  C25 UNL     1       5.246   7.098  23.817  1.00  0.00     0.010 C 
HETATM   25  C26 UNL     1       4.496   8.736  22.155  1.00  0.00     0.010 C 
ENDBRANCH  22  23
ENDBRANCH  21  22
ENDBRANCH  18  19
ENDBRANCH  17  18
ENDBRANCH  15  17
ENDBRANCH  12  15
BRANCH   4  26
HETATM   26  C5  UNL     1       7.450   7.120  17.206  1.00  0.00     0.057 C 
BRANCH  26  27
HETATM   27  C6  UNL     1       7.884   8.109  18.176  1.00  0.00    -0.023 C 
HETATM   28  C7  UNL     1       7.632   8.079  19.476  1.00  0.00    -0.091 C 
HETATM   29  C8  UNL     1       8.136   9.156  20.361  1.00  0.00     0.042 C 
HETATM   30  C9  UNL     1       6.843   6.998  20.094  1.00  0.00     0.042 C 
ENDBRANCH  26  27
ENDBRANCH   4  26
TORSDOF 8
ENDMDL
MODEL 2
REMARK VINA RESULT: -8.704125985      1.656      2.897
REMARK  8 active torsions:
REMARK  status: ('A' for Active; 'I' for Inactive)
REMARK    1  A    between atoms: C4_4  and  C5_5 
REMARK    2  A    between atoms: C5_5  and  C6_6 
REMARK    3  A    between atoms: C15_17  and  C16_18 
REMARK    4  A    between atoms: C16_18  and  C18_20 
REMARK    5  A    between atoms: C18_20  and  C19_21 
REMARK    6  A    between atoms: C19_21  and  C20_22 
REMARK    7  A    between atoms: C22_24  and  C23_25 
REMARK    8  A    between atoms: C23_25  and  C24_26 
ROOT
HETATM    1  C1  UNL     1       3.556   9.327  14.941  1.00  0.00     0.036 C 
HETATM    2  C2  UNL     1       4.676   9.475  15.871  1.00  0.00    -0.025 C 
HETATM    3  C3  UNL     1       5.122   8.619  16.796  1.00  0.00    -0.037 C 
HETATM    4  C4  UNL     1       6.276   8.825  17.735  1.00  0.00     0.110 C 
HETATM    5  C10 UNL     1       7.504   8.159  17.220  1.00  0.00     0.148 C 
HETATM    6  O1  UNL     1       8.390   8.089  18.041  1.00  0.00    -0.296 OA
HETATM    7  C11 UNL     1       7.843   7.568  15.902  1.00  0.00     0.091 C 
HETATM    8  C12 UNL     1       6.708   6.647  15.427  1.00  0.00     0.060 C 
HETATM    9  C13 UNL     1       7.271   5.401  14.807  1.00  0.00     0.018 C 
HETATM   10  C14 UNL     1       5.937   6.315  16.647  1.00  0.00     0.151 C 
HETATM   11  O2  UNL     1       6.019   5.233  17.144  1.00  0.00    -0.296 OA
HETATM   12  C15 UNL     1       4.991   7.297  17.364  1.00  0.00     0.111 C 
HETATM   13  C27 UNL     1       5.605   7.738  18.608  1.00  0.00     0.168 C 
HETATM   14  O3  UNL     1       5.617   7.439  19.768  1.00  0.00    -0.295 OA
ENDROOT
BRANCH  12  15
HETATM   15  C16 UNL     1       3.695   6.543  17.506  1.00  0.00     0.010 C 
HETATM   16  C17 UNL     1       3.266   6.033  16.147  1.00  0.00     0.012 C 
BRANCH  15  17
HETATM   17  C18 UNL     1       2.643   7.373  18.148  1.00  0.00     0.010 C 
BRANCH  17  18
HETATM   18  C19 UNL     1       1.678   6.637  18.995  1.00  0.00     0.034 C 
BRANCH  18  19
HETATM   19  C20 UNL     1       2.103   5.407  19.670  1.00  0.00    -0.087 C 
HETATM   20  C21 UNL     1       1.823   4.055  19.137  1.00  0.00     0.043 C 
HETATM   21  C22 UNL     1       2.757   5.429  20.853  1.00  0.00    -0.024 C 
BRANCH  21  22
HETATM   22  C23 UNL     1       3.129   6.617  21.612  1.00  0.00     0.031 C 
BRANCH  22  23
HETATM   23  C24 UNL     1       3.805   6.270  22.934  1.00  0.00    -0.019 C 
HETATM   24  C25 UNL     1       2.828   6.604  24.036  1.00  0.00     0.010 C 
HETATM   25  C26 UNL     1       5.065   7.075  23.151  1.00  0.00     0.010 C 
ENDBRANCH  22  23
ENDBRANCH  21  22
ENDBRANCH  18  19
ENDBRANCH  17  18
ENDBRANCH  15  17
ENDBRANCH  12  15
BRANCH   4  26
HETATM   26  C5  UNL     1       6.461  10.043  18.524  1.00  0.00     0.057 C 
BRANCH  26  27
HETATM   27  C6  UNL     1       5.436  11.068  18.456  1.00  0.00    -0.023 C 
HETATM   28  C7  UNL     1       4.474  11.260  19.345  1.00  0.00    -0.091 C 
HETATM   29  C8  UNL     1       3.485  12.349  19.156  1.00  0.00     0.042 C 
HETATM   30  C9  UNL     1       4.334  10.408  20.540  1.00  0.00     0.042 C 
ENDBRANCH  26  27
ENDBRANCH   4  26
TORSDOF 8
ENDMDL
MODEL 3
REMARK VINA RESULT: -8.664824095      2.013      3.034
REMARK  8 active torsions:
REMARK  status: ('A' for Active; 'I' for Inactive)
REMARK    1  A    between atoms: C4_4  and  C5_5 
REMARK    2  A    between atoms: C5_5  and  C6_6 
REMARK    3  A    between atoms: C15_17  and  C16_18 
REMARK    4  A    between atoms: C16_18  and  C18_20 
REMARK    5  A    between atoms: C18_20  and  C19_21 
REMARK    6  A    between atoms: C19_21  and  C20_22 
REMARK    7  A    between atoms: C22_24  and  C23_25 
REMARK    8  A    between atoms: C23_25  and  C24_26 
ROOT
HETATM    1  C1  UNL     1       1.459   8.753  17.928  1.00  0.00     0.036 C 
HETATM    2  C2  UNL     1       2.535   9.740  17.836  1.00  0.00    -0.025 C 
HETATM    3  C3  UNL     1       3.739   9.624  17.267  1.00  0.00    -0.037 C 
HETATM    4  C4  UNL     1       4.814  10.671  17.209  1.00  0.00     0.110 C 
HETATM    5  C10 UNL     1       4.795  11.378  15.900  1.00  0.00     0.148 C 
HETATM    6  O1  UNL     1       5.779  12.056  15.708  1.00  0.00    -0.296 OA
HETATM    7  C11 UNL     1       3.808  11.407  14.792  1.00  0.00     0.091 C 
HETATM    8  C12 UNL     1       3.371   9.977  14.436  1.00  0.00     0.060 C 
HETATM    9  C13 UNL     1       3.269   9.818  12.946  1.00  0.00     0.018 C 
HETATM   10  C14 UNL     1       4.430   9.097  14.979  1.00  0.00     0.151 C 
HETATM   11  O2  UNL     1       5.218   8.571  14.252  1.00  0.00    -0.296 OA
HETATM   12  C15 UNL     1       4.612   8.788  16.478  1.00  0.00     0.111 C 
HETATM   13  C27 UNL     1       5.786   9.489  16.977  1.00  0.00     0.168 C 
HETATM   14  O3  UNL     1       6.955   9.292  17.146  1.00  0.00    -0.295 OA
ENDROOT
BRANCH  12  15
HETATM   15  C16 UNL     1       4.668   7.284  16.552  1.00  0.00     0.010 C 
HETATM   16  C17 UNL     1       3.485   6.706  15.805  1.00  0.00     0.012 C 
BRANCH  15  17
HETATM   17  C18 UNL     1       4.728   6.805  17.957  1.00  0.00     0.010 C 
BRANCH  17  18
HETATM   18  C19 UNL     1       3.968   5.568  18.242  1.00  0.00     0.034 C 
BRANCH  18  19
HETATM   19  C20 UNL     1       2.846   5.613  19.185  1.00  0.00    -0.087 C 
HETATM   20  C21 UNL     1       1.478   5.170  18.833  1.00  0.00     0.043 C 
HETATM   21  C22 UNL     1       2.983   6.098  20.439  1.00  0.00    -0.024 C 
BRANCH  21  22
HETATM   22  C23 UNL     1       4.206   6.627  21.031  1.00  0.00     0.031 C 
BRANCH  22  23
HETATM   23  C24 UNL     1       4.289   6.354  22.529  1.00  0.00    -0.019 C 
HETATM   24  C25 UNL     1       3.047   6.940  23.158  1.00  0.00     0.010 C 
HETATM   25  C26 UNL     1       5.497   7.009  23.155  1.00  0.00     0.010 C 
ENDBRANCH  22  23
ENDBRANCH  21  22
ENDBRANCH  18  19
ENDBRANCH  17  18
ENDBRANCH  15  17
ENDBRANCH  12  15
BRANCH   4  26
HETATM   26  C5  UNL     1       5.248  11.441  18.375  1.00  0.00     0.057 C 
BRANCH  26  27
HETATM   27  C6  UNL     1       6.272  10.871  19.232  1.00  0.00    -0.023 C 
HETATM   28  C7  UNL     1       6.058  10.237  20.375  1.00  0.00    -0.091 C 
HETATM   29  C8  UNL     1       7.197   9.700  21.157  1.00  0.00     0.042 C 
HETATM   30  C9  UNL     1       4.703  10.047  20.921  1.00  0.00     0.042 C 
ENDBRANCH  26  27
ENDBRANCH   4  26
TORSDOF 8
ENDMDL
MODEL 4
REMARK VINA RESULT: -8.627221320      1.708      3.243
REMARK  8 active torsions:
REMARK  status: ('A' for Active; 'I' for Inactive)
REMARK    1  A    between atoms: C4_4  and  C5_5 
REMARK    2  A    between atoms: C5_5  and  C6_6 
REMARK    3  A    between atoms: C15_17  and  C16_18 
REMARK    4  A    between atoms: C16_18  and  C18_20 
REMARK    5  A    between atoms: C18_20  and  C19_21 
REMARK    6  A    between atoms: C19_21  and  C20_22 
REMARK    7  A    between atoms: C22_24  and  C23_25 
REMARK    8  A    between atoms: C23_25  and  C24_26 
ROOT
HETATM    1  C1  UNL     1       3.519   8.968  14.070  1.00  0.00     0.036 C 
HETATM    2  C2  UNL     1       4.534   9.321  15.062  1.00  0.00    -0.025 C 
HETATM    3  C3  UNL     1       4.914   8.651  16.155  1.00  0.00    -0.037 C 
HETATM    4  C4  UNL     1       5.960   9.065  17.149  1.00  0.00     0.110 C 
HETATM    5  C10 UNL     1       7.256   8.388  16.870  1.00  0.00     0.148 C 
HETATM    6  O1  UNL     1       8.056   8.498  17.770  1.00  0.00    -0.296 OA
HETATM    7  C11 UNL     1       7.746   7.609  15.706  1.00  0.00     0.091 C 
HETATM    8  C12 UNL     1       6.697   6.566  15.287  1.00  0.00     0.060 C 
HETATM    9  C13 UNL     1       7.363   5.266  14.938  1.00  0.00     0.018 C 
HETATM   10  C14 UNL     1       5.819   6.398  16.468  1.00  0.00     0.151 C 
HETATM   11  O2  UNL     1       5.888   5.417  17.144  1.00  0.00    -0.296 OA
HETATM   12  C15 UNL     1       4.772   7.434  16.920  1.00  0.00     0.111 C 
HETATM   13  C27 UNL     1       5.242   8.102  18.125  1.00  0.00     0.168 C 
HETATM   14  O3  UNL     1       5.149   7.996  19.315  1.00  0.00    -0.295 OA
ENDROOT
BRANCH  12  15
HETATM   15  C16 UNL     1       3.495   6.648  17.064  1.00  0.00     0.010 C 
HETATM   16  C17 UNL     1       3.184   5.962  15.750  1.00  0.00     0.012 C 
BRANCH  15  17
HETATM   17  C18 UNL     1       2.372   7.503  17.526  1.00  0.00     0.010 C 
BRANCH  17  18
HETATM   18  C19 UNL     1       1.622   6.993  18.696  1.00  0.00     0.034 C 
BRANCH  18  19
HETATM   19  C20 UNL     1       1.965   5.683  19.256  1.00  0.00    -0.087 C 
HETATM   20  C21 UNL     1       1.570   4.406  18.621  1.00  0.00     0.043 C 
HETATM   21  C22 UNL     1       2.640   5.556  20.420  1.00  0.00    -0.024 C 
BRANCH  21  22
HETATM   22  C23 UNL     1       3.117   6.644  21.265  1.00  0.00     0.031 C 
BRANCH  22  23
HETATM   23  C24 UNL     1       3.850   6.137  22.502  1.00  0.00    -0.019 C 
HETATM   24  C25 UNL     1       3.089   6.639  23.706  1.00  0.00     0.010 C 
HETATM   25  C26 UNL     1       5.264   6.664  22.575  1.00  0.00     0.010 C 
ENDBRANCH  22  23
ENDBRANCH  21  22
ENDBRANCH  18  19
ENDBRANCH  17  18
ENDBRANCH  15  17
ENDBRANCH  12  15
BRANCH   4  26
HETATM   26  C5  UNL     1       6.022  10.403  17.738  1.00  0.00     0.057 C 
BRANCH  26  27
HETATM   27  C6  UNL     1       4.838  10.918  18.401  1.00  0.00    -0.023 C 
HETATM   28  C7  UNL     1       3.987  11.796  17.892  1.00  0.00    -0.091 C 
HETATM   29  C8  UNL     1       2.811  12.241  18.677  1.00  0.00     0.042 C 
HETATM   30  C9  UNL     1       4.172  12.375  16.549  1.00  0.00     0.042 C 
ENDBRANCH  26  27
ENDBRANCH   4  26
TORSDOF 8
ENDMDL
MODEL 5
REMARK VINA RESULT: -8.520283925      2.279      4.993
REMARK  8 active torsions:
REMARK  status: ('A' for Active; 'I' for Inactive)
REMARK    1  A    between atoms: C4_4  and  C5_5 
REMARK    2  A    between atoms: C5_5  and  C6_6 
REMARK    3  A    between atoms: C15_17  and  C16_18 
REMARK    4  A    between atoms: C16_18  and  C18_20 
REMARK    5  A    between atoms: C18_20  and  C19_21 
REMARK    6  A    between atoms: C19_21  and  C20_22 
REMARK    7  A    between atoms: C22_24  and  C23_25 
REMARK    8  A    between atoms: C23_25  and  C24_26 
ROOT
HETATM    1  C1  UNL     1       5.133   7.470  14.801  1.00  0.00     0.036 C 
HETATM    2  C2  UNL     1       4.120   8.070  15.670  1.00  0.00    -0.025 C 
HETATM    3  C3  UNL     1       4.284   8.760  16.804  1.00  0.00    -0.037 C 
HETATM    4  C4  UNL     1       3.205   9.349  17.666  1.00  0.00     0.110 C 
HETATM    5  C10 UNL     1       3.027  10.798  17.376  1.00  0.00     0.148 C 
HETATM    6  O1  UNL     1       2.347  11.370  18.198  1.00  0.00    -0.296 OA
HETATM    7  C11 UNL     1       3.522  11.667  16.280  1.00  0.00     0.091 C 
HETATM    8  C12 UNL     1       5.027  11.438  16.063  1.00  0.00     0.060 C 
HETATM    9  C13 UNL     1       5.724  12.746  15.823  1.00  0.00     0.018 C 
HETATM   10  C14 UNL     1       5.513  10.815  17.314  1.00  0.00     0.151 C 
HETATM   11  O2  UNL     1       6.164  11.440  18.094  1.00  0.00    -0.296 OA
HETATM   12  C15 UNL     1       5.235   9.353  17.715  1.00  0.00     0.111 C 
HETATM   13  C27 UNL     1       4.261   9.325  18.797  1.00  0.00     0.168 C 
HETATM   14  O3  UNL     1       4.237   9.297  19.994  1.00  0.00    -0.295 OA
ENDROOT
BRANCH  12  15
HETATM   15  C16 UNL     1       6.591   8.783  18.041  1.00  0.00     0.010 C 
HETATM   16  C17 UNL     1       7.428   8.742  16.780  1.00  0.00     0.012 C 
BRANCH  15  17
HETATM   17  C18 UNL     1       6.486   7.448  18.684  1.00  0.00     0.010 C 
BRANCH  17  18
HETATM   18  C19 UNL     1       7.361   7.236  19.859  1.00  0.00     0.034 C 
BRANCH  18  19
HETATM   19  C20 UNL     1       7.312   8.184  20.974  1.00  0.00    -0.087 C 
HETATM   20  C21 UNL     1       8.029   9.479  20.964  1.00  0.00     0.043 C 
HETATM   21  C22 UNL     1       6.629   7.920  22.111  1.00  0.00    -0.024 C 
BRANCH  21  22
HETATM   22  C23 UNL     1       5.867   6.711  22.398  1.00  0.00     0.031 C 
BRANCH  22  23
HETATM   23  C24 UNL     1       4.369   6.981  22.496  1.00  0.00    -0.019 C 
HETATM   24  C25 UNL     1       3.941   6.612  23.896  1.00  0.00     0.010 C 
HETATM   25  C26 UNL     1       3.580   6.145  21.517  1.00  0.00     0.010 C 
ENDBRANCH  22  23
ENDBRANCH  21  22
ENDBRANCH  18  19
ENDBRANCH  17  18
ENDBRANCH  15  17
ENDBRANCH  12  15
BRANCH   4  26
HETATM   26  C5  UNL     1       2.018   8.604  18.087  1.00  0.00     0.057 C 
BRANCH  26  27
HETATM   27  C6  UNL     1       2.145   7.174  18.301  1.00  0.00    -0.023 C 
HETATM   28  C7  UNL     1       1.142   6.321  18.445  1.00  0.00    -0.091 C 
HETATM   29  C8  UNL     1       1.409   4.879  18.657  1.00  0.00     0.042 C 
HETATM   30  C9  UNL     1      -0.266   6.759  18.413  1.00  0.00     0.042 C 
ENDBRANCH  26  27
ENDBRANCH   4  26
TORSDOF 8
ENDMDL
