MODEL 1
REMARK VINA RESULT: -9.126204727      0.000      0.000
REMARK  10 active torsions:
REMARK  status: ('A' for Active; 'I' for Inactive)
REMARK    1  A    between atoms: C2_2  and  C3_3 
REMARK    2  A    between atoms: C2_2  and  C13_13 
REMARK    3  A    between atoms: C4_4  and  C5_5 
REMARK    4  A    between atoms: C5_5  and  C6_6 
REMARK    5  A    between atoms: C6_6  and  C8_8 
REMARK    6  A    between atoms: C8_8  and  C9_9 
REMARK    7  A    between atoms: C9_9  and  C10_10 
REMARK    8  A    between atoms: C13_13  and  C14_14 
REMARK    9  A    between atoms: C14_14  and  C15_15 
REMARK   10  A    between atoms: C22_25  and  O4_26 
ROOT
HETATM    1  C15 UNL     1       3.423   8.386  17.242  1.00  0.00     0.007 C 
HETATM    2  C16 UNL     1       2.642   9.633  17.154  1.00  0.00     0.286 C 
HETATM    3  O1  UNL     1       1.382   9.389  17.105  1.00  0.00    -0.260 OA
HETATM    4  O2  UNL     1       2.954  10.945  17.114  1.00  0.00    -0.313 OA
HETATM    5  C17 UNL     1       4.087  11.538  16.560  1.00  0.00     0.130 C 
HETATM    6  C18 UNL     1       3.903  11.687  15.066  1.00  0.00     0.040 C 
HETATM    7  C19 UNL     1       5.376  10.875  16.938  1.00  0.00     0.065 C 
HETATM    8  C20 UNL     1       5.460   9.517  16.391  1.00  0.00     0.137 C 
HETATM    9  O3  UNL     1       4.846   9.266  15.203  1.00  0.00    -0.382 OA
HETATM   10  C21 UNL     1       5.359   8.122  14.603  1.00  0.00     0.200 C 
HETATM   11  C22 UNL     1       5.304   6.912  15.494  1.00  0.00     0.146 C 
HETATM   12  C23 UNL     1       5.614   7.231  16.934  1.00  0.00     0.027 C 
HETATM   13  C24 UNL     1       5.523   6.031  17.766  1.00  0.00     0.014 C 
HETATM   14  C25 UNL     1       4.863   8.479  17.395  1.00  0.00     0.017 C 
HETATM   15  C26 UNL     1       5.429   8.885  18.716  1.00  0.00     0.023 C 
ENDROOT
BRANCH   1  16
HETATM   16  C14 UNL     1       2.653   7.451  18.124  1.00  0.00     0.046 C 
BRANCH  16  17
HETATM   17  C13 UNL     1       2.055   6.256  17.425  1.00  0.00     0.042 C 
BRANCH  17  18
HETATM   18  C2  UNL     1       1.431   5.292  18.365  1.00  0.00    -0.067 C 
HETATM   19  C1  UNL     1       0.096   5.122  18.322  1.00  0.00     0.019 C 
BRANCH  18  20
HETATM   20  C3  UNL     1       2.112   4.489  19.339  1.00  0.00     0.006 C 
HETATM   21  C4  UNL     1       2.575   4.743  20.504  1.00  0.00     0.001 C 
BRANCH  21  22
HETATM   22  C5  UNL     1       2.615   5.910  21.331  1.00  0.00     0.006 C 
BRANCH  22  23
HETATM   23  C6  UNL     1       3.548   6.488  21.999  1.00  0.00    -0.066 C 
HETATM   24  C7  UNL     1       3.214   6.690  23.504  1.00  0.00     0.048 C 
BRANCH  23  25
HETATM   25  C8  UNL     1       4.842   7.000  21.657  1.00  0.00    -0.020 C 
BRANCH  25  26
HETATM   26  C9  UNL     1       6.074   6.637  22.367  1.00  0.00     0.031 C 
BRANCH  26  27
HETATM   27  C10 UNL     1       6.711   7.975  22.850  1.00  0.00    -0.019 C 
HETATM   28  C11 UNL     1       7.523   8.542  21.730  1.00  0.00     0.010 C 
HETATM   29  C12 UNL     1       7.524   7.626  24.062  1.00  0.00     0.010 C 
ENDBRANCH  26  27
ENDBRANCH  25  26
ENDBRANCH  23  25
ENDBRANCH  22  23
ENDBRANCH  21  22
ENDBRANCH  18  20
ENDBRANCH  17  18
ENDBRANCH  16  17
ENDBRANCH   1  16
BRANCH  11  30
HETATM   30  O4  UNL     1       6.275   6.015  15.049  1.00  0.00    -0.393 OA
ATOM     31  H4  UNL     1       6.150   5.199  15.518  1.00  0.00     0.210 HD
ENDBRANCH  11  30
TORSDOF 10
ENDMDL
MODEL 2
REMARK VINA RESULT: -8.884195525      1.595      3.572
REMARK  10 active torsions:
REMARK  status: ('A' for Active; 'I' for Inactive)
REMARK    1  A    between atoms: C2_2  and  C3_3 
REMARK    2  A    between atoms: C2_2  and  C13_13 
REMARK    3  A    between atoms: C4_4  and  C5_5 
REMARK    4  A    between atoms: C5_5  and  C6_6 
REMARK    5  A    between atoms: C6_6  and  C8_8 
REMARK    6  A    between atoms: C8_8  and  C9_9 
REMARK    7  A    between atoms: C9_9  and  C10_10 
REMARK    8  A    between atoms: C13_13  and  C14_14 
REMARK    9  A    between atoms: C14_14  and  C15_15 
REMARK   10  A    between atoms: C22_25  and  O4_26 
ROOT
HETATM    1  C15 UNL     1       4.124   7.300  16.312  1.00  0.00     0.007 C 
HETATM    2  C16 UNL     1       4.652   5.925  16.364  1.00  0.00     0.286 C 
HETATM    3  O1  UNL     1       4.018   5.217  17.228  1.00  0.00    -0.260 OA
HETATM    4  O2  UNL     1       5.633   5.262  15.718  1.00  0.00    -0.313 OA
HETATM    5  C17 UNL     1       6.834   5.774  15.232  1.00  0.00     0.130 C 
HETATM    6  C18 UNL     1       7.840   5.867  16.358  1.00  0.00     0.040 C 
HETATM    7  C19 UNL     1       6.691   7.047  14.455  1.00  0.00     0.065 C 
HETATM    8  C20 UNL     1       6.229   8.145  15.309  1.00  0.00     0.137 C 
HETATM    9  O3  UNL     1       6.604   8.143  16.616  1.00  0.00    -0.382 OA
HETATM   10  C21 UNL     1       6.487   9.409  17.177  1.00  0.00     0.200 C 
HETATM   11  C22 UNL     1       5.113   9.999  17.023  1.00  0.00     0.146 C 
HETATM   12  C23 UNL     1       4.490   9.688  15.686  1.00  0.00     0.027 C 
HETATM   13  C24 UNL     1       3.145  10.258  15.590  1.00  0.00     0.014 C 
HETATM   14  C25 UNL     1       4.668   8.215  15.325  1.00  0.00     0.017 C 
HETATM   15  C26 UNL     1       4.283   8.050  13.892  1.00  0.00     0.023 C 
ENDROOT
BRANCH   1  16
HETATM   16  C14 UNL     1       2.638   7.203  16.479  1.00  0.00     0.046 C 
BRANCH  16  17
HETATM   17  C13 UNL     1       2.104   7.723  17.790  1.00  0.00     0.042 C 
BRANCH  17  18
HETATM   18  C2  UNL     1       1.030   6.868  18.353  1.00  0.00    -0.067 C 
HETATM   19  C1  UNL     1      -0.183   7.414  18.567  1.00  0.00     0.019 C 
BRANCH  18  20
HETATM   20  C3  UNL     1       1.138   5.481  18.699  1.00  0.00     0.006 C 
HETATM   21  C4  UNL     1       1.669   4.872  19.691  1.00  0.00     0.001 C 
BRANCH  21  22
HETATM   22  C5  UNL     1       2.370   5.294  20.865  1.00  0.00     0.006 C 
BRANCH  22  23
HETATM   23  C6  UNL     1       3.260   6.193  21.087  1.00  0.00    -0.066 C 
HETATM   24  C7  UNL     1       3.154   6.853  22.490  1.00  0.00     0.048 C 
BRANCH  23  25
HETATM   25  C8  UNL     1       4.341   6.731  20.314  1.00  0.00    -0.020 C 
BRANCH  25  26
HETATM   26  C9  UNL     1       5.132   7.897  20.725  1.00  0.00     0.031 C 
BRANCH  26  27
HETATM   27  C10 UNL     1       6.586   7.381  20.950  1.00  0.00    -0.019 C 
HETATM   28  C11 UNL     1       6.726   6.976  22.382  1.00  0.00     0.010 C 
HETATM   29  C12 UNL     1       7.487   8.516  20.558  1.00  0.00     0.010 C 
ENDBRANCH  26  27
ENDBRANCH  25  26
ENDBRANCH  23  25
ENDBRANCH  22  23
ENDBRANCH  21  22
ENDBRANCH  18  20
ENDBRANCH  17  18
ENDBRANCH  16  17
ENDBRANCH   1  16
BRANCH  11  30
HETATM   30  O4  UNL     1       5.236  11.385  17.111  1.00  0.00    -0.393 OA
ATOM     31  H4  UNL     1       4.624  11.769  16.493  1.00  0.00     0.210 HD
ENDBRANCH  11  30
TORSDOF 10
ENDMDL
MODEL 3
REMARK VINA RESULT: -8.702408202      1.276      1.597
REMARK  10 active torsions:
REMARK  status: ('A' for Active; 'I' for Inactive)
REMARK    1  A    between atoms: C2_2  and  C3_3 
REMARK    2  A    between atoms: C2_2  and  C13_13 
REMARK    3  A    between atoms: C4_4  and  C5_5 
REMARK    4  A    between atoms: C5_5  and  C6_6 
REMARK    5  A    between atoms: C6_6  and  C8_8 
REMARK    6  A    between atoms: C8_8  and  C9_9 
REMARK    7  A    between atoms: C9_9  and  C10_10 
REMARK    8  A    between atoms: C13_13  and  C14_14 
REMARK    9  A    between atoms: C14_14  and  C15_15 
REMARK   10  A    between atoms: C22_25  and  O4_26 
ROOT
HETATM    1  C15 UNL     1       3.531   9.225  17.370  1.00  0.00     0.007 C 
HETATM    2  C16 UNL     1       3.555  10.589  17.925  1.00  0.00     0.286 C 
HETATM    3  O1  UNL     1       2.407  10.917  18.399  1.00  0.00    -0.260 OA
HETATM    4  O2  UNL     1       4.497  11.548  18.043  1.00  0.00    -0.313 OA
HETATM    5  C17 UNL     1       5.564  11.809  17.185  1.00  0.00     0.130 C 
HETATM    6  C18 UNL     1       5.081  12.633  16.012  1.00  0.00     0.040 C 
HETATM    7  C19 UNL     1       6.338  10.592  16.779  1.00  0.00     0.065 C 
HETATM    8  C20 UNL     1       5.523   9.685  15.965  1.00  0.00     0.137 C 
HETATM    9  O3  UNL     1       4.569  10.228  15.161  1.00  0.00    -0.382 OA
HETATM   10  C21 UNL     1       4.195   9.345  14.156  1.00  0.00     0.200 C 
HETATM   11  C22 UNL     1       3.749   8.007  14.679  1.00  0.00     0.146 C 
HETATM   12  C23 UNL     1       4.569   7.536  15.853  1.00  0.00     0.027 C 
HETATM   13  C24 UNL     1       4.083   6.245  16.344  1.00  0.00     0.014 C 
HETATM   14  C25 UNL     1       4.770   8.657  16.869  1.00  0.00     0.017 C 
HETATM   15  C26 UNL     1       5.807   8.204  17.844  1.00  0.00     0.023 C 
ENDROOT
BRANCH   1  16
HETATM   16  C14 UNL     1       2.661   8.401  18.270  1.00  0.00     0.046 C 
BRANCH  16  17
HETATM   17  C13 UNL     1       1.378   7.910  17.650  1.00  0.00     0.042 C 
BRANCH  17  18
HETATM   18  C2  UNL     1       0.824   6.719  18.338  1.00  0.00    -0.067 C 
HETATM   19  C1  UNL     1      -0.462   6.744  18.738  1.00  0.00     0.019 C 
BRANCH  18  20
HETATM   20  C3  UNL     1       1.524   5.501  18.629  1.00  0.00     0.006 C 
HETATM   21  C4  UNL     1       2.134   5.077  19.671  1.00  0.00     0.001 C 
BRANCH  21  22
HETATM   22  C5  UNL     1       2.382   5.616  20.972  1.00  0.00     0.006 C 
BRANCH  22  23
HETATM   23  C6  UNL     1       3.307   6.363  21.459  1.00  0.00    -0.066 C 
HETATM   24  C7  UNL     1       3.093   6.741  22.952  1.00  0.00     0.048 C 
BRANCH  23  25
HETATM   25  C8  UNL     1       4.505   6.936  20.920  1.00  0.00    -0.020 C 
BRANCH  25  26
HETATM   26  C9  UNL     1       5.187   8.096  21.506  1.00  0.00     0.031 C 
BRANCH  26  27
HETATM   27  C10 UNL     1       6.662   7.656  21.754  1.00  0.00    -0.019 C 
HETATM   28  C11 UNL     1       6.860   7.477  23.225  1.00  0.00     0.010 C 
HETATM   29  C12 UNL     1       7.515   8.741  21.163  1.00  0.00     0.010 C 
ENDBRANCH  26  27
ENDBRANCH  25  26
ENDBRANCH  23  25
ENDBRANCH  22  23
ENDBRANCH  21  22
ENDBRANCH  18  20
ENDBRANCH  17  18
ENDBRANCH  16  17
ENDBRANCH   1  16
BRANCH  11  30
HETATM   30  O4  UNL     1       3.916   7.075  13.655  1.00  0.00    -0.393 OA
ATOM     31  H4  UNL     1       4.688   7.327  13.159  1.00  0.00     0.210 HD
ENDBRANCH  11  30
TORSDOF 10
ENDMDL
MODEL 4
REMARK VINA RESULT: -8.573930513      1.430      4.903
REMARK  10 active torsions:
REMARK  status: ('A' for Active; 'I' for Inactive)
REMARK    1  A    between atoms: C2_2  and  C3_3 
REMARK    2  A    between atoms: C2_2  and  C13_13 
REMARK    3  A    between atoms: C4_4  and  C5_5 
REMARK    4  A    between atoms: C5_5  and  C6_6 
REMARK    5  A    between atoms: C6_6  and  C8_8 
REMARK    6  A    between atoms: C8_8  and  C9_9 
REMARK    7  A    between atoms: C9_9  and  C10_10 
REMARK    8  A    between atoms: C13_13  and  C14_14 
REMARK    9  A    between atoms: C14_14  and  C15_15 
REMARK   10  A    between atoms: C22_25  and  O4_26 
ROOT
HETATM    1  C15 UNL     1       5.429   9.759  17.497  1.00  0.00     0.007 C 
HETATM    2  C16 UNL     1       6.095   8.580  16.915  1.00  0.00     0.286 C 
HETATM    3  O1  UNL     1       7.353   8.583  17.175  1.00  0.00    -0.260 OA
HETATM    4  O2  UNL     1       5.683   7.523  16.187  1.00  0.00    -0.313 OA
HETATM    5  C17 UNL     1       4.647   7.478  15.255  1.00  0.00     0.130 C 
HETATM    6  C18 UNL     1       5.133   8.017  13.928  1.00  0.00     0.040 C 
HETATM    7  C19 UNL     1       3.371   8.110  15.723  1.00  0.00     0.065 C 
HETATM    8  C20 UNL     1       3.530   9.555  15.915  1.00  0.00     0.137 C 
HETATM    9  O3  UNL     1       4.404  10.217  15.110  1.00  0.00    -0.382 OA
HETATM   10  C21 UNL     1       4.137  11.581  15.089  1.00  0.00     0.200 C 
HETATM   11  C22 UNL     1       4.107  12.198  16.460  1.00  0.00     0.146 C 
HETATM   12  C23 UNL     1       3.468  11.303  17.491  1.00  0.00     0.027 C 
HETATM   13  C24 UNL     1       3.485  11.933  18.812  1.00  0.00     0.014 C 
HETATM   14  C25 UNL     1       3.987   9.872  17.375  1.00  0.00     0.017 C 
HETATM   15  C26 UNL     1       3.116   9.005  18.224  1.00  0.00     0.023 C 
ENDROOT
BRANCH   1  16
HETATM   16  C14 UNL     1       6.072  10.013  18.827  1.00  0.00     0.046 C 
BRANCH  16  17
HETATM   17  C13 UNL     1       5.774   8.986  19.890  1.00  0.00     0.042 C 
BRANCH  17  18
HETATM   18  C2  UNL     1       6.954   8.668  20.731  1.00  0.00    -0.067 C 
HETATM   19  C1  UNL     1       7.946   9.575  20.819  1.00  0.00     0.019 C 
BRANCH  18  20
HETATM   20  C3  UNL     1       7.161   7.469  21.490  1.00  0.00     0.006 C 
HETATM   21  C4  UNL     1       6.424   6.825  22.314  1.00  0.00     0.001 C 
BRANCH  21  22
HETATM   22  C5  UNL     1       5.102   7.009  22.828  1.00  0.00     0.006 C 
BRANCH  22  23
HETATM   23  C6  UNL     1       3.930   6.761  22.365  1.00  0.00    -0.066 C 
HETATM   24  C7  UNL     1       2.812   6.757  23.444  1.00  0.00     0.048 C 
BRANCH  23  25
HETATM   25  C8  UNL     1       3.422   6.478  21.055  1.00  0.00    -0.020 C 
BRANCH  25  26
HETATM   26  C9  UNL     1       2.388   5.474  20.783  1.00  0.00     0.031 C 
BRANCH  26  27
HETATM   27  C10 UNL     1       2.522   5.104  19.275  1.00  0.00    -0.019 C 
HETATM   28  C11 UNL     1       3.805   5.674  18.762  1.00  0.00     0.010 C 
HETATM   29  C12 UNL     1       1.304   5.672  18.605  1.00  0.00     0.010 C 
ENDBRANCH  26  27
ENDBRANCH  25  26
ENDBRANCH  23  25
ENDBRANCH  22  23
ENDBRANCH  21  22
ENDBRANCH  18  20
ENDBRANCH  17  18
ENDBRANCH  16  17
ENDBRANCH   1  16
BRANCH  11  30
HETATM   30  O4  UNL     1       3.339  13.360  16.384  1.00  0.00    -0.393 OA
ATOM     31  H4  UNL     1       2.454  13.137  16.647  1.00  0.00     0.210 HD
ENDBRANCH  11  30
TORSDOF 10
ENDMDL
MODEL 5
REMARK VINA RESULT: -8.552733495      1.568      4.885
REMARK  10 active torsions:
REMARK  status: ('A' for Active; 'I' for Inactive)
REMARK    1  A    between atoms: C2_2  and  C3_3 
REMARK    2  A    between atoms: C2_2  and  C13_13 
REMARK    3  A    between atoms: C4_4  and  C5_5 
REMARK    4  A    between atoms: C5_5  and  C6_6 
REMARK    5  A    between atoms: C6_6  and  C8_8 
REMARK    6  A    between atoms: C8_8  and  C9_9 
REMARK    7  A    between atoms: C9_9  and  C10_10 
REMARK    8  A    between atoms: C13_13  and  C14_14 
REMARK    9  A    between atoms: C14_14  and  C15_15 
REMARK   10  A    between atoms: C22_25  and  O4_26 
ROOT
HETATM    1  C15 UNL     1       5.561   8.039  18.101  1.00  0.00     0.007 C 
HETATM    2  C16 UNL     1       5.721   6.981  17.088  1.00  0.00     0.286 C 
HETATM    3  O1  UNL     1       6.707   6.210  17.375  1.00  0.00    -0.260 OA
HETATM    4  O2  UNL     1       5.074   6.652  15.951  1.00  0.00    -0.313 OA
HETATM    5  C17 UNL     1       4.436   7.506  15.053  1.00  0.00     0.130 C 
HETATM    6  C18 UNL     1       5.458   8.118  14.121  1.00  0.00     0.040 C 
HETATM    7  C19 UNL     1       3.538   8.518  15.698  1.00  0.00     0.065 C 
HETATM    8  C20 UNL     1       4.300   9.468  16.513  1.00  0.00     0.137 C 
HETATM    9  O3  UNL     1       5.564   9.780  16.120  1.00  0.00    -0.382 OA
HETATM   10  C21 UNL     1       5.990  10.973  16.691  1.00  0.00     0.200 C 
HETATM   11  C22 UNL     1       5.885  10.981  18.191  1.00  0.00     0.146 C 
HETATM   12  C23 UNL     1       4.646  10.284  18.694  1.00  0.00     0.027 C 
HETATM   13  C24 UNL     1       4.600  10.293  20.157  1.00  0.00     0.014 C 
HETATM   14  C25 UNL     1       4.438   8.950  17.981  1.00  0.00     0.017 C 
HETATM   15  C26 UNL     1       3.068   8.464  18.324  1.00  0.00     0.023 C 
ENDROOT
BRANCH   1  16
HETATM   16  C14 UNL     1       5.860   7.418  19.432  1.00  0.00     0.046 C 
BRANCH  16  17
HETATM   17  C13 UNL     1       7.297   7.515  19.878  1.00  0.00     0.042 C 
BRANCH  17  18
HETATM   18  C2  UNL     1       7.465   8.332  21.105  1.00  0.00    -0.067 C 
HETATM   19  C1  UNL     1       7.894   9.602  20.981  1.00  0.00     0.019 C 
BRANCH  18  20
HETATM   20  C3  UNL     1       7.207   7.909  22.451  1.00  0.00     0.006 C 
HETATM   21  C4  UNL     1       6.128   7.656  23.091  1.00  0.00     0.001 C 
BRANCH  21  22
HETATM   22  C5  UNL     1       4.738   7.682  22.756  1.00  0.00     0.006 C 
BRANCH  22  23
HETATM   23  C6  UNL     1       3.840   6.771  22.635  1.00  0.00    -0.066 C 
HETATM   24  C7  UNL     1       2.883   6.663  23.855  1.00  0.00     0.048 C 
BRANCH  23  25
HETATM   25  C8  UNL     1       3.527   5.817  21.612  1.00  0.00    -0.020 C 
BRANCH  25  26
HETATM   26  C9  UNL     1       2.307   5.868  20.799  1.00  0.00     0.031 C 
BRANCH  26  27
HETATM   27  C10 UNL     1       2.361   4.631  19.852  1.00  0.00    -0.019 C 
HETATM   28  C11 UNL     1       3.290   4.940  18.722  1.00  0.00     0.010 C 
HETATM   29  C12 UNL     1       0.945   4.391  19.414  1.00  0.00     0.010 C 
ENDBRANCH  26  27
ENDBRANCH  25  26
ENDBRANCH  23  25
ENDBRANCH  22  23
ENDBRANCH  21  22
ENDBRANCH  18  20
ENDBRANCH  17  18
ENDBRANCH  16  17
ENDBRANCH   1  16
BRANCH  11  30
HETATM   30  O4  UNL     1       5.809  12.312  18.603  1.00  0.00    -0.393 OA
ATOM     31  H4  UNL     1       6.165  12.362  19.482  1.00  0.00     0.210 HD
ENDBRANCH  11  30
TORSDOF 10
ENDMDL
