MODEL 1
REMARK VINA RESULT: -8.532017738      0.000      0.000
REMARK  7 active torsions:
REMARK  status: ('A' for Active; 'I' for Inactive)
REMARK    1  A    between atoms: N1_10  and  C8_11 
REMARK    2  A    between atoms: C8_11  and  C9_12 
REMARK    3  A    between atoms: C9_12  and  C11_14 
REMARK    4  A    between atoms: C11_14  and  C12_15 
REMARK    5  A    between atoms: C12_15  and  C13_16 
REMARK    6  A    between atoms: C12_15  and  S1_18 
REMARK    7  A    between atoms: S1_18  and  C15_19 
ROOT
HETATM    1  C9  UNL     1       2.984   6.825  17.551  1.00  0.00     0.033 C 
HETATM    2  C10 UNL     1       1.521   6.505  17.579  1.00  0.00     0.016 C 
ENDROOT
BRANCH   1   3
HETATM    3  C8  UNL     1       3.686   5.960  18.643  1.00  0.00     0.280 C 
BRANCH   3   4
HETATM    4  N1  UNL     1       4.400   6.821  19.532  1.00  0.00     0.094 N 
HETATM    5  C6  UNL     1       4.121   6.609  20.912  1.00  0.00     0.221 C 
HETATM    6  C5  UNL     1       4.410   7.869  21.703  1.00  0.00     0.068 C 
HETATM    7  C7  UNL     1       2.721   6.098  21.166  1.00  0.00     0.043 C 
HETATM    8  C4  UNL     1       5.551   8.559  21.045  1.00  0.00     0.144 C 
HETATM    9  O2  UNL     1       6.416   9.263  21.881  1.00  0.00    -0.311 OA
HETATM   10  C24 UNL     1       6.480   7.460  20.510  1.00  0.00     0.082 C 
HETATM   11  C3  UNL     1       7.613   9.398  21.147  1.00  0.00     0.289 C 
HETATM   12  C2  UNL     1       7.691   8.267  20.227  1.00  0.00     0.016 C 
HETATM   13  O1  UNL     1       8.461  10.339  21.274  1.00  0.00    -0.260 OA
HETATM   14  C1  UNL     1       8.662   8.082  19.363  1.00  0.00     0.025 C 
HETATM   15  C23 UNL     1       5.811   6.929  19.264  1.00  0.00     0.285 C 
ENDBRANCH   3   4
ENDBRANCH   1   3
BRANCH   1  16
HETATM   16  C11 UNL     1       3.630   6.634  16.256  1.00  0.00    -0.007 C 
BRANCH  16  17
HETATM   17  C12 UNL     1       4.727   7.477  15.778  1.00  0.00    -0.025 C 
BRANCH  17  18
HETATM   18  C13 UNL     1       6.077   6.959  15.549  1.00  0.00     0.041 C 
HETATM   19  C14 UNL     1       7.134   8.004  15.982  1.00  0.00     0.010 C 
ENDBRANCH  17  18
BRANCH  17  20
HETATM   20  S1  UNL     1       4.177   8.602  14.439  1.00  0.00    -0.129 SA
BRANCH  20  21
HETATM   21  C15 UNL     1       4.131  10.278  14.984  1.00  0.00     0.056 C 
HETATM   22  C16 UNL     1       3.110  11.187  14.409  1.00  0.00     0.016 C 
HETATM   23  C17 UNL     1       3.618  12.626  14.632  1.00  0.00     0.002 C 
HETATM   24  C18 UNL     1       3.778  12.886  16.115  1.00  0.00     0.005 C 
HETATM   25  C19 UNL     1       4.493  11.802  16.850  1.00  0.00    -0.014 C 
HETATM   26  C20 UNL     1       5.998  11.917  16.721  1.00  0.00     0.010 C 
HETATM   27  C21 UNL     1       4.012  10.408  16.511  1.00  0.00    -0.001 C 
HETATM   28  C22 UNL     1       2.606  10.222  16.972  1.00  0.00     0.011 C 
ENDBRANCH  20  21
ENDBRANCH  17  20
ENDBRANCH  16  17
ENDBRANCH   1  16
TORSDOF 7
ENDMDL
MODEL 2
REMARK VINA RESULT: -8.520560843      1.450      4.004
REMARK  7 active torsions:
REMARK  status: ('A' for Active; 'I' for Inactive)
REMARK    1  A    between atoms: N1_10  and  C8_11 
REMARK    2  A    between atoms: C8_11  and  C9_12 
REMARK    3  A    between atoms: C9_12  and  C11_14 
REMARK    4  A    between atoms: C11_14  and  C12_15 
REMARK    5  A    between atoms: C12_15  and  C13_16 
REMARK    6  A    between atoms: C12_15  and  S1_18 
REMARK    7  A    between atoms: S1_18  and  C15_19 
ROOT
HETATM    1  C9  UNL     1       3.914  10.432  17.982  1.00  0.00     0.033 C 
HETATM    2  C10 UNL     1       3.049  11.579  18.407  1.00  0.00     0.016 C 
ENDROOT
BRANCH   1   3
HETATM    3  C8  UNL     1       3.109   9.114  18.206  1.00  0.00     0.280 C 
BRANCH   3   4
HETATM    4  N1  UNL     1       3.668   8.409  19.315  1.00  0.00     0.094 N 
HETATM    5  C6  UNL     1       3.343   7.023  19.359  1.00  0.00     0.221 C 
HETATM    6  C5  UNL     1       3.438   6.508  20.782  1.00  0.00     0.068 C 
HETATM    7  C7  UNL     1       2.001   6.705  18.738  1.00  0.00     0.043 C 
HETATM    8  C4  UNL     1       4.522   7.266  21.460  1.00  0.00     0.144 C 
HETATM    9  O2  UNL     1       5.252   6.575  22.424  1.00  0.00    -0.311 OA
HETATM   10  C24 UNL     1       5.602   7.532  20.400  1.00  0.00     0.082 C 
HETATM   11  C3  UNL     1       6.463   7.288  22.555  1.00  0.00     0.289 C 
HETATM   12  C2  UNL     1       6.723   7.946  21.278  1.00  0.00     0.016 C 
HETATM   13  O1  UNL     1       7.186   7.340  23.602  1.00  0.00    -0.260 OA
HETATM   14  C1  UNL     1       7.753   8.724  21.044  1.00  0.00     0.025 C 
HETATM   15  C23 UNL     1       5.068   8.655  19.544  1.00  0.00     0.285 C 
ENDBRANCH   3   4
ENDBRANCH   1   3
BRANCH   1  16
HETATM   16  C11 UNL     1       4.399  10.506  16.608  1.00  0.00    -0.007 C 
BRANCH  16  17
HETATM   17  C12 UNL     1       3.545  10.261  15.444  1.00  0.00    -0.025 C 
BRANCH  17  18
HETATM   18  C13 UNL     1       3.179  11.318  14.499  1.00  0.00     0.041 C 
HETATM   19  C14 UNL     1       3.928  12.629  14.844  1.00  0.00     0.010 C 
ENDBRANCH  17  18
BRANCH  17  20
HETATM   20  S1  UNL     1       3.991   8.696  14.600  1.00  0.00    -0.129 SA
BRANCH  20  21
HETATM   21  C15 UNL     1       5.147   7.761  15.546  1.00  0.00     0.056 C 
HETATM   22  C16 UNL     1       4.838   6.342  15.850  1.00  0.00     0.016 C 
HETATM   23  C17 UNL     1       5.693   5.953  17.074  1.00  0.00     0.002 C 
HETATM   24  C18 UNL     1       7.161   6.111  16.741  1.00  0.00     0.005 C 
HETATM   25  C19 UNL     1       7.499   7.402  16.073  1.00  0.00    -0.014 C 
HETATM   26  C20 UNL     1       7.654   8.538  17.063  1.00  0.00     0.010 C 
HETATM   27  C21 UNL     1       6.562   7.774  14.944  1.00  0.00    -0.001 C 
HETATM   28  C22 UNL     1       6.694   6.798  13.824  1.00  0.00     0.011 C 
ENDBRANCH  20  21
ENDBRANCH  17  20
ENDBRANCH  16  17
ENDBRANCH   1  16
TORSDOF 7
ENDMDL
MODEL 3
REMARK VINA RESULT: -8.502258265      2.975      5.187
REMARK  7 active torsions:
REMARK  status: ('A' for Active; 'I' for Inactive)
REMARK    1  A    between atoms: N1_10  and  C8_11 
REMARK    2  A    between atoms: C8_11  and  C9_12 
REMARK    3  A    between atoms: C9_12  and  C11_14 
REMARK    4  A    between atoms: C11_14  and  C12_15 
REMARK    5  A    between atoms: C12_15  and  C13_16 
REMARK    6  A    between atoms: C12_15  and  S1_18 
REMARK    7  A    between atoms: S1_18  and  C15_19 
ROOT
HETATM    1  C9  UNL     1       2.904   5.569  19.019  1.00  0.00     0.033 C 
HETATM    2  C10 UNL     1       2.616   4.108  19.178  1.00  0.00     0.016 C 
ENDROOT
BRANCH   1   3
HETATM    3  C8  UNL     1       2.020   6.109  17.852  1.00  0.00     0.280 C 
BRANCH   3   4
HETATM    4  N1  UNL     1       2.848   6.828  16.935  1.00  0.00     0.094 N 
HETATM    5  C6  UNL     1       2.879   8.235  17.147  1.00  0.00     0.221 C 
HETATM    6  C5  UNL     1       3.245   8.949  15.860  1.00  0.00     0.068 C 
HETATM    7  C7  UNL     1       1.600   8.779  17.743  1.00  0.00     0.043 C 
HETATM    8  C4  UNL     1       4.175   8.066  15.107  1.00  0.00     0.144 C 
HETATM    9  O2  UNL     1       5.148   8.701  14.339  1.00  0.00    -0.311 OA
HETATM   10  C24 UNL     1       5.040   7.346  16.152  1.00  0.00     0.082 C 
HETATM   11  C3  UNL     1       6.153   7.731  14.138  1.00  0.00     0.289 C 
HETATM   12  C2  UNL     1       6.109   6.814  15.273  1.00  0.00     0.016 C 
HETATM   13  O1  UNL     1       6.946   7.677  13.142  1.00  0.00    -0.260 OA
HETATM   14  C1  UNL     1       6.887   5.765  15.406  1.00  0.00     0.025 C 
HETATM   15  C23 UNL     1       4.160   6.269  16.740  1.00  0.00     0.285 C 
ENDBRANCH   3   4
ENDBRANCH   1   3
BRANCH   1  16
HETATM   16  C11 UNL     1       2.703   6.368  20.223  1.00  0.00    -0.007 C 
BRANCH  16  17
HETATM   17  C12 UNL     1       3.809   6.870  21.042  1.00  0.00    -0.025 C 
BRANCH  17  18
HETATM   18  C13 UNL     1       4.209   6.236  22.300  1.00  0.00     0.041 C 
HETATM   19  C14 UNL     1       5.434   6.965  22.902  1.00  0.00     0.010 C 
ENDBRANCH  17  18
BRANCH  17  20
HETATM   20  S1  UNL     1       5.249   7.345  20.011  1.00  0.00    -0.129 SA
BRANCH  20  21
HETATM   21  C15 UNL     1       5.190   9.050  19.570  1.00  0.00     0.056 C 
HETATM   22  C16 UNL     1       4.393   9.977  20.410  1.00  0.00     0.016 C 
HETATM   23  C17 UNL     1       4.085  11.213  19.540  1.00  0.00     0.002 C 
HETATM   24  C18 UNL     1       5.380  11.872  19.113  1.00  0.00     0.005 C 
HETATM   25  C19 UNL     1       6.401  10.922  18.586  1.00  0.00    -0.014 C 
HETATM   26  C20 UNL     1       6.162  10.568  17.132  1.00  0.00     0.010 C 
HETATM   27  C21 UNL     1       6.585   9.682  19.435  1.00  0.00    -0.001 C 
HETATM   28  C22 UNL     1       7.155  10.048  20.763  1.00  0.00     0.011 C 
ENDBRANCH  20  21
ENDBRANCH  17  20
ENDBRANCH  16  17
ENDBRANCH   1  16
TORSDOF 7
ENDMDL
MODEL 4
REMARK VINA RESULT: -8.356479121      1.879      5.031
REMARK  7 active torsions:
REMARK  status: ('A' for Active; 'I' for Inactive)
REMARK    1  A    between atoms: N1_10  and  C8_11 
REMARK    2  A    between atoms: C8_11  and  C9_12 
REMARK    3  A    between atoms: C9_12  and  C11_14 
REMARK    4  A    between atoms: C11_14  and  C12_15 
REMARK    5  A    between atoms: C12_15  and  C13_16 
REMARK    6  A    between atoms: C12_15  and  S1_18 
REMARK    7  A    between atoms: S1_18  and  C15_19 
ROOT
HETATM    1  C9  UNL     1       3.982   8.548  15.425  1.00  0.00     0.033 C 
HETATM    2  C10 UNL     1       3.722   8.407  13.957  1.00  0.00     0.016 C 
ENDROOT
BRANCH   1   3
HETATM    3  C8  UNL     1       5.498   8.862  15.618  1.00  0.00     0.280 C 
BRANCH   3   4
HETATM    4  N1  UNL     1       5.911   8.395  16.903  1.00  0.00     0.094 N 
HETATM    5  C6  UNL     1       6.868   7.342  16.868  1.00  0.00     0.221 C 
HETATM    6  C5  UNL     1       6.800   6.531  18.148  1.00  0.00     0.068 C 
HETATM    7  C7  UNL     1       6.746   6.463  15.643  1.00  0.00     0.043 C 
HETATM    8  C4  UNL     1       6.428   7.461  19.247  1.00  0.00     0.144 C 
HETATM    9  O2  UNL     1       6.962   7.181  20.503  1.00  0.00    -0.311 OA
HETATM   10  C24 UNL     1       7.098   8.807  18.930  1.00  0.00     0.082 C 
HETATM   11  C3  UNL     1       6.887   8.396  21.217  1.00  0.00     0.289 C 
HETATM   12  C2  UNL     1       6.946   9.481  20.242  1.00  0.00     0.016 C 
HETATM   13  O1  UNL     1       6.785   8.510  22.482  1.00  0.00    -0.260 OA
HETATM   14  C1  UNL     1       6.873  10.755  20.548  1.00  0.00     0.025 C 
HETATM   15  C23 UNL     1       6.264   9.432  17.837  1.00  0.00     0.285 C 
ENDBRANCH   3   4
ENDBRANCH   1   3
BRANCH   1  16
HETATM   16  C11 UNL     1       3.163   9.551  16.100  1.00  0.00    -0.007 C 
BRANCH  16  17
HETATM   17  C12 UNL     1       2.746   9.432  17.498  1.00  0.00    -0.025 C 
BRANCH  17  18
HETATM   18  C13 UNL     1       2.793  10.559  18.432  1.00  0.00     0.041 C 
HETATM   19  C14 UNL     1       3.413  11.800  17.745  1.00  0.00     0.010 C 
ENDBRANCH  17  18
BRANCH  17  20
HETATM   20  S1  UNL     1       1.201   8.458  17.660  1.00  0.00    -0.129 SA
BRANCH  20  21
HETATM   21  C15 UNL     1       1.496   6.911  18.453  1.00  0.00     0.056 C 
HETATM   22  C16 UNL     1       0.687   5.737  18.046  1.00  0.00     0.016 C 
HETATM   23  C17 UNL     1       0.761   4.722  19.205  1.00  0.00     0.002 C 
HETATM   24  C18 UNL     1       2.202   4.315  19.434  1.00  0.00     0.005 C 
HETATM   25  C19 UNL     1       3.157   5.458  19.485  1.00  0.00    -0.014 C 
HETATM   26  C20 UNL     1       3.185   6.126  20.844  1.00  0.00     0.010 C 
HETATM   27  C21 UNL     1       2.966   6.469  18.375  1.00  0.00    -0.001 C 
HETATM   28  C22 UNL     1       3.287   5.852  17.056  1.00  0.00     0.011 C 
ENDBRANCH  20  21
ENDBRANCH  17  20
ENDBRANCH  16  17
ENDBRANCH   1  16
TORSDOF 7
ENDMDL
MODEL 5
REMARK VINA RESULT: -8.238437555      2.933      6.394
REMARK  7 active torsions:
REMARK  status: ('A' for Active; 'I' for Inactive)
REMARK    1  A    between atoms: N1_10  and  C8_11 
REMARK    2  A    between atoms: C8_11  and  C9_12 
REMARK    3  A    between atoms: C9_12  and  C11_14 
REMARK    4  A    between atoms: C11_14  and  C12_15 
REMARK    5  A    between atoms: C12_15  and  C13_16 
REMARK    6  A    between atoms: C12_15  and  S1_18 
REMARK    7  A    between atoms: S1_18  and  C15_19 
ROOT
HETATM    1  C9  UNL     1       3.939  10.762  18.558  1.00  0.00     0.033 C 
HETATM    2  C10 UNL     1       3.341  12.095  18.886  1.00  0.00     0.016 C 
ENDROOT
BRANCH   1   3
HETATM    3  C8  UNL     1       3.581  10.426  17.077  1.00  0.00     0.280 C 
BRANCH   3   4
HETATM    4  N1  UNL     1       3.981   9.084  16.794  1.00  0.00     0.094 N 
HETATM    5  C6  UNL     1       2.913   8.142  16.768  1.00  0.00     0.221 C 
HETATM    6  C5  UNL     1       3.436   6.750  17.062  1.00  0.00     0.068 C 
HETATM    7  C7  UNL     1       1.768   8.513  17.683  1.00  0.00     0.043 C 
HETATM    8  C4  UNL     1       4.812   6.663  16.505  1.00  0.00     0.144 C 
HETATM    9  O2  UNL     1       5.207   5.417  16.021  1.00  0.00    -0.311 OA
HETATM   10  C24 UNL     1       4.820   7.502  15.219  1.00  0.00     0.082 C 
HETATM   11  C3  UNL     1       6.282   5.684  15.146  1.00  0.00     0.289 C 
HETATM   12  C2  UNL     1       6.092   7.032  14.618  1.00  0.00     0.016 C 
HETATM   13  O1  UNL     1       7.237   4.886  14.876  1.00  0.00    -0.260 OA
HETATM   14  C1  UNL     1       6.921   7.626  13.792  1.00  0.00     0.025 C 
HETATM   15  C23 UNL     1       4.869   8.942  15.670  1.00  0.00     0.285 C 
ENDBRANCH   3   4
ENDBRANCH   1   3
BRANCH   1  16
HETATM   16  C11 UNL     1       5.380  10.668  18.768  1.00  0.00    -0.007 C 
BRANCH  16  17
HETATM   17  C12 UNL     1       5.982   9.848  19.822  1.00  0.00    -0.025 C 
BRANCH  17  18
HETATM   18  C13 UNL     1       7.404   9.924  20.164  1.00  0.00     0.041 C 
HETATM   19  C14 UNL     1       8.089   8.558  19.920  1.00  0.00     0.010 C 
ENDBRANCH  17  18
BRANCH  17  20
HETATM   20  S1  UNL     1       4.911   9.768  21.307  1.00  0.00    -0.129 SA
BRANCH  20  21
HETATM   21  C15 UNL     1       4.244   8.152  21.534  1.00  0.00     0.056 C 
HETATM   22  C16 UNL     1       4.283   7.200  20.397  1.00  0.00     0.016 C 
HETATM   23  C17 UNL     1       3.208   6.128  20.678  1.00  0.00     0.002 C 
HETATM   24  C18 UNL     1       3.527   5.414  21.974  1.00  0.00     0.005 C 
HETATM   25  C19 UNL     1       3.872   6.325  23.103  1.00  0.00    -0.014 C 
HETATM   26  C20 UNL     1       2.643   6.895  23.780  1.00  0.00     0.010 C 
HETATM   27  C21 UNL     1       4.857   7.414  22.735  1.00  0.00    -0.001 C 
HETATM   28  C22 UNL     1       6.182   6.818  22.399  1.00  0.00     0.011 C 
ENDBRANCH  20  21
ENDBRANCH  17  20
ENDBRANCH  16  17
ENDBRANCH   1  16
TORSDOF 7
ENDMDL
