MODEL 1
REMARK VINA RESULT: -9.003589026      0.000      0.000
REMARK  11 active torsions:
REMARK  status: ('A' for Active; 'I' for Inactive)
REMARK    1  A    between atoms: C2_2  and  C3_3 
REMARK    2  A    between atoms: C3_3  and  C4_4 
REMARK    3  A    between atoms: C4_4  and  C5_5 
REMARK    4  A    between atoms: C4_4  and  C7_7 
REMARK    5  A    between atoms: C7_7  and  C8_8 
REMARK    6  A    between atoms: C8_8  and  O1_10 
REMARK    7  A    between atoms: O1_10  and  C10_11 
REMARK    8  A    between atoms: C13_14  and  O2_15 
REMARK    9  A    between atoms: C22_25  and  O3_26 
REMARK   10  A    between atoms: C25_30  and  C26_31 
REMARK   11  A    between atoms: C27_32  and  C29_34 
ROOT
HETATM    1  C10 UNL     1       5.304   9.401  20.480  1.00  0.00     0.122 C 
HETATM    2  C11 UNL     1       5.045  10.893  20.510  1.00  0.00     0.035 C 
HETATM    3  C12 UNL     1       3.916  11.167  19.493  1.00  0.00     0.042 C 
HETATM    4  C13 UNL     1       4.430  10.956  18.107  1.00  0.00     0.073 C 
HETATM    5  C14 UNL     1       5.361   9.835  18.061  1.00  0.00     0.027 C 
HETATM    6  C15 UNL     1       5.199   8.773  19.126  1.00  0.00     0.040 C 
HETATM    7  C16 UNL     1       5.688   9.239  16.718  1.00  0.00    -0.011 C 
HETATM    8  C17 UNL     1       6.352   7.912  16.890  1.00  0.00     0.010 C 
HETATM    9  C18 UNL     1       4.473   9.175  15.857  1.00  0.00     0.011 C 
HETATM   10  C19 UNL     1       3.909  10.573  15.792  1.00  0.00     0.007 C 
HETATM   11  C20 UNL     1       3.245  10.942  14.536  1.00  0.00     0.015 C 
HETATM   12  C21 UNL     1       4.126  10.437  13.397  1.00  0.00     0.013 C 
HETATM   13  C22 UNL     1       3.220  12.441  14.443  1.00  0.00     0.122 C 
HETATM   14  C23 UNL     1       3.238  13.150  15.736  1.00  0.00     0.033 C 
HETATM   15  C24 UNL     1       2.914  12.427  16.978  1.00  0.00     0.019 C 
HETATM   16  C25 UNL     1       3.272  10.983  17.089  1.00  0.00     0.013 C 
ENDROOT
BRANCH   1  17
HETATM   17  O1  UNL     1       6.613   9.174  20.964  1.00  0.00    -0.377 OA
BRANCH  17  18
HETATM   18  C8  UNL     1       6.662   8.026  21.790  1.00  0.00     0.141 C 
HETATM   19  C9  UNL     1       7.165   6.851  21.025  1.00  0.00     0.044 C 
BRANCH  18  20
HETATM   20  C7  UNL     1       5.318   7.856  22.362  1.00  0.00     0.011 C 
BRANCH  20  21
HETATM   21  C4  UNL     1       4.806   6.530  22.796  1.00  0.00    -0.064 C 
BRANCH  21  22
HETATM   22  C3  UNL     1       3.826   5.812  21.996  1.00  0.00    -0.020 C 
BRANCH  22  23
HETATM   23  C2  UNL     1       3.070   6.451  20.908  1.00  0.00     0.023 C 
HETATM   24  C1  UNL     1       2.422   5.549  19.918  1.00  0.00     0.009 C 
ENDBRANCH  22  23
ENDBRANCH  21  22
BRANCH  21  25
HETATM   25  C5  UNL     1       4.586   6.630  24.292  1.00  0.00     0.033 C 
HETATM   26  C6  UNL     1       3.212   6.182  24.683  1.00  0.00     0.010 C 
ENDBRANCH  21  25
ENDBRANCH  20  21
ENDBRANCH  18  20
ENDBRANCH  17  18
ENDBRANCH   1  17
BRANCH   4  27
HETATM   27  O2  UNL     1       5.218  12.138  17.859  1.00  0.00    -0.388 OA
ATOM     28  H2  UNL     1       4.632  12.848  18.095  1.00  0.00     0.210 HD
ENDBRANCH   4  27
BRANCH  16  29
HETATM   29  C26 UNL     1       2.178  10.202  17.569  1.00  0.00    -0.004 C 
HETATM   30  C27 UNL     1       1.621   9.063  17.572  1.00  0.00    -0.027 C 
HETATM   31  C28 UNL     1       0.304   8.878  18.391  1.00  0.00     0.051 C 
BRANCH  30  32
HETATM   32  C29 UNL     1       1.967   7.829  16.981  1.00  0.00     0.265 C 
HETATM   33  O4  UNL     1       1.206   6.891  16.715  1.00  0.00    -0.302 OA
ENDBRANCH  30  32
ENDBRANCH  16  29
BRANCH  13  34
HETATM   34  O3  UNL     1       2.134  12.879  13.666  1.00  0.00    -0.395 OA
ATOM     35  H3  UNL     1       1.724  13.643  14.056  1.00  0.00     0.210 HD
ENDBRANCH  13  34
TORSDOF 11
ENDMDL
MODEL 2
REMARK VINA RESULT: -8.845107680      2.469      4.402
REMARK  11 active torsions:
REMARK  status: ('A' for Active; 'I' for Inactive)
REMARK    1  A    between atoms: C2_2  and  C3_3 
REMARK    2  A    between atoms: C3_3  and  C4_4 
REMARK    3  A    between atoms: C4_4  and  C5_5 
REMARK    4  A    between atoms: C4_4  and  C7_7 
REMARK    5  A    between atoms: C7_7  and  C8_8 
REMARK    6  A    between atoms: C8_8  and  O1_10 
REMARK    7  A    between atoms: O1_10  and  C10_11 
REMARK    8  A    between atoms: C13_14  and  O2_15 
REMARK    9  A    between atoms: C22_25  and  O3_26 
REMARK   10  A    between atoms: C25_30  and  C26_31 
REMARK   11  A    between atoms: C27_32  and  C29_34 
ROOT
HETATM    1  C10 UNL     1       7.370   7.598  18.540  1.00  0.00     0.122 C 
HETATM    2  C11 UNL     1       6.821   6.186  18.565  1.00  0.00     0.035 C 
HETATM    3  C12 UNL     1       5.604   6.169  17.615  1.00  0.00     0.042 C 
HETATM    4  C13 UNL     1       4.489   6.960  18.216  1.00  0.00     0.073 C 
HETATM    5  C14 UNL     1       5.000   8.130  18.919  1.00  0.00     0.027 C 
HETATM    6  C15 UNL     1       6.333   8.673  18.455  1.00  0.00     0.040 C 
HETATM    7  C16 UNL     1       4.033   9.231  19.261  1.00  0.00    -0.011 C 
HETATM    8  C17 UNL     1       4.774  10.470  19.643  1.00  0.00     0.010 C 
HETATM    9  C18 UNL     1       3.066   9.450  18.148  1.00  0.00     0.011 C 
HETATM   10  C19 UNL     1       2.414   8.119  17.867  1.00  0.00     0.007 C 
HETATM   11  C20 UNL     1       1.018   8.169  17.412  1.00  0.00     0.015 C 
HETATM   12  C21 UNL     1       0.296   9.186  18.292  1.00  0.00     0.013 C 
HETATM   13  C22 UNL     1       0.392   6.831  17.680  1.00  0.00     0.122 C 
HETATM   14  C23 UNL     1       1.329   5.692  17.701  1.00  0.00     0.033 C 
HETATM   15  C24 UNL     1       2.677   5.835  17.124  1.00  0.00     0.019 C 
HETATM   16  C25 UNL     1       3.355   7.164  17.192  1.00  0.00     0.013 C 
ENDROOT
BRANCH   1  17
HETATM   17  O1  UNL     1       8.110   7.801  19.728  1.00  0.00    -0.377 OA
BRANCH  17  18
HETATM   18  C8  UNL     1       7.287   8.302  20.765  1.00  0.00     0.141 C 
HETATM   19  C9  UNL     1       7.840   9.576  21.303  1.00  0.00     0.044 C 
BRANCH  18  20
HETATM   20  C7  UNL     1       7.150   7.225  21.757  1.00  0.00     0.011 C 
BRANCH  20  21
HETATM   21  C4  UNL     1       6.017   7.173  22.717  1.00  0.00    -0.064 C 
BRANCH  21  22
HETATM   22  C3  UNL     1       4.683   7.592  22.316  1.00  0.00    -0.020 C 
BRANCH  22  23
HETATM   23  C2  UNL     1       3.485   6.779  22.579  1.00  0.00     0.023 C 
HETATM   24  C1  UNL     1       3.137   6.535  24.004  1.00  0.00     0.009 C 
ENDBRANCH  22  23
ENDBRANCH  21  22
BRANCH  21  25
HETATM   25  C5  UNL     1       6.562   7.662  24.043  1.00  0.00     0.033 C 
HETATM   26  C6  UNL     1       7.933   7.123  24.313  1.00  0.00     0.010 C 
ENDBRANCH  21  25
ENDBRANCH  20  21
ENDBRANCH  18  20
ENDBRANCH  17  18
ENDBRANCH   1  17
BRANCH   4  27
HETATM   27  O2  UNL     1       3.966   6.081  19.234  1.00  0.00    -0.388 OA
ATOM     28  H2  UNL     1       3.063   6.362  19.325  1.00  0.00     0.210 HD
ENDBRANCH   4  27
BRANCH  16  29
HETATM   29  C26 UNL     1       3.898   7.544  15.927  1.00  0.00    -0.004 C 
HETATM   30  C27 UNL     1       3.699   7.616  14.677  1.00  0.00    -0.027 C 
HETATM   31  C28 UNL     1       4.834   8.194  13.772  1.00  0.00     0.051 C 
BRANCH  30  32
HETATM   32  C29 UNL     1       2.590   7.293  13.866  1.00  0.00     0.265 C 
HETATM   33  O4  UNL     1       2.534   6.415  12.996  1.00  0.00    -0.302 OA
ENDBRANCH  30  32
ENDBRANCH  16  29
BRANCH  13  34
HETATM   34  O3  UNL     1      -0.656   6.576  16.779  1.00  0.00    -0.395 OA
ATOM     35  H3  UNL     1      -0.321   6.255  15.949  1.00  0.00     0.210 HD
ENDBRANCH  13  34
TORSDOF 11
ENDMDL
MODEL 3
REMARK VINA RESULT: -8.668885568      1.203      1.465
REMARK  11 active torsions:
REMARK  status: ('A' for Active; 'I' for Inactive)
REMARK    1  A    between atoms: C2_2  and  C3_3 
REMARK    2  A    between atoms: C3_3  and  C4_4 
REMARK    3  A    between atoms: C4_4  and  C5_5 
REMARK    4  A    between atoms: C4_4  and  C7_7 
REMARK    5  A    between atoms: C7_7  and  C8_8 
REMARK    6  A    between atoms: C8_8  and  O1_10 
REMARK    7  A    between atoms: O1_10  and  C10_11 
REMARK    8  A    between atoms: C13_14  and  O2_15 
REMARK    9  A    between atoms: C22_25  and  O3_26 
REMARK   10  A    between atoms: C25_30  and  C26_31 
REMARK   11  A    between atoms: C27_32  and  C29_34 
ROOT
HETATM    1  C10 UNL     1       4.926   9.426  20.493  1.00  0.00     0.122 C 
HETATM    2  C11 UNL     1       4.645  10.804  19.931  1.00  0.00     0.035 C 
HETATM    3  C12 UNL     1       3.582  10.623  18.826  1.00  0.00     0.042 C 
HETATM    4  C13 UNL     1       4.188   9.915  17.659  1.00  0.00     0.073 C 
HETATM    5  C14 UNL     1       5.135   8.899  18.102  1.00  0.00     0.027 C 
HETATM    6  C15 UNL     1       4.918   8.322  19.483  1.00  0.00     0.040 C 
HETATM    7  C16 UNL     1       5.557   7.845  17.113  1.00  0.00    -0.011 C 
HETATM    8  C17 UNL     1       6.226   6.712  17.819  1.00  0.00     0.010 C 
HETATM    9  C18 UNL     1       4.403   7.410  16.277  1.00  0.00     0.011 C 
HETATM   10  C19 UNL     1       3.826   8.654  15.647  1.00  0.00     0.007 C 
HETATM   11  C20 UNL     1       3.240   8.486  14.311  1.00  0.00     0.015 C 
HETATM   12  C21 UNL     1       4.201   7.615  13.505  1.00  0.00     0.013 C 
HETATM   13  C22 UNL     1       3.202   9.832  13.646  1.00  0.00     0.122 C 
HETATM   14  C23 UNL     1       3.125  10.984  14.564  1.00  0.00     0.033 C 
HETATM   15  C24 UNL     1       2.730  10.782  15.969  1.00  0.00     0.019 C 
HETATM   16  C25 UNL     1       3.100   9.506  16.648  1.00  0.00     0.013 C 
ENDROOT
BRANCH   1  17
HETATM   17  O1  UNL     1       6.203   9.451  21.099  1.00  0.00    -0.377 OA
BRANCH  17  18
HETATM   18  C8  UNL     1       6.352   8.392  22.025  1.00  0.00     0.141 C 
HETATM   19  C9  UNL     1       7.197   7.308  21.450  1.00  0.00     0.044 C 
BRANCH  18  20
HETATM   20  C7  UNL     1       4.997   7.972  22.414  1.00  0.00     0.011 C 
BRANCH  20  21
HETATM   21  C4  UNL     1       4.692   6.583  22.841  1.00  0.00    -0.064 C 
BRANCH  21  22
HETATM   22  C3  UNL     1       3.857   5.718  22.023  1.00  0.00    -0.020 C 
BRANCH  22  23
HETATM   23  C2  UNL     1       2.950   6.241  20.989  1.00  0.00     0.023 C 
HETATM   24  C1  UNL     1       2.506   5.286  19.938  1.00  0.00     0.009 C 
ENDBRANCH  22  23
ENDBRANCH  21  22
BRANCH  21  25
HETATM   25  C5  UNL     1       4.426   6.646  24.331  1.00  0.00     0.033 C 
HETATM   26  C6  UNL     1       3.035   6.204  24.667  1.00  0.00     0.010 C 
ENDBRANCH  21  25
ENDBRANCH  20  21
ENDBRANCH  18  20
ENDBRANCH  17  18
ENDBRANCH   1  17
BRANCH   4  27
HETATM   27  O2  UNL     1       4.975  10.941  17.019  1.00  0.00    -0.388 OA
ATOM     28  H2  UNL     1       4.552  11.746  17.293  1.00  0.00     0.210 HD
ENDBRANCH   4  27
BRANCH  16  29
HETATM   29  C26 UNL     1       1.986   8.929  17.331  1.00  0.00    -0.004 C 
HETATM   30  C27 UNL     1       1.216   7.926  17.425  1.00  0.00    -0.027 C 
HETATM   31  C28 UNL     1       0.083   7.953  18.500  1.00  0.00     0.051 C 
BRANCH  30  32
HETATM   32  C29 UNL     1       1.170   6.690  16.745  1.00  0.00     0.265 C 
HETATM   33  O4  UNL     1       0.490   5.701  17.044  1.00  0.00    -0.302 OA
ENDBRANCH  30  32
ENDBRANCH  16  29
BRANCH  13  34
HETATM   34  O3  UNL     1       2.163   9.898  12.701  1.00  0.00    -0.395 OA
ATOM     35  H3  UNL     1       2.267  10.653  12.133  1.00  0.00     0.210 HD
ENDBRANCH  13  34
TORSDOF 11
ENDMDL
MODEL 4
REMARK VINA RESULT: -8.658953361      1.838      3.676
REMARK  11 active torsions:
REMARK  status: ('A' for Active; 'I' for Inactive)
REMARK    1  A    between atoms: C2_2  and  C3_3 
REMARK    2  A    between atoms: C3_3  and  C4_4 
REMARK    3  A    between atoms: C4_4  and  C5_5 
REMARK    4  A    between atoms: C4_4  and  C7_7 
REMARK    5  A    between atoms: C7_7  and  C8_8 
REMARK    6  A    between atoms: C8_8  and  O1_10 
REMARK    7  A    between atoms: O1_10  and  C10_11 
REMARK    8  A    between atoms: C13_14  and  O2_15 
REMARK    9  A    between atoms: C22_25  and  O3_26 
REMARK   10  A    between atoms: C25_30  and  C26_31 
REMARK   11  A    between atoms: C27_32  and  C29_34 
ROOT
HETATM    1  C10 UNL     1       2.858   6.775  18.430  1.00  0.00     0.122 C 
HETATM    2  C11 UNL     1       1.611   7.104  17.637  1.00  0.00     0.035 C 
HETATM    3  C12 UNL     1       2.075   7.869  16.379  1.00  0.00     0.042 C 
HETATM    4  C13 UNL     1       2.574   9.221  16.771  1.00  0.00     0.073 C 
HETATM    5  C14 UNL     1       3.286   9.165  18.042  1.00  0.00     0.027 C 
HETATM    6  C15 UNL     1       3.911   7.839  18.413  1.00  0.00     0.040 C 
HETATM    7  C16 UNL     1       4.169  10.326  18.411  1.00  0.00    -0.011 C 
HETATM    8  C17 UNL     1       5.073   9.949  19.539  1.00  0.00     0.010 C 
HETATM    9  C18 UNL     1       4.905  10.832  17.219  1.00  0.00     0.011 C 
HETATM   10  C19 UNL     1       3.870  11.152  16.169  1.00  0.00     0.007 C 
HETATM   11  C20 UNL     1       4.185  12.274  15.275  1.00  0.00     0.015 C 
HETATM   12  C21 UNL     1       4.743  13.398  16.144  1.00  0.00     0.013 C 
HETATM   13  C22 UNL     1       2.900  12.773  14.681  1.00  0.00     0.122 C 
HETATM   14  C23 UNL     1       1.824  11.769  14.580  1.00  0.00     0.033 C 
HETATM   15  C24 UNL     1       2.140  10.334  14.695  1.00  0.00     0.019 C 
HETATM   16  C25 UNL     1       3.266   9.911  15.579  1.00  0.00     0.013 C 
ENDROOT
BRANCH   1  17
HETATM   17  O1  UNL     1       2.479   6.562  19.776  1.00  0.00    -0.377 OA
BRANCH  17  18
HETATM   18  C8  UNL     1       3.095   5.403  20.305  1.00  0.00     0.141 C 
HETATM   19  C9  UNL     1       2.217   4.213  20.122  1.00  0.00     0.044 C 
BRANCH  18  20
HETATM   20  C7  UNL     1       3.437   5.704  21.703  1.00  0.00     0.011 C 
BRANCH  20  21
HETATM   21  C4  UNL     1       4.075   6.984  22.103  1.00  0.00    -0.064 C 
BRANCH  21  22
HETATM   22  C3  UNL     1       5.502   7.195  21.916  1.00  0.00    -0.020 C 
BRANCH  22  23
HETATM   23  C2  UNL     1       6.517   6.530  22.748  1.00  0.00     0.023 C 
HETATM   24  C1  UNL     1       7.085   7.317  23.875  1.00  0.00     0.009 C 
ENDBRANCH  22  23
ENDBRANCH  21  22
BRANCH  21  25
HETATM   25  C5  UNL     1       3.454   7.372  23.429  1.00  0.00     0.033 C 
HETATM   26  C6  UNL     1       3.258   6.183  24.319  1.00  0.00     0.010 C 
ENDBRANCH  21  25
ENDBRANCH  20  21
ENDBRANCH  18  20
ENDBRANCH  17  18
ENDBRANCH   1  17
BRANCH   4  27
HETATM   27  O2  UNL     1       1.363   9.963  17.025  1.00  0.00    -0.388 OA
ATOM     28  H2  UNL     1       1.497  10.773  16.548  1.00  0.00     0.210 HD
ENDBRANCH   4  27
BRANCH  16  29
HETATM   29  C26 UNL     1       4.138   8.994  14.919  1.00  0.00    -0.004 C 
HETATM   30  C27 UNL     1       4.249   8.120  14.006  1.00  0.00    -0.027 C 
HETATM   31  C28 UNL     1       5.634   7.427  13.800  1.00  0.00     0.051 C 
BRANCH  30  32
HETATM   32  C29 UNL     1       3.342   7.619  13.048  1.00  0.00     0.265 C 
HETATM   33  O4  UNL     1       2.675   6.580  13.126  1.00  0.00    -0.302 OA
ENDBRANCH  30  32
ENDBRANCH  16  29
BRANCH  13  34
HETATM   34  O3  UNL     1       3.122  13.369  13.428  1.00  0.00    -0.395 OA
ATOM     35  H3  UNL     1       2.301  13.533  12.978  1.00  0.00     0.210 HD
ENDBRANCH  13  34
TORSDOF 11
ENDMDL
MODEL 5
REMARK VINA RESULT: -8.508903933      1.324      1.858
REMARK  11 active torsions:
REMARK  status: ('A' for Active; 'I' for Inactive)
REMARK    1  A    between atoms: C2_2  and  C3_3 
REMARK    2  A    between atoms: C3_3  and  C4_4 
REMARK    3  A    between atoms: C4_4  and  C5_5 
REMARK    4  A    between atoms: C4_4  and  C7_7 
REMARK    5  A    between atoms: C7_7  and  C8_8 
REMARK    6  A    between atoms: C8_8  and  O1_10 
REMARK    7  A    between atoms: O1_10  and  C10_11 
REMARK    8  A    between atoms: C13_14  and  O2_15 
REMARK    9  A    between atoms: C22_25  and  O3_26 
REMARK   10  A    between atoms: C25_30  and  C26_31 
REMARK   11  A    between atoms: C27_32  and  C29_34 
ROOT
HETATM    1  C10 UNL     1       4.953   7.740  19.410  1.00  0.00     0.122 C 
HETATM    2  C11 UNL     1       5.151   9.193  19.789  1.00  0.00     0.035 C 
HETATM    3  C12 UNL     1       3.964   9.973  19.186  1.00  0.00     0.042 C 
HETATM    4  C13 UNL     1       4.091  10.008  17.699  1.00  0.00     0.073 C 
HETATM    5  C14 UNL     1       4.624   8.749  17.193  1.00  0.00     0.027 C 
HETATM    6  C15 UNL     1       4.388   7.520  18.042  1.00  0.00     0.040 C 
HETATM    7  C16 UNL     1       4.474   8.454  15.724  1.00  0.00    -0.011 C 
HETATM    8  C17 UNL     1       4.744   7.011  15.456  1.00  0.00     0.010 C 
HETATM    9  C18 UNL     1       3.141   8.900  15.228  1.00  0.00     0.011 C 
HETATM   10  C19 UNL     1       3.008  10.360  15.583  1.00  0.00     0.007 C 
HETATM   11  C20 UNL     1       2.231  11.182  14.647  1.00  0.00     0.015 C 
HETATM   12  C21 UNL     1       2.667  10.791  13.237  1.00  0.00     0.013 C 
HETATM   13  C22 UNL     1       2.625  12.617  14.847  1.00  0.00     0.122 C 
HETATM   14  C23 UNL     1       3.119  12.949  16.197  1.00  0.00     0.033 C 
HETATM   15  C24 UNL     1       2.867  12.032  17.322  1.00  0.00     0.019 C 
HETATM   16  C25 UNL     1       2.804  10.564  17.057  1.00  0.00     0.013 C 
ENDROOT
BRANCH   1  17
HETATM   17  O1  UNL     1       6.210   7.096  19.469  1.00  0.00    -0.377 OA
BRANCH  17  18
HETATM   18  C8  UNL     1       6.988   7.588  20.544  1.00  0.00     0.141 C 
HETATM   19  C9  UNL     1       8.339   7.997  20.069  1.00  0.00     0.044 C 
BRANCH  18  20
HETATM   20  C7  UNL     1       6.993   6.543  21.579  1.00  0.00     0.011 C 
BRANCH  20  21
HETATM   21  C4  UNL     1       6.020   6.537  22.702  1.00  0.00    -0.064 C 
BRANCH  21  22
HETATM   22  C3  UNL     1       4.616   6.237  22.469  1.00  0.00    -0.020 C 
BRANCH  22  23
HETATM   23  C2  UNL     1       3.535   6.838  23.266  1.00  0.00     0.023 C 
HETATM   24  C1  UNL     1       3.210   6.183  24.561  1.00  0.00     0.009 C 
ENDBRANCH  22  23
ENDBRANCH  21  22
BRANCH  21  25
HETATM   25  C5  UNL     1       6.371   7.727  23.572  1.00  0.00     0.033 C 
HETATM   26  C6  UNL     1       7.683   7.536  24.271  1.00  0.00     0.010 C 
ENDBRANCH  21  25
ENDBRANCH  20  21
ENDBRANCH  18  20
ENDBRANCH  17  18
ENDBRANCH   1  17
BRANCH   4  27
HETATM   27  O2  UNL     1       5.119  10.995  17.474  1.00  0.00    -0.388 OA
ATOM     28  H2  UNL     1       5.077  11.537  18.253  1.00  0.00     0.210 HD
ENDBRANCH   4  27
BRANCH  16  29
HETATM   29  C26 UNL     1       1.656   9.967  17.660  1.00  0.00    -0.004 C 
HETATM   30  C27 UNL     1       0.961   8.913  17.782  1.00  0.00    -0.027 C 
HETATM   31  C28 UNL     1      -0.307   8.956  18.692  1.00  0.00     0.051 C 
BRANCH  30  32
HETATM   32  C29 UNL     1       1.106   7.609  17.263  1.00  0.00     0.265 C 
HETATM   33  O4  UNL     1       0.214   6.766  17.108  1.00  0.00    -0.302 OA
ENDBRANCH  30  32
ENDBRANCH  16  29
BRANCH  13  34
HETATM   34  O3  UNL     1       1.575  13.482  14.491  1.00  0.00    -0.395 OA
ATOM     35  H3  UNL     1       1.665  14.323  14.925  1.00  0.00     0.210 HD
ENDBRANCH  13  34
TORSDOF 11
ENDMDL
