MODEL 1
REMARK VINA RESULT: -6.094841941      0.000      0.000
REMARK  10 active torsions:
REMARK  status: ('A' for Active; 'I' for Inactive)
REMARK    1  A    between atoms: C2_2  and  C3_3 
REMARK    2  A    between atoms: C3_3  and  C4_4 
REMARK    3  A    between atoms: C4_4  and  C5_5 
REMARK    4  A    between atoms: C5_5  and  O1_6 
REMARK    5  A    between atoms: C5_5  and  C6_8 
REMARK    6  A    between atoms: C5_5  and  C28_34 
REMARK    7  A    between atoms: C7_9  and  C8_10 
REMARK    8  A    between atoms: C13_15  and  C14_16 
REMARK    9  A    between atoms: C15_17  and  C16_18 
REMARK   10  A    between atoms: C26_30  and  O4_31 
ROOT
HETATM    1  C14 UNL     1       3.121   7.504  17.825  1.00  0.00    -0.021 C 
HETATM    2  C15 UNL     1       2.998   7.806  19.080  1.00  0.00    -0.001 C 
ENDROOT
BRANCH   1   3
HETATM    3  C13 UNL     1       2.598   8.309  16.683  1.00  0.00     0.016 C 
HETATM    4  C8  UNL     1       3.603   9.106  15.946  1.00  0.00     0.015 C 
HETATM    5  C9  UNL     1       4.230   8.437  14.762  1.00  0.00     0.009 C 
HETATM    6  C10 UNL     1       3.249   7.638  13.937  1.00  0.00     0.001 C 
HETATM    7  C11 UNL     1       2.448   6.675  14.777  1.00  0.00     0.001 C 
HETATM    8  C12 UNL     1       1.700   7.466  15.796  1.00  0.00     0.009 C 
BRANCH   4   9
HETATM    9  C7  UNL     1       2.825  10.282  15.345  1.00  0.00    -0.022 C 
HETATM   10  C6  UNL     1       3.214  11.497  15.537  1.00  0.00     0.011 C 
BRANCH  10  11
HETATM   11  C5  UNL     1       2.319  12.631  14.860  1.00  0.00     0.093 C 
BRANCH  11  12
HETATM   12  C4  UNL     1       2.151  13.575  15.946  1.00  0.00     0.011 C 
BRANCH  12  13
HETATM   13  C3  UNL     1       2.787  13.549  17.249  1.00  0.00    -0.028 C 
BRANCH  13  14
HETATM   14  C2  UNL     1       2.120  13.142  18.474  1.00  0.00     0.022 C 
HETATM   15  C1  UNL     1       2.393  11.775  18.950  1.00  0.00     0.009 C 
ENDBRANCH  13  14
ENDBRANCH  12  13
ENDBRANCH  11  12
BRANCH  11  16
HETATM   16  O1  UNL     1       1.193  11.918  14.449  1.00  0.00    -0.382 OA
ATOM     17  H1  UNL     1       1.287  11.350  13.694  1.00  0.00     0.211 HD
ENDBRANCH  11  16
BRANCH  11  18
HETATM   18  C28 UNL     1       3.167  13.042  13.721  1.00  0.00     0.042 C 
HETATM   19  C29 UNL     1       4.650  12.768  14.008  1.00  0.00     0.009 C 
ENDBRANCH  11  18
ENDBRANCH  10  11
ENDBRANCH   4   9
ENDBRANCH   1   3
BRANCH   2  20
HETATM   20  C16 UNL     1       3.491   7.040  20.207  1.00  0.00    -0.072 C 
HETATM   21  C17 UNL     1       3.801   5.578  19.952  1.00  0.00     0.034 C 
HETATM   22  C18 UNL     1       3.511   4.834  21.242  1.00  0.00     0.005 C 
HETATM   23  C19 UNL     1       3.960   5.485  22.489  1.00  0.00     0.014 C 
HETATM   24  C20 UNL     1       3.954   6.972  22.562  1.00  0.00    -0.016 C 
HETATM   25  C21 UNL     1       2.476   7.359  22.815  1.00  0.00     0.020 C 
HETATM   26  C22 UNL     1       4.663   7.460  23.743  1.00  0.00    -0.011 C 
HETATM   27  C27 UNL     1       4.316   7.657  21.261  1.00  0.00     0.057 C 
HETATM   28  C23 UNL     1       5.892   7.531  24.203  1.00  0.00     0.079 C 
HETATM   29  C24 UNL     1       7.167   7.093  23.630  1.00  0.00     0.282 C 
HETATM   30  O2  UNL     1       8.022   6.889  24.505  1.00  0.00    -0.260 OA
HETATM   31  O3  UNL     1       7.582   6.868  22.301  1.00  0.00    -0.316 OA
HETATM   32  C25 UNL     1       6.718   6.697  21.150  1.00  0.00     0.211 C 
HETATM   33  C26 UNL     1       5.766   7.786  21.014  1.00  0.00     0.151 C 
BRANCH  33  34
HETATM   34  O4  UNL     1       5.945   8.330  19.718  1.00  0.00    -0.393 OA
ATOM     35  H4  UNL     1       5.112   8.253  19.269  1.00  0.00     0.210 HD
ENDBRANCH  33  34
ENDBRANCH   2  20
TORSDOF 10
ENDMDL
MODEL 2
REMARK VINA RESULT: -5.827681458      2.672      4.032
REMARK  10 active torsions:
REMARK  status: ('A' for Active; 'I' for Inactive)
REMARK    1  A    between atoms: C2_2  and  C3_3 
REMARK    2  A    between atoms: C3_3  and  C4_4 
REMARK    3  A    between atoms: C4_4  and  C5_5 
REMARK    4  A    between atoms: C5_5  and  O1_6 
REMARK    5  A    between atoms: C5_5  and  C6_8 
REMARK    6  A    between atoms: C5_5  and  C28_34 
REMARK    7  A    between atoms: C7_9  and  C8_10 
REMARK    8  A    between atoms: C13_15  and  C14_16 
REMARK    9  A    between atoms: C15_17  and  C16_18 
REMARK   10  A    between atoms: C26_30  and  O4_31 
ROOT
HETATM    1  C14 UNL     1       3.188  10.331  17.873  1.00  0.00    -0.021 C 
HETATM    2  C15 UNL     1       4.367  10.330  18.413  1.00  0.00    -0.001 C 
ENDROOT
BRANCH   1   3
HETATM    3  C13 UNL     1       2.509  11.518  17.277  1.00  0.00     0.016 C 
HETATM    4  C8  UNL     1       3.232  12.802  17.401  1.00  0.00     0.015 C 
HETATM    5  C9  UNL     1       4.137  13.158  16.261  1.00  0.00     0.009 C 
HETATM    6  C10 UNL     1       3.554  12.828  14.908  1.00  0.00     0.001 C 
HETATM    7  C11 UNL     1       3.070  11.402  14.828  1.00  0.00     0.001 C 
HETATM    8  C12 UNL     1       2.022  11.211  15.872  1.00  0.00     0.009 C 
BRANCH   4   9
HETATM    9  C7  UNL     1       2.146  13.883  17.370  1.00  0.00    -0.022 C 
HETATM   10  C6  UNL     1       1.737  14.439  18.460  1.00  0.00     0.011 C 
BRANCH  10  11
HETATM   11  C5  UNL     1       0.603  15.549  18.293  1.00  0.00     0.093 C 
BRANCH  11  12
HETATM   12  C4  UNL     1      -0.346  15.170  19.321  1.00  0.00     0.011 C 
BRANCH  12  13
HETATM   13  C3  UNL     1      -1.623  15.788  19.620  1.00  0.00    -0.028 C 
BRANCH  13  14
HETATM   14  C2  UNL     1      -2.368  15.568  20.848  1.00  0.00     0.022 C 
HETATM   15  C1  UNL     1      -1.958  14.415  21.669  1.00  0.00     0.009 C 
ENDBRANCH  13  14
ENDBRANCH  12  13
ENDBRANCH  11  12
BRANCH  11  16
HETATM   16  O1  UNL     1       0.212  15.382  16.966  1.00  0.00    -0.382 OA
ATOM     17  H1  UNL     1       0.853  15.024  16.363  1.00  0.00     0.211 HD
ENDBRANCH  11  16
BRANCH  11  18
HETATM   18  C28 UNL     1       1.370  16.796  18.497  1.00  0.00     0.042 C 
HETATM   19  C29 UNL     1       0.497  18.031  18.234  1.00  0.00     0.009 C 
ENDBRANCH  11  18
ENDBRANCH  10  11
ENDBRANCH   4   9
ENDBRANCH   1   3
BRANCH   2  20
HETATM   20  C16 UNL     1       5.047   9.194  19.002  1.00  0.00    -0.072 C 
HETATM   21  C17 UNL     1       6.281   8.690  18.280  1.00  0.00     0.034 C 
HETATM   22  C18 UNL     1       6.346   7.191  18.507  1.00  0.00     0.005 C 
HETATM   23  C19 UNL     1       6.039   6.723  19.874  1.00  0.00     0.014 C 
HETATM   24  C20 UNL     1       5.041   7.477  20.681  1.00  0.00    -0.016 C 
HETATM   25  C21 UNL     1       3.661   7.025  20.145  1.00  0.00     0.020 C 
HETATM   26  C22 UNL     1       5.043   7.053  22.080  1.00  0.00    -0.011 C 
HETATM   27  C27 UNL     1       5.070   8.975  20.460  1.00  0.00     0.057 C 
HETATM   28  C23 UNL     1       5.820   7.125  23.137  1.00  0.00     0.079 C 
HETATM   29  C24 UNL     1       7.139   7.734  23.329  1.00  0.00     0.282 C 
HETATM   30  O2  UNL     1       7.754   7.215  24.273  1.00  0.00    -0.260 OA
HETATM   31  O3  UNL     1       7.811   8.772  22.653  1.00  0.00    -0.316 OA
HETATM   32  C25 UNL     1       7.482   9.297  21.343  1.00  0.00     0.211 C 
HETATM   33  C26 UNL     1       6.088   9.697  21.248  1.00  0.00     0.151 C 
BRANCH  33  34
HETATM   34  O4  UNL     1       6.076  11.056  20.846  1.00  0.00    -0.393 OA
ATOM     35  H4  UNL     1       6.788  11.485  21.305  1.00  0.00     0.210 HD
ENDBRANCH  33  34
ENDBRANCH   2  20
TORSDOF 10
ENDMDL
MODEL 3
REMARK VINA RESULT: -5.675808107      2.271      8.370
REMARK  10 active torsions:
REMARK  status: ('A' for Active; 'I' for Inactive)
REMARK    1  A    between atoms: C2_2  and  C3_3 
REMARK    2  A    between atoms: C3_3  and  C4_4 
REMARK    3  A    between atoms: C4_4  and  C5_5 
REMARK    4  A    between atoms: C5_5  and  O1_6 
REMARK    5  A    between atoms: C5_5  and  C6_8 
REMARK    6  A    between atoms: C5_5  and  C28_34 
REMARK    7  A    between atoms: C7_9  and  C8_10 
REMARK    8  A    between atoms: C13_15  and  C14_16 
REMARK    9  A    between atoms: C15_17  and  C16_18 
REMARK   10  A    between atoms: C26_30  and  O4_31 
ROOT
HETATM    1  C14 UNL     1       3.515   8.541  17.752  1.00  0.00    -0.021 C 
HETATM    2  C15 UNL     1       3.264   9.758  18.123  1.00  0.00    -0.001 C 
ENDROOT
BRANCH   1   3
HETATM    3  C13 UNL     1       3.523   7.346  18.645  1.00  0.00     0.016 C 
HETATM    4  C8  UNL     1       2.304   7.144  19.459  1.00  0.00     0.015 C 
HETATM    5  C9  UNL     1       1.246   6.275  18.851  1.00  0.00     0.009 C 
HETATM    6  C10 UNL     1       1.801   5.067  18.136  1.00  0.00     0.001 C 
HETATM    7  C11 UNL     1       2.876   5.434  17.144  1.00  0.00     0.001 C 
HETATM    8  C12 UNL     1       3.977   6.111  17.888  1.00  0.00     0.009 C 
BRANCH   4   9
HETATM    9  C7  UNL     1       2.767   6.362  20.694  1.00  0.00    -0.022 C 
HETATM   10  C6  UNL     1       3.608   6.879  21.524  1.00  0.00     0.011 C 
BRANCH  10  11
HETATM   11  C5  UNL     1       4.011   5.966  22.768  1.00  0.00     0.093 C 
BRANCH  11  12
HETATM   12  C4  UNL     1       5.443   6.175  22.848  1.00  0.00     0.011 C 
BRANCH  12  13
HETATM   13  C3  UNL     1       6.232   7.174  22.155  1.00  0.00    -0.028 C 
BRANCH  13  14
HETATM   14  C2  UNL     1       6.963   6.925  20.923  1.00  0.00     0.022 C 
HETATM   15  C1  UNL     1       6.939   7.999  19.915  1.00  0.00     0.009 C 
ENDBRANCH  13  14
ENDBRANCH  12  13
ENDBRANCH  11  12
BRANCH  11  16
HETATM   16  O1  UNL     1       3.568   4.705  22.370  1.00  0.00    -0.382 OA
ATOM     17  H1  UNL     1       2.693   4.446  22.635  1.00  0.00     0.211 HD
ENDBRANCH  11  16
BRANCH  11  18
HETATM   18  C28 UNL     1       3.175   6.538  23.845  1.00  0.00     0.042 C 
HETATM   19  C29 UNL     1       3.445   5.840  25.185  1.00  0.00     0.009 C 
ENDBRANCH  11  18
ENDBRANCH  10  11
ENDBRANCH   4   9
ENDBRANCH   1   3
BRANCH   2  20
HETATM   20  C16 UNL     1       3.254  10.935  17.279  1.00  0.00    -0.072 C 
HETATM   21  C17 UNL     1       3.135  12.274  17.980  1.00  0.00     0.034 C 
HETATM   22  C18 UNL     1       2.372  13.195  17.046  1.00  0.00     0.005 C 
HETATM   23  C19 UNL     1       2.742  13.132  15.618  1.00  0.00     0.014 C 
HETATM   24  C20 UNL     1       3.187  11.830  15.051  1.00  0.00    -0.016 C 
HETATM   25  C21 UNL     1       1.886  11.023  14.819  1.00  0.00     0.020 C 
HETATM   26  C22 UNL     1       3.760  11.987  13.716  1.00  0.00    -0.011 C 
HETATM   27  C27 UNL     1       4.001  10.984  16.008  1.00  0.00     0.057 C 
HETATM   28  C23 UNL     1       4.830  12.497  13.149  1.00  0.00     0.079 C 
HETATM   29  C24 UNL     1       5.992  13.186  13.718  1.00  0.00     0.282 C 
HETATM   30  O2  UNL     1       6.544  13.923  12.888  1.00  0.00    -0.260 OA
HETATM   31  O3  UNL     1       6.574  13.159  15.002  1.00  0.00    -0.316 OA
HETATM   32  C25 UNL     1       5.951  12.674  16.217  1.00  0.00     0.211 C 
HETATM   33  C26 UNL     1       5.436  11.323  16.065  1.00  0.00     0.151 C 
BRANCH  33  34
HETATM   34  O4  UNL     1       6.035  10.538  17.083  1.00  0.00    -0.393 OA
ATOM     35  H4  UNL     1       6.603   9.913  16.649  1.00  0.00     0.210 HD
ENDBRANCH  33  34
ENDBRANCH   2  20
TORSDOF 10
ENDMDL
MODEL 4
REMARK VINA RESULT: -5.443076999      1.969      8.709
REMARK  10 active torsions:
REMARK  status: ('A' for Active; 'I' for Inactive)
REMARK    1  A    between atoms: C2_2  and  C3_3 
REMARK    2  A    between atoms: C3_3  and  C4_4 
REMARK    3  A    between atoms: C4_4  and  C5_5 
REMARK    4  A    between atoms: C5_5  and  O1_6 
REMARK    5  A    between atoms: C5_5  and  C6_8 
REMARK    6  A    between atoms: C5_5  and  C28_34 
REMARK    7  A    between atoms: C7_9  and  C8_10 
REMARK    8  A    between atoms: C13_15  and  C14_16 
REMARK    9  A    between atoms: C15_17  and  C16_18 
REMARK   10  A    between atoms: C26_30  and  O4_31 
ROOT
HETATM    1  C14 UNL     1       4.927   8.765  19.041  1.00  0.00    -0.021 C 
HETATM    2  C15 UNL     1       4.448   7.759  18.378  1.00  0.00    -0.001 C 
ENDROOT
BRANCH   1   3
HETATM    3  C13 UNL     1       5.573   8.692  20.384  1.00  0.00     0.016 C 
HETATM    4  C8  UNL     1       6.765   7.821  20.476  1.00  0.00     0.015 C 
HETATM    5  C9  UNL     1       8.084   8.490  20.241  1.00  0.00     0.009 C 
HETATM    6  C10 UNL     1       8.184   9.858  20.872  1.00  0.00     0.001 C 
HETATM    7  C11 UNL     1       7.022  10.744  20.499  1.00  0.00     0.001 C 
HETATM    8  C12 UNL     1       5.770  10.081  20.963  1.00  0.00     0.009 C 
BRANCH   4   9
HETATM    9  C7  UNL     1       6.827   7.374  21.941  1.00  0.00    -0.022 C 
HETATM   10  C6  UNL     1       5.969   7.810  22.801  1.00  0.00     0.011 C 
BRANCH  10  11
HETATM   11  C5  UNL     1       6.140   7.270  24.292  1.00  0.00     0.093 C 
BRANCH  11  12
HETATM   12  C4  UNL     1       4.828   6.723  24.569  1.00  0.00     0.011 C 
BRANCH  12  13
HETATM   13  C3  UNL     1       3.693   6.641  23.670  1.00  0.00    -0.028 C 
BRANCH  13  14
HETATM   14  C2  UNL     1       3.564   5.658  22.607  1.00  0.00     0.022 C 
HETATM   15  C1  UNL     1       3.016   6.140  21.328  1.00  0.00     0.009 C 
ENDBRANCH  13  14
ENDBRANCH  12  13
ENDBRANCH  11  12
BRANCH  11  16
HETATM   16  O1  UNL     1       6.516   8.420  24.986  1.00  0.00    -0.382 OA
ATOM     17  H1  UNL     1       7.348   8.816  24.757  1.00  0.00     0.211 HD
ENDBRANCH  11  16
BRANCH  11  18
HETATM   18  C28 UNL     1       7.261   6.318  24.140  1.00  0.00     0.042 C 
HETATM   19  C29 UNL     1       8.530   6.844  24.825  1.00  0.00     0.009 C 
ENDBRANCH  11  18
ENDBRANCH  10  11
ENDBRANCH   4   9
ENDBRANCH   1   3
BRANCH   2  20
HETATM   20  C16 UNL     1       3.813   7.804  17.077  1.00  0.00    -0.072 C 
HETATM   21  C17 UNL     1       2.448   7.153  16.963  1.00  0.00     0.034 C 
HETATM   22  C18 UNL     1       2.337   6.602  15.554  1.00  0.00     0.005 C 
HETATM   23  C19 UNL     1       2.842   7.469  14.471  1.00  0.00     0.014 C 
HETATM   24  C20 UNL     1       4.003   8.358  14.748  1.00  0.00    -0.016 C 
HETATM   25  C21 UNL     1       5.245   7.437  14.679  1.00  0.00     0.020 C 
HETATM   26  C22 UNL     1       4.212   9.329  13.675  1.00  0.00    -0.011 C 
HETATM   27  C27 UNL     1       4.023   8.931  16.150  1.00  0.00     0.057 C 
HETATM   28  C23 UNL     1       3.629  10.395  13.174  1.00  0.00     0.079 C 
HETATM   29  C24 UNL     1       2.398  11.094  13.554  1.00  0.00     0.282 C 
HETATM   30  O2  UNL     1       1.921  11.737  12.608  1.00  0.00    -0.260 OA
HETATM   31  O3  UNL     1       1.683  11.161  14.767  1.00  0.00    -0.316 OA
HETATM   32  C25 UNL     1       1.816  10.260  15.894  1.00  0.00     0.211 C 
HETATM   33  C26 UNL     1       3.195  10.139  16.337  1.00  0.00     0.151 C 
BRANCH  33  34
HETATM   34  O4  UNL     1       3.217  10.481  17.711  1.00  0.00    -0.393 OA
ATOM     35  H4  UNL     1       3.855  11.177  17.812  1.00  0.00     0.210 HD
ENDBRANCH  33  34
ENDBRANCH   2  20
TORSDOF 10
ENDMDL
MODEL 5
REMARK VINA RESULT: -5.441567955      2.102      4.746
REMARK  10 active torsions:
REMARK  status: ('A' for Active; 'I' for Inactive)
REMARK    1  A    between atoms: C2_2  and  C3_3 
REMARK    2  A    between atoms: C3_3  and  C4_4 
REMARK    3  A    between atoms: C4_4  and  C5_5 
REMARK    4  A    between atoms: C5_5  and  O1_6 
REMARK    5  A    between atoms: C5_5  and  C6_8 
REMARK    6  A    between atoms: C5_5  and  C28_34 
REMARK    7  A    between atoms: C7_9  and  C8_10 
REMARK    8  A    between atoms: C13_15  and  C14_16 
REMARK    9  A    between atoms: C15_17  and  C16_18 
REMARK   10  A    between atoms: C26_30  and  O4_31 
ROOT
HETATM    1  C14 UNL     1       5.224  10.514  17.785  1.00  0.00    -0.021 C 
HETATM    2  C15 UNL     1       5.795   9.450  18.258  1.00  0.00    -0.001 C 
ENDROOT
BRANCH   1   3
HETATM    3  C13 UNL     1       4.752  10.694  16.381  1.00  0.00     0.016 C 
HETATM    4  C8  UNL     1       3.284  10.710  16.194  1.00  0.00     0.015 C 
HETATM    5  C9  UNL     1       2.633  12.057  16.239  1.00  0.00     0.009 C 
HETATM    6  C10 UNL     1       3.425  13.131  15.533  1.00  0.00     0.001 C 
HETATM    7  C11 UNL     1       4.861  13.177  15.993  1.00  0.00     0.001 C 
HETATM    8  C12 UNL     1       5.477  11.848  15.713  1.00  0.00     0.009 C 
BRANCH   4   9
HETATM    9  C7  UNL     1       3.055  10.230  14.756  1.00  0.00    -0.022 C 
HETATM   10  C6  UNL     1       3.184   8.984  14.448  1.00  0.00     0.011 C 
BRANCH  10  11
HETATM   11  C5  UNL     1       2.918   8.612  12.920  1.00  0.00     0.093 C 
BRANCH  11  12
HETATM   12  C4  UNL     1       4.265   8.446  12.410  1.00  0.00     0.011 C 
BRANCH  12  13
HETATM   13  C3  UNL     1       5.497   8.371  13.169  1.00  0.00    -0.028 C 
BRANCH  13  14
HETATM   14  C2  UNL     1       6.186   7.131  13.487  1.00  0.00     0.022 C 
HETATM   15  C1  UNL     1       6.451   6.872  14.912  1.00  0.00     0.009 C 
ENDBRANCH  13  14
ENDBRANCH  12  13
ENDBRANCH  11  12
BRANCH  11  16
HETATM   16  O1  UNL     1       2.191   9.712  12.466  1.00  0.00    -0.382 OA
ATOM     17  H1  UNL     1       1.628   9.582  11.712  1.00  0.00     0.211 HD
ENDBRANCH  11  16
BRANCH  11  18
HETATM   18  C28 UNL     1       2.080   7.401  13.046  1.00  0.00     0.042 C 
HETATM   19  C29 UNL     1       2.365   6.667  14.364  1.00  0.00     0.009 C 
ENDBRANCH  11  18
ENDBRANCH  10  11
ENDBRANCH   4   9
ENDBRANCH   1   3
BRANCH   2  20
HETATM   20  C16 UNL     1       6.267   9.252  19.614  1.00  0.00    -0.072 C 
HETATM   21  C17 UNL     1       6.513  10.500  20.437  1.00  0.00     0.034 C 
HETATM   22  C18 UNL     1       7.661  10.189  21.380  1.00  0.00     0.005 C 
HETATM   23  C19 UNL     1       7.634   8.862  22.027  1.00  0.00     0.014 C 
HETATM   24  C20 UNL     1       7.057   7.712  21.278  1.00  0.00    -0.016 C 
HETATM   25  C21 UNL     1       8.162   7.279  20.284  1.00  0.00     0.020 C 
HETATM   26  C22 UNL     1       6.865   6.546  22.138  1.00  0.00    -0.011 C 
HETATM   27  C27 UNL     1       5.872   8.074  20.406  1.00  0.00     0.057 C 
HETATM   28  C23 UNL     1       6.101   6.164  23.137  1.00  0.00     0.079 C 
HETATM   29  C24 UNL     1       5.022   6.854  23.849  1.00  0.00     0.282 C 
HETATM   30  O2  UNL     1       4.860   6.403  24.992  1.00  0.00    -0.260 OA
HETATM   31  O3  UNL     1       4.162   7.907  23.475  1.00  0.00    -0.316 OA
HETATM   32  C25 UNL     1       4.356   8.822  22.367  1.00  0.00     0.211 C 
HETATM   33  C26 UNL     1       4.577   8.121  21.113  1.00  0.00     0.151 C 
BRANCH  33  34
HETATM   34  O4  UNL     1       3.595   8.588  20.203  1.00  0.00    -0.393 OA
ATOM     35  H4  UNL     1       3.846   9.470  19.956  1.00  0.00     0.210 HD
ENDBRANCH  33  34
ENDBRANCH   2  20
TORSDOF 10
ENDMDL
