MODEL 1
REMARK VINA RESULT: -8.757018862      0.000      0.000
REMARK  12 active torsions:
REMARK  status: ('A' for Active; 'I' for Inactive)
REMARK    1  A    between atoms: C4_4  and  C5_5 
REMARK    2  A    between atoms: C5_5  and  C6_6 
REMARK    3  A    between atoms: C9_9  and  O1_10 
REMARK    4  A    between atoms: C11_13  and  C13_15 
REMARK    5  A    between atoms: C13_15  and  O2_16 
REMARK    6  A    between atoms: C13_15  and  C14_18 
REMARK    7  A    between atoms: C14_18  and  C15_19 
REMARK    8  A    between atoms: C16_20  and  C18_22 
REMARK    9  A    between atoms: C18_22  and  C19_23 
REMARK   10  A    between atoms: C20_24  and  C21_25 
REMARK   11  A    between atoms: C21_25  and  O3_28 
REMARK   12  A    between atoms: O3_28  and  C24_29 
ROOT
HETATM    1  C14 UNL     1       2.631   6.663  15.100  1.00  0.00     0.059 C 
ENDROOT
BRANCH   1   2
HETATM    2  C13 UNL     1       3.322   6.162  16.314  1.00  0.00     0.130 C 
BRANCH   2   3
HETATM    3  C11 UNL     1       2.289   6.025  17.484  1.00  0.00    -0.011 C 
HETATM    4  C6  UNL     1       2.300   7.314  18.244  1.00  0.00     0.006 C 
HETATM    5  C7  UNL     1       1.141   8.035  17.696  1.00  0.00     0.015 C 
HETATM    6  C8  UNL     1       0.639   9.246  18.366  1.00  0.00     0.013 C 
HETATM    7  C9  UNL     1       0.070   6.992  17.455  1.00  0.00     0.123 C 
HETATM    8  C10 UNL     1       0.913   5.858  16.870  1.00  0.00     0.044 C 
HETATM    9  C12 UNL     1       2.685   4.814  18.249  1.00  0.00     0.018 C 
BRANCH   4  10
HETATM   10  C5  UNL     1       2.378   7.066  19.701  1.00  0.00     0.033 C 
BRANCH  10  11
HETATM   11  C4  UNL     1       3.621   7.454  20.377  1.00  0.00    -0.024 C 
HETATM   12  C2  UNL     1       4.102   6.804  21.409  1.00  0.00    -0.091 C 
HETATM   13  C1  UNL     1       3.495   5.617  22.033  1.00  0.00     0.042 C 
HETATM   14  C3  UNL     1       5.386   7.298  22.030  1.00  0.00     0.042 C 
ENDBRANCH  10  11
ENDBRANCH   4  10
BRANCH   7  15
HETATM   15  O1  UNL     1      -0.617   6.604  18.574  1.00  0.00    -0.395 OA
ATOM     16  H1  UNL     1      -1.486   6.258  18.408  1.00  0.00     0.210 HD
ENDBRANCH   7  15
ENDBRANCH   2   3
BRANCH   2  17
HETATM   17  O2  UNL     1       3.705   4.817  16.074  1.00  0.00    -0.395 OA
ATOM     18  H2  UNL     1       4.480   4.912  15.533  1.00  0.00     0.210 HD
ENDBRANCH   2  17
ENDBRANCH   1   2
BRANCH   1  19
HETATM   19  C15 UNL     1       3.035   7.920  14.497  1.00  0.00    -0.022 C 
HETATM   20  C16 UNL     1       4.115   8.379  13.946  1.00  0.00    -0.084 C 
HETATM   21  C17 UNL     1       5.408   7.718  13.732  1.00  0.00     0.043 C 
BRANCH  20  22
HETATM   22  C18 UNL     1       4.064   9.822  13.423  1.00  0.00     0.060 C 
BRANCH  22  23
HETATM   23  C19 UNL     1       2.694  10.314  13.290  1.00  0.00    -0.024 C 
HETATM   24  C20 UNL     1       2.139  11.257  13.962  1.00  0.00     0.007 C 
BRANCH  24  25
HETATM   25  C21 UNL     1       2.739  12.063  15.023  1.00  0.00     0.079 C 
HETATM   26  C22 UNL     1       4.249  12.218  14.833  1.00  0.00     0.051 C 
HETATM   27  C23 UNL     1       2.166  13.459  15.145  1.00  0.00     0.051 C 
BRANCH  25  28
HETATM   28  O3  UNL     1       2.518  11.484  16.315  1.00  0.00    -0.325 OA
BRANCH  28  29
HETATM   29  C24 UNL     1       3.498  11.298  17.231  1.00  0.00     0.115 C 
HETATM   30  N1  UNL     1       3.610  12.190  18.134  1.00  0.00    -0.374 N 
HETATM   31  C25 UNL     1       4.569  12.249  19.239  1.00  0.00     0.121 C 
ATOM     32  H1  UNL     1       2.947  12.963  18.080  1.00  0.00     0.161 HD
HETATM   33  C26 UNL     1       4.765  10.869  19.834  1.00  0.00     0.020 C 
HETATM   34  C27 UNL     1       5.710  10.017  19.049  1.00  0.00     0.002 C 
HETATM   35  C28 UNL     1       5.686  10.314  17.570  1.00  0.00     0.008 C 
HETATM   36  C29 UNL     1       4.310  10.062  17.048  1.00  0.00     0.084 C 
ENDBRANCH  28  29
ENDBRANCH  25  28
ENDBRANCH  24  25
ENDBRANCH  22  23
ENDBRANCH  20  22
ENDBRANCH   1  19
TORSDOF 12
ENDMDL
MODEL 2
REMARK VINA RESULT: -8.603135913      1.996      3.325
REMARK  12 active torsions:
REMARK  status: ('A' for Active; 'I' for Inactive)
REMARK    1  A    between atoms: C4_4  and  C5_5 
REMARK    2  A    between atoms: C5_5  and  C6_6 
REMARK    3  A    between atoms: C9_9  and  O1_10 
REMARK    4  A    between atoms: C11_13  and  C13_15 
REMARK    5  A    between atoms: C13_15  and  O2_16 
REMARK    6  A    between atoms: C13_15  and  C14_18 
REMARK    7  A    between atoms: C14_18  and  C15_19 
REMARK    8  A    between atoms: C16_20  and  C18_22 
REMARK    9  A    between atoms: C18_22  and  C19_23 
REMARK   10  A    between atoms: C20_24  and  C21_25 
REMARK   11  A    between atoms: C21_25  and  O3_28 
REMARK   12  A    between atoms: O3_28  and  C24_29 
ROOT
HETATM    1  C14 UNL     1       1.966   6.367  17.540  1.00  0.00     0.059 C 
ENDROOT
BRANCH   1   2
HETATM    2  C13 UNL     1       2.160   7.035  18.851  1.00  0.00     0.130 C 
BRANCH   2   3
HETATM    3  C11 UNL     1       3.353   6.360  19.609  1.00  0.00    -0.011 C 
HETATM    4  C6  UNL     1       4.367   7.426  19.888  1.00  0.00     0.006 C 
HETATM    5  C7  UNL     1       4.080   7.804  21.280  1.00  0.00     0.015 C 
HETATM    6  C8  UNL     1       5.029   8.643  22.030  1.00  0.00     0.013 C 
HETATM    7  C9  UNL     1       3.709   6.523  21.999  1.00  0.00     0.123 C 
HETATM    8  C10 UNL     1       2.831   5.855  20.939  1.00  0.00     0.044 C 
HETATM    9  C12 UNL     1       3.809   5.236  18.751  1.00  0.00     0.018 C 
BRANCH   4  10
HETATM   10  C5  UNL     1       5.727   6.968  19.526  1.00  0.00     0.033 C 
BRANCH  10  11
HETATM   11  C4  UNL     1       6.412   7.696  18.452  1.00  0.00    -0.024 C 
HETATM   12  C2  UNL     1       7.039   7.093  17.472  1.00  0.00    -0.091 C 
HETATM   13  C1  UNL     1       7.153   5.636  17.295  1.00  0.00     0.042 C 
HETATM   14  C3  UNL     1       7.716   7.945  16.426  1.00  0.00     0.042 C 
ENDBRANCH  10  11
ENDBRANCH   4  10
BRANCH   7  15
HETATM   15  O1  UNL     1       4.772   5.740  22.361  1.00  0.00    -0.395 OA
ATOM     16  H1  UNL     1       5.146   5.946  23.210  1.00  0.00     0.210 HD
ENDBRANCH   7  15
ENDBRANCH   2   3
BRANCH   2  17
HETATM   17  O2  UNL     1       2.646   8.346  18.603  1.00  0.00    -0.395 OA
ATOM     18  H2  UNL     1       1.856   8.825  18.381  1.00  0.00     0.210 HD
ENDBRANCH   2  17
ENDBRANCH   1   2
BRANCH   1  19
HETATM   19  C15 UNL     1       2.048   7.134  16.311  1.00  0.00    -0.022 C 
HETATM   20  C16 UNL     1       2.952   7.343  15.407  1.00  0.00    -0.084 C 
HETATM   21  C17 UNL     1       4.323   6.824  15.320  1.00  0.00     0.043 C 
BRANCH  20  22
HETATM   22  C18 UNL     1       2.562   8.256  14.236  1.00  0.00     0.060 C 
BRANCH  22  23
HETATM   23  C19 UNL     1       3.717   8.940  13.658  1.00  0.00    -0.024 C 
HETATM   24  C20 UNL     1       4.003  10.189  13.743  1.00  0.00     0.007 C 
BRANCH  24  25
HETATM   25  C21 UNL     1       3.243  11.228  14.435  1.00  0.00     0.079 C 
HETATM   26  C22 UNL     1       4.059  12.510  14.606  1.00  0.00     0.051 C 
HETATM   27  C23 UNL     1       1.953  11.618  13.745  1.00  0.00     0.051 C 
BRANCH  25  28
HETATM   28  O3  UNL     1       2.824  10.799  15.736  1.00  0.00    -0.325 OA
BRANCH  28  29
HETATM   29  C24 UNL     1       3.465  11.138  16.880  1.00  0.00     0.115 C 
HETATM   30  N1  UNL     1       2.819  11.869  17.700  1.00  0.00    -0.374 N 
HETATM   31  C25 UNL     1       3.256  12.384  18.998  1.00  0.00     0.121 C 
ATOM     32  H1  UNL     1       1.875  12.129  17.413  1.00  0.00     0.161 HD
HETATM   33  C26 UNL     1       4.039  11.322  19.744  1.00  0.00     0.020 C 
HETATM   34  C27 UNL     1       5.462  11.216  19.297  1.00  0.00     0.002 C 
HETATM   35  C28 UNL     1       5.652  11.551  17.838  1.00  0.00     0.008 C 
HETATM   36  C29 UNL     1       4.848  10.599  17.015  1.00  0.00     0.084 C 
ENDBRANCH  28  29
ENDBRANCH  25  28
ENDBRANCH  24  25
ENDBRANCH  22  23
ENDBRANCH  20  22
ENDBRANCH   1  19
TORSDOF 12
ENDMDL
MODEL 3
REMARK VINA RESULT: -8.523595971      1.982      4.042
REMARK  12 active torsions:
REMARK  status: ('A' for Active; 'I' for Inactive)
REMARK    1  A    between atoms: C4_4  and  C5_5 
REMARK    2  A    between atoms: C5_5  and  C6_6 
REMARK    3  A    between atoms: C9_9  and  O1_10 
REMARK    4  A    between atoms: C11_13  and  C13_15 
REMARK    5  A    between atoms: C13_15  and  O2_16 
REMARK    6  A    between atoms: C13_15  and  C14_18 
REMARK    7  A    between atoms: C14_18  and  C15_19 
REMARK    8  A    between atoms: C16_20  and  C18_22 
REMARK    9  A    between atoms: C18_22  and  C19_23 
REMARK   10  A    between atoms: C20_24  and  C21_25 
REMARK   11  A    between atoms: C21_25  and  O3_28 
REMARK   12  A    between atoms: O3_28  and  C24_29 
ROOT
HETATM    1  C14 UNL     1       1.306   8.102  18.436  1.00  0.00     0.059 C 
ENDROOT
BRANCH   1   2
HETATM    2  C13 UNL     1       1.184   7.153  17.302  1.00  0.00     0.130 C 
BRANCH   2   3
HETATM    3  C11 UNL     1       2.070   5.891  17.581  1.00  0.00    -0.011 C 
HETATM    4  C6  UNL     1       2.948   6.210  18.750  1.00  0.00     0.006 C 
HETATM    5  C7  UNL     1       2.236   5.595  19.880  1.00  0.00     0.015 C 
HETATM    6  C8  UNL     1       2.903   5.452  21.184  1.00  0.00     0.013 C 
HETATM    7  C9  UNL     1       1.648   4.302  19.357  1.00  0.00     0.123 C 
HETATM    8  C10 UNL     1       1.149   4.757  17.986  1.00  0.00     0.044 C 
HETATM    9  C12 UNL     1       2.768   5.584  16.305  1.00  0.00     0.018 C 
BRANCH   4  10
HETATM   10  C5  UNL     1       4.350   5.820  18.477  1.00  0.00     0.033 C 
BRANCH  10  11
HETATM   11  C4  UNL     1       5.400   6.692  19.016  1.00  0.00    -0.024 C 
HETATM   12  C2  UNL     1       6.636   6.669  18.579  1.00  0.00    -0.091 C 
HETATM   13  C1  UNL     1       7.152   5.795  17.513  1.00  0.00     0.042 C 
HETATM   14  C3  UNL     1       7.636   7.605  19.214  1.00  0.00     0.042 C 
ENDBRANCH  10  11
ENDBRANCH   4  10
BRANCH   7  15
HETATM   15  O1  UNL     1       2.536   3.263  19.267  1.00  0.00    -0.395 OA
ATOM     16  H1  UNL     1       3.353   3.475  18.831  1.00  0.00     0.210 HD
ENDBRANCH   7  15
ENDBRANCH   2   3
BRANCH   2  17
HETATM   17  O2  UNL     1      -0.132   6.623  17.318  1.00  0.00    -0.395 OA
ATOM     18  H2  UNL     1      -0.135   6.043  16.565  1.00  0.00     0.210 HD
ENDBRANCH   2  17
ENDBRANCH   1   2
BRANCH   1  19
HETATM   19  C15 UNL     1       1.621   9.497  18.190  1.00  0.00    -0.022 C 
HETATM   20  C16 UNL     1       2.590  10.298  18.503  1.00  0.00    -0.084 C 
HETATM   21  C17 UNL     1       3.804  10.034  19.285  1.00  0.00     0.043 C 
BRANCH  20  22
HETATM   22  C18 UNL     1       2.488  11.742  17.988  1.00  0.00     0.060 C 
BRANCH  22  23
HETATM   23  C19 UNL     1       3.783  12.269  17.560  1.00  0.00    -0.024 C 
HETATM   24  C20 UNL     1       4.172  12.488  16.356  1.00  0.00     0.007 C 
BRANCH  24  25
HETATM   25  C21 UNL     1       3.418  12.261  15.124  1.00  0.00     0.079 C 
HETATM   26  C22 UNL     1       2.329  13.316  14.923  1.00  0.00     0.051 C 
HETATM   27  C23 UNL     1       4.263  12.258  13.868  1.00  0.00     0.051 C 
BRANCH  25  28
HETATM   28  O3  UNL     1       2.786  10.974  15.120  1.00  0.00    -0.325 OA
BRANCH  28  29
HETATM   29  C24 UNL     1       3.433   9.823  14.822  1.00  0.00     0.115 C 
HETATM   30  N1  UNL     1       2.945   9.125  13.874  1.00  0.00    -0.374 N 
HETATM   31  C25 UNL     1       3.429   7.850  13.342  1.00  0.00     0.121 C 
ATOM     32  H1  UNL     1       2.109   9.504  13.428  1.00  0.00     0.161 HD
HETATM   33  C26 UNL     1       4.942   7.856  13.266  1.00  0.00     0.020 C 
HETATM   34  C27 UNL     1       5.599   7.567  14.577  1.00  0.00     0.002 C 
HETATM   35  C28 UNL     1       4.801   8.057  15.761  1.00  0.00     0.008 C 
HETATM   36  C29 UNL     1       4.636   9.537  15.654  1.00  0.00     0.084 C 
ENDBRANCH  28  29
ENDBRANCH  25  28
ENDBRANCH  24  25
ENDBRANCH  22  23
ENDBRANCH  20  22
ENDBRANCH   1  19
TORSDOF 12
ENDMDL
MODEL 4
REMARK VINA RESULT: -8.412295085      2.643      5.522
REMARK  12 active torsions:
REMARK  status: ('A' for Active; 'I' for Inactive)
REMARK    1  A    between atoms: C4_4  and  C5_5 
REMARK    2  A    between atoms: C5_5  and  C6_6 
REMARK    3  A    between atoms: C9_9  and  O1_10 
REMARK    4  A    between atoms: C11_13  and  C13_15 
REMARK    5  A    between atoms: C13_15  and  O2_16 
REMARK    6  A    between atoms: C13_15  and  C14_18 
REMARK    7  A    between atoms: C14_18  and  C15_19 
REMARK    8  A    between atoms: C16_20  and  C18_22 
REMARK    9  A    between atoms: C18_22  and  C19_23 
REMARK   10  A    between atoms: C20_24  and  C21_25 
REMARK   11  A    between atoms: C21_25  and  O3_28 
REMARK   12  A    between atoms: O3_28  and  C24_29 
ROOT
HETATM    1  C14 UNL     1       5.361   6.690  15.055  1.00  0.00     0.059 C 
ENDROOT
BRANCH   1   2
HETATM    2  C13 UNL     1       4.792   7.662  14.089  1.00  0.00     0.130 C 
BRANCH   2   3
HETATM    3  C11 UNL     1       3.335   8.038  14.525  1.00  0.00    -0.011 C 
HETATM    4  C6  UNL     1       3.203   7.708  15.979  1.00  0.00     0.006 C 
HETATM    5  C7  UNL     1       3.420   9.006  16.636  1.00  0.00     0.015 C 
HETATM    6  C8  UNL     1       3.111   9.171  18.066  1.00  0.00     0.013 C 
HETATM    7  C9  UNL     1       2.761  10.044  15.753  1.00  0.00     0.123 C 
HETATM    8  C10 UNL     1       3.177   9.538  14.371  1.00  0.00     0.044 C 
HETATM    9  C12 UNL     1       2.424   7.308  13.605  1.00  0.00     0.018 C 
BRANCH   4  10
HETATM   10  C5  UNL     1       1.950   6.963  16.238  1.00  0.00     0.033 C 
BRANCH  10  11
HETATM   11  C4  UNL     1       2.031   5.827  17.163  1.00  0.00    -0.024 C 
HETATM   12  C2  UNL     1       1.298   5.740  18.247  1.00  0.00    -0.091 C 
HETATM   13  C1  UNL     1       0.308   6.733  18.694  1.00  0.00     0.042 C 
HETATM   14  C3  UNL     1       1.470   4.528  19.130  1.00  0.00     0.042 C 
ENDBRANCH  10  11
ENDBRANCH   4  10
BRANCH   7  15
HETATM   15  O1  UNL     1       1.401  10.130  15.886  1.00  0.00    -0.395 OA
ATOM     16  H1  UNL     1       1.027  10.962  15.619  1.00  0.00     0.210 HD
ENDBRANCH   7  15
ENDBRANCH   2   3
BRANCH   2  17
HETATM   17  O2  UNL     1       5.492   8.887  14.240  1.00  0.00    -0.395 OA
ATOM     18  H2  UNL     1       5.057   9.457  13.617  1.00  0.00     0.210 HD
ENDBRANCH   2  17
ENDBRANCH   1   2
BRANCH   1  19
HETATM   19  C15 UNL     1       6.231   7.147  16.123  1.00  0.00    -0.022 C 
HETATM   20  C16 UNL     1       6.362   6.890  17.386  1.00  0.00    -0.084 C 
HETATM   21  C17 UNL     1       5.601   5.965  18.235  1.00  0.00     0.043 C 
BRANCH  20  22
HETATM   22  C18 UNL     1       7.475   7.641  18.133  1.00  0.00     0.060 C 
BRANCH  22  23
HETATM   23  C19 UNL     1       7.662   7.141  19.494  1.00  0.00    -0.024 C 
HETATM   24  C20 UNL     1       7.489   7.787  20.589  1.00  0.00     0.007 C 
BRANCH  24  25
HETATM   25  C21 UNL     1       7.065   9.178  20.742  1.00  0.00     0.079 C 
HETATM   26  C22 UNL     1       8.237  10.093  21.098  1.00  0.00     0.051 C 
HETATM   27  C23 UNL     1       6.407   9.767  19.512  1.00  0.00     0.051 C 
BRANCH  25  28
HETATM   28  O3  UNL     1       6.073   9.319  21.766  1.00  0.00    -0.325 OA
BRANCH  28  29
HETATM   29  C24 UNL     1       5.312   8.294  22.218  1.00  0.00     0.115 C 
HETATM   30  N1  UNL     1       5.549   7.888  23.402  1.00  0.00    -0.374 N 
HETATM   31  C25 UNL     1       4.890   6.810  24.142  1.00  0.00     0.121 C 
ATOM     32  H1  UNL     1       6.293   8.377  23.899  1.00  0.00     0.161 HD
HETATM   33  C26 UNL     1       3.398   6.834  23.883  1.00  0.00     0.020 C 
HETATM   34  C27 UNL     1       3.014   6.192  22.589  1.00  0.00     0.002 C 
HETATM   35  C28 UNL     1       4.069   6.335  21.519  1.00  0.00     0.008 C 
HETATM   36  C29 UNL     1       4.295   7.787  21.254  1.00  0.00     0.084 C 
ENDBRANCH  28  29
ENDBRANCH  25  28
ENDBRANCH  24  25
ENDBRANCH  22  23
ENDBRANCH  20  22
ENDBRANCH   1  19
TORSDOF 12
ENDMDL
MODEL 5
REMARK VINA RESULT: -8.410837787      2.835      5.863
REMARK  12 active torsions:
REMARK  status: ('A' for Active; 'I' for Inactive)
REMARK    1  A    between atoms: C4_4  and  C5_5 
REMARK    2  A    between atoms: C5_5  and  C6_6 
REMARK    3  A    between atoms: C9_9  and  O1_10 
REMARK    4  A    between atoms: C11_13  and  C13_15 
REMARK    5  A    between atoms: C13_15  and  O2_16 
REMARK    6  A    between atoms: C13_15  and  C14_18 
REMARK    7  A    between atoms: C14_18  and  C15_19 
REMARK    8  A    between atoms: C16_20  and  C18_22 
REMARK    9  A    between atoms: C18_22  and  C19_23 
REMARK   10  A    between atoms: C20_24  and  C21_25 
REMARK   11  A    between atoms: C21_25  and  O3_28 
REMARK   12  A    between atoms: O3_28  and  C24_29 
ROOT
HETATM    1  C14 UNL     1       7.715   7.603  18.728  1.00  0.00     0.059 C 
ENDROOT
BRANCH   1   2
HETATM    2  C13 UNL     1       7.066   6.883  19.851  1.00  0.00     0.130 C 
BRANCH   2   3
HETATM    3  C11 UNL     1       6.905   7.853  21.071  1.00  0.00    -0.011 C 
HETATM    4  C6  UNL     1       5.447   8.168  21.202  1.00  0.00     0.006 C 
HETATM    5  C7  UNL     1       4.999   7.244  22.255  1.00  0.00     0.015 C 
HETATM    6  C8  UNL     1       3.676   7.415  22.875  1.00  0.00     0.013 C 
HETATM    7  C9  UNL     1       6.130   7.166  23.259  1.00  0.00     0.123 C 
HETATM    8  C10 UNL     1       7.334   7.106  22.318  1.00  0.00     0.044 C 
HETATM    9  C12 UNL     1       7.800   9.009  20.803  1.00  0.00     0.018 C 
BRANCH   4  10
HETATM   10  C5  UNL     1       5.237   9.623  21.376  1.00  0.00     0.033 C 
BRANCH  10  11
HETATM   11  C4  UNL     1       4.189  10.247  20.559  1.00  0.00    -0.024 C 
HETATM   12  C2  UNL     1       4.438  10.842  19.418  1.00  0.00    -0.091 C 
HETATM   13  C1  UNL     1       5.764  10.975  18.792  1.00  0.00     0.042 C 
HETATM   14  C3  UNL     1       3.283  11.457  18.666  1.00  0.00     0.042 C 
ENDBRANCH  10  11
ENDBRANCH   4  10
BRANCH   7  15
HETATM   15  O1  UNL     1       6.202   8.223  24.126  1.00  0.00    -0.395 OA
ATOM     16  H1  UNL     1       5.939   8.025  25.018  1.00  0.00     0.210 HD
ENDBRANCH   7  15
ENDBRANCH   2   3
BRANCH   2  17
HETATM   17  O2  UNL     1       5.722   6.618  19.480  1.00  0.00    -0.395 OA
ATOM     18  H2  UNL     1       5.659   5.675  19.572  1.00  0.00     0.210 HD
ENDBRANCH   2  17
ENDBRANCH   1   2
BRANCH   1  19
HETATM   19  C15 UNL     1       7.019   7.764  17.465  1.00  0.00    -0.022 C 
HETATM   20  C16 UNL     1       6.907   7.074  16.374  1.00  0.00    -0.084 C 
HETATM   21  C17 UNL     1       7.504   5.779  16.022  1.00  0.00     0.043 C 
BRANCH  20  22
HETATM   22  C18 UNL     1       6.019   7.666  15.269  1.00  0.00     0.060 C 
BRANCH  22  23
HETATM   23  C19 UNL     1       5.015   8.586  15.800  1.00  0.00    -0.024 C 
HETATM   24  C20 UNL     1       3.753   8.378  15.911  1.00  0.00     0.007 C 
BRANCH  24  25
HETATM   25  C21 UNL     1       3.015   7.174  15.532  1.00  0.00     0.079 C 
HETATM   26  C22 UNL     1       2.591   7.208  14.063  1.00  0.00     0.051 C 
HETATM   27  C23 UNL     1       3.780   5.884  15.738  1.00  0.00     0.051 C 
BRANCH  25  28
HETATM   28  O3  UNL     1       1.833   7.007  16.325  1.00  0.00    -0.325 OA
BRANCH  28  29
HETATM   29  C24 UNL     1       1.800   6.306  17.483  1.00  0.00     0.115 C 
HETATM   30  N1  UNL     1       1.044   5.281  17.507  1.00  0.00    -0.374 N 
HETATM   31  C25 UNL     1       0.813   4.347  18.610  1.00  0.00     0.121 C 
ATOM     32  H1  UNL     1       0.534   5.085  16.645  1.00  0.00     0.161 HD
HETATM   33  C26 UNL     1       2.114   4.059  19.331  1.00  0.00     0.020 C 
HETATM   34  C27 UNL     1       2.498   5.127  20.304  1.00  0.00     0.002 C 
HETATM   35  C28 UNL     1       2.040   6.503  19.886  1.00  0.00     0.008 C 
HETATM   36  C29 UNL     1       2.664   6.842  18.573  1.00  0.00     0.084 C 
ENDBRANCH  28  29
ENDBRANCH  25  28
ENDBRANCH  24  25
ENDBRANCH  22  23
ENDBRANCH  20  22
ENDBRANCH   1  19
TORSDOF 12
ENDMDL
