MODEL 1
REMARK VINA RESULT: -6.439161897      0.000      0.000
REMARK  3 active torsions:
REMARK  status: ('A' for Active; 'I' for Inactive)
REMARK    1  A    between atoms: C3_3  and  C4_4 
REMARK    2  A    between atoms: C7_7  and  O1_8 
REMARK    3  A    between atoms: C14_17  and  O2_18 
ROOT
HETATM    1  C1  UNL     1       5.488  58.562  45.490  1.00  0.00     0.049 C 
HETATM    2  C2  UNL     1       5.498  57.477  46.550  1.00  0.00    -0.044 A 
HETATM    3  C3  UNL     1       5.288  57.906  47.832  1.00  0.00    -0.015 A 
HETATM    4  C7  UNL     1       5.372  56.998  48.883  1.00  0.00     0.079 A 
HETATM    5  C8  UNL     1       5.695  55.641  48.545  1.00  0.00    -0.018 A 
HETATM    6  C9  UNL     1       5.632  54.693  49.657  1.00  0.00     0.052 C 
HETATM    7  C10 UNL     1       5.920  55.226  47.265  1.00  0.00    -0.007 A 
HETATM    8  C11 UNL     1       5.800  56.186  46.256  1.00  0.00    -0.019 A 
HETATM    9  C12 UNL     1       5.908  55.811  44.834  1.00  0.00     0.181 C 
HETATM   10  C13 UNL     1       4.759  56.296  44.017  1.00  0.00     0.073 C 
HETATM   11  N1  UNL     1       3.884  56.637  43.379  1.00  0.00    -0.196 NA
HETATM   12  C14 UNL     1       5.771  54.272  44.796  1.00  0.00     0.280 C 
HETATM   13  O3  UNL     1       6.732  53.797  45.608  1.00  0.00    -0.345 OA
HETATM   14  C15 UNL     1       6.420  53.890  47.002  1.00  0.00     0.085 C 
HETATM   15  C16 UNL     1       7.853  53.676  47.548  1.00  0.00     0.051 C 
HETATM   16  C17 UNL     1       5.555  52.727  47.256  1.00  0.00     0.051 C 
ENDROOT
BRANCH  12  17
HETATM   17  O2  UNL     1       5.908  53.830  43.479  1.00  0.00    -0.369 OA
ATOM     18  H2  UNL     1       5.112  53.386  43.212  1.00  0.00     0.212 HD
ENDBRANCH  12  17
BRANCH   3  19
HETATM   19  C4  UNL     1       4.884  59.307  48.060  1.00  0.00     0.014 C 
HETATM   20  C5  UNL     1       5.885  60.027  48.980  1.00  0.00     0.015 C 
HETATM   21  C6  UNL     1       3.550  59.373  48.862  1.00  0.00     0.015 C 
ENDBRANCH   3  19
BRANCH   4  22
HETATM   22  O1  UNL     1       5.168  57.347  50.124  1.00  0.00    -0.360 OA
ATOM     23  H1  UNL     1       4.369  57.777  50.405  1.00  0.00     0.217 HD
ENDBRANCH   4  22
TORSDOF 3
ENDMDL
MODEL 2
REMARK VINA RESULT: -6.393317603      2.238      3.814
REMARK  3 active torsions:
REMARK  status: ('A' for Active; 'I' for Inactive)
REMARK    1  A    between atoms: C3_3  and  C4_4 
REMARK    2  A    between atoms: C7_7  and  O1_8 
REMARK    3  A    between atoms: C14_17  and  O2_18 
ROOT
HETATM    1  C1  UNL     1       5.602  55.193  49.914  1.00  0.00     0.049 C 
HETATM    2  C2  UNL     1       5.738  55.774  48.519  1.00  0.00    -0.044 A 
HETATM    3  C3  UNL     1       5.380  57.089  48.393  1.00  0.00    -0.015 A 
HETATM    4  C7  UNL     1       5.381  57.684  47.136  1.00  0.00     0.079 A 
HETATM    5  C8  UNL     1       5.755  56.854  46.026  1.00  0.00    -0.018 A 
HETATM    6  C9  UNL     1       5.883  57.552  44.745  1.00  0.00     0.052 C 
HETATM    7  C10 UNL     1       6.094  55.540  46.159  1.00  0.00    -0.007 A 
HETATM    8  C11 UNL     1       6.090  55.012  47.452  1.00  0.00    -0.019 A 
HETATM    9  C12 UNL     1       6.554  53.636  47.713  1.00  0.00     0.181 C 
HETATM   10  C13 UNL     1       7.582  53.565  48.791  1.00  0.00     0.073 C 
HETATM   11  N1  UNL     1       8.381  53.489  49.593  1.00  0.00    -0.196 NA
HETATM   12  C14 UNL     1       7.316  53.204  46.439  1.00  0.00     0.280 C 
HETATM   13  O3  UNL     1       6.448  53.353  45.423  1.00  0.00    -0.345 OA
HETATM   14  C15 UNL     1       6.284  54.707  44.987  1.00  0.00     0.085 C 
HETATM   15  C16 UNL     1       4.975  54.506  44.184  1.00  0.00     0.051 C 
HETATM   16  C17 UNL     1       7.438  54.943  44.106  1.00  0.00     0.051 C 
ENDROOT
BRANCH  12  17
HETATM   17  O2  UNL     1       7.753  51.886  46.589  1.00  0.00    -0.369 OA
ATOM     18  H2  UNL     1       7.009  51.332  46.793  1.00  0.00     0.212 HD
ENDBRANCH  12  17
BRANCH   3  19
HETATM   19  C4  UNL     1       5.090  57.871  49.611  1.00  0.00     0.014 C 
HETATM   20  C5  UNL     1       3.596  58.230  49.692  1.00  0.00     0.015 C 
HETATM   21  C6  UNL     1       5.789  59.261  49.553  1.00  0.00     0.015 C 
ENDBRANCH   3  19
BRANCH   4  22
HETATM   22  O1  UNL     1       5.062  58.936  46.957  1.00  0.00    -0.360 OA
ATOM     23  H1  UNL     1       4.837  59.285  46.103  1.00  0.00     0.217 HD
ENDBRANCH   4  22
TORSDOF 3
ENDMDL
MODEL 3
REMARK VINA RESULT: -6.340616613      3.313      6.298
REMARK  3 active torsions:
REMARK  status: ('A' for Active; 'I' for Inactive)
REMARK    1  A    between atoms: C3_3  and  C4_4 
REMARK    2  A    between atoms: C7_7  and  O1_8 
REMARK    3  A    between atoms: C14_17  and  O2_18 
ROOT
HETATM    1  C1  UNL     1       5.386  57.001  48.072  1.00  0.00     0.049 C 
HETATM    2  C2  UNL     1       4.922  56.419  49.393  1.00  0.00    -0.044 A 
HETATM    3  C3  UNL     1       5.277  55.117  49.619  1.00  0.00    -0.015 A 
HETATM    4  C7  UNL     1       4.818  54.468  50.761  1.00  0.00     0.079 A 
HETATM    5  C8  UNL     1       3.971  55.222  51.640  1.00  0.00    -0.018 A 
HETATM    6  C9  UNL     1       3.629  54.553  52.896  1.00  0.00     0.052 C 
HETATM    7  C10 UNL     1       3.608  56.514  51.398  1.00  0.00    -0.007 A 
HETATM    8  C11 UNL     1       4.120  57.111  50.243  1.00  0.00    -0.019 A 
HETATM    9  C12 UNL     1       3.882  58.539  49.955  1.00  0.00     0.181 C 
HETATM   10  C13 UNL     1       5.137  59.289  49.664  1.00  0.00     0.073 C 
HETATM   11  N1  UNL     1       6.081  59.886  49.461  1.00  0.00    -0.196 NA
HETATM   12  C14 UNL     1       3.377  59.153  51.281  1.00  0.00     0.280 C 
HETATM   13  O3  UNL     1       2.297  58.431  51.633  1.00  0.00    -0.345 OA
HETATM   14  C15 UNL     1       2.607  57.164  52.223  1.00  0.00     0.085 C 
HETATM   15  C16 UNL     1       1.206  56.521  52.071  1.00  0.00     0.051 C 
HETATM   16  C17 UNL     1       2.916  57.485  53.624  1.00  0.00     0.051 C 
ENDROOT
BRANCH  12  17
HETATM   17  O2  UNL     1       3.083  60.503  51.080  1.00  0.00    -0.369 OA
ATOM     18  H2  UNL     1       3.592  61.028  51.686  1.00  0.00     0.212 HD
ENDBRANCH  12  17
BRANCH   3  19
HETATM   19  C4  UNL     1       6.218  54.462  48.690  1.00  0.00     0.014 C 
HETATM   20  C5  UNL     1       5.566  53.242  48.016  1.00  0.00     0.015 C 
HETATM   21  C6  UNL     1       7.418  53.842  49.466  1.00  0.00     0.015 C 
ENDBRANCH   3  19
BRANCH   4  22
HETATM   22  O1  UNL     1       5.135  53.232  51.035  1.00  0.00    -0.360 OA
ATOM     23  H1  UNL     1       4.665  52.719  51.681  1.00  0.00     0.217 HD
ENDBRANCH   4  22
TORSDOF 3
ENDMDL
MODEL 4
REMARK VINA RESULT: -6.288607453      2.799      6.446
REMARK  3 active torsions:
REMARK  status: ('A' for Active; 'I' for Inactive)
REMARK    1  A    between atoms: C3_3  and  C4_4 
REMARK    2  A    between atoms: C7_7  and  O1_8 
REMARK    3  A    between atoms: C14_17  and  O2_18 
ROOT
HETATM    1  C1  UNL     1       4.544  54.950  51.028  1.00  0.00     0.049 C 
HETATM    2  C2  UNL     1       4.695  56.035  49.979  1.00  0.00    -0.044 A 
HETATM    3  C3  UNL     1       5.380  55.672  48.852  1.00  0.00    -0.015 A 
HETATM    4  C7  UNL     1       5.651  56.625  47.876  1.00  0.00     0.079 A 
HETATM    5  C8  UNL     1       5.193  57.961  48.128  1.00  0.00    -0.018 A 
HETATM    6  C9  UNL     1       5.370  58.898  47.017  1.00  0.00     0.052 C 
HETATM    7  C10 UNL     1       4.525  58.318  49.263  1.00  0.00    -0.007 A 
HETATM    8  C11 UNL     1       4.270  57.307  50.193  1.00  0.00    -0.019 A 
HETATM    9  C12 UNL     1       3.453  57.568  51.394  1.00  0.00     0.181 C 
HETATM   10  C13 UNL     1       2.340  56.591  51.561  1.00  0.00     0.073 C 
HETATM   11  N1  UNL     1       1.472  55.872  51.698  1.00  0.00    -0.196 NA
HETATM   12  C14 UNL     1       2.737  58.911  51.128  1.00  0.00     0.280 C 
HETATM   13  O3  UNL     1       3.711  59.803  50.869  1.00  0.00    -0.345 OA
HETATM   14  C15 UNL     1       4.249  59.714  49.546  1.00  0.00     0.085 C 
HETATM   15  C16 UNL     1       5.539  60.534  49.795  1.00  0.00     0.051 C 
HETATM   16  C17 UNL     1       3.283  60.447  48.714  1.00  0.00     0.051 C 
ENDROOT
BRANCH  12  17
HETATM   17  O2  UNL     1       1.973  59.254  52.245  1.00  0.00    -0.369 OA
ATOM     18  H2  UNL     1       2.408  59.953  52.719  1.00  0.00     0.212 HD
ENDBRANCH  12  17
BRANCH   3  19
HETATM   19  C4  UNL     1       5.735  54.253  48.658  1.00  0.00     0.014 C 
HETATM   20  C5  UNL     1       7.233  54.019  48.918  1.00  0.00     0.015 C 
HETATM   21  C6  UNL     1       5.562  53.840  47.166  1.00  0.00     0.015 C 
ENDBRANCH   3  19
BRANCH   4  22
HETATM   22  O1  UNL     1       6.288  56.333  46.775  1.00  0.00    -0.360 OA
ATOM     23  H1  UNL     1       6.020  56.671  45.929  1.00  0.00     0.217 HD
ENDBRANCH   4  22
TORSDOF 3
ENDMDL
MODEL 5
REMARK VINA RESULT: -6.212199386      3.880      6.033
REMARK  3 active torsions:
REMARK  status: ('A' for Active; 'I' for Inactive)
REMARK    1  A    between atoms: C3_3  and  C4_4 
REMARK    2  A    between atoms: C7_7  and  O1_8 
REMARK    3  A    between atoms: C14_17  and  O2_18 
ROOT
HETATM    1  C1  UNL     1       2.618  58.878  51.664  1.00  0.00     0.049 C 
HETATM    2  C2  UNL     1       3.492  57.827  51.006  1.00  0.00    -0.044 A 
HETATM    3  C3  UNL     1       4.227  58.260  49.937  1.00  0.00    -0.015 A 
HETATM    4  C7  UNL     1       4.987  57.348  49.211  1.00  0.00     0.079 A 
HETATM    5  C8  UNL     1       4.937  55.978  49.637  1.00  0.00    -0.018 A 
HETATM    6  C9  UNL     1       5.858  55.078  48.941  1.00  0.00     0.052 C 
HETATM    7  C10 UNL     1       4.187  55.552  50.694  1.00  0.00    -0.007 A 
HETATM    8  C11 UNL     1       3.464  56.525  51.390  1.00  0.00    -0.019 A 
HETATM    9  C12 UNL     1       2.718  56.185  52.616  1.00  0.00     0.181 C 
HETATM   10  C13 UNL     1       3.049  57.078  53.763  1.00  0.00     0.073 C 
HETATM   11  N1  UNL     1       3.300  57.732  54.656  1.00  0.00    -0.196 NA
HETATM   12  C14 UNL     1       3.247  54.800  53.056  1.00  0.00     0.280 C 
HETATM   13  O3  UNL     1       3.059  53.984  52.003  1.00  0.00    -0.345 OA
HETATM   14  C15 UNL     1       4.032  54.136  50.963  1.00  0.00     0.085 C 
HETATM   15  C16 UNL     1       3.252  53.402  49.845  1.00  0.00     0.051 C 
HETATM   16  C17 UNL     1       5.186  53.354  51.433  1.00  0.00     0.051 C 
ENDROOT
BRANCH  12  17
HETATM   17  O2  UNL     1       2.554  54.383  54.194  1.00  0.00    -0.369 OA
ATOM     18  H2  UNL     1       1.624  54.363  54.004  1.00  0.00     0.212 HD
ENDBRANCH  12  17
BRANCH   3  19
HETATM   19  C4  UNL     1       4.270  59.704  49.635  1.00  0.00     0.014 C 
HETATM   20  C5  UNL     1       3.621  60.001  48.272  1.00  0.00     0.015 C 
HETATM   21  C6  UNL     1       5.739  60.185  49.444  1.00  0.00     0.015 C 
ENDBRANCH   3  19
BRANCH   4  22
HETATM   22  O1  UNL     1       5.718  57.704  48.191  1.00  0.00    -0.360 OA
ATOM     23  H1  UNL     1       5.577  58.521  47.727  1.00  0.00     0.217 HD
ENDBRANCH   4  22
TORSDOF 3
ENDMDL
