MODEL 1
REMARK VINA RESULT: -6.693080130      0.000      0.000
REMARK  4 active torsions:
REMARK  status: ('A' for Active; 'I' for Inactive)
REMARK    1  A    between atoms: C4_6  and  N2_7 
REMARK    2  A    between atoms: N2_7  and  C5_8 
REMARK    3  A    between atoms: C5_8  and  O1_9 
REMARK    4  A    between atoms: C5_8  and  C6_11 
ROOT
HETATM    1  C5  UNL     1       5.187  57.576  49.195  1.00  0.00     0.230 C 
ENDROOT
BRANCH   1   2
HETATM    2  N2  UNL     1       5.546  57.121  48.037  1.00  0.00    -0.355 NA
BRANCH   2   3
HETATM    3  C4  UNL     1       5.842  56.716  46.919  1.00  0.00     0.225 A 
HETATM    4  N1  UNL     1       5.962  57.422  45.773  1.00  0.00    -0.334 N 
HETATM    5  C3  UNL     1       6.284  56.817  44.688  1.00  0.00     0.105 A 
ATOM      6  H1  UNL     1       5.798  58.428  45.769  1.00  0.00     0.168 HD
HETATM    7  C2  UNL     1       6.499  55.467  44.719  1.00  0.00    -0.001 A 
HETATM    8  C1  UNL     1       6.883  54.563  43.571  1.00  0.00     0.058 C 
HETATM    9  S2  UNL     1       6.222  55.108  46.353  1.00  0.00    -0.043 SA
ENDBRANCH   2   3
ENDBRANCH   1   2
BRANCH   1  10
HETATM   10  O1  UNL     1       5.319  56.685  50.178  1.00  0.00    -0.335 OA
ATOM     11  H1  UNL     1       4.797  55.902  50.051  1.00  0.00     0.220 HD
ENDBRANCH   1  10
BRANCH   1  12
HETATM   12  C6  UNL     1       4.649  58.908  49.661  1.00  0.00     0.068 A 
HETATM   13  C7  UNL     1       3.352  58.989  50.155  1.00  0.00     0.103 A 
HETATM   14  N3  UNL     1       2.382  57.922  50.294  1.00  0.00    -0.093 NA
HETATM   15  S1  UNL     1       3.159  60.629  50.561  1.00  0.00    -0.078 SA
HETATM   16  C8  UNL     1       4.682  61.191  50.114  1.00  0.00    -0.008 A 
HETATM   17  C9  UNL     1       5.348  60.068  49.640  1.00  0.00    -0.027 A 
HETATM   18  C13 UNL     1       5.363  62.546  50.140  1.00  0.00     0.046 C 
HETATM   19  C10 UNL     1       6.757  60.438  49.195  1.00  0.00     0.041 C 
HETATM   20  C11 UNL     1       6.683  61.590  48.245  1.00  0.00     0.005 C 
HETATM   21  C12 UNL     1       5.962  62.784  48.783  1.00  0.00     0.005 C 
ENDBRANCH   1  12
TORSDOF 4
ENDMDL
MODEL 2
REMARK VINA RESULT: -6.642611290      1.570      1.989
REMARK  4 active torsions:
REMARK  status: ('A' for Active; 'I' for Inactive)
REMARK    1  A    between atoms: C4_6  and  N2_7 
REMARK    2  A    between atoms: N2_7  and  C5_8 
REMARK    3  A    between atoms: C5_8  and  O1_9 
REMARK    4  A    between atoms: C5_8  and  C6_11 
ROOT
HETATM    1  C5  UNL     1       4.938  59.455  49.137  1.00  0.00     0.230 C 
ENDROOT
BRANCH   1   2
HETATM    2  N2  UNL     1       5.154  58.737  48.082  1.00  0.00    -0.355 NA
BRANCH   2   3
HETATM    3  C4  UNL     1       5.412  58.070  47.088  1.00  0.00     0.225 A 
HETATM    4  N1  UNL     1       5.494  58.474  45.800  1.00  0.00    -0.334 N 
HETATM    5  C3  UNL     1       5.779  57.620  44.886  1.00  0.00     0.105 A 
ATOM      6  H1  UNL     1       5.330  59.450  45.557  1.00  0.00     0.168 HD
HETATM    7  C2  UNL     1       5.995  56.317  45.238  1.00  0.00    -0.001 A 
HETATM    8  C1  UNL     1       6.339  55.157  44.333  1.00  0.00     0.058 C 
HETATM    9  S2  UNL     1       5.773  56.368  46.918  1.00  0.00    -0.043 SA
ENDBRANCH   2   3
ENDBRANCH   1   2
BRANCH   1  10
HETATM   10  O1  UNL     1       4.567  58.738  50.199  1.00  0.00    -0.335 OA
ATOM     11  H1  UNL     1       3.673  58.904  50.474  1.00  0.00     0.220 HD
ENDBRANCH   1  10
BRANCH   1  12
HETATM   12  C6  UNL     1       5.018  60.938  49.415  1.00  0.00     0.068 A 
HETATM   13  C7  UNL     1       4.032  61.546  50.184  1.00  0.00     0.103 A 
HETATM   14  N3  UNL     1       2.871  60.932  50.793  1.00  0.00    -0.093 NA
HETATM   15  S1  UNL     1       4.501  63.179  50.249  1.00  0.00    -0.078 SA
HETATM   16  C8  UNL     1       5.905  63.088  49.325  1.00  0.00    -0.008 A 
HETATM   17  C9  UNL     1       6.003  61.750  48.963  1.00  0.00    -0.027 A 
HETATM   18  C13 UNL     1       6.950  64.093  48.880  1.00  0.00     0.046 C 
HETATM   19  C10 UNL     1       7.246  61.523  48.112  1.00  0.00     0.041 C 
HETATM   20  C11 UNL     1       7.246  62.498  46.978  1.00  0.00     0.005 C 
HETATM   21  C12 UNL     1       7.141  63.929  47.398  1.00  0.00     0.005 C 
ENDBRANCH   1  12
TORSDOF 4
ENDMDL
MODEL 3
REMARK VINA RESULT: -6.249593938      3.160      5.845
REMARK  4 active torsions:
REMARK  status: ('A' for Active; 'I' for Inactive)
REMARK    1  A    between atoms: C4_6  and  N2_7 
REMARK    2  A    between atoms: N2_7  and  C5_8 
REMARK    3  A    between atoms: C5_8  and  O1_9 
REMARK    4  A    between atoms: C5_8  and  C6_11 
ROOT
HETATM    1  C5  UNL     1       5.200  58.652  48.610  1.00  0.00     0.230 C 
ENDROOT
BRANCH   1   2
HETATM    2  N2  UNL     1       5.511  59.904  48.713  1.00  0.00    -0.355 NA
BRANCH   2   3
HETATM    3  C4  UNL     1       5.786  61.097  48.761  1.00  0.00     0.225 A 
HETATM    4  N1  UNL     1       5.324  62.033  49.620  1.00  0.00    -0.334 N 
HETATM    5  C3  UNL     1       5.731  63.245  49.514  1.00  0.00     0.105 A 
ATOM      6  H1  UNL     1       4.657  61.778  50.348  1.00  0.00     0.168 HD
HETATM    7  C2  UNL     1       6.625  63.562  48.530  1.00  0.00    -0.001 A 
HETATM    8  C1  UNL     1       7.230  64.912  48.227  1.00  0.00     0.058 C 
HETATM    9  S2  UNL     1       6.855  62.062  47.772  1.00  0.00    -0.043 SA
ENDBRANCH   2   3
ENDBRANCH   1   2
BRANCH   1  10
HETATM   10  O1  UNL     1       5.355  58.167  47.378  1.00  0.00    -0.335 OA
ATOM     11  H1  UNL     1       5.362  57.218  47.343  1.00  0.00     0.220 HD
ENDBRANCH   1  10
BRANCH   1  12
HETATM   12  C6  UNL     1       4.695  57.626  49.598  1.00  0.00     0.068 A 
HETATM   13  C7  UNL     1       4.979  56.281  49.394  1.00  0.00     0.103 A 
HETATM   14  N3  UNL     1       5.728  55.681  48.310  1.00  0.00    -0.093 NA
HETATM   15  S1  UNL     1       4.245  55.494  50.712  1.00  0.00    -0.078 SA
HETATM   16  C8  UNL     1       3.598  56.838  51.493  1.00  0.00    -0.008 A 
HETATM   17  C9  UNL     1       3.968  57.918  50.703  1.00  0.00    -0.027 A 
HETATM   18  C13 UNL     1       2.783  57.040  52.756  1.00  0.00     0.046 C 
HETATM   19  C10 UNL     1       3.441  59.216  51.302  1.00  0.00     0.041 C 
HETATM   20  C11 UNL     1       1.973  59.076  51.554  1.00  0.00     0.005 C 
HETATM   21  C12 UNL     1       1.605  57.906  52.408  1.00  0.00     0.005 C 
ENDBRANCH   1  12
TORSDOF 4
ENDMDL
MODEL 4
REMARK VINA RESULT: -6.243660868      3.288      4.116
REMARK  4 active torsions:
REMARK  status: ('A' for Active; 'I' for Inactive)
REMARK    1  A    between atoms: C4_6  and  N2_7 
REMARK    2  A    between atoms: N2_7  and  C5_8 
REMARK    3  A    between atoms: C5_8  and  O1_9 
REMARK    4  A    between atoms: C5_8  and  C6_11 
ROOT
HETATM    1  C5  UNL     1       4.914  59.660  48.691  1.00  0.00     0.230 C 
ENDROOT
BRANCH   1   2
HETATM    2  N2  UNL     1       4.334  58.619  49.198  1.00  0.00    -0.355 NA
BRANCH   2   3
HETATM    3  C4  UNL     1       3.743  57.644  49.645  1.00  0.00     0.225 A 
HETATM    4  N1  UNL     1       2.478  57.570  50.116  1.00  0.00    -0.334 N 
HETATM    5  C3  UNL     1       2.029  56.449  50.548  1.00  0.00     0.105 A 
ATOM      6  H1  UNL     1       1.885  58.399  50.129  1.00  0.00     0.168 HD
HETATM    7  C2  UNL     1       2.843  55.351  50.521  1.00  0.00    -0.001 A 
HETATM    8  C1  UNL     1       2.522  53.947  50.976  1.00  0.00     0.058 C 
HETATM    9  S2  UNL     1       4.266  55.991  49.857  1.00  0.00    -0.043 SA
ENDBRANCH   2   3
ENDBRANCH   1   2
BRANCH   1  10
HETATM   10  O1  UNL     1       5.519  59.417  47.529  1.00  0.00    -0.335 OA
ATOM     11  H1  UNL     1       4.987  58.914  46.924  1.00  0.00     0.220 HD
ENDBRANCH   1  10
BRANCH   1  12
HETATM   12  C6  UNL     1       5.046  61.095  49.147  1.00  0.00     0.068 A 
HETATM   13  C7  UNL     1       4.105  61.625  50.021  1.00  0.00     0.103 A 
HETATM   14  N3  UNL     1       2.947  60.969  50.591  1.00  0.00    -0.093 NA
HETATM   15  S1  UNL     1       4.623  63.226  50.272  1.00  0.00    -0.078 SA
HETATM   16  C8  UNL     1       5.992  63.216  49.293  1.00  0.00    -0.008 A 
HETATM   17  C9  UNL     1       6.039  61.932  48.764  1.00  0.00    -0.027 A 
HETATM   18  C13 UNL     1       7.050  64.243  48.938  1.00  0.00     0.046 C 
HETATM   19  C10 UNL     1       7.246  61.783  47.846  1.00  0.00     0.041 C 
HETATM   20  C11 UNL     1       7.237  62.892  46.843  1.00  0.00     0.005 C 
HETATM   21  C12 UNL     1       7.187  64.261  47.441  1.00  0.00     0.005 C 
ENDBRANCH   1  12
TORSDOF 4
ENDMDL
MODEL 5
REMARK VINA RESULT: -6.229644013      1.659      1.980
REMARK  4 active torsions:
REMARK  status: ('A' for Active; 'I' for Inactive)
REMARK    1  A    between atoms: C4_6  and  N2_7 
REMARK    2  A    between atoms: N2_7  and  C5_8 
REMARK    3  A    between atoms: C5_8  and  O1_9 
REMARK    4  A    between atoms: C5_8  and  C6_11 
ROOT
HETATM    1  C5  UNL     1       5.203  56.135  49.448  1.00  0.00     0.230 C 
ENDROOT
BRANCH   1   2
HETATM    2  N2  UNL     1       5.704  55.975  48.266  1.00  0.00    -0.355 NA
BRANCH   2   3
HETATM    3  C4  UNL     1       6.221  55.801  47.169  1.00  0.00     0.225 A 
HETATM    4  N1  UNL     1       6.252  56.640  46.110  1.00  0.00    -0.334 N 
HETATM    5  C3  UNL     1       6.849  56.279  45.034  1.00  0.00     0.105 A 
ATOM      6  H1  UNL     1       5.804  57.554  46.165  1.00  0.00     0.168 HD
HETATM    7  C2  UNL     1       7.442  55.048  44.984  1.00  0.00    -0.001 A 
HETATM    8  C1  UNL     1       8.192  54.426  43.829  1.00  0.00     0.058 C 
HETATM    9  S2  UNL     1       7.110  54.439  46.531  1.00  0.00    -0.043 SA
ENDBRANCH   2   3
ENDBRANCH   1   2
BRANCH   1  10
HETATM   10  O1  UNL     1       5.704  55.295  50.354  1.00  0.00    -0.335 OA
ATOM     11  H1  UNL     1       6.392  54.737  50.012  1.00  0.00     0.220 HD
ENDBRANCH   1  10
BRANCH   1  12
HETATM   12  C6  UNL     1       4.166  57.077  50.014  1.00  0.00     0.068 A 
HETATM   13  C7  UNL     1       2.993  56.562  50.553  1.00  0.00     0.103 A 
HETATM   14  N3  UNL     1       2.592  55.174  50.656  1.00  0.00    -0.093 NA
HETATM   15  S1  UNL     1       2.129  57.934  51.066  1.00  0.00    -0.078 SA
HETATM   16  C8  UNL     1       3.229  59.124  50.607  1.00  0.00    -0.008 A 
HETATM   17  C9  UNL     1       4.289  58.426  50.043  1.00  0.00    -0.027 A 
HETATM   18  C13 UNL     1       3.253  60.637  50.696  1.00  0.00     0.046 C 
HETATM   19  C10 UNL     1       5.370  59.393  49.577  1.00  0.00     0.041 C 
HETATM   20  C11 UNL     1       4.749  60.436  48.703  1.00  0.00     0.005 C 
HETATM   21  C12 UNL     1       3.612  61.171  49.337  1.00  0.00     0.005 C 
ENDBRANCH   1  12
TORSDOF 4
ENDMDL
