MODEL 1
REMARK VINA RESULT: -8.134046218      0.000      0.000
REMARK  2 active torsions:
REMARK  status: ('A' for Active; 'I' for Inactive)
REMARK    1  A    between atoms: C7_9  and  N2_10 
REMARK    2  A    between atoms: C8_13  and  C9_14 
ROOT
HETATM    1  C1  UNL     1       4.258  63.675  50.396  1.00  0.00     0.021 C 
HETATM    2  C2  UNL     1       5.239  63.051  49.799  1.00  0.00    -0.039 C 
HETATM    3  C3  UNL     1       6.407  63.756  49.255  1.00  0.00     0.040 C 
HETATM    4  C4  UNL     1       6.819  63.239  47.905  1.00  0.00     0.011 C 
HETATM    5  C5  UNL     1       6.968  61.759  47.835  1.00  0.00     0.060 C 
HETATM    6  C6  UNL     1       6.037  61.009  48.716  1.00  0.00     0.038 A 
HETATM    7  N1  UNL     1       5.999  59.682  48.593  1.00  0.00    -0.342 N 
ATOM      8  H1  UNL     1       6.603  59.227  47.908  1.00  0.00     0.167 HD
HETATM    9  C7  UNL     1       5.165  58.914  49.368  1.00  0.00     0.129 A 
HETATM   10  C8  UNL     1       4.372  59.519  50.270  1.00  0.00     0.111 A 
HETATM   11  N4  UNL     1       4.388  60.866  50.417  1.00  0.00    -0.349 N 
ATOM     12  H4  UNL     1       3.785  61.322  51.101  1.00  0.00     0.166 HD
HETATM   13  C16 UNL     1       5.215  61.584  49.644  1.00  0.00     0.061 A 
ENDROOT
BRANCH  10  14
HETATM   14  C9  UNL     1       3.457  58.728  51.128  1.00  0.00     0.105 A 
HETATM   15  N3  UNL     1       3.242  58.664  52.400  1.00  0.00    -0.351 N 
HETATM   16  C10 UNL     1       2.349  57.854  52.915  1.00  0.00     0.023 A 
ATOM     17  H3  UNL     1       3.784  59.263  53.023  1.00  0.00     0.166 HD
HETATM   18  C11 UNL     1       1.649  57.073  52.043  1.00  0.00     0.007 A 
HETATM   19  C15 UNL     1       2.076  57.760  54.422  1.00  0.00     0.058 C 
HETATM   20  S1  UNL     1       2.321  57.554  50.533  1.00  0.00    -0.073 SA
HETATM   21  C12 UNL     1       0.592  56.080  52.399  1.00  0.00     0.048 C 
HETATM   22  C13 UNL     1       0.105  56.378  53.781  1.00  0.00     0.006 C 
HETATM   23  C14 UNL     1       1.385  56.465  54.626  1.00  0.00     0.006 C 
ENDBRANCH  10  14
BRANCH   9  24
HETATM   24  N2  UNL     1       5.237  57.664  49.140  1.00  0.00    -0.384 N 
ATOM     25  H22 UNL     1       5.722  57.215  48.363  1.00  0.00     0.157 HD
ATOM     26  H21 UNL     1       4.749  57.081  49.821  1.00  0.00     0.157 HD
ENDBRANCH   9  24
TORSDOF 2
ENDMDL
MODEL 2
REMARK VINA RESULT: -7.710309401      1.861      7.215
REMARK  2 active torsions:
REMARK  status: ('A' for Active; 'I' for Inactive)
REMARK    1  A    between atoms: C7_9  and  N2_10 
REMARK    2  A    between atoms: C8_13  and  C9_14 
ROOT
HETATM    1  C1  UNL     1       1.683  58.777  52.486  1.00  0.00     0.021 C 
HETATM    2  C2  UNL     1       1.836  57.748  51.696  1.00  0.00    -0.039 C 
HETATM    3  C3  UNL     1       0.949  56.578  51.744  1.00  0.00     0.040 C 
HETATM    4  C4  UNL     1       1.698  55.279  51.643  1.00  0.00     0.011 C 
HETATM    5  C5  UNL     1       2.660  55.214  50.508  1.00  0.00     0.060 C 
HETATM    6  C6  UNL     1       3.288  56.515  50.164  1.00  0.00     0.038 A 
HETATM    7  N1  UNL     1       4.275  56.510  49.268  1.00  0.00    -0.342 N 
ATOM      8  H1  UNL     1       4.565  55.625  48.850  1.00  0.00     0.167 HD
HETATM    9  C7  UNL     1       4.911  57.669  48.894  1.00  0.00     0.129 A 
HETATM   10  C8  UNL     1       4.523  58.832  49.448  1.00  0.00     0.111 A 
HETATM   11  N4  UNL     1       3.523  58.868  50.362  1.00  0.00    -0.349 N 
ATOM     12  H4  UNL     1       3.232  59.751  50.781  1.00  0.00     0.166 HD
HETATM   13  C16 UNL     1       2.925  57.717  50.702  1.00  0.00     0.061 A 
ENDROOT
BRANCH  10  14
HETATM   14  C9  UNL     1       5.181  60.107  49.074  1.00  0.00     0.105 A 
HETATM   15  N3  UNL     1       5.973  60.468  48.119  1.00  0.00    -0.351 N 
HETATM   16  C10 UNL     1       6.425  61.695  48.016  1.00  0.00     0.023 A 
ATOM     17  H3  UNL     1       6.257  59.777  47.425  1.00  0.00     0.166 HD
HETATM   18  C11 UNL     1       6.018  62.584  48.968  1.00  0.00     0.007 A 
HETATM   19  C15 UNL     1       7.367  62.148  46.893  1.00  0.00     0.058 C 
HETATM   20  S1  UNL     1       5.010  61.597  49.955  1.00  0.00    -0.073 SA
HETATM   21  C12 UNL     1       6.404  64.024  49.054  1.00  0.00     0.048 C 
HETATM   22  C13 UNL     1       6.932  64.455  47.723  1.00  0.00     0.006 C 
HETATM   23  C14 UNL     1       7.993  63.401  47.373  1.00  0.00     0.006 C 
ENDBRANCH  10  14
BRANCH   9  24
HETATM   24  N2  UNL     1       5.832  57.511  48.031  1.00  0.00    -0.384 N 
ATOM     25  H22 UNL     1       6.834  57.456  48.214  1.00  0.00     0.157 HD
ATOM     26  H21 UNL     1       5.501  57.437  47.069  1.00  0.00     0.157 HD
ENDBRANCH   9  24
TORSDOF 2
ENDMDL
MODEL 3
REMARK VINA RESULT: -7.660737886      2.308      7.548
REMARK  2 active torsions:
REMARK  status: ('A' for Active; 'I' for Inactive)
REMARK    1  A    between atoms: C7_9  and  N2_10 
REMARK    2  A    between atoms: C8_13  and  C9_14 
ROOT
HETATM    1  C1  UNL     1       5.741  55.679  48.119  1.00  0.00     0.021 C 
HETATM    2  C2  UNL     1       5.015  55.745  49.203  1.00  0.00    -0.039 C 
HETATM    3  C3  UNL     1       4.641  54.553  49.976  1.00  0.00     0.040 C 
HETATM    4  C4  UNL     1       3.208  54.582  50.427  1.00  0.00     0.011 C 
HETATM    5  C5  UNL     1       2.803  55.845  51.104  1.00  0.00     0.060 C 
HETATM    6  C6  UNL     1       3.493  57.058  50.596  1.00  0.00     0.038 A 
HETATM    7  N1  UNL     1       3.072  58.243  51.039  1.00  0.00    -0.342 N 
ATOM      8  H1  UNL     1       2.300  58.281  51.704  1.00  0.00     0.167 HD
HETATM    9  C7  UNL     1       3.655  59.414  50.619  1.00  0.00     0.129 A 
HETATM   10  C8  UNL     1       4.673  59.356  49.743  1.00  0.00     0.111 A 
HETATM   11  N4  UNL     1       5.123  58.167  49.275  1.00  0.00    -0.349 N 
ATOM     12  H4  UNL     1       5.895  58.126  48.610  1.00  0.00     0.166 HD
HETATM   13  C16 UNL     1       4.531  57.044  49.707  1.00  0.00     0.061 A 
ENDROOT
BRANCH  10  14
HETATM   14  C9  UNL     1       5.333  60.596  49.263  1.00  0.00     0.105 A 
HETATM   15  N3  UNL     1       6.130  60.873  48.285  1.00  0.00    -0.351 N 
HETATM   16  C10 UNL     1       6.581  62.087  48.078  1.00  0.00     0.023 A 
ATOM     17  H3  UNL     1       6.417  60.125  47.654  1.00  0.00     0.166 HD
HETATM   18  C11 UNL     1       6.169  63.054  48.948  1.00  0.00     0.007 A 
HETATM   19  C15 UNL     1       7.528  62.442  46.924  1.00  0.00     0.058 C 
HETATM   20  S1  UNL     1       5.157  62.155  50.011  1.00  0.00    -0.073 SA
HETATM   21  C12 UNL     1       6.554  64.497  48.911  1.00  0.00     0.048 C 
HETATM   22  C13 UNL     1       7.089  64.812  47.551  1.00  0.00     0.006 C 
HETATM   23  C14 UNL     1       8.151  63.733  47.298  1.00  0.00     0.006 C 
ENDBRANCH  10  14
BRANCH   9  24
HETATM   24  N2  UNL     1       3.149  60.466  51.125  1.00  0.00    -0.384 N 
ATOM     25  H22 UNL     1       2.385  61.019  50.738  1.00  0.00     0.157 HD
ATOM     26  H21 UNL     1       3.575  60.758  52.005  1.00  0.00     0.157 HD
ENDBRANCH   9  24
TORSDOF 2
ENDMDL
MODEL 4
REMARK VINA RESULT: -7.579046481      0.953      1.164
REMARK  2 active torsions:
REMARK  status: ('A' for Active; 'I' for Inactive)
REMARK    1  A    between atoms: C7_9  and  N2_10 
REMARK    2  A    between atoms: C8_13  and  C9_14 
ROOT
HETATM    1  C1  UNL     1       4.458  63.789  50.401  1.00  0.00     0.021 C 
HETATM    2  C2  UNL     1       5.401  63.213  49.703  1.00  0.00    -0.039 C 
HETATM    3  C3  UNL     1       6.531  63.961  49.137  1.00  0.00     0.040 C 
HETATM    4  C4  UNL     1       6.858  63.541  47.732  1.00  0.00     0.011 C 
HETATM    5  C5  UNL     1       7.005  62.070  47.550  1.00  0.00     0.060 C 
HETATM    6  C6  UNL     1       6.132  61.256  48.433  1.00  0.00     0.038 A 
HETATM    7  N1  UNL     1       6.088  59.941  48.220  1.00  0.00    -0.342 N 
ATOM      8  H1  UNL     1       6.648  59.538  47.469  1.00  0.00     0.167 HD
HETATM    9  C7  UNL     1       5.305  59.115  48.991  1.00  0.00     0.129 A 
HETATM   10  C8  UNL     1       4.570  59.652  49.980  1.00  0.00     0.111 A 
HETATM   11  N4  UNL     1       4.593  60.986  50.220  1.00  0.00    -0.349 N 
ATOM     12  H4  UNL     1       4.033  61.390  50.970  1.00  0.00     0.166 HD
HETATM   13  C16 UNL     1       5.369  61.761  49.448  1.00  0.00     0.061 A 
ENDROOT
BRANCH  10  14
HETATM   14  C9  UNL     1       3.710  58.798  50.836  1.00  0.00     0.105 A 
HETATM   15  N3  UNL     1       3.770  57.571  51.235  1.00  0.00    -0.351 N 
HETATM   16  C10 UNL     1       2.852  57.046  52.010  1.00  0.00     0.023 A 
ATOM     17  H3  UNL     1       4.555  56.992  50.937  1.00  0.00     0.166 HD
HETATM   18  C11 UNL     1       1.820  57.859  52.382  1.00  0.00     0.007 A 
HETATM   19  C15 UNL     1       2.899  55.592  52.496  1.00  0.00     0.058 C 
HETATM   20  S1  UNL     1       2.237  59.330  51.591  1.00  0.00    -0.073 SA
HETATM   21  C12 UNL     1       0.667  57.480  53.252  1.00  0.00     0.048 C 
HETATM   22  C13 UNL     1       1.026  56.240  54.006  1.00  0.00     0.006 C 
HETATM   23  C14 UNL     1       1.519  55.266  52.926  1.00  0.00     0.006 C 
ENDBRANCH  10  14
BRANCH   9  24
HETATM   24  N2  UNL     1       5.364  57.885  48.673  1.00  0.00    -0.384 N 
ATOM     25  H22 UNL     1       5.495  57.505  47.735  1.00  0.00     0.157 HD
ATOM     26  H21 UNL     1       5.266  57.240  49.457  1.00  0.00     0.157 HD
ENDBRANCH   9  24
TORSDOF 2
ENDMDL
MODEL 5
REMARK VINA RESULT: -7.578639150      3.885      6.905
REMARK  2 active torsions:
REMARK  status: ('A' for Active; 'I' for Inactive)
REMARK    1  A    between atoms: C7_9  and  N2_10 
REMARK    2  A    between atoms: C8_13  and  C9_14 
ROOT
HETATM    1  C1  UNL     1       5.642  56.539  43.828  1.00  0.00     0.021 C 
HETATM    2  C2  UNL     1       6.052  55.587  44.623  1.00  0.00    -0.039 C 
HETATM    3  C3  UNL     1       6.682  54.358  44.124  1.00  0.00     0.040 C 
HETATM    4  C4  UNL     1       6.189  53.126  44.828  1.00  0.00     0.011 C 
HETATM    5  C5  UNL     1       6.222  53.215  46.314  1.00  0.00     0.060 C 
HETATM    6  C6  UNL     1       5.981  54.579  46.850  1.00  0.00     0.038 A 
HETATM    7  N1  UNL     1       5.837  54.711  48.169  1.00  0.00    -0.342 N 
ATOM      8  H1  UNL     1       5.897  53.884  48.762  1.00  0.00     0.167 HD
HETATM    9  C7  UNL     1       5.610  55.937  48.745  1.00  0.00     0.129 A 
HETATM   10  C8  UNL     1       5.533  57.023  47.957  1.00  0.00     0.111 A 
HETATM   11  N4  UNL     1       5.674  56.920  46.613  1.00  0.00    -0.349 N 
ATOM     12  H4  UNL     1       5.614  57.746  46.018  1.00  0.00     0.166 HD
HETATM   13  C16 UNL     1       5.895  55.708  46.085  1.00  0.00     0.061 A 
ENDROOT
BRANCH  10  14
HETATM   14  C9  UNL     1       5.289  58.367  48.538  1.00  0.00     0.105 A 
HETATM   15  N3  UNL     1       5.940  59.483  48.535  1.00  0.00    -0.351 N 
HETATM   16  C10 UNL     1       5.490  60.552  49.145  1.00  0.00     0.023 A 
ATOM     17  H3  UNL     1       6.832  59.533  48.043  1.00  0.00     0.166 HD
HETATM   18  C11 UNL     1       4.292  60.437  49.789  1.00  0.00     0.007 A 
HETATM   19  C15 UNL     1       6.244  61.888  49.156  1.00  0.00     0.058 C 
HETATM   20  S1  UNL     1       3.889  58.793  49.477  1.00  0.00    -0.073 SA
HETATM   21  C12 UNL     1       3.591  61.514  50.549  1.00  0.00     0.048 C 
HETATM   22  C13 UNL     1       4.159  62.834  50.137  1.00  0.00     0.006 C 
HETATM   23  C14 UNL     1       5.677  62.661  50.286  1.00  0.00     0.006 C 
ENDBRANCH  10  14
BRANCH   9  24
HETATM   24  N2  UNL     1       5.494  55.910  50.012  1.00  0.00    -0.384 N 
ATOM     25  H22 UNL     1       4.931  55.257  50.557  1.00  0.00     0.157 HD
ATOM     26  H21 UNL     1       6.029  56.628  50.501  1.00  0.00     0.157 HD
ENDBRANCH   9  24
TORSDOF 2
ENDMDL
