MODEL 1
REMARK VINA RESULT: -6.872705664      0.000      0.000
REMARK  9 active torsions:
REMARK  status: ('A' for Active; 'I' for Inactive)
REMARK    1  A    between atoms: N1_2  and  C2_3 
REMARK    2  A    between atoms: C2_3  and  C3_4 
REMARK    3  A    between atoms: C4_5  and  C5_6 
REMARK    4  A    between atoms: C6_7  and  C7_8 
REMARK    5  A    between atoms: C7_8  and  O1_9 
REMARK    6  A    between atoms: O1_9  and  C8_10 
REMARK    7  A    between atoms: C8_10  and  C9_11 
REMARK    8  A    between atoms: C9_11  and  N2_12 
REMARK       I    between atoms: N2_12  and  C10_14 
REMARK    9  A    between atoms: C13_21  and  O2_22 
ROOT
HETATM    1  C5  UNL     1     -18.402  19.466 -12.904  1.00  0.00    -0.013 C 
HETATM    2  C6  UNL     1     -19.469  19.388 -12.343  1.00  0.00    -0.066 C 
ENDROOT
BRANCH   1   3
HETATM    3  C4  UNL     1     -17.146  19.573 -13.545  1.00  0.00    -0.013 C 
HETATM    4  C3  UNL     1     -16.067  19.683 -14.108  1.00  0.00    -0.065 C 
BRANCH   4   5
HETATM    5  C2  UNL     1     -14.784  19.835 -14.796  1.00  0.00     0.331 C 
BRANCH   5   6
HETATM    6  N1  UNL     1     -13.734  19.192 -14.022  1.00  0.00    -0.059 N 
HETATM    7  C1  UNL     1     -13.172  18.122 -14.827  1.00  0.00     0.273 C 
HETATM    8  C11 UNL     1     -12.758  20.172 -13.662  1.00  0.00     0.240 C 
HETATM    9  C12 UNL     1     -13.176  20.611 -12.266  1.00  0.00     0.061 C 
HETATM   10  C13 UNL     1     -13.523  19.247 -11.655  1.00  0.00     0.145 C 
HETATM   11  C14 UNL     1     -14.261  18.608 -12.822  1.00  0.00     0.269 C 
BRANCH  10  12
HETATM   12  O2  UNL     1     -12.356  18.502 -11.475  1.00  0.00    -0.394 OA
ATOM     13  H2  UNL     1     -12.571  17.577 -11.439  1.00  0.00     0.210 HD
ENDBRANCH  10  12
ENDBRANCH   5   6
ENDBRANCH   4   5
ENDBRANCH   1   3
BRANCH   2  14
HETATM   14  C7  UNL     1     -20.769  19.318 -11.664  1.00  0.00     0.262 C 
BRANCH  14  15
HETATM   15  O1  UNL     1     -20.749  20.016 -10.466  1.00  0.00    -0.378 OA
BRANCH  15  16
HETATM   16  C8  UNL     1     -19.943  19.435  -9.510  1.00  0.00     0.188 C 
BRANCH  16  17
HETATM   17  C9  UNL     1     -20.411  18.098  -9.049  1.00  0.00     0.148 C 
BRANCH  17  18
HETATM   18  N2  UNL     1     -19.305  17.166  -9.004  1.00  0.00    -0.363 N 
HETATM   19  C10 UNL     1     -18.943  16.538 -10.213  1.00  0.00     0.181 C 
HETATM   20  N3  UNL     1     -19.823  15.948 -10.914  1.00  0.00    -0.374 N 
HETATM   21  N4  UNL     1     -17.601  16.570 -10.639  1.00  0.00    -0.064 NA
ATOM     22  H32 UNL     1     -20.795  15.925 -10.607  1.00  0.00     0.158 HD
ATOM     23  H31 UNL     1     -19.562  15.494 -11.790  1.00  0.00     0.158 HD
ATOM     24  H2  UNL     1     -18.809  16.971  -8.135  1.00  0.00     0.162 HD
ENDBRANCH  17  18
ENDBRANCH  16  17
ENDBRANCH  15  16
ENDBRANCH  14  15
ENDBRANCH   2  14
TORSDOF 9
ENDMDL
MODEL 2
REMARK VINA RESULT: -6.861442271      2.728      7.453
REMARK  9 active torsions:
REMARK  status: ('A' for Active; 'I' for Inactive)
REMARK    1  A    between atoms: N1_2  and  C2_3 
REMARK    2  A    between atoms: C2_3  and  C3_4 
REMARK    3  A    between atoms: C4_5  and  C5_6 
REMARK    4  A    between atoms: C6_7  and  C7_8 
REMARK    5  A    between atoms: C7_8  and  O1_9 
REMARK    6  A    between atoms: O1_9  and  C8_10 
REMARK    7  A    between atoms: C8_10  and  C9_11 
REMARK    8  A    between atoms: C9_11  and  N2_12 
REMARK       I    between atoms: N2_12  and  C10_14 
REMARK    9  A    between atoms: C13_21  and  O2_22 
ROOT
HETATM    1  C5  UNL     1     -15.879  19.894 -13.646  1.00  0.00    -0.013 C 
HETATM    2  C6  UNL     1     -14.707  20.039 -13.894  1.00  0.00    -0.066 C 
ENDROOT
BRANCH   1   3
HETATM    3  C4  UNL     1     -17.250  19.699 -13.354  1.00  0.00    -0.013 C 
HETATM    4  C3  UNL     1     -18.439  19.535 -13.122  1.00  0.00    -0.065 C 
BRANCH   4   5
HETATM    5  C2  UNL     1     -19.868  19.348 -12.869  1.00  0.00     0.331 C 
BRANCH   5   6
HETATM    6  N1  UNL     1     -20.086  19.101 -11.452  1.00  0.00    -0.059 N 
HETATM    7  C1  UNL     1     -19.844  20.340 -10.736  1.00  0.00     0.273 C 
HETATM    8  C11 UNL     1     -21.417  18.616 -11.267  1.00  0.00     0.240 C 
HETATM    9  C12 UNL     1     -21.259  17.102 -11.252  1.00  0.00     0.061 C 
HETATM   10  C13 UNL     1     -20.000  16.978 -10.384  1.00  0.00     0.145 C 
HETATM   11  C14 UNL     1     -19.167  18.117 -10.952  1.00  0.00     0.269 C 
BRANCH  10  12
HETATM   12  O2  UNL     1     -20.300  17.332  -9.067  1.00  0.00    -0.394 OA
ATOM     13  H2  UNL     1     -20.733  18.177  -9.054  1.00  0.00     0.210 HD
ENDBRANCH  10  12
ENDBRANCH   5   6
ENDBRANCH   4   5
ENDBRANCH   1   3
BRANCH   2  14
HETATM   14  C7  UNL     1     -13.283  20.202 -14.215  1.00  0.00     0.262 C 
BRANCH  14  15
HETATM   15  O1  UNL     1     -12.556  20.588 -13.100  1.00  0.00    -0.378 OA
BRANCH  15  16
HETATM   16  C8  UNL     1     -12.657  19.701 -12.050  1.00  0.00     0.188 C 
BRANCH  16  17
HETATM   17  C9  UNL     1     -12.935  20.343 -10.735  1.00  0.00     0.148 C 
BRANCH  17  18
HETATM   18  N2  UNL     1     -11.805  20.179  -9.845  1.00  0.00    -0.363 N 
HETATM   19  C10 UNL     1     -10.714  21.052 -10.023  1.00  0.00     0.181 C 
HETATM   20  N3  UNL     1     -10.190  21.194 -11.173  1.00  0.00    -0.374 N 
HETATM   21  N4  UNL     1     -10.207  21.766  -8.921  1.00  0.00    -0.064 NA
ATOM     22  H32 UNL     1     -10.557  20.677 -11.972  1.00  0.00     0.158 HD
ATOM     23  H31 UNL     1      -9.401  21.826 -11.302  1.00  0.00     0.158 HD
ATOM     24  H2  UNL     1     -11.799  19.461  -9.121  1.00  0.00     0.162 HD
ENDBRANCH  17  18
ENDBRANCH  16  17
ENDBRANCH  15  16
ENDBRANCH  14  15
ENDBRANCH   2  14
TORSDOF 9
ENDMDL
MODEL 3
REMARK VINA RESULT: -6.861341054      0.996      1.260
REMARK  9 active torsions:
REMARK  status: ('A' for Active; 'I' for Inactive)
REMARK    1  A    between atoms: N1_2  and  C2_3 
REMARK    2  A    between atoms: C2_3  and  C3_4 
REMARK    3  A    between atoms: C4_5  and  C5_6 
REMARK    4  A    between atoms: C6_7  and  C7_8 
REMARK    5  A    between atoms: C7_8  and  O1_9 
REMARK    6  A    between atoms: O1_9  and  C8_10 
REMARK    7  A    between atoms: C8_10  and  C9_11 
REMARK    8  A    between atoms: C9_11  and  N2_12 
REMARK       I    between atoms: N2_12  and  C10_14 
REMARK    9  A    between atoms: C13_21  and  O2_22 
ROOT
HETATM    1  C5  UNL     1     -18.170  20.287 -12.770  1.00  0.00    -0.013 C 
HETATM    2  C6  UNL     1     -19.160  20.514 -12.117  1.00  0.00    -0.066 C 
ENDROOT
BRANCH   1   3
HETATM    3  C4  UNL     1     -16.996  20.028 -13.515  1.00  0.00    -0.013 C 
HETATM    4  C3  UNL     1     -15.987  19.819 -14.172  1.00  0.00    -0.065 C 
BRANCH   4   5
HETATM    5  C2  UNL     1     -14.788  19.584 -14.979  1.00  0.00     0.331 C 
BRANCH   5   6
HETATM    6  N1  UNL     1     -13.727  19.055 -14.136  1.00  0.00    -0.059 N 
HETATM    7  C1  UNL     1     -13.070  17.982 -14.859  1.00  0.00     0.273 C 
HETATM    8  C11 UNL     1     -12.830  20.116 -13.802  1.00  0.00     0.240 C 
HETATM    9  C12 UNL     1     -13.323  20.602 -12.447  1.00  0.00     0.061 C 
HETATM   10  C13 UNL     1     -13.605  19.255 -11.770  1.00  0.00     0.145 C 
HETATM   11  C14 UNL     1     -14.259  18.506 -12.921  1.00  0.00     0.269 C 
BRANCH  10  12
HETATM   12  O2  UNL     1     -12.400  18.599 -11.511  1.00  0.00    -0.394 OA
ATOM     13  H2  UNL     1     -12.573  17.777 -11.067  1.00  0.00     0.210 HD
ENDBRANCH  10  12
ENDBRANCH   5   6
ENDBRANCH   4   5
ENDBRANCH   1   3
BRANCH   2  14
HETATM   14  C7  UNL     1     -20.356  20.812 -11.320  1.00  0.00     0.262 C 
BRANCH  14  15
HETATM   15  O1  UNL     1     -20.727  19.726 -10.543  1.00  0.00    -0.378 OA
BRANCH  15  16
HETATM   16  C8  UNL     1     -21.804  19.033 -11.053  1.00  0.00     0.188 C 
BRANCH  16  17
HETATM   17  C9  UNL     1     -21.700  17.554 -10.909  1.00  0.00     0.148 C 
BRANCH  17  18
HETATM   18  N2  UNL     1     -20.409  17.092 -11.371  1.00  0.00    -0.363 N 
HETATM   19  C10 UNL     1     -19.531  16.563 -10.405  1.00  0.00     0.181 C 
HETATM   20  N3  UNL     1     -19.270  17.222  -9.350  1.00  0.00    -0.374 N 
HETATM   21  N4  UNL     1     -18.946  15.299 -10.614  1.00  0.00    -0.064 NA
ATOM     22  H32 UNL     1     -19.693  18.137  -9.198  1.00  0.00     0.158 HD
ATOM     23  H31 UNL     1     -18.635  16.839  -8.650  1.00  0.00     0.158 HD
ATOM     24  H2  UNL     1     -20.146  17.149 -12.355  1.00  0.00     0.162 HD
ENDBRANCH  17  18
ENDBRANCH  16  17
ENDBRANCH  15  16
ENDBRANCH  14  15
ENDBRANCH   2  14
TORSDOF 9
ENDMDL
MODEL 4
REMARK VINA RESULT: -6.784526916      2.718      6.961
REMARK  9 active torsions:
REMARK  status: ('A' for Active; 'I' for Inactive)
REMARK    1  A    between atoms: N1_2  and  C2_3 
REMARK    2  A    between atoms: C2_3  and  C3_4 
REMARK    3  A    between atoms: C4_5  and  C5_6 
REMARK    4  A    between atoms: C6_7  and  C7_8 
REMARK    5  A    between atoms: C7_8  and  O1_9 
REMARK    6  A    between atoms: O1_9  and  C8_10 
REMARK    7  A    between atoms: C8_10  and  C9_11 
REMARK    8  A    between atoms: C9_11  and  N2_12 
REMARK       I    between atoms: N2_12  and  C10_14 
REMARK    9  A    between atoms: C13_21  and  O2_22 
ROOT
HETATM    1  C5  UNL     1     -15.693  19.877 -13.514  1.00  0.00    -0.013 C 
HETATM    2  C6  UNL     1     -14.508  20.029 -13.687  1.00  0.00    -0.066 C 
ENDROOT
BRANCH   1   3
HETATM    3  C4  UNL     1     -17.080  19.677 -13.322  1.00  0.00    -0.013 C 
HETATM    4  C3  UNL     1     -18.275  19.483 -13.156  1.00  0.00    -0.065 C 
BRANCH   4   5
HETATM    5  C2  UNL     1     -19.703  19.225 -12.960  1.00  0.00     0.331 C 
BRANCH   5   6
HETATM    6  N1  UNL     1     -19.977  19.039 -11.544  1.00  0.00    -0.059 N 
HETATM    7  C1  UNL     1     -19.709  20.292 -10.864  1.00  0.00     0.273 C 
HETATM    8  C11 UNL     1     -21.332  18.613 -11.388  1.00  0.00     0.240 C 
HETATM    9  C12 UNL     1     -21.236  17.096 -11.315  1.00  0.00     0.061 C 
HETATM   10  C13 UNL     1     -20.012  16.954 -10.401  1.00  0.00     0.145 C 
HETATM   11  C14 UNL     1     -19.116  18.039 -10.979  1.00  0.00     0.269 C 
BRANCH  10  12
HETATM   12  O2  UNL     1     -20.340  17.367  -9.108  1.00  0.00    -0.394 OA
ATOM     13  H2  UNL     1     -19.754  16.956  -8.483  1.00  0.00     0.210 HD
ENDBRANCH  10  12
ENDBRANCH   5   6
ENDBRANCH   4   5
ENDBRANCH   1   3
BRANCH   2  14
HETATM   14  C7  UNL     1     -13.070  20.210 -13.921  1.00  0.00     0.262 C 
BRANCH  14  15
HETATM   15  O1  UNL     1     -12.426  20.661 -12.779  1.00  0.00    -0.378 OA
BRANCH  15  16
HETATM   16  C8  UNL     1     -12.480  19.765 -11.733  1.00  0.00     0.188 C 
BRANCH  16  17
HETATM   17  C9  UNL     1     -12.775  20.386 -10.413  1.00  0.00     0.148 C 
BRANCH  17  18
HETATM   18  N2  UNL     1     -11.836  19.920  -9.415  1.00  0.00    -0.363 N 
HETATM   19  C10 UNL     1     -12.158  18.728  -8.736  1.00  0.00     0.181 C 
HETATM   20  N3  UNL     1     -13.294  18.595  -8.184  1.00  0.00    -0.374 N 
HETATM   21  N4  UNL     1     -11.212  17.686  -8.674  1.00  0.00    -0.064 NA
ATOM     22  H32 UNL     1     -13.979  19.349  -8.229  1.00  0.00     0.158 HD
ATOM     23  H31 UNL     1     -13.528  17.732  -7.693  1.00  0.00     0.158 HD
ATOM     24  H2  UNL     1     -10.978  20.433  -9.212  1.00  0.00     0.162 HD
ENDBRANCH  17  18
ENDBRANCH  16  17
ENDBRANCH  15  16
ENDBRANCH  14  15
ENDBRANCH   2  14
TORSDOF 9
ENDMDL
MODEL 5
REMARK VINA RESULT: -6.779482858      1.217      1.560
REMARK  9 active torsions:
REMARK  status: ('A' for Active; 'I' for Inactive)
REMARK    1  A    between atoms: N1_2  and  C2_3 
REMARK    2  A    between atoms: C2_3  and  C3_4 
REMARK    3  A    between atoms: C4_5  and  C5_6 
REMARK    4  A    between atoms: C6_7  and  C7_8 
REMARK    5  A    between atoms: C7_8  and  O1_9 
REMARK    6  A    between atoms: O1_9  and  C8_10 
REMARK    7  A    between atoms: C8_10  and  C9_11 
REMARK    8  A    between atoms: C9_11  and  N2_12 
REMARK       I    between atoms: N2_12  and  C10_14 
REMARK    9  A    between atoms: C13_21  and  O2_22 
ROOT
HETATM    1  C5  UNL     1     -18.105  20.184 -12.733  1.00  0.00    -0.013 C 
HETATM    2  C6  UNL     1     -19.072  20.361 -12.033  1.00  0.00    -0.066 C 
ENDROOT
BRANCH   1   3
HETATM    3  C4  UNL     1     -16.961  19.964 -13.535  1.00  0.00    -0.013 C 
HETATM    4  C3  UNL     1     -15.962  19.789 -14.219  1.00  0.00    -0.065 C 
BRANCH   4   5
HETATM    5  C2  UNL     1     -14.755  19.599 -15.025  1.00  0.00     0.331 C 
BRANCH   5   6
HETATM    6  N1  UNL     1     -13.688  19.069 -14.192  1.00  0.00    -0.059 N 
HETATM    7  C1  UNL     1     -13.013  18.021 -14.935  1.00  0.00     0.273 C 
HETATM    8  C11 UNL     1     -12.807  20.137 -13.835  1.00  0.00     0.240 C 
HETATM    9  C12 UNL     1     -13.310  20.589 -12.472  1.00  0.00     0.061 C 
HETATM   10  C13 UNL     1     -13.571  19.224 -11.822  1.00  0.00     0.145 C 
HETATM   11  C14 UNL     1     -14.212  18.488 -12.989  1.00  0.00     0.269 C 
BRANCH  10  12
HETATM   12  O2  UNL     1     -12.357  18.581 -11.574  1.00  0.00    -0.394 OA
ATOM     13  H2  UNL     1     -11.638  19.149 -11.827  1.00  0.00     0.210 HD
ENDBRANCH  10  12
ENDBRANCH   5   6
ENDBRANCH   4   5
ENDBRANCH   1   3
BRANCH   2  14
HETATM   14  C7  UNL     1     -20.235  20.584 -11.164  1.00  0.00     0.262 C 
BRANCH  14  15
HETATM   15  O1  UNL     1     -19.877  21.257 -10.006  1.00  0.00    -0.378 OA
BRANCH  15  16
HETATM   16  C8  UNL     1     -20.686  20.960  -8.931  1.00  0.00     0.188 C 
BRANCH  16  17
HETATM   17  C9  UNL     1     -21.423  19.672  -9.060  1.00  0.00     0.148 C 
BRANCH  17  18
HETATM   18  N2  UNL     1     -20.990  18.739  -8.042  1.00  0.00    -0.363 N 
HETATM   19  C10 UNL     1     -19.725  18.141  -8.214  1.00  0.00     0.181 C 
HETATM   20  N3  UNL     1     -19.434  17.568  -9.310  1.00  0.00    -0.374 N 
HETATM   21  N4  UNL     1     -18.788  18.183  -7.164  1.00  0.00    -0.064 NA
ATOM     22  H32 UNL     1     -20.113  17.538 -10.071  1.00  0.00     0.158 HD
ATOM     23  H31 UNL     1     -18.519  17.135  -9.435  1.00  0.00     0.158 HD
ATOM     24  H2  UNL     1     -21.575  18.524  -7.236  1.00  0.00     0.162 HD
ENDBRANCH  17  18
ENDBRANCH  16  17
ENDBRANCH  15  16
ENDBRANCH  14  15
ENDBRANCH   2  14
TORSDOF 9
ENDMDL
