MODEL 1
REMARK VINA RESULT: -5.818702931      0.000      0.000
REMARK  7 active torsions:
REMARK  status: ('A' for Active; 'I' for Inactive)
REMARK       I    between atoms: N2_7  and  C6_9 
REMARK    1  A    between atoms: N4_11  and  N5_13 
REMARK    2  A    between atoms: N6_16  and  C7_17 
REMARK    3  A    between atoms: N6_16  and  C9_19 
REMARK    4  A    between atoms: C9_19  and  C10_20 
REMARK    5  A    between atoms: C10_20  and  C11_21 
REMARK    6  A    between atoms: C11_21  and  C12_22 
REMARK    7  A    between atoms: C12_22  and  N7_23 
ROOT
HETATM    1  C1  UNL     1     -23.521  18.380 -11.407  1.00  0.00     0.017 C 
HETATM    2  C2  UNL     1     -22.285  18.476 -10.991  1.00  0.00    -0.045 C 
HETATM    3  C3  UNL     1     -21.199  17.590 -11.479  1.00  0.00     0.160 C 
HETATM    4  N1  UNL     1     -20.386  17.239 -10.359  1.00  0.00    -0.347 N 
HETATM    5  C4  UNL     1     -19.353  16.227 -10.597  1.00  0.00     0.153 C 
HETATM    6  C5  UNL     1     -20.507  17.805  -9.035  1.00  0.00     0.285 C 
HETATM    7  N2  UNL     1     -19.760  17.304  -8.170  1.00  0.00    -0.295 N 
ATOM      8  H2  UNL     1     -19.189  16.567  -8.584  1.00  0.00     0.171 HD
HETATM    9  C6  UNL     1     -19.467  17.435  -6.844  1.00  0.00     0.209 C 
HETATM   10  N3  UNL     1     -20.284  16.931  -5.763  1.00  0.00    -0.062 NA
HETATM   11  N4  UNL     1     -18.381  18.031  -6.468  1.00  0.00    -0.280 N 
ATOM     12  H4  UNL     1     -17.734  18.408  -7.160  1.00  0.00     0.189 HD
HETATM   13  N6  UNL     1     -21.403  18.849  -8.742  1.00  0.00    -0.003 N 
HETATM   14  C13 UNL     1     -21.850  19.500  -9.980  1.00  0.00     0.282 C 
ENDROOT
BRANCH  13  15
HETATM   15  C7  UNL     1     -22.581  18.463  -8.002  1.00  0.00     0.243 C 
HETATM   16  C8  UNL     1     -22.717  19.017  -6.640  1.00  0.00     0.035 C 
ENDBRANCH  13  15
BRANCH  13  17
HETATM   17  C9  UNL     1     -20.782  19.929  -7.955  1.00  0.00     0.248 C 
BRANCH  17  18
HETATM   18  C10 UNL     1     -20.791  21.198  -8.777  1.00  0.00     0.030 C 
BRANCH  18  19
HETATM   19  C11 UNL     1     -21.115  22.405  -7.905  1.00  0.00     0.029 C 
BRANCH  19  20
HETATM   20  C12 UNL     1     -22.371  22.202  -7.092  1.00  0.00     0.229 C 
BRANCH  20  21
HETATM   21  N7  UNL     1     -22.139  22.479  -5.684  1.00  0.00    -0.079 N 
ATOM     22  H73 UNL     1     -22.307  21.654  -5.107  1.00  0.00     0.274 HD
ATOM     23  H72 UNL     1     -21.147  22.608  -5.487  1.00  0.00     0.274 HD
ATOM     24  H71 UNL     1     -22.692  23.276  -5.368  1.00  0.00     0.274 HD
ENDBRANCH  20  21
ENDBRANCH  19  20
ENDBRANCH  18  19
ENDBRANCH  17  18
ENDBRANCH  13  17
BRANCH  11  25
HETATM   25  N5  UNL     1     -18.107  18.150  -5.114  1.00  0.00    -0.343 N 
ATOM     26  H52 UNL     1     -17.745  17.345  -4.604  1.00  0.00     0.176 HD
ATOM     27  H51 UNL     1     -18.271  19.043  -4.648  1.00  0.00     0.176 HD
ENDBRANCH  11  25
TORSDOF 7
ENDMDL
MODEL 2
REMARK VINA RESULT: -5.720717415      2.158      4.410
REMARK  7 active torsions:
REMARK  status: ('A' for Active; 'I' for Inactive)
REMARK       I    between atoms: N2_7  and  C6_9 
REMARK    1  A    between atoms: N4_11  and  N5_13 
REMARK    2  A    between atoms: N6_16  and  C7_17 
REMARK    3  A    between atoms: N6_16  and  C9_19 
REMARK    4  A    between atoms: C9_19  and  C10_20 
REMARK    5  A    between atoms: C10_20  and  C11_21 
REMARK    6  A    between atoms: C11_21  and  C12_22 
REMARK    7  A    between atoms: C12_22  and  N7_23 
ROOT
HETATM    1  C1  UNL     1     -19.177  16.137 -10.277  1.00  0.00     0.017 C 
HETATM    2  C2  UNL     1     -19.352  17.132  -9.446  1.00  0.00    -0.045 C 
HETATM    3  C3  UNL     1     -19.035  17.038  -7.999  1.00  0.00     0.160 C 
HETATM    4  N1  UNL     1     -20.077  17.700  -7.280  1.00  0.00    -0.347 N 
HETATM    5  C4  UNL     1     -20.043  17.571  -5.821  1.00  0.00     0.153 C 
HETATM    6  C5  UNL     1     -21.138  18.474  -7.882  1.00  0.00     0.285 C 
HETATM    7  N2  UNL     1     -22.001  18.902  -7.090  1.00  0.00    -0.295 N 
ATOM      8  H2  UNL     1     -21.780  18.610  -6.138  1.00  0.00     0.171 HD
HETATM    9  C6  UNL     1     -23.150  19.639  -7.099  1.00  0.00     0.209 C 
HETATM   10  N3  UNL     1     -24.445  19.149  -7.517  1.00  0.00    -0.062 NA
HETATM   11  N4  UNL     1     -23.143  20.870  -6.697  1.00  0.00    -0.280 N 
ATOM     12  H4  UNL     1     -22.277  21.300  -6.370  1.00  0.00     0.189 HD
HETATM   13  N6  UNL     1     -21.192  18.730  -9.265  1.00  0.00    -0.003 N 
HETATM   14  C13 UNL     1     -19.887  18.466  -9.883  1.00  0.00     0.282 C 
ENDROOT
BRANCH  13  15
HETATM   15  C7  UNL     1     -22.182  17.974  -9.994  1.00  0.00     0.243 C 
HETATM   16  C8  UNL     1     -22.945  18.706 -11.024  1.00  0.00     0.035 C 
ENDBRANCH  13  15
BRANCH  13  17
HETATM   17  C9  UNL     1     -21.473  20.143  -9.572  1.00  0.00     0.248 C 
BRANCH  17  18
HETATM   18  C10 UNL     1     -20.213  20.786 -10.108  1.00  0.00     0.030 C 
BRANCH  18  19
HETATM   19  C11 UNL     1     -20.408  21.239 -11.550  1.00  0.00     0.029 C 
BRANCH  19  20
HETATM   20  C12 UNL     1     -19.374  20.648 -12.479  1.00  0.00     0.229 C 
BRANCH  20  21
HETATM   21  N7  UNL     1     -18.790  21.667 -13.334  1.00  0.00    -0.079 N 
ATOM     22  H73 UNL     1     -18.582  22.520 -12.814  1.00  0.00     0.274 HD
ATOM     23  H72 UNL     1     -17.841  21.421 -13.616  1.00  0.00     0.274 HD
ATOM     24  H71 UNL     1     -19.384  21.857 -14.142  1.00  0.00     0.274 HD
ENDBRANCH  20  21
ENDBRANCH  19  20
ENDBRANCH  18  19
ENDBRANCH  17  18
ENDBRANCH  13  17
BRANCH  11  25
HETATM   25  N5  UNL     1     -24.323  21.596  -6.716  1.00  0.00    -0.343 N 
ATOM     26  H52 UNL     1     -25.031  21.383  -7.418  1.00  0.00     0.176 HD
ATOM     27  H51 UNL     1     -24.466  22.335  -6.026  1.00  0.00     0.176 HD
ENDBRANCH  11  25
TORSDOF 7
ENDMDL
MODEL 3
REMARK VINA RESULT: -5.678167244      2.536      5.412
REMARK  7 active torsions:
REMARK  status: ('A' for Active; 'I' for Inactive)
REMARK       I    between atoms: N2_7  and  C6_9 
REMARK    1  A    between atoms: N4_11  and  N5_13 
REMARK    2  A    between atoms: N6_16  and  C7_17 
REMARK    3  A    between atoms: N6_16  and  C9_19 
REMARK    4  A    between atoms: C9_19  and  C10_20 
REMARK    5  A    between atoms: C10_20  and  C11_21 
REMARK    6  A    between atoms: C11_21  and  C12_22 
REMARK    7  A    between atoms: C12_22  and  N7_23 
ROOT
HETATM    1  C1  UNL     1     -20.198  18.838  -6.855  1.00  0.00     0.017 C 
HETATM    2  C2  UNL     1     -20.319  18.301  -8.042  1.00  0.00    -0.045 C 
HETATM    3  C3  UNL     1     -19.582  17.080  -8.451  1.00  0.00     0.160 C 
HETATM    4  N1  UNL     1     -19.137  17.270  -9.795  1.00  0.00    -0.347 N 
HETATM    5  C4  UNL     1     -18.237  16.245 -10.332  1.00  0.00     0.153 C 
HETATM    6  C5  UNL     1     -19.508  18.378 -10.643  1.00  0.00     0.285 C 
HETATM    7  N2  UNL     1     -18.946  18.410 -11.757  1.00  0.00    -0.295 N 
ATOM      8  H2  UNL     1     -18.311  17.617 -11.852  1.00  0.00     0.171 HD
HETATM    9  C6  UNL     1     -18.915  19.174 -12.887  1.00  0.00     0.209 C 
HETATM   10  N3  UNL     1     -18.215  20.433 -13.016  1.00  0.00    -0.062 NA
HETATM   11  N4  UNL     1     -19.525  18.783 -13.960  1.00  0.00    -0.280 N 
ATOM     12  H4  UNL     1     -20.035  17.900 -13.970  1.00  0.00     0.189 HD
HETATM   13  N6  UNL     1     -20.441  19.353 -10.244  1.00  0.00    -0.003 N 
HETATM   14  C13 UNL     1     -21.222  18.871  -9.098  1.00  0.00     0.282 C 
ENDROOT
BRANCH  13  15
HETATM   15  C7  UNL     1     -19.881  20.632  -9.882  1.00  0.00     0.243 C 
HETATM   16  C8  UNL     1     -20.786  21.584  -9.207  1.00  0.00     0.035 C 
ENDBRANCH  13  15
BRANCH  13  17
HETATM   17  C9  UNL     1     -21.443  19.643 -11.284  1.00  0.00     0.248 C 
BRANCH  17  18
HETATM   18  C10 UNL     1     -22.817  19.316 -10.744  1.00  0.00     0.030 C 
BRANCH  18  19
HETATM   19  C11 UNL     1     -23.546  18.347 -11.667  1.00  0.00     0.029 C 
BRANCH  19  20
HETATM   20  C12 UNL     1     -22.807  17.038 -11.818  1.00  0.00     0.229 C 
BRANCH  20  21
HETATM   21  N7  UNL     1     -23.595  16.072 -12.566  1.00  0.00    -0.079 N 
ATOM     22  H73 UNL     1     -23.004  15.361 -12.997  1.00  0.00     0.274 HD
ATOM     23  H72 UNL     1     -24.137  15.471 -11.945  1.00  0.00     0.274 HD
ATOM     24  H71 UNL     1     -24.189  16.534 -13.255  1.00  0.00     0.274 HD
ENDBRANCH  20  21
ENDBRANCH  19  20
ENDBRANCH  18  19
ENDBRANCH  17  18
ENDBRANCH  13  17
BRANCH  11  25
HETATM   25  N5  UNL     1     -19.477  19.577 -15.095  1.00  0.00    -0.343 N 
ATOM     26  H52 UNL     1     -19.418  20.590 -14.995  1.00  0.00     0.176 HD
ATOM     27  H51 UNL     1     -19.503  19.136 -16.015  1.00  0.00     0.176 HD
ENDBRANCH  11  25
TORSDOF 7
ENDMDL
MODEL 4
REMARK VINA RESULT: -5.400544408      1.784      3.866
REMARK  7 active torsions:
REMARK  status: ('A' for Active; 'I' for Inactive)
REMARK       I    between atoms: N2_7  and  C6_9 
REMARK    1  A    between atoms: N4_11  and  N5_13 
REMARK    2  A    between atoms: N6_16  and  C7_17 
REMARK    3  A    between atoms: N6_16  and  C9_19 
REMARK    4  A    between atoms: C9_19  and  C10_20 
REMARK    5  A    between atoms: C10_20  and  C11_21 
REMARK    6  A    between atoms: C11_21  and  C12_22 
REMARK    7  A    between atoms: C12_22  and  N7_23 
ROOT
HETATM    1  C1  UNL     1     -19.106  16.513 -10.191  1.00  0.00     0.017 C 
HETATM    2  C2  UNL     1     -19.411  17.439  -9.318  1.00  0.00    -0.045 C 
HETATM    3  C3  UNL     1     -19.156  17.288  -7.864  1.00  0.00     0.160 C 
HETATM    4  N1  UNL     1     -20.287  17.812  -7.166  1.00  0.00    -0.347 N 
HETATM    5  C4  UNL     1     -20.311  17.603  -5.716  1.00  0.00     0.153 C 
HETATM    6  C5  UNL     1     -21.384  18.524  -7.781  1.00  0.00     0.285 C 
HETATM    7  N2  UNL     1     -22.320  18.827  -7.014  1.00  0.00    -0.295 N 
ATOM      8  H2  UNL     1     -22.118  18.501  -6.068  1.00  0.00     0.171 HD
HETATM    9  C6  UNL     1     -23.528  19.460  -7.043  1.00  0.00     0.209 C 
HETATM   10  N3  UNL     1     -24.752  18.882  -7.555  1.00  0.00    -0.062 NA
HETATM   11  N4  UNL     1     -23.653  20.660  -6.576  1.00  0.00    -0.280 N 
ATOM     12  H4  UNL     1     -22.847  21.146  -6.182  1.00  0.00     0.189 HD
HETATM   13  N6  UNL     1     -21.395  18.854  -9.149  1.00  0.00    -0.003 N 
HETATM   14  C13 UNL     1     -20.044  18.743  -9.711  1.00  0.00     0.282 C 
ENDROOT
BRANCH  13  15
HETATM   15  C7  UNL     1     -22.276  18.058  -9.969  1.00  0.00     0.243 C 
HETATM   16  C8  UNL     1     -22.937  18.750 -11.094  1.00  0.00     0.035 C 
ENDBRANCH  13  15
BRANCH  13  17
HETATM   17  C9  UNL     1     -21.789  20.253  -9.394  1.00  0.00     0.248 C 
BRANCH  17  18
HETATM   18  C10 UNL     1     -20.639  21.157  -9.011  1.00  0.00     0.030 C 
BRANCH  18  19
HETATM   19  C11 UNL     1     -21.108  22.262  -8.072  1.00  0.00     0.029 C 
BRANCH  19  20
HETATM   20  C12 UNL     1     -20.189  23.461  -8.096  1.00  0.00     0.229 C 
BRANCH  20  21
HETATM   21  N7  UNL     1     -20.829  24.603  -8.726  1.00  0.00    -0.079 N 
ATOM     22  H73 UNL     1     -20.263  24.977  -9.488  1.00  0.00     0.274 HD
ATOM     23  H72 UNL     1     -21.650  24.324  -9.263  1.00  0.00     0.274 HD
ATOM     24  H71 UNL     1     -21.058  25.324  -8.041  1.00  0.00     0.274 HD
ENDBRANCH  20  21
ENDBRANCH  19  20
ENDBRANCH  18  19
ENDBRANCH  17  18
ENDBRANCH  13  17
BRANCH  11  25
HETATM   25  N5  UNL     1     -24.892  21.280  -6.618  1.00  0.00    -0.343 N 
ATOM     26  H52 UNL     1     -25.679  20.796  -7.049  1.00  0.00     0.176 HD
ATOM     27  H51 UNL     1     -24.998  22.212  -6.216  1.00  0.00     0.176 HD
ENDBRANCH  11  25
TORSDOF 7
ENDMDL
MODEL 5
REMARK VINA RESULT: -5.359465296      2.191      4.362
REMARK  7 active torsions:
REMARK  status: ('A' for Active; 'I' for Inactive)
REMARK       I    between atoms: N2_7  and  C6_9 
REMARK    1  A    between atoms: N4_11  and  N5_13 
REMARK    2  A    between atoms: N6_16  and  C7_17 
REMARK    3  A    between atoms: N6_16  and  C9_19 
REMARK    4  A    between atoms: C9_19  and  C10_20 
REMARK    5  A    between atoms: C10_20  and  C11_21 
REMARK    6  A    between atoms: C11_21  and  C12_22 
REMARK    7  A    between atoms: C12_22  and  N7_23 
ROOT
HETATM    1  C1  UNL     1     -20.040  15.758 -10.905  1.00  0.00     0.017 C 
HETATM    2  C2  UNL     1     -19.746  16.826 -10.208  1.00  0.00    -0.045 C 
HETATM    3  C3  UNL     1     -19.028  16.768  -8.911  1.00  0.00     0.160 C 
HETATM    4  N1  UNL     1     -19.643  17.711  -8.030  1.00  0.00    -0.347 N 
HETATM    5  C4  UNL     1     -19.191  17.688  -6.636  1.00  0.00     0.153 C 
HETATM    6  C5  UNL     1     -20.655  18.667  -8.414  1.00  0.00     0.285 C 
HETATM    7  N2  UNL     1     -21.128  19.346  -7.481  1.00  0.00    -0.295 N 
ATOM      8  H2  UNL     1     -20.691  19.082  -6.598  1.00  0.00     0.171 HD
HETATM    9  C6  UNL     1     -22.048  20.332  -7.272  1.00  0.00     0.209 C 
HETATM   10  N3  UNL     1     -23.481  20.133  -7.236  1.00  0.00    -0.062 NA
HETATM   11  N4  UNL     1     -21.668  21.553  -7.068  1.00  0.00    -0.280 N 
ATOM     12  H4  UNL     1     -20.675  21.788  -7.062  1.00  0.00     0.189 HD
HETATM   13  N6  UNL     1     -21.075  18.824  -9.748  1.00  0.00    -0.003 N 
HETATM   14  C13 UNL     1     -20.105  18.212 -10.663  1.00  0.00     0.282 C 
ENDROOT
BRANCH  13  15
HETATM   15  C7  UNL     1     -22.373  18.272 -10.055  1.00  0.00     0.243 C 
HETATM   16  C8  UNL     1     -23.041  18.789 -11.265  1.00  0.00     0.035 C 
ENDBRANCH  13  15
BRANCH  13  17
HETATM   17  C9  UNL     1     -21.142  20.237 -10.162  1.00  0.00     0.248 C 
BRANCH  17  18
HETATM   18  C10 UNL     1     -19.784  20.658 -10.676  1.00  0.00     0.030 C 
BRANCH  18  19
HETATM   19  C11 UNL     1     -19.820  20.875 -12.185  1.00  0.00     0.029 C 
BRANCH  19  20
HETATM   20  C12 UNL     1     -18.442  20.816 -12.803  1.00  0.00     0.229 C 
BRANCH  20  21
HETATM   21  N7  UNL     1     -18.516  20.816 -14.254  1.00  0.00    -0.079 N 
ATOM     22  H73 UNL     1     -17.617  21.054 -14.675  1.00  0.00     0.274 HD
ATOM     23  H72 UNL     1     -18.616  19.871 -14.624  1.00  0.00     0.274 HD
ATOM     24  H71 UNL     1     -19.259  21.431 -14.587  1.00  0.00     0.274 HD
ENDBRANCH  20  21
ENDBRANCH  19  20
ENDBRANCH  18  19
ENDBRANCH  17  18
ENDBRANCH  13  17
BRANCH  11  25
HETATM   25  N5  UNL     1     -22.622  22.535  -6.858  1.00  0.00    -0.343 N 
ATOM     26  H52 UNL     1     -22.929  22.740  -5.907  1.00  0.00     0.176 HD
ATOM     27  H51 UNL     1     -23.004  23.040  -7.659  1.00  0.00     0.176 HD
ENDBRANCH  11  25
TORSDOF 7
ENDMDL
