MODEL 1
REMARK VINA RESULT: -6.683605195      0.000      0.000
REMARK  8 active torsions:
REMARK  status: ('A' for Active; 'I' for Inactive)
REMARK       I    between atoms: N1_2  and  C3_4 
REMARK    1  A    between atoms: N3_6  and  C4_8 
REMARK    2  A    between atoms: C4_8  and  N4_10 
REMARK    3  A    between atoms: N4_10  and  C5_12 
REMARK    4  A    between atoms: C5_12  and  C6_13 
REMARK    5  A    between atoms: C6_13  and  C7_14 
REMARK    6  A    between atoms: C7_14  and  N5_15 
REMARK    7  A    between atoms: N5_15  and  S2_17 
REMARK    8  A    between atoms: S2_17  and  N6_18 
ROOT
HETATM    1  N4  UNL     1     -19.536  18.779 -13.652  1.00  0.00    -0.367 N 
ATOM      2  H4  UNL     1     -20.140  17.979 -13.842  1.00  0.00     0.161 HD
ENDROOT
BRANCH   1   3
HETATM    3  C4  UNL     1     -19.169  19.084 -12.312  1.00  0.00     0.174 C 
HETATM    4  S1  UNL     1     -19.570  20.541 -11.641  1.00  0.00    -0.041 SA
BRANCH   3   5
HETATM    5  N3  UNL     1     -18.451  18.118 -11.564  1.00  0.00    -0.307 N 
HETATM    6  C3  UNL     1     -19.099  17.414 -10.669  1.00  0.00     0.191 C 
HETATM    7  N1  UNL     1     -20.488  17.598 -10.435  1.00  0.00    -0.364 N 
HETATM    8  N2  UNL     1     -18.356  16.457  -9.938  1.00  0.00    -0.063 NA
HETATM    9  C1  UNL     1     -20.932  18.203  -9.203  1.00  0.00     0.151 C 
HETATM   10  C2  UNL     1     -21.408  17.158 -11.467  1.00  0.00     0.151 C 
ATOM     11  H3  UNL     1     -17.453  17.974 -11.719  1.00  0.00     0.171 HD
ENDBRANCH   3   5
ENDBRANCH   1   3
BRANCH   1  12
HETATM   12  C5  UNL     1     -19.066  19.585 -14.738  1.00  0.00     0.123 C 
BRANCH  12  13
HETATM   13  C6  UNL     1     -17.666  19.186 -15.134  1.00  0.00     0.040 C 
BRANCH  13  14
HETATM   14  C7  UNL     1     -16.724  20.302 -14.799  1.00  0.00     0.135 C 
BRANCH  14  15
HETATM   15  N5  UNL     1     -15.478  20.208 -15.541  1.00  0.00    -0.303 N 
ATOM     16  H5  UNL     1     -15.400  20.404 -16.539  1.00  0.00     0.173 HD
BRANCH  15  17
HETATM   17  S2  UNL     1     -14.164  19.736 -14.570  1.00  0.00     0.312 S 
HETATM   18  O1  UNL     1     -13.404  20.896 -14.003  1.00  0.00    -0.183 OA
HETATM   19  O2  UNL     1     -14.546  18.846 -13.437  1.00  0.00    -0.183 OA
BRANCH  17  20
HETATM   20  N6  UNL     1     -13.046  18.864 -15.587  1.00  0.00    -0.312 N 
ATOM     21  H62 UNL     1     -13.294  18.114 -16.232  1.00  0.00     0.170 HD
ATOM     22  H61 UNL     1     -12.115  19.242 -15.414  1.00  0.00     0.170 HD
ENDBRANCH  17  20
ENDBRANCH  15  17
ENDBRANCH  14  15
ENDBRANCH  13  14
ENDBRANCH  12  13
ENDBRANCH   1  12
TORSDOF 8
ENDMDL
MODEL 2
REMARK VINA RESULT: -6.380152816      1.133      1.821
REMARK  8 active torsions:
REMARK  status: ('A' for Active; 'I' for Inactive)
REMARK       I    between atoms: N1_2  and  C3_4 
REMARK    1  A    between atoms: N3_6  and  C4_8 
REMARK    2  A    between atoms: C4_8  and  N4_10 
REMARK    3  A    between atoms: N4_10  and  C5_12 
REMARK    4  A    between atoms: C5_12  and  C6_13 
REMARK    5  A    between atoms: C6_13  and  C7_14 
REMARK    6  A    between atoms: C7_14  and  N5_15 
REMARK    7  A    between atoms: N5_15  and  S2_17 
REMARK    8  A    between atoms: S2_17  and  N6_18 
ROOT
HETATM    1  N4  UNL     1     -18.274  18.742 -12.657  1.00  0.00    -0.367 N 
ATOM      2  H4  UNL     1     -18.053  17.748 -12.591  1.00  0.00     0.161 HD
ENDROOT
BRANCH   1   3
HETATM    3  C4  UNL     1     -19.546  19.212 -12.225  1.00  0.00     0.174 C 
HETATM    4  S1  UNL     1     -19.702  20.711 -11.546  1.00  0.00    -0.041 SA
BRANCH   3   5
HETATM    5  N3  UNL     1     -20.675  18.371 -12.387  1.00  0.00    -0.307 N 
HETATM    6  C3  UNL     1     -20.896  17.443 -11.487  1.00  0.00     0.191 C 
HETATM    7  N1  UNL     1     -20.038  17.265 -10.369  1.00  0.00    -0.364 N 
HETATM    8  N2  UNL     1     -22.031  16.619 -11.675  1.00  0.00    -0.063 NA
HETATM    9  C1  UNL     1     -19.194  16.098 -10.294  1.00  0.00     0.151 C 
HETATM   10  C2  UNL     1     -20.054  18.287  -9.340  1.00  0.00     0.151 C 
ATOM     11  H3  UNL     1     -21.301  18.484 -13.184  1.00  0.00     0.171 HD
ENDBRANCH   3   5
ENDBRANCH   1   3
BRANCH   1  12
HETATM   12  C5  UNL     1     -17.303  19.651 -13.184  1.00  0.00     0.123 C 
BRANCH  12  13
HETATM   13  C6  UNL     1     -17.390  19.715 -14.689  1.00  0.00     0.040 C 
BRANCH  13  14
HETATM   14  C7  UNL     1     -16.008  19.830 -15.257  1.00  0.00     0.135 C 
BRANCH  14  15
HETATM   15  N5  UNL     1     -15.118  20.578 -14.384  1.00  0.00    -0.303 N 
ATOM     16  H5  UNL     1     -15.345  21.495 -14.000  1.00  0.00     0.173 HD
BRANCH  15  17
HETATM   17  S2  UNL     1     -13.659  19.762 -14.071  1.00  0.00     0.312 S 
HETATM   18  O1  UNL     1     -12.537  20.683 -13.702  1.00  0.00    -0.183 OA
HETATM   19  O2  UNL     1     -13.769  18.728 -13.002  1.00  0.00    -0.183 OA
BRANCH  17  20
HETATM   20  N6  UNL     1     -13.178  18.963 -15.545  1.00  0.00    -0.312 N 
ATOM     21  H62 UNL     1     -13.803  18.696 -16.305  1.00  0.00     0.170 HD
ATOM     22  H61 UNL     1     -12.169  18.819 -15.500  1.00  0.00     0.170 HD
ENDBRANCH  17  20
ENDBRANCH  15  17
ENDBRANCH  14  15
ENDBRANCH  13  14
ENDBRANCH  12  13
ENDBRANCH   1  12
TORSDOF 8
ENDMDL
MODEL 3
REMARK VINA RESULT: -6.332063544      3.501      6.444
REMARK  8 active torsions:
REMARK  status: ('A' for Active; 'I' for Inactive)
REMARK       I    between atoms: N1_2  and  C3_4 
REMARK    1  A    between atoms: N3_6  and  C4_8 
REMARK    2  A    between atoms: C4_8  and  N4_10 
REMARK    3  A    between atoms: N4_10  and  C5_12 
REMARK    4  A    between atoms: C5_12  and  C6_13 
REMARK    5  A    between atoms: C6_13  and  C7_14 
REMARK    6  A    between atoms: C7_14  and  N5_15 
REMARK    7  A    between atoms: N5_15  and  S2_17 
REMARK    8  A    between atoms: S2_17  and  N6_18 
ROOT
HETATM    1  N4  UNL     1     -16.486  20.495 -12.963  1.00  0.00    -0.367 N 
ATOM      2  H4  UNL     1     -16.515  21.142 -12.175  1.00  0.00     0.161 HD
ENDROOT
BRANCH   1   3
HETATM    3  C4  UNL     1     -15.467  20.626 -13.947  1.00  0.00     0.174 C 
HETATM    4  S1  UNL     1     -15.767  20.238 -15.526  1.00  0.00    -0.041 SA
BRANCH   3   5
HETATM    5  N3  UNL     1     -14.190  21.094 -13.548  1.00  0.00    -0.307 N 
HETATM    6  C3  UNL     1     -13.346  20.236 -13.028  1.00  0.00     0.191 C 
HETATM    7  N1  UNL     1     -13.680  18.867 -12.857  1.00  0.00    -0.364 N 
HETATM    8  N2  UNL     1     -12.078  20.733 -12.640  1.00  0.00    -0.063 NA
HETATM    9  C1  UNL     1     -13.888  18.342 -11.530  1.00  0.00     0.151 C 
HETATM   10  C2  UNL     1     -13.797  18.049 -14.049  1.00  0.00     0.151 C 
ATOM     11  H3  UNL     1     -13.933  22.075 -13.663  1.00  0.00     0.171 HD
ENDBRANCH   3   5
ENDBRANCH   1   3
BRANCH   1  12
HETATM   12  C5  UNL     1     -17.471  19.462 -13.068  1.00  0.00     0.123 C 
BRANCH  12  13
HETATM   13  C6  UNL     1     -18.839  19.989 -12.711  1.00  0.00     0.040 C 
BRANCH  13  14
HETATM   14  C7  UNL     1     -19.535  18.992 -11.833  1.00  0.00     0.135 C 
BRANCH  14  15
HETATM   15  N5  UNL     1     -18.635  17.949 -11.369  1.00  0.00    -0.303 N 
ATOM     16  H5  UNL     1     -17.649  17.901 -11.623  1.00  0.00     0.173 HD
BRANCH  15  17
HETATM   17  S2  UNL     1     -19.402  16.818 -10.356  1.00  0.00     0.312 S 
HETATM   18  O1  UNL     1     -20.896  16.846 -10.467  1.00  0.00    -0.183 OA
HETATM   19  O2  UNL     1     -18.956  15.414 -10.580  1.00  0.00    -0.183 OA
BRANCH  17  20
HETATM   20  N6  UNL     1     -19.023  17.248  -8.708  1.00  0.00    -0.312 N 
ATOM     21  H62 UNL     1     -18.752  18.177  -8.385  1.00  0.00     0.170 HD
ATOM     22  H61 UNL     1     -19.122  16.406  -8.141  1.00  0.00     0.170 HD
ENDBRANCH  17  20
ENDBRANCH  15  17
ENDBRANCH  14  15
ENDBRANCH  13  14
ENDBRANCH  12  13
ENDBRANCH   1  12
TORSDOF 8
ENDMDL
MODEL 4
REMARK VINA RESULT: -6.288263965      1.440      2.122
REMARK  8 active torsions:
REMARK  status: ('A' for Active; 'I' for Inactive)
REMARK       I    between atoms: N1_2  and  C3_4 
REMARK    1  A    between atoms: N3_6  and  C4_8 
REMARK    2  A    between atoms: C4_8  and  N4_10 
REMARK    3  A    between atoms: N4_10  and  C5_12 
REMARK    4  A    between atoms: C5_12  and  C6_13 
REMARK    5  A    between atoms: C6_13  and  C7_14 
REMARK    6  A    between atoms: C7_14  and  N5_15 
REMARK    7  A    between atoms: N5_15  and  S2_17 
REMARK    8  A    between atoms: S2_17  and  N6_18 
ROOT
HETATM    1  N4  UNL     1     -18.281  18.759 -12.675  1.00  0.00    -0.367 N 
ATOM      2  H4  UNL     1     -18.061  17.764 -12.626  1.00  0.00     0.161 HD
ENDROOT
BRANCH   1   3
HETATM    3  C4  UNL     1     -19.557  19.221 -12.249  1.00  0.00     0.174 C 
HETATM    4  S1  UNL     1     -19.729  20.729 -11.591  1.00  0.00    -0.041 SA
BRANCH   3   5
HETATM    5  N3  UNL     1     -20.677  18.367 -12.398  1.00  0.00    -0.307 N 
HETATM    6  C3  UNL     1     -20.886  17.448 -11.487  1.00  0.00     0.191 C 
HETATM    7  N1  UNL     1     -20.025  17.292 -10.369  1.00  0.00    -0.364 N 
HETATM    8  N2  UNL     1     -22.014  16.609 -11.663  1.00  0.00    -0.063 NA
HETATM    9  C1  UNL     1     -19.169  16.135 -10.281  1.00  0.00     0.151 C 
HETATM   10  C2  UNL     1     -20.050  18.326  -9.352  1.00  0.00     0.151 C 
ATOM     11  H3  UNL     1     -21.306  18.464 -13.196  1.00  0.00     0.171 HD
ENDBRANCH   3   5
ENDBRANCH   1   3
BRANCH   1  12
HETATM   12  C5  UNL     1     -17.301  19.677 -13.171  1.00  0.00     0.123 C 
BRANCH  12  13
HETATM   13  C6  UNL     1     -17.344  19.742 -14.678  1.00  0.00     0.040 C 
BRANCH  13  14
HETATM   14  C7  UNL     1     -15.947  19.873 -15.204  1.00  0.00     0.135 C 
BRANCH  14  15
HETATM   15  N5  UNL     1     -15.080  20.589 -14.283  1.00  0.00    -0.303 N 
ATOM     16  H5  UNL     1     -15.340  21.465 -13.830  1.00  0.00     0.173 HD
BRANCH  15  17
HETATM   17  S2  UNL     1     -13.587  19.812 -14.041  1.00  0.00     0.312 S 
HETATM   18  O1  UNL     1     -13.132  19.026 -15.233  1.00  0.00    -0.183 OA
HETATM   19  O2  UNL     1     -12.483  20.740 -13.661  1.00  0.00    -0.183 OA
BRANCH  17  20
HETATM   20  N6  UNL     1     -13.797  18.664 -12.745  1.00  0.00    -0.312 N 
ATOM     21  H62 UNL     1     -14.355  18.815 -11.905  1.00  0.00     0.170 HD
ATOM     22  H61 UNL     1     -13.262  17.829 -12.984  1.00  0.00     0.170 HD
ENDBRANCH  17  20
ENDBRANCH  15  17
ENDBRANCH  14  15
ENDBRANCH  13  14
ENDBRANCH  12  13
ENDBRANCH   1  12
TORSDOF 8
ENDMDL
MODEL 5
REMARK VINA RESULT: -6.249818398      3.581      6.561
REMARK  8 active torsions:
REMARK  status: ('A' for Active; 'I' for Inactive)
REMARK       I    between atoms: N1_2  and  C3_4 
REMARK    1  A    between atoms: N3_6  and  C4_8 
REMARK    2  A    between atoms: C4_8  and  N4_10 
REMARK    3  A    between atoms: N4_10  and  C5_12 
REMARK    4  A    between atoms: C5_12  and  C6_13 
REMARK    5  A    between atoms: C6_13  and  C7_14 
REMARK    6  A    between atoms: C7_14  and  N5_15 
REMARK    7  A    between atoms: N5_15  and  S2_17 
REMARK    8  A    between atoms: S2_17  and  N6_18 
ROOT
HETATM    1  N4  UNL     1     -16.446  20.515 -13.080  1.00  0.00    -0.367 N 
ATOM      2  H4  UNL     1     -16.567  21.202 -12.336  1.00  0.00     0.161 HD
ENDROOT
BRANCH   1   3
HETATM    3  C4  UNL     1     -15.387  20.671 -14.018  1.00  0.00     0.174 C 
HETATM    4  S1  UNL     1     -15.623  20.324 -15.618  1.00  0.00    -0.041 SA
BRANCH   3   5
HETATM    5  N3  UNL     1     -14.128  21.127 -13.556  1.00  0.00    -0.307 N 
HETATM    6  C3  UNL     1     -13.309  20.257 -13.016  1.00  0.00     0.191 C 
HETATM    7  N1  UNL     1     -13.654  18.885 -12.885  1.00  0.00    -0.364 N 
HETATM    8  N2  UNL     1     -12.058  20.742 -12.564  1.00  0.00    -0.063 NA
HETATM    9  C1  UNL     1     -13.921  18.336 -11.579  1.00  0.00     0.151 C 
HETATM   10  C2  UNL     1     -13.721  18.090 -14.097  1.00  0.00     0.151 C 
ATOM     11  H3  UNL     1     -13.864  22.108 -13.641  1.00  0.00     0.171 HD
ENDBRANCH   3   5
ENDBRANCH   1   3
BRANCH   1  12
HETATM   12  C5  UNL     1     -17.342  19.403 -13.172  1.00  0.00     0.123 C 
BRANCH  12  13
HETATM   13  C6  UNL     1     -18.752  19.872 -13.436  1.00  0.00     0.040 C 
BRANCH  13  14
HETATM   14  C7  UNL     1     -19.678  19.222 -12.454  1.00  0.00     0.135 C 
BRANCH  14  15
HETATM   15  N5  UNL     1     -19.392  19.620 -11.085  1.00  0.00    -0.303 N 
ATOM     16  H5  UNL     1     -18.619  19.241 -10.538  1.00  0.00     0.173 HD
BRANCH  15  17
HETATM   17  S2  UNL     1     -20.482  20.783 -10.494  1.00  0.00     0.312 S 
HETATM   18  O1  UNL     1     -19.903  21.632  -9.404  1.00  0.00    -0.183 OA
HETATM   19  O2  UNL     1     -21.014  21.695 -11.546  1.00  0.00    -0.183 OA
BRANCH  17  20
HETATM   20  N6  UNL     1     -21.830  19.929  -9.789  1.00  0.00    -0.312 N 
ATOM     21  H62 UNL     1     -22.629  19.557 -10.303  1.00  0.00     0.170 HD
ATOM     22  H61 UNL     1     -21.668  19.875  -8.784  1.00  0.00     0.170 HD
ENDBRANCH  17  20
ENDBRANCH  15  17
ENDBRANCH  14  15
ENDBRANCH  13  14
ENDBRANCH  12  13
ENDBRANCH   1  12
TORSDOF 8
ENDMDL
