MODEL 1
REMARK VINA RESULT: -6.970989604      0.000      0.000
REMARK  8 active torsions:
REMARK  status: ('A' for Active; 'I' for Inactive)
REMARK    1  A    between atoms: O1_2  and  C2_3 
REMARK    2  A    between atoms: C2_3  and  C3_5 
REMARK    3  A    between atoms: C6_9  and  O3_10 
REMARK    4  A    between atoms: O3_10  and  C7_11 
REMARK    5  A    between atoms: C13_18  and  N2_19 
REMARK    6  A    between atoms: C15_21  and  N3_22 
REMARK    7  A    between atoms: C17_27  and  O4_29 
REMARK    8  A    between atoms: C21_32  and  O5_33 
ROOT
HETATM    1  C3  UNL     1      19.490 -10.559   9.281  1.00  0.00     0.076 A 
HETATM    2  C4  UNL     1      18.714 -10.129  10.366  1.00  0.00     0.042 A 
HETATM    3  C5  UNL     1      18.623 -10.883  11.487  1.00  0.00     0.047 A 
HETATM    4 BR1  UNL     1      17.521 -10.189  12.885  1.00  0.00    -0.048 Br
HETATM    5  C6  UNL     1      19.264 -12.099  11.657  1.00  0.00     0.116 A 
HETATM    6  C13 UNL     1      20.023 -12.520  10.600  1.00  0.00     0.100 A 
HETATM    7  C21 UNL     1      20.147 -11.766   9.407  1.00  0.00     0.111 A 
ENDROOT
BRANCH   6   8
HETATM    8  N2  UNL     1      20.807 -13.738  10.604  1.00  0.00    -0.371 N 
HETATM    9  C14 UNL     1      22.011 -13.774  11.385  1.00  0.00     0.156 C 
HETATM   10  C15 UNL     1      22.346 -15.085  11.998  1.00  0.00     0.204 C 
HETATM   11  C16 UNL     1      22.154 -16.192  11.023  1.00  0.00     0.073 C 
HETATM   12  C17 UNL     1      20.775 -16.208  10.388  1.00  0.00     0.074 C 
HETATM   13  C18 UNL     1      20.924 -17.156   9.182  1.00  0.00     0.047 C 
HETATM   14  C20 UNL     1      20.371 -14.883   9.861  1.00  0.00     0.161 C 
BRANCH  10  15
HETATM   15  N3  UNL     1      21.738 -15.328  13.291  1.00  0.00    -0.073 N 
ATOM     16  H33 UNL     1      21.172 -14.526  13.571  1.00  0.00     0.274 HD
ATOM     17  H32 UNL     1      21.010 -16.038  13.210  1.00  0.00     0.274 HD
ATOM     18  H31 UNL     1      22.392 -15.575  14.034  1.00  0.00     0.274 HD
ENDBRANCH  10  15
BRANCH  12  19
HETATM   19  O4  UNL     1      19.931 -16.802  11.294  1.00  0.00    -0.384 OA
HETATM   20  C19 UNL     1      19.076 -17.755  10.821  1.00  0.00     0.202 C 
ENDBRANCH  12  19
ENDBRANCH   6   8
BRANCH   5  21
HETATM   21  O3  UNL     1      19.158 -12.834  12.780  1.00  0.00    -0.342 OA
BRANCH  21  22
HETATM   22  C7  UNL     1      18.392 -13.872  13.217  1.00  0.00     0.132 C 
HETATM   23  C8  UNL     1      17.568 -13.408  14.435  1.00  0.00     0.062 C 
HETATM   24  C9  UNL     1      16.215 -14.108  14.443  1.00  0.00     0.274 C 
HETATM   25  N1  UNL     1      16.367 -15.479  14.078  1.00  0.00     0.084 N 
HETATM   26  C10 UNL     1      17.144 -16.246  14.996  1.00  0.00     0.309 C 
HETATM   27  C11 UNL     1      16.776 -15.618  12.697  1.00  0.00     0.274 C 
HETATM   28  C12 UNL     1      17.307 -14.288  12.206  1.00  0.00     0.062 C 
ENDBRANCH  21  22
ENDBRANCH   5  21
BRANCH   7  29
HETATM   29  O5  UNL     1      20.914 -12.242   8.396  1.00  0.00    -0.357 OA
ATOM     30  H5  UNL     1      21.826 -12.460   8.544  1.00  0.00     0.217 HD
ENDBRANCH   7  29
BRANCH   1  31
HETATM   31  C2  UNL     1      19.547  -9.706   8.103  1.00  0.00     0.295 C 
HETATM   32  O2  UNL     1      19.595  -8.478   8.160  1.00  0.00    -0.259 OA
BRANCH  31  33
HETATM   33  O1  UNL     1      19.551 -10.273   6.822  1.00  0.00    -0.322 OA
HETATM   34  C1  UNL     1      20.412  -9.858   5.805  1.00  0.00     0.213 C 
ENDBRANCH  31  33
ENDBRANCH   1  31
TORSDOF 8
ENDMDL
MODEL 2
REMARK VINA RESULT: -6.808146998      2.638      5.304
REMARK  8 active torsions:
REMARK  status: ('A' for Active; 'I' for Inactive)
REMARK    1  A    between atoms: O1_2  and  C2_3 
REMARK    2  A    between atoms: C2_3  and  C3_5 
REMARK    3  A    between atoms: C6_9  and  O3_10 
REMARK    4  A    between atoms: O3_10  and  C7_11 
REMARK    5  A    between atoms: C13_18  and  N2_19 
REMARK    6  A    between atoms: C15_21  and  N3_22 
REMARK    7  A    between atoms: C17_27  and  O4_29 
REMARK    8  A    between atoms: C21_32  and  O5_33 
ROOT
HETATM    1  C3  UNL     1      20.734 -15.324  10.974  1.00  0.00     0.076 A 
HETATM    2  C4  UNL     1      20.527 -16.017  12.175  1.00  0.00     0.042 A 
HETATM    3  C5  UNL     1      19.650 -15.549  13.094  1.00  0.00     0.047 A 
HETATM    4 BR1  UNL     1      19.473 -16.581  14.694  1.00  0.00    -0.048 Br
HETATM    5  C6  UNL     1      18.905 -14.392  12.938  1.00  0.00     0.116 A 
HETATM    6  C13 UNL     1      19.104 -13.716  11.766  1.00  0.00     0.100 A 
HETATM    7  C21 UNL     1      20.012 -14.165  10.775  1.00  0.00     0.111 A 
ENDROOT
BRANCH   6   8
HETATM    8  N2  UNL     1      18.385 -12.514  11.396  1.00  0.00    -0.371 N 
HETATM    9  C14 UNL     1      19.059 -11.251  11.510  1.00  0.00     0.156 C 
HETATM   10  C15 UNL     1      18.700 -10.231  10.491  1.00  0.00     0.204 C 
HETATM   11  C16 UNL     1      17.228 -10.182  10.285  1.00  0.00     0.073 C 
HETATM   12  C17 UNL     1      16.614 -11.533   9.964  1.00  0.00     0.074 C 
HETATM   13  C18 UNL     1      15.101 -11.321  10.167  1.00  0.00     0.047 C 
HETATM   14  C20 UNL     1      17.042 -12.596  10.905  1.00  0.00     0.161 C 
BRANCH  10  15
HETATM   15  N3  UNL     1      19.463 -10.301   9.262  1.00  0.00    -0.073 N 
ATOM     16  H33 UNL     1      20.174  -9.570   9.246  1.00  0.00     0.274 HD
ATOM     17  H32 UNL     1      20.060 -11.129   9.264  1.00  0.00     0.274 HD
ATOM     18  H31 UNL     1      18.906 -10.269   8.408  1.00  0.00     0.274 HD
ENDBRANCH  10  15
BRANCH  12  19
HETATM   19  O4  UNL     1      16.836 -11.758   8.628  1.00  0.00    -0.384 OA
HETATM   20  C19 UNL     1      15.764 -11.655   7.789  1.00  0.00     0.202 C 
ENDBRANCH  12  19
ENDBRANCH   6   8
BRANCH   5  21
HETATM   21  O3  UNL     1      18.039 -13.945  13.866  1.00  0.00    -0.342 OA
BRANCH  21  22
HETATM   22  C7  UNL     1      16.804 -14.296  14.322  1.00  0.00     0.132 C 
HETATM   23  C8  UNL     1      15.930 -13.030  14.424  1.00  0.00     0.062 C 
HETATM   24  C9  UNL     1      14.480 -13.374  14.106  1.00  0.00     0.274 C 
HETATM   25  N1  UNL     1      14.126 -14.619  14.706  1.00  0.00     0.084 N 
HETATM   26  C10 UNL     1      14.162 -14.614  16.132  1.00  0.00     0.309 C 
HETATM   27  C11 UNL     1      14.842 -15.722  14.100  1.00  0.00     0.274 C 
HETATM   28  C12 UNL     1      16.022 -15.174  13.326  1.00  0.00     0.062 C 
ENDBRANCH  21  22
ENDBRANCH   5  21
BRANCH   7  29
HETATM   29  O5  UNL     1      20.163 -13.446   9.637  1.00  0.00    -0.357 OA
ATOM     30  H5  UNL     1      20.411 -12.530   9.673  1.00  0.00     0.217 HD
ENDBRANCH   7  29
BRANCH   1  31
HETATM   31  C2  UNL     1      21.690 -15.875  10.026  1.00  0.00     0.295 C 
HETATM   32  O2  UNL     1      21.562 -15.783   8.806  1.00  0.00    -0.259 OA
BRANCH  31  33
HETATM   33  O1  UNL     1      22.829 -16.550  10.485  1.00  0.00    -0.322 OA
HETATM   34  C1  UNL     1      23.990 -15.896  10.902  1.00  0.00     0.213 C 
ENDBRANCH  31  33
ENDBRANCH   1  31
TORSDOF 8
ENDMDL
MODEL 3
REMARK VINA RESULT: -6.614219404      2.647      3.857
REMARK  8 active torsions:
REMARK  status: ('A' for Active; 'I' for Inactive)
REMARK    1  A    between atoms: O1_2  and  C2_3 
REMARK    2  A    between atoms: C2_3  and  C3_5 
REMARK    3  A    between atoms: C6_9  and  O3_10 
REMARK    4  A    between atoms: O3_10  and  C7_11 
REMARK    5  A    between atoms: C13_18  and  N2_19 
REMARK    6  A    between atoms: C15_21  and  N3_22 
REMARK    7  A    between atoms: C17_27  and  O4_29 
REMARK    8  A    between atoms: C21_32  and  O5_33 
ROOT
HETATM    1  C3  UNL     1      16.618 -11.763   9.794  1.00  0.00     0.076 A 
HETATM    2  C4  UNL     1      15.285 -11.581  10.187  1.00  0.00     0.042 A 
HETATM    3  C5  UNL     1      14.684 -12.474  11.008  1.00  0.00     0.047 A 
HETATM    4 BR1  UNL     1      12.860 -12.116  11.454  1.00  0.00    -0.048 Br
HETATM    5  C6  UNL     1      15.306 -13.601  11.517  1.00  0.00     0.116 A 
HETATM    6  C13 UNL     1      16.607 -13.779  11.136  1.00  0.00     0.100 A 
HETATM    7  C21 UNL     1      17.279 -12.874  10.278  1.00  0.00     0.111 A 
ENDROOT
BRANCH   6   8
HETATM    8  N2  UNL     1      17.442 -14.869  11.601  1.00  0.00    -0.371 N 
HETATM    9  C14 UNL     1      17.579 -16.030  10.766  1.00  0.00     0.156 C 
HETATM   10  C15 UNL     1      18.900 -16.707  10.811  1.00  0.00     0.204 C 
HETATM   11  C16 UNL     1      19.384 -16.836  12.212  1.00  0.00     0.073 C 
HETATM   12  C17 UNL     1      19.404 -15.520  12.970  1.00  0.00     0.074 C 
HETATM   13  C18 UNL     1      19.559 -15.936  14.446  1.00  0.00     0.047 C 
HETATM   14  C20 UNL     1      18.130 -14.772  12.853  1.00  0.00     0.161 C 
BRANCH  10  15
HETATM   15  N3  UNL     1      19.889 -16.177   9.894  1.00  0.00    -0.073 N 
ATOM     16  H33 UNL     1      19.945 -16.762   9.060  1.00  0.00     0.274 HD
ATOM     17  H32 UNL     1      19.555 -15.307   9.479  1.00  0.00     0.274 HD
ATOM     18  H31 UNL     1      20.818 -16.044  10.294  1.00  0.00     0.274 HD
ENDBRANCH  10  15
BRANCH  12  19
HETATM   19  O4  UNL     1      20.549 -14.865  12.590  1.00  0.00    -0.384 OA
HETATM   20  C19 UNL     1      21.734 -15.515  12.780  1.00  0.00     0.202 C 
ENDBRANCH  12  19
ENDBRANCH   6   8
BRANCH   5  21
HETATM   21  O3  UNL     1      14.688 -14.477  12.331  1.00  0.00    -0.342 OA
BRANCH  21  22
HETATM   22  C7  UNL     1      14.354 -14.539  13.651  1.00  0.00     0.132 C 
HETATM   23  C8  UNL     1      14.975 -15.810  14.264  1.00  0.00     0.062 C 
HETATM   24  C9  UNL     1      15.364 -15.549  15.714  1.00  0.00     0.274 C 
HETATM   25  N1  UNL     1      14.354 -14.779  16.365  1.00  0.00     0.084 N 
HETATM   26  C10 UNL     1      13.094 -15.438  16.472  1.00  0.00     0.309 C 
HETATM   27  C11 UNL     1      14.277 -13.439  15.822  1.00  0.00     0.274 C 
HETATM   28  C12 UNL     1      14.987 -13.409  14.486  1.00  0.00     0.062 C 
ENDBRANCH  21  22
ENDBRANCH   5  21
BRANCH   7  29
HETATM   29  O5  UNL     1      18.568 -13.111   9.939  1.00  0.00    -0.357 OA
ATOM     30  H5  UNL     1      19.273 -12.883  10.533  1.00  0.00     0.217 HD
ENDBRANCH   7  29
BRANCH   1  31
HETATM   31  C2  UNL     1      17.209 -10.771   8.909  1.00  0.00     0.295 C 
HETATM   32  O2  UNL     1      17.544 -11.013   7.750  1.00  0.00    -0.259 OA
BRANCH  31  33
HETATM   33  O1  UNL     1      17.424  -9.462   9.360  1.00  0.00    -0.322 OA
HETATM   34  C1  UNL     1      18.505  -9.100  10.167  1.00  0.00     0.213 C 
ENDBRANCH  31  33
ENDBRANCH   1  31
TORSDOF 8
ENDMDL
MODEL 4
REMARK VINA RESULT: -6.604522666      1.990      2.896
REMARK  8 active torsions:
REMARK  status: ('A' for Active; 'I' for Inactive)
REMARK    1  A    between atoms: O1_2  and  C2_3 
REMARK    2  A    between atoms: C2_3  and  C3_5 
REMARK    3  A    between atoms: C6_9  and  O3_10 
REMARK    4  A    between atoms: O3_10  and  C7_11 
REMARK    5  A    between atoms: C13_18  and  N2_19 
REMARK    6  A    between atoms: C15_21  and  N3_22 
REMARK    7  A    between atoms: C17_27  and  O4_29 
REMARK    8  A    between atoms: C21_32  and  O5_33 
ROOT
HETATM    1  C3  UNL     1      17.675 -11.460   9.589  1.00  0.00     0.076 A 
HETATM    2  C4  UNL     1      16.333 -11.532   9.988  1.00  0.00     0.042 A 
HETATM    3  C5  UNL     1      15.876 -12.613  10.664  1.00  0.00     0.047 A 
HETATM    4 BR1  UNL     1      14.024 -12.592  11.135  1.00  0.00    -0.048 Br
HETATM    5  C6  UNL     1      16.661 -13.700  11.012  1.00  0.00     0.116 A 
HETATM    6  C13 UNL     1      17.971 -13.629  10.625  1.00  0.00     0.100 A 
HETATM    7  C21 UNL     1      18.495 -12.521   9.915  1.00  0.00     0.111 A 
ENDROOT
BRANCH   6   8
HETATM    8  N2  UNL     1      18.960 -14.642  10.936  1.00  0.00    -0.371 N 
HETATM    9  C14 UNL     1      19.279 -15.618   9.933  1.00  0.00     0.156 C 
HETATM   10  C15 UNL     1      20.688 -16.087   9.911  1.00  0.00     0.204 C 
HETATM   11  C16 UNL     1      21.176 -16.366  11.288  1.00  0.00     0.073 C 
HETATM   12  C17 UNL     1      20.990 -15.203  12.246  1.00  0.00     0.074 C 
HETATM   13  C18 UNL     1      21.197 -15.822  13.641  1.00  0.00     0.047 C 
HETATM   14  C20 UNL     1      19.616 -14.645  12.209  1.00  0.00     0.161 C 
BRANCH  10  15
HETATM   15  N3  UNL     1      21.590 -15.274   9.121  1.00  0.00    -0.073 N 
ATOM     16  H33 UNL     1      21.062 -14.693   8.470  1.00  0.00     0.274 HD
ATOM     17  H32 UNL     1      22.013 -14.551   9.703  1.00  0.00     0.274 HD
ATOM     18  H31 UNL     1      22.313 -15.794   8.623  1.00  0.00     0.274 HD
ENDBRANCH  10  15
BRANCH  12  19
HETATM   19  O4  UNL     1      22.023 -14.330  12.010  1.00  0.00    -0.384 OA
HETATM   20  C19 UNL     1      23.283 -14.753  12.322  1.00  0.00     0.202 C 
ENDBRANCH  12  19
ENDBRANCH   6   8
BRANCH   5  21
HETATM   21  O3  UNL     1      16.185 -14.764  11.683  1.00  0.00    -0.342 OA
BRANCH  21  22
HETATM   22  C7  UNL     1      15.903 -15.074  12.980  1.00  0.00     0.132 C 
HETATM   23  C8  UNL     1      16.741 -16.300  13.395  1.00  0.00     0.062 C 
HETATM   24  C9  UNL     1      17.122 -16.193  14.866  1.00  0.00     0.274 C 
HETATM   25  N1  UNL     1      16.017 -15.707  15.627  1.00  0.00     0.084 N 
HETATM   26  C10 UNL     1      14.886 -16.575  15.638  1.00  0.00     0.309 C 
HETATM   27  C11 UNL     1      15.705 -14.334  15.291  1.00  0.00     0.274 C 
HETATM   28  C12 UNL     1      16.363 -13.990  13.972  1.00  0.00     0.062 C 
ENDBRANCH  21  22
ENDBRANCH   5  21
BRANCH   7  29
HETATM   29  O5  UNL     1      19.802 -12.516   9.560  1.00  0.00    -0.357 OA
ATOM     30  H5  UNL     1      20.176 -13.248   9.085  1.00  0.00     0.217 HD
ENDBRANCH   7  29
BRANCH   1  31
HETATM   31  C2  UNL     1      18.107 -10.274   8.864  1.00  0.00     0.295 C 
HETATM   32  O2  UNL     1      18.043  -9.137   9.328  1.00  0.00    -0.259 OA
BRANCH  31  33
HETATM   33  O1  UNL     1      18.629 -10.392   7.568  1.00  0.00    -0.322 OA
HETATM   34  C1  UNL     1      19.858  -9.850   7.187  1.00  0.00     0.213 C 
ENDBRANCH  31  33
ENDBRANCH   1  31
TORSDOF 8
ENDMDL
MODEL 5
REMARK VINA RESULT: -6.590743098      2.840      5.415
REMARK  8 active torsions:
REMARK  status: ('A' for Active; 'I' for Inactive)
REMARK    1  A    between atoms: O1_2  and  C2_3 
REMARK    2  A    between atoms: C2_3  and  C3_5 
REMARK    3  A    between atoms: C6_9  and  O3_10 
REMARK    4  A    between atoms: O3_10  and  C7_11 
REMARK    5  A    between atoms: C13_18  and  N2_19 
REMARK    6  A    between atoms: C15_21  and  N3_22 
REMARK    7  A    between atoms: C17_27  and  O4_29 
REMARK    8  A    between atoms: C21_32  and  O5_33 
ROOT
HETATM    1  C3  UNL     1      21.048 -15.473  11.107  1.00  0.00     0.076 A 
HETATM    2  C4  UNL     1      20.870 -16.003  12.393  1.00  0.00     0.042 A 
HETATM    3  C5  UNL     1      19.840 -15.590  13.168  1.00  0.00     0.047 A 
HETATM    4 BR1  UNL     1      19.721 -16.379  14.904  1.00  0.00    -0.048 Br
HETATM    5  C6  UNL     1      18.905 -14.646  12.778  1.00  0.00     0.116 A 
HETATM    6  C13 UNL     1      19.076 -14.130  11.523  1.00  0.00     0.100 A 
HETATM    7  C21 UNL     1      20.138 -14.529  10.675  1.00  0.00     0.111 A 
ENDROOT
BRANCH   6   8
HETATM    8  N2  UNL     1      18.175 -13.170  10.915  1.00  0.00    -0.371 N 
HETATM    9  C14 UNL     1      17.039 -13.663  10.189  1.00  0.00     0.156 C 
HETATM   10  C15 UNL     1      15.813 -12.827  10.261  1.00  0.00     0.204 C 
HETATM   11  C16 UNL     1      16.141 -11.387  10.084  1.00  0.00     0.073 C 
HETATM   12  C17 UNL     1      17.215 -10.887  11.035  1.00  0.00     0.074 C 
HETATM   13  C18 UNL     1      17.651  -9.535  10.439  1.00  0.00     0.047 C 
HETATM   14  C20 UNL     1      18.409 -11.765  11.063  1.00  0.00     0.161 C 
BRANCH  10  15
HETATM   15  N3  UNL     1      14.954 -13.099  11.395  1.00  0.00    -0.073 N 
ATOM     16  H33 UNL     1      15.509 -13.174  12.248  1.00  0.00     0.274 HD
ATOM     17  H32 UNL     1      14.395 -12.276  11.619  1.00  0.00     0.274 HD
ATOM     18  H31 UNL     1      14.353 -13.917  11.293  1.00  0.00     0.274 HD
ENDBRANCH  10  15
BRANCH  12  19
HETATM   19  O4  UNL     1      16.594 -10.643  12.235  1.00  0.00    -0.384 OA
HETATM   20  C19 UNL     1      17.379 -10.611  13.351  1.00  0.00     0.202 C 
ENDBRANCH  12  19
ENDBRANCH   6   8
BRANCH   5  21
HETATM   21  O3  UNL     1      17.889 -14.249  13.566  1.00  0.00    -0.342 OA
BRANCH  21  22
HETATM   22  C7  UNL     1      16.926 -14.849  14.321  1.00  0.00     0.132 C 
HETATM   23  C8  UNL     1      15.887 -13.789  14.741  1.00  0.00     0.062 C 
HETATM   24  C9  UNL     1      14.503 -14.421  14.813  1.00  0.00     0.274 C 
HETATM   25  N1  UNL     1      14.582 -15.717  15.406  1.00  0.00     0.084 N 
HETATM   26  C10 UNL     1      15.019 -15.713  16.764  1.00  0.00     0.309 C 
HETATM   27  C11 UNL     1      15.299 -16.645  14.558  1.00  0.00     0.274 C 
HETATM   28  C12 UNL     1      16.082 -15.862  13.525  1.00  0.00     0.062 C 
ENDBRANCH  21  22
ENDBRANCH   5  21
BRANCH   7  29
HETATM   29  O5  UNL     1      20.251 -13.977   9.444  1.00  0.00    -0.357 OA
ATOM     30  H5  UNL     1      19.542 -14.049   8.815  1.00  0.00     0.217 HD
ENDBRANCH   7  29
BRANCH   1  31
HETATM   31  C2  UNL     1      22.174 -15.955  10.321  1.00  0.00     0.295 C 
HETATM   32  O2  UNL     1      23.318 -16.045  10.764  1.00  0.00    -0.259 OA
BRANCH  31  33
HETATM   33  O1  UNL     1      21.988 -16.346   8.988  1.00  0.00    -0.322 OA
HETATM   34  C1  UNL     1      23.019 -16.369   8.047  1.00  0.00     0.213 C 
ENDBRANCH  31  33
ENDBRANCH   1  31
TORSDOF 8
ENDMDL
