MODEL 1
REMARK VINA RESULT: -6.784262192      0.000      0.000
REMARK  9 active torsions:
REMARK  status: ('A' for Active; 'I' for Inactive)
REMARK    1  A    between atoms: C2_2  and  O2_4 
REMARK    2  A    between atoms: O2_4  and  C3_5 
REMARK    3  A    between atoms: C9_11  and  C10_12 
REMARK    4  A    between atoms: C9_11  and  O4_15 
REMARK    5  A    between atoms: C10_12  and  O3_13 
REMARK    6  A    between atoms: O4_15  and  C11_16 
REMARK    7  A    between atoms: C11_16  and  C12_18 
REMARK    8  A    between atoms: C12_18  and  N1_19 
REMARK    9  A    between atoms: C19_28  and  O7_29 
ROOT
HETATM    1  C3  UNL     1      18.800 -14.940  12.853  1.00  0.00     0.176 C 
HETATM    2  C4  UNL     1      18.656 -15.303  14.338  1.00  0.00     0.043 C 
HETATM    3  C5  UNL     1      19.443 -16.574  14.492  1.00  0.00     0.017 C 
HETATM    4  C6  UNL     1      17.221 -15.497  14.660  1.00  0.00    -0.070 C 
HETATM    5  C7  UNL     1      16.287 -14.542  14.354  1.00  0.00    -0.057 C 
HETATM    6  C8  UNL     1      16.947 -13.412  13.711  1.00  0.00     0.119 C 
HETATM    7  C9  UNL     1      16.337 -12.224  13.223  1.00  0.00     0.205 C 
HETATM    8  O6  UNL     1      16.420 -11.917  11.857  1.00  0.00    -0.340 OA
HETATM    9  C15 UNL     1      16.314 -12.907  10.967  1.00  0.00     0.077 C 
HETATM   10  C16 UNL     1      14.911 -13.105  10.420  1.00  0.00     0.047 C 
HETATM   11  C17 UNL     1      17.159 -12.490   9.748  1.00  0.00     0.047 C 
HETATM   12  C18 UNL     1      16.791 -14.267  11.477  1.00  0.00     0.154 C 
HETATM   13 CL1  UNL     1      17.404 -15.292  10.180  1.00  0.00    -0.119 Cl
HETATM   14  C19 UNL     1      17.793 -13.936  12.523  1.00  0.00     0.117 C 
HETATM   15  C20 UNL     1      15.046 -15.136  14.854  1.00  0.00    -0.023 C 
HETATM   16  C21 UNL     1      14.920 -14.945  16.382  1.00  0.00     0.019 C 
HETATM   17  C22 UNL     1      13.771 -14.967  14.162  1.00  0.00     0.019 C 
HETATM   18  C23 UNL     1      15.264 -16.675  14.752  1.00  0.00     0.017 C 
HETATM   19  C24 UNL     1      16.619 -16.665  15.325  1.00  0.00     0.036 C 
ENDROOT
BRANCH   7  20
HETATM   20  C10 UNL     1      14.960 -11.753  13.563  1.00  0.00     0.234 C 
BRANCH  20  21
HETATM   21  O3  UNL     1      14.945 -11.413  14.958  1.00  0.00    -0.395 OA
ATOM     22  H3  UNL     1      14.124 -11.723  15.323  1.00  0.00     0.209 HD
ENDBRANCH  20  21
ENDBRANCH   7  20
BRANCH   7  23
HETATM   23  O4  UNL     1      17.130 -11.107  13.752  1.00  0.00    -0.279 OA
BRANCH  23  24
HETATM   24  C11 UNL     1      17.481 -10.027  12.986  1.00  0.00     0.279 C 
HETATM   25  O5  UNL     1      18.557 -10.013  12.382  1.00  0.00    -0.263 OA
BRANCH  24  26
HETATM   26  C12 UNL     1      16.587  -8.822  12.846  1.00  0.00     0.227 C 
BRANCH  26  27
HETATM   27  N1  UNL     1      16.619  -8.384  11.504  1.00  0.00    -0.412 N 
HETATM   28  C13 UNL     1      17.250  -7.162  11.202  1.00  0.00     0.143 C 
HETATM   29  C14 UNL     1      15.712  -8.941  10.583  1.00  0.00     0.143 C 
ENDBRANCH  26  27
ENDBRANCH  24  26
ENDBRANCH  23  24
ENDBRANCH   7  23
BRANCH  14  30
HETATM   30  O7  UNL     1      18.550 -12.798  12.105  1.00  0.00    -0.385 OA
ATOM     31  H7  UNL     1      17.929 -12.269  11.617  1.00  0.00     0.210 HD
ENDBRANCH  14  30
BRANCH   1  32
HETATM   32  O2  UNL     1      20.150 -14.497  12.758  1.00  0.00    -0.312 OA
BRANCH  32  33
HETATM   33  C2  UNL     1      21.000 -14.806  11.711  1.00  0.00     0.255 C 
HETATM   34  C1  UNL     1      22.210 -15.655  11.884  1.00  0.00     0.126 C 
HETATM   35  O1  UNL     1      20.721 -14.345  10.594  1.00  0.00    -0.266 OA
ENDBRANCH  32  33
ENDBRANCH   1  32
TORSDOF 9
ENDMDL
MODEL 2
REMARK VINA RESULT: -6.744359255      2.295      5.147
REMARK  9 active torsions:
REMARK  status: ('A' for Active; 'I' for Inactive)
REMARK    1  A    between atoms: C2_2  and  O2_4 
REMARK    2  A    between atoms: O2_4  and  C3_5 
REMARK    3  A    between atoms: C9_11  and  C10_12 
REMARK    4  A    between atoms: C9_11  and  O4_15 
REMARK    5  A    between atoms: C10_12  and  O3_13 
REMARK    6  A    between atoms: O4_15  and  C11_16 
REMARK    7  A    between atoms: C11_16  and  C12_18 
REMARK    8  A    between atoms: C12_18  and  N1_19 
REMARK    9  A    between atoms: C19_28  and  O7_29 
ROOT
HETATM    1  C3  UNL     1      15.468 -13.522  14.898  1.00  0.00     0.176 C 
HETATM    2  C4  UNL     1      15.455 -15.056  14.830  1.00  0.00     0.043 C 
HETATM    3  C5  UNL     1      15.127 -15.493  16.229  1.00  0.00     0.017 C 
HETATM    4  C6  UNL     1      16.788 -15.541  14.396  1.00  0.00    -0.070 C 
HETATM    5  C7  UNL     1      17.386 -15.061  13.260  1.00  0.00    -0.057 C 
HETATM    6  C8  UNL     1      16.513 -14.073  12.638  1.00  0.00     0.119 C 
HETATM    7  C9  UNL     1      16.766 -13.326  11.454  1.00  0.00     0.205 C 
HETATM    8  O6  UNL     1      16.834 -11.927  11.523  1.00  0.00    -0.340 OA
HETATM    9  C15 UNL     1      17.425 -11.363  12.579  1.00  0.00     0.077 C 
HETATM   10  C16 UNL     1      18.887 -11.015  12.362  1.00  0.00     0.047 C 
HETATM   11  C17 UNL     1      16.725 -10.008  12.799  1.00  0.00     0.047 C 
HETATM   12  C18 UNL     1      17.349 -12.190  13.862  1.00  0.00     0.154 C 
HETATM   13 CL1  UNL     1      17.361 -11.185  15.311  1.00  0.00    -0.119 Cl
HETATM   14  C19 UNL     1      16.122 -13.013  13.697  1.00  0.00     0.117 C 
HETATM   15  C20 UNL     1      18.643 -15.811  13.218  1.00  0.00    -0.023 C 
HETATM   16  C21 UNL     1      18.418 -17.230  12.648  1.00  0.00     0.019 C 
HETATM   17  C22 UNL     1      19.889 -15.212  12.752  1.00  0.00     0.019 C 
HETATM   18  C23 UNL     1      18.976 -16.126  14.706  1.00  0.00     0.017 C 
HETATM   19  C24 UNL     1      17.617 -16.556  15.069  1.00  0.00     0.036 C 
ENDROOT
BRANCH   7  20
HETATM   20  C10 UNL     1      17.819 -13.637  10.441  1.00  0.00     0.234 C 
BRANCH  20  21
HETATM   21  O3  UNL     1      17.547 -14.944   9.912  1.00  0.00    -0.395 OA
ATOM     22  H3  UNL     1      16.690 -14.919   9.503  1.00  0.00     0.209 HD
ENDBRANCH  20  21
ENDBRANCH   7  20
BRANCH   7  23
HETATM   23  O4  UNL     1      15.562 -13.451  10.624  1.00  0.00    -0.279 OA
BRANCH  23  24
HETATM   24  C11 UNL     1      15.284 -12.588   9.597  1.00  0.00     0.279 C 
HETATM   25  O5  UNL     1      15.854 -12.709   8.508  1.00  0.00    -0.263 OA
BRANCH  24  26
HETATM   26  C12 UNL     1      14.286 -11.468   9.741  1.00  0.00     0.227 C 
BRANCH  26  27
HETATM   27  N1  UNL     1      13.046 -12.011  10.145  1.00  0.00    -0.412 N 
HETATM   28  C13 UNL     1      12.395 -12.925   9.294  1.00  0.00     0.143 C 
HETATM   29  C14 UNL     1      12.312 -11.359  11.153  1.00  0.00     0.143 C 
ENDBRANCH  26  27
ENDBRANCH  24  26
ENDBRANCH  23  24
ENDBRANCH   7  23
BRANCH  14  30
HETATM   30  O7  UNL     1      15.115 -12.229  13.051  1.00  0.00    -0.385 OA
ATOM     31  H7  UNL     1      15.373 -11.330  13.221  1.00  0.00     0.210 HD
ENDBRANCH  14  30
BRANCH   1  32
HETATM   32  O2  UNL     1      14.089 -13.193  15.024  1.00  0.00    -0.312 OA
BRANCH  32  33
HETATM   33  C2  UNL     1      13.594 -12.220  15.874  1.00  0.00     0.255 C 
HETATM   34  C1  UNL     1      12.920 -12.547  17.160  1.00  0.00     0.126 C 
HETATM   35  O1  UNL     1      13.731 -11.036  15.530  1.00  0.00    -0.266 OA
ENDBRANCH  32  33
ENDBRANCH   1  32
TORSDOF 9
ENDMDL
MODEL 3
REMARK VINA RESULT: -6.632833937      2.178      4.998
REMARK  9 active torsions:
REMARK  status: ('A' for Active; 'I' for Inactive)
REMARK    1  A    between atoms: C2_2  and  O2_4 
REMARK    2  A    between atoms: O2_4  and  C3_5 
REMARK    3  A    between atoms: C9_11  and  C10_12 
REMARK    4  A    between atoms: C9_11  and  O4_15 
REMARK    5  A    between atoms: C10_12  and  O3_13 
REMARK    6  A    between atoms: O4_15  and  C11_16 
REMARK    7  A    between atoms: C11_16  and  C12_18 
REMARK    8  A    between atoms: C12_18  and  N1_19 
REMARK    9  A    between atoms: C19_28  and  O7_29 
ROOT
HETATM    1  C3  UNL     1      15.421 -13.502  14.885  1.00  0.00     0.176 C 
HETATM    2  C4  UNL     1      15.392 -15.036  14.811  1.00  0.00     0.043 C 
HETATM    3  C5  UNL     1      15.039 -15.473  16.205  1.00  0.00     0.017 C 
HETATM    4  C6  UNL     1      16.726 -15.533  14.395  1.00  0.00    -0.070 C 
HETATM    5  C7  UNL     1      17.345 -15.056  13.270  1.00  0.00    -0.057 C 
HETATM    6  C8  UNL     1      16.492 -14.057  12.638  1.00  0.00     0.119 C 
HETATM    7  C9  UNL     1      16.770 -13.308  11.461  1.00  0.00     0.205 C 
HETATM    8  O6  UNL     1      16.852 -11.910  11.536  1.00  0.00    -0.340 OA
HETATM    9  C15 UNL     1      17.434 -11.356  12.602  1.00  0.00     0.077 C 
HETATM   10  C16 UNL     1      18.903 -11.023  12.408  1.00  0.00     0.047 C 
HETATM   11  C17 UNL     1      16.745  -9.994  12.817  1.00  0.00     0.047 C 
HETATM   12  C18 UNL     1      17.330 -12.187  13.881  1.00  0.00     0.154 C 
HETATM   13 CL1  UNL     1      17.332 -11.187  15.333  1.00  0.00    -0.119 Cl
HETATM   14  C19 UNL     1      16.098 -12.995  13.695  1.00  0.00     0.117 C 
HETATM   15  C20 UNL     1      18.594 -15.820  13.243  1.00  0.00    -0.023 C 
HETATM   16  C21 UNL     1      18.363 -17.234  12.665  1.00  0.00     0.019 C 
HETATM   17  C22 UNL     1      19.854 -15.232  12.797  1.00  0.00     0.019 C 
HETATM   18  C23 UNL     1      18.903 -16.143  14.735  1.00  0.00     0.017 C 
HETATM   19  C24 UNL     1      17.534 -16.560  15.077  1.00  0.00     0.036 C 
ENDROOT
BRANCH   7  20
HETATM   20  C10 UNL     1      17.835 -13.627  10.462  1.00  0.00     0.234 C 
BRANCH  20  21
HETATM   21  O3  UNL     1      17.543 -14.919   9.907  1.00  0.00    -0.395 OA
ATOM     22  H3  UNL     1      17.582 -14.843   8.961  1.00  0.00     0.209 HD
ENDBRANCH  20  21
ENDBRANCH   7  20
BRANCH   7  23
HETATM   23  O4  UNL     1      15.577 -13.418  10.613  1.00  0.00    -0.279 OA
BRANCH  23  24
HETATM   24  C11 UNL     1      15.108 -12.370   9.865  1.00  0.00     0.279 C 
HETATM   25  O5  UNL     1      14.317 -11.559  10.355  1.00  0.00    -0.263 OA
BRANCH  24  26
HETATM   26  C12 UNL     1      15.526 -12.159   8.433  1.00  0.00     0.227 C 
BRANCH  26  27
HETATM   27  N1  UNL     1      16.029 -10.846   8.294  1.00  0.00    -0.412 N 
HETATM   28  C13 UNL     1      15.285  -9.908   7.553  1.00  0.00     0.143 C 
HETATM   29  C14 UNL     1      17.395 -10.611   8.537  1.00  0.00     0.143 C 
ENDBRANCH  26  27
ENDBRANCH  24  26
ENDBRANCH  23  24
ENDBRANCH   7  23
BRANCH  14  30
HETATM   30  O7  UNL     1      15.109 -12.199  13.038  1.00  0.00    -0.385 OA
ATOM     31  H7  UNL     1      15.392 -12.175  12.131  1.00  0.00     0.210 HD
ENDBRANCH  14  30
BRANCH   1  32
HETATM   32  O2  UNL     1      14.043 -13.158  14.992  1.00  0.00    -0.312 OA
BRANCH  32  33
HETATM   33  C2  UNL     1      13.548 -12.177  15.833  1.00  0.00     0.255 C 
HETATM   34  C1  UNL     1      12.861 -12.492  17.115  1.00  0.00     0.126 C 
HETATM   35  O1  UNL     1      13.696 -10.996  15.482  1.00  0.00    -0.266 OA
ENDBRANCH  32  33
ENDBRANCH   1  32
TORSDOF 9
ENDMDL
MODEL 4
REMARK VINA RESULT: -6.487783523      0.974      1.017
REMARK  9 active torsions:
REMARK  status: ('A' for Active; 'I' for Inactive)
REMARK    1  A    between atoms: C2_2  and  O2_4 
REMARK    2  A    between atoms: O2_4  and  C3_5 
REMARK    3  A    between atoms: C9_11  and  C10_12 
REMARK    4  A    between atoms: C9_11  and  O4_15 
REMARK    5  A    between atoms: C10_12  and  O3_13 
REMARK    6  A    between atoms: O4_15  and  C11_16 
REMARK    7  A    between atoms: C11_16  and  C12_18 
REMARK    8  A    between atoms: C12_18  and  N1_19 
REMARK    9  A    between atoms: C19_28  and  O7_29 
ROOT
HETATM    1  C3  UNL     1      18.671 -14.234  12.563  1.00  0.00     0.176 C 
HETATM    2  C4  UNL     1      18.631 -14.670  14.034  1.00  0.00     0.043 C 
HETATM    3  C5  UNL     1      19.600 -15.815  14.115  1.00  0.00     0.017 C 
HETATM    4  C6  UNL     1      17.252 -15.085  14.387  1.00  0.00    -0.070 C 
HETATM    5  C7  UNL     1      16.178 -14.268  14.147  1.00  0.00    -0.057 C 
HETATM    6  C8  UNL     1      16.644 -13.030  13.534  1.00  0.00     0.119 C 
HETATM    7  C9  UNL     1      15.850 -11.927  13.112  1.00  0.00     0.205 C 
HETATM    8  O6  UNL     1      15.842 -11.561  11.759  1.00  0.00    -0.340 OA
HETATM    9  C15 UNL     1      15.853 -12.522  10.832  1.00  0.00     0.077 C 
HETATM   10  C16 UNL     1      14.477 -12.905  10.315  1.00  0.00     0.047 C 
HETATM   11  C17 UNL     1      16.587 -11.939   9.609  1.00  0.00     0.047 C 
HETATM   12  C18 UNL     1      16.541 -13.814  11.271  1.00  0.00     0.154 C 
HETATM   13 CL1  UNL     1      17.255 -14.688   9.917  1.00  0.00    -0.119 Cl
HETATM   14  C19 UNL     1      17.517 -13.379  12.303  1.00  0.00     0.117 C 
HETATM   15  C20 UNL     1      15.055 -15.058  14.655  1.00  0.00    -0.023 C 
HETATM   16  C21 UNL     1      14.953 -14.944  16.192  1.00  0.00     0.019 C 
HETATM   17  C22 UNL     1      13.747 -15.054  14.006  1.00  0.00     0.019 C 
HETATM   18  C23 UNL     1      15.492 -16.542  14.483  1.00  0.00     0.017 C 
HETATM   19  C24 UNL     1      16.850 -16.354  15.019  1.00  0.00     0.036 C 
ENDROOT
BRANCH   7  20
HETATM   20  C10 UNL     1      14.431 -11.679  13.509  1.00  0.00     0.234 C 
BRANCH  20  21
HETATM   21  O3  UNL     1      14.402 -11.474  14.930  1.00  0.00    -0.395 OA
ATOM     22  H3  UNL     1      13.496 -11.344  15.186  1.00  0.00     0.209 HD
ENDBRANCH  20  21
ENDBRANCH   7  20
BRANCH   7  23
HETATM   23  O4  UNL     1      16.488 -10.727  13.666  1.00  0.00    -0.279 OA
BRANCH  23  24
HETATM   24  C11 UNL     1      16.516  -9.533  12.994  1.00  0.00     0.279 C 
HETATM   25  O5  UNL     1      17.437  -9.278  12.213  1.00  0.00    -0.263 OA
BRANCH  24  26
HETATM   26  C12 UNL     1      15.443  -8.490  13.172  1.00  0.00     0.227 C 
BRANCH  26  27
HETATM   27  N1  UNL     1      15.096  -7.972  11.905  1.00  0.00    -0.412 N 
HETATM   28  C13 UNL     1      15.341  -6.612  11.636  1.00  0.00     0.143 C 
HETATM   29  C14 UNL     1      14.182  -8.683  11.104  1.00  0.00     0.143 C 
ENDBRANCH  26  27
ENDBRANCH  24  26
ENDBRANCH  23  24
ENDBRANCH   7  23
BRANCH  14  30
HETATM   30  O7  UNL     1      18.085 -12.126  11.912  1.00  0.00    -0.385 OA
ATOM     31  H7  UNL     1      18.157 -12.186  10.966  1.00  0.00     0.210 HD
ENDBRANCH  14  30
BRANCH   1  32
HETATM   32  O2  UNL     1      19.938 -13.593  12.450  1.00  0.00    -0.312 OA
BRANCH  32  33
HETATM   33  C2  UNL     1      20.931 -13.979  11.567  1.00  0.00     0.255 C 
HETATM   34  C1  UNL     1      20.633 -14.567  10.233  1.00  0.00     0.126 C 
HETATM   35  O1  UNL     1      22.107 -13.818  11.924  1.00  0.00    -0.266 OA
ENDBRANCH  32  33
ENDBRANCH   1  32
TORSDOF 9
ENDMDL
MODEL 5
REMARK VINA RESULT: -6.268942701      2.835      5.730
REMARK  9 active torsions:
REMARK  status: ('A' for Active; 'I' for Inactive)
REMARK    1  A    between atoms: C2_2  and  O2_4 
REMARK    2  A    between atoms: O2_4  and  C3_5 
REMARK    3  A    between atoms: C9_11  and  C10_12 
REMARK    4  A    between atoms: C9_11  and  O4_15 
REMARK    5  A    between atoms: C10_12  and  O3_13 
REMARK    6  A    between atoms: O4_15  and  C11_16 
REMARK    7  A    between atoms: C11_16  and  C12_18 
REMARK    8  A    between atoms: C12_18  and  N1_19 
REMARK    9  A    between atoms: C19_28  and  O7_29 
ROOT
HETATM    1  C3  UNL     1      14.925 -12.546  10.325  1.00  0.00     0.176 C 
HETATM    2  C4  UNL     1      13.947 -13.673  10.687  1.00  0.00     0.043 C 
HETATM    3  C5  UNL     1      12.590 -13.112  10.365  1.00  0.00     0.017 C 
HETATM    4  C6  UNL     1      14.083 -13.999  12.127  1.00  0.00    -0.070 C 
HETATM    5  C7  UNL     1      15.304 -14.290  12.679  1.00  0.00    -0.057 C 
HETATM    6  C8  UNL     1      16.329 -14.215  11.646  1.00  0.00     0.119 C 
HETATM    7  C9  UNL     1      17.726 -14.429  11.803  1.00  0.00     0.205 C 
HETATM    8  O6  UNL     1      18.620 -13.384  11.526  1.00  0.00    -0.340 OA
HETATM    9  C15 UNL     1      18.285 -12.141  11.880  1.00  0.00     0.077 C 
HETATM   10  C16 UNL     1      18.833 -11.708  13.228  1.00  0.00     0.047 C 
HETATM   11  C17 UNL     1      18.956 -11.202  10.859  1.00  0.00     0.047 C 
HETATM   12  C18 UNL     1      16.780 -11.876  11.905  1.00  0.00     0.154 C 
HETATM   13 CL1  UNL     1      16.389 -10.191  11.561  1.00  0.00    -0.119 Cl
HETATM   14  C19 UNL     1      16.219 -12.846  10.929  1.00  0.00     0.117 C 
HETATM   15  C20 UNL     1      14.966 -14.557  14.079  1.00  0.00    -0.023 C 
HETATM   16  C21 UNL     1      14.412 -15.989  14.248  1.00  0.00     0.019 C 
HETATM   17  C22 UNL     1      15.845 -14.164  15.177  1.00  0.00     0.019 C 
HETATM   18  C23 UNL     1      13.698 -13.699  14.360  1.00  0.00     0.017 C 
HETATM   19  C24 UNL     1      12.997 -14.069  13.120  1.00  0.00     0.036 C 
ENDROOT
BRANCH   7  20
HETATM   20  C10 UNL     1      18.375 -15.089  12.977  1.00  0.00     0.234 C 
BRANCH  20  21
HETATM   21  O3  UNL     1      17.860 -16.426  13.070  1.00  0.00    -0.395 OA
ATOM     22  H3  UNL     1      17.840 -16.665  13.988  1.00  0.00     0.209 HD
ENDBRANCH  20  21
ENDBRANCH   7  20
BRANCH   7  23
HETATM   23  O4  UNL     1      18.124 -15.353  10.734  1.00  0.00    -0.279 OA
BRANCH  23  24
HETATM   24  C11 UNL     1      19.398 -15.392  10.231  1.00  0.00     0.279 C 
HETATM   25  O5  UNL     1      19.825 -14.461   9.542  1.00  0.00    -0.263 OA
BRANCH  24  26
HETATM   26  C12 UNL     1      20.325 -16.551  10.491  1.00  0.00     0.227 C 
BRANCH  26  27
HETATM   27  N1  UNL     1      21.598 -16.047  10.841  1.00  0.00    -0.412 N 
HETATM   28  C13 UNL     1      22.703 -16.368  10.030  1.00  0.00     0.143 C 
HETATM   29  C14 UNL     1      21.812 -15.591  12.155  1.00  0.00     0.143 C 
ENDBRANCH  26  27
ENDBRANCH  24  26
ENDBRANCH  23  24
ENDBRANCH   7  23
BRANCH  14  30
HETATM   30  O7  UNL     1      17.110 -12.962   9.817  1.00  0.00    -0.385 OA
ATOM     31  H7  UNL     1      17.966 -13.078  10.214  1.00  0.00     0.210 HD
ENDBRANCH  14  30
BRANCH   1  32
HETATM   32  O2  UNL     1      14.906 -12.546   8.901  1.00  0.00    -0.312 OA
BRANCH  32  33
HETATM   33  C2  UNL     1      15.256 -11.461   8.117  1.00  0.00     0.255 C 
HETATM   34  C1  UNL     1      14.689 -10.102   8.330  1.00  0.00     0.126 C 
HETATM   35  O1  UNL     1      16.076 -11.655   7.207  1.00  0.00    -0.266 OA
ENDBRANCH  32  33
ENDBRANCH   1  32
TORSDOF 9
ENDMDL
