MODEL 1
REMARK VINA RESULT: -7.852207104      0.000      0.000
REMARK  8 active torsions:
REMARK  status: ('A' for Active; 'I' for Inactive)
REMARK    1  A    between atoms: C2_2  and  C3_3 
REMARK    2  A    between atoms: C12_13  and  O1_14 
REMARK    3  A    between atoms: C13_16  and  O2_17 
REMARK    4  A    between atoms: O2_17  and  C14_18 
REMARK    5  A    between atoms: C22_30  and  C23_31 
REMARK    6  A    between atoms: C23_31  and  O4_32 
REMARK    7  A    between atoms: O4_32  and  C24_33 
REMARK    8  A    between atoms: C26_36  and  O6_37 
ROOT
HETATM    1  C3  UNL     1      13.955 -13.533  12.055  1.00  0.00     0.015 C 
HETATM    2  C4  UNL     1      13.242 -12.538  11.238  1.00  0.00     0.019 C 
HETATM    3  C5  UNL     1      14.007 -11.885  10.141  1.00  0.00    -0.012 C 
HETATM    4  C6  UNL     1      12.912 -11.391   9.173  1.00  0.00     0.018 C 
HETATM    5  C7  UNL     1      14.835 -10.715  10.593  1.00  0.00     0.017 C 
HETATM    6  C8  UNL     1      16.278 -11.204  10.674  1.00  0.00    -0.002 C 
HETATM    7  C9  UNL     1      16.361 -12.458   9.907  1.00  0.00     0.043 C 
HETATM    8  C10 UNL     1      14.950 -12.749   9.391  1.00  0.00     0.178 C 
HETATM    9  F1  UNL     1      14.844 -12.424   8.025  1.00  0.00    -0.249 F 
HETATM   10  C11 UNL     1      16.910 -11.086  11.992  1.00  0.00     0.055 C 
HETATM   11  C12 UNL     1      18.412 -10.795  11.754  1.00  0.00     0.199 C 
HETATM   12  C13 UNL     1      19.091 -12.003  12.207  1.00  0.00     0.147 C 
HETATM   13  N2  UNL     1      18.291 -12.676  12.911  1.00  0.00    -0.362 N 
ATOM     14  H2  UNL     1      18.529 -13.568  13.344  1.00  0.00     0.162 HD
HETATM   15  C20 UNL     1      16.971 -12.029  13.037  1.00  0.00     0.043 C 
HETATM   16  C21 UNL     1      17.070 -11.273  14.384  1.00  0.00     0.039 C 
HETATM   17  C22 UNL     1      16.038 -13.138  13.292  1.00  0.00     0.067 C 
HETATM   18  C26 UNL     1      14.577 -12.862  13.252  1.00  0.00     0.130 C 
ENDROOT
BRANCH  12  19
HETATM   19  O2  UNL     1      20.397 -12.381  11.927  1.00  0.00    -0.304 OA
BRANCH  19  20
HETATM   20  C14 UNL     1      20.759 -13.678  11.513  1.00  0.00     0.296 C 
HETATM   21  C15 UNL     1      19.834 -14.202  10.412  1.00  0.00     0.332 C 
HETATM   22  N1  UNL     1      20.497 -15.332   9.838  1.00  0.00     0.091 N 
HETATM   23  C16 UNL     1      21.364 -14.951   8.766  1.00  0.00     0.310 C 
HETATM   24  C17 UNL     1      21.036 -16.262  10.762  1.00  0.00     0.303 C 
HETATM   25  C18 UNL     1      21.447 -15.730  12.075  1.00  0.00     0.149 C 
HETATM   26  C19 UNL     1      22.927 -15.345  12.112  1.00  0.00     0.041 C 
HETATM   27  O3  UNL     1      20.734 -14.622  12.509  1.00  0.00    -0.352 OA
ENDBRANCH  19  20
ENDBRANCH  12  19
BRANCH  11  28
HETATM   28  O1  UNL     1      18.835  -9.632  12.335  1.00  0.00    -0.387 OA
ATOM     29  H1  UNL     1      19.775  -9.509  12.288  1.00  0.00     0.210 HD
ENDBRANCH  11  28
BRANCH  17  30
HETATM   30  C23 UNL     1      16.302 -13.731  14.691  1.00  0.00     0.188 C 
BRANCH  30  31
HETATM   31  O4  UNL     1      17.064 -14.906  14.638  1.00  0.00    -0.321 OA
BRANCH  31  32
HETATM   32  C24 UNL     1      16.436 -16.045  14.153  1.00  0.00     0.254 C 
HETATM   33  C25 UNL     1      15.251 -16.631  14.786  1.00  0.00     0.126 C 
HETATM   34  O5  UNL     1      16.891 -16.624  13.109  1.00  0.00    -0.266 OA
ENDBRANCH  31  32
ENDBRANCH  30  31
ENDBRANCH  17  30
BRANCH  18  35
HETATM   35  O6  UNL     1      13.882 -13.351  14.388  1.00  0.00    -0.395 OA
ATOM     36  H6  UNL     1      13.082 -12.844  14.449  1.00  0.00     0.210 HD
ENDBRANCH  18  35
BRANCH   1  37
HETATM   37  C2  UNL     1      13.054 -14.699  12.488  1.00  0.00     0.002 C 
HETATM   38  C1  UNL     1      11.775 -14.676  11.687  1.00  0.00     0.005 C 
ENDBRANCH   1  37
TORSDOF 8
ENDMDL
MODEL 2
REMARK VINA RESULT: -7.662762433      3.062      5.972
REMARK  8 active torsions:
REMARK  status: ('A' for Active; 'I' for Inactive)
REMARK    1  A    between atoms: C2_2  and  C3_3 
REMARK    2  A    between atoms: C12_13  and  O1_14 
REMARK    3  A    between atoms: C13_16  and  O2_17 
REMARK    4  A    between atoms: O2_17  and  C14_18 
REMARK    5  A    between atoms: C22_30  and  C23_31 
REMARK    6  A    between atoms: C23_31  and  O4_32 
REMARK    7  A    between atoms: O4_32  and  C24_33 
REMARK    8  A    between atoms: C26_36  and  O6_37 
ROOT
HETATM    1  C3  UNL     1      18.053 -15.910  13.168  1.00  0.00     0.015 C 
HETATM    2  C4  UNL     1      17.392 -15.788  14.477  1.00  0.00     0.019 C 
HETATM    3  C5  UNL     1      16.099 -15.053  14.520  1.00  0.00    -0.012 C 
HETATM    4  C6  UNL     1      15.419 -15.578  15.802  1.00  0.00     0.018 C 
HETATM    5  C7  UNL     1      16.253 -13.561  14.616  1.00  0.00     0.017 C 
HETATM    6  C8  UNL     1      15.987 -13.002  13.221  1.00  0.00    -0.002 C 
HETATM    7  C9  UNL     1      15.297 -14.051  12.451  1.00  0.00     0.043 C 
HETATM    8  C10 UNL     1      15.181 -15.265  13.375  1.00  0.00     0.178 C 
HETATM    9  F1  UNL     1      13.873 -15.380  13.881  1.00  0.00    -0.249 F 
HETATM   10  C11 UNL     1      17.087 -12.235  12.629  1.00  0.00     0.055 C 
HETATM   11  C12 UNL     1      16.454 -11.124  11.758  1.00  0.00     0.199 C 
HETATM   12  C13 UNL     1      16.785 -11.504  10.389  1.00  0.00     0.147 C 
HETATM   13  N2  UNL     1      17.709 -12.360  10.420  1.00  0.00    -0.362 N 
ATOM     14  H2  UNL     1      18.117 -12.785   9.588  1.00  0.00     0.162 HD
HETATM   15  C20 UNL     1      18.135 -12.679  11.797  1.00  0.00     0.043 C 
HETATM   16  C21 UNL     1      19.365 -11.765  12.014  1.00  0.00     0.039 C 
HETATM   17  C22 UNL     1      18.685 -14.041  11.708  1.00  0.00     0.067 C 
HETATM   18  C26 UNL     1      19.007 -14.761  12.968  1.00  0.00     0.130 C 
ENDROOT
BRANCH  12  19
HETATM   19  O2  UNL     1      16.200 -11.024   9.226  1.00  0.00    -0.304 OA
BRANCH  19  20
HETATM   20  C14 UNL     1      16.832 -10.112   8.357  1.00  0.00     0.296 C 
HETATM   21  C15 UNL     1      15.921  -9.711   7.195  1.00  0.00     0.332 C 
HETATM   22  N1  UNL     1      16.513  -8.547   6.609  1.00  0.00     0.091 N 
HETATM   23  C16 UNL     1      16.052  -7.345   7.231  1.00  0.00     0.310 C 
HETATM   24  C17 UNL     1      17.909  -8.620   6.375  1.00  0.00     0.303 C 
HETATM   25  C18 UNL     1      18.687  -9.493   7.274  1.00  0.00     0.149 C 
HETATM   26  C19 UNL     1      19.266  -8.734   8.469  1.00  0.00     0.041 C 
HETATM   27  O3  UNL     1      17.991 -10.577   7.788  1.00  0.00    -0.352 OA
ENDBRANCH  19  20
ENDBRANCH  12  19
BRANCH  11  28
HETATM   28  O1  UNL     1      16.838  -9.864  12.126  1.00  0.00    -0.387 OA
ATOM     29  H1  UNL     1      16.558  -9.193  11.515  1.00  0.00     0.210 HD
ENDBRANCH  11  28
BRANCH  17  30
HETATM   30  C23 UNL     1      20.000 -14.020  10.903  1.00  0.00     0.188 C 
BRANCH  30  31
HETATM   31  O4  UNL     1      19.949 -14.850   9.775  1.00  0.00    -0.321 OA
BRANCH  31  32
HETATM   32  C24 UNL     1      21.020 -15.710   9.575  1.00  0.00     0.254 C 
HETATM   33  C25 UNL     1      21.800 -15.736   8.335  1.00  0.00     0.126 C 
HETATM   34  O5  UNL     1      21.361 -16.524  10.500  1.00  0.00    -0.266 OA
ENDBRANCH  31  32
ENDBRANCH  30  31
ENDBRANCH  17  30
BRANCH  18  35
HETATM   35  O6  UNL     1      20.311 -15.322  12.976  1.00  0.00    -0.395 OA
ATOM     36  H6  UNL     1      20.707 -15.087  12.145  1.00  0.00     0.210 HD
ENDBRANCH  18  35
BRANCH   1  37
HETATM   37  C2  UNL     1      18.770 -17.256  12.990  1.00  0.00     0.002 C 
HETATM   38  C1  UNL     1      18.309 -17.911  11.710  1.00  0.00     0.005 C 
ENDBRANCH   1  37
TORSDOF 8
ENDMDL
MODEL 3
REMARK VINA RESULT: -7.617390613      0.699      1.014
REMARK  8 active torsions:
REMARK  status: ('A' for Active; 'I' for Inactive)
REMARK    1  A    between atoms: C2_2  and  C3_3 
REMARK    2  A    between atoms: C12_13  and  O1_14 
REMARK    3  A    between atoms: C13_16  and  O2_17 
REMARK    4  A    between atoms: O2_17  and  C14_18 
REMARK    5  A    between atoms: C22_30  and  C23_31 
REMARK    6  A    between atoms: C23_31  and  O4_32 
REMARK    7  A    between atoms: O4_32  and  C24_33 
REMARK    8  A    between atoms: C26_36  and  O6_37 
ROOT
HETATM    1  C3  UNL     1      13.826 -13.503  12.083  1.00  0.00     0.015 C 
HETATM    2  C4  UNL     1      13.139 -12.495  11.260  1.00  0.00     0.019 C 
HETATM    3  C5  UNL     1      13.930 -11.845  10.181  1.00  0.00    -0.012 C 
HETATM    4  C6  UNL     1      12.858 -11.332   9.197  1.00  0.00     0.018 C 
HETATM    5  C7  UNL     1      14.764 -10.687  10.653  1.00  0.00     0.017 C 
HETATM    6  C8  UNL     1      16.200 -11.194  10.756  1.00  0.00    -0.002 C 
HETATM    7  C9  UNL     1      16.282 -12.445   9.982  1.00  0.00     0.043 C 
HETATM    8  C10 UNL     1      14.876 -12.715   9.441  1.00  0.00     0.178 C 
HETATM    9  F1  UNL     1      14.797 -12.381   8.076  1.00  0.00    -0.249 F 
HETATM   10  C11 UNL     1      16.811 -11.091  12.085  1.00  0.00     0.055 C 
HETATM   11  C12 UNL     1      18.320 -10.817  11.875  1.00  0.00     0.199 C 
HETATM   12  C13 UNL     1      18.977 -12.036  12.332  1.00  0.00     0.147 C 
HETATM   13  N2  UNL     1      18.157 -12.704  13.018  1.00  0.00    -0.362 N 
ATOM     14  H2  UNL     1      18.377 -13.601  13.450  1.00  0.00     0.162 HD
HETATM   15  C20 UNL     1      16.843 -12.041  13.126  1.00  0.00     0.043 C 
HETATM   16  C21 UNL     1      16.927 -11.294  14.479  1.00  0.00     0.039 C 
HETATM   17  C22 UNL     1      15.892 -13.140  13.358  1.00  0.00     0.067 C 
HETATM   18  C26 UNL     1      14.436 -12.846  13.294  1.00  0.00     0.130 C 
ENDROOT
BRANCH  12  19
HETATM   19  O2  UNL     1      20.282 -12.428  12.072  1.00  0.00    -0.304 OA
BRANCH  19  20
HETATM   20  C14 UNL     1      20.679 -13.774  11.945  1.00  0.00     0.296 C 
HETATM   21  C15 UNL     1      21.664 -13.969  10.790  1.00  0.00     0.332 C 
HETATM   22  N1  UNL     1      22.256 -15.257  10.984  1.00  0.00     0.091 N 
HETATM   23  C16 UNL     1      23.420 -15.188  11.810  1.00  0.00     0.310 C 
HETATM   24  C17 UNL     1      21.353 -16.309  11.283  1.00  0.00     0.303 C 
HETATM   25  C18 UNL     1      20.108 -15.935  11.980  1.00  0.00     0.149 C 
HETATM   26  C19 UNL     1      20.230 -16.058  13.500  1.00  0.00     0.041 C 
HETATM   27  O3  UNL     1      19.650 -14.652  11.718  1.00  0.00    -0.352 OA
ENDBRANCH  19  20
ENDBRANCH  12  19
BRANCH  11  28
HETATM   28  O1  UNL     1      18.747  -9.662  12.470  1.00  0.00    -0.387 OA
ATOM     29  H1  UNL     1      18.830  -9.736  13.413  1.00  0.00     0.210 HD
ENDBRANCH  11  28
BRANCH  17  30
HETATM   30  C23 UNL     1      16.126 -13.744  14.757  1.00  0.00     0.188 C 
BRANCH  30  31
HETATM   31  O4  UNL     1      16.908 -14.907  14.714  1.00  0.00    -0.321 OA
BRANCH  31  32
HETATM   32  C24 UNL     1      16.306 -16.055  14.219  1.00  0.00     0.254 C 
HETATM   33  C25 UNL     1      15.086 -16.627  14.796  1.00  0.00     0.126 C 
HETATM   34  O5  UNL     1      16.820 -16.658  13.216  1.00  0.00    -0.266 OA
ENDBRANCH  31  32
ENDBRANCH  30  31
ENDBRANCH  17  30
BRANCH  18  35
HETATM   35  O6  UNL     1      13.716 -13.334  14.416  1.00  0.00    -0.395 OA
ATOM     36  H6  UNL     1      13.759 -14.281  14.368  1.00  0.00     0.210 HD
ENDBRANCH  18  35
BRANCH   1  37
HETATM   37  C2  UNL     1      12.904 -14.661  12.493  1.00  0.00     0.002 C 
HETATM   38  C1  UNL     1      11.748 -14.755  11.527  1.00  0.00     0.005 C 
ENDBRANCH   1  37
TORSDOF 8
ENDMDL
MODEL 4
REMARK VINA RESULT: -7.390817369      2.794      7.056
REMARK  8 active torsions:
REMARK  status: ('A' for Active; 'I' for Inactive)
REMARK    1  A    between atoms: C2_2  and  C3_3 
REMARK    2  A    between atoms: C12_13  and  O1_14 
REMARK    3  A    between atoms: C13_16  and  O2_17 
REMARK    4  A    between atoms: O2_17  and  C14_18 
REMARK    5  A    between atoms: C22_30  and  C23_31 
REMARK    6  A    between atoms: C23_31  and  O4_32 
REMARK    7  A    between atoms: O4_32  and  C24_33 
REMARK    8  A    between atoms: C26_36  and  O6_37 
ROOT
HETATM    1  C3  UNL     1      19.696 -14.984  11.225  1.00  0.00     0.015 C 
HETATM    2  C4  UNL     1      19.897 -15.735  12.475  1.00  0.00     0.019 C 
HETATM    3  C5  UNL     1      18.732 -15.848  13.394  1.00  0.00    -0.012 C 
HETATM    4  C6  UNL     1      19.054 -17.094  14.244  1.00  0.00     0.018 C 
HETATM    5  C7  UNL     1      18.558 -14.661  14.300  1.00  0.00     0.017 C 
HETATM    6  C8  UNL     1      17.420 -13.828  13.717  1.00  0.00    -0.002 C 
HETATM    7  C9  UNL     1      16.684 -14.688  12.774  1.00  0.00     0.043 C 
HETATM    8  C10 UNL     1      17.406 -16.037  12.759  1.00  0.00     0.178 C 
HETATM    9  F1  UNL     1      16.694 -16.989  13.512  1.00  0.00    -0.249 F 
HETATM   10  C11 UNL     1      17.765 -12.448  13.363  1.00  0.00     0.055 C 
HETATM   11  C12 UNL     1      16.508 -11.582  13.616  1.00  0.00     0.199 C 
HETATM   12  C13 UNL     1      16.075 -11.175  12.284  1.00  0.00     0.147 C 
HETATM   13  N2  UNL     1      17.020 -11.372  11.474  1.00  0.00    -0.362 N 
ATOM     14  H2  UNL     1      16.964 -11.167  10.477  1.00  0.00     0.162 HD
HETATM   15  C20 UNL     1      18.217 -11.932  12.132  1.00  0.00     0.043 C 
HETATM   16  C21 UNL     1      19.093 -10.685  12.406  1.00  0.00     0.039 C 
HETATM   17  C22 UNL     1      18.919 -12.661  11.063  1.00  0.00     0.067 C 
HETATM   18  C26 UNL     1      20.062 -13.537  11.433  1.00  0.00     0.130 C 
ENDROOT
BRANCH  12  19
HETATM   19  O2  UNL     1      14.837 -10.656  11.932  1.00  0.00    -0.304 OA
BRANCH  19  20
HETATM   20  C14 UNL     1      13.918 -11.331  11.104  1.00  0.00     0.296 C 
HETATM   21  C15 UNL     1      13.719 -12.783  11.544  1.00  0.00     0.332 C 
HETATM   22  N1  UNL     1      12.536 -13.241  10.882  1.00  0.00     0.091 N 
HETATM   23  C16 UNL     1      11.360 -12.971  11.649  1.00  0.00     0.310 C 
HETATM   24  C17 UNL     1      12.450 -12.939   9.499  1.00  0.00     0.303 C 
HETATM   25  C18 UNL     1      13.151 -11.725   9.042  1.00  0.00     0.149 C 
HETATM   26  C19 UNL     1      12.241 -10.496   9.025  1.00  0.00     0.041 C 
HETATM   27  O3  UNL     1      14.274 -11.381   9.780  1.00  0.00    -0.352 OA
ENDBRANCH  19  20
ENDBRANCH  12  19
BRANCH  11  28
HETATM   28  O1  UNL     1      16.725 -10.561  14.500  1.00  0.00    -0.387 OA
ATOM     29  H1  UNL     1      15.937 -10.076  14.712  1.00  0.00     0.210 HD
ENDBRANCH  11  28
BRANCH  17  30
HETATM   30  C23 UNL     1      19.486 -11.662  10.036  1.00  0.00     0.188 C 
BRANCH  30  31
HETATM   31  O4  UNL     1      18.591 -11.404   8.989  1.00  0.00    -0.321 OA
BRANCH  31  32
HETATM   32  C24 UNL     1      18.840 -10.286   8.205  1.00  0.00     0.254 C 
HETATM   33  C25 UNL     1      18.860  -8.924   8.744  1.00  0.00     0.126 C 
HETATM   34  O5  UNL     1      19.067 -10.427   6.955  1.00  0.00    -0.266 OA
ENDBRANCH  31  32
ENDBRANCH  30  31
ENDBRANCH  17  30
BRANCH  18  35
HETATM   35  O6  UNL     1      21.223 -13.304  10.651  1.00  0.00    -0.395 OA
ATOM     36  H6  UNL     1      21.067 -12.496  10.177  1.00  0.00     0.210 HD
ENDBRANCH  18  35
BRANCH   1  37
HETATM   37  C2  UNL     1      20.474 -15.581  10.044  1.00  0.00     0.002 C 
HETATM   38  C1  UNL     1      20.371 -17.087  10.078  1.00  0.00     0.005 C 
ENDBRANCH   1  37
TORSDOF 8
ENDMDL
MODEL 5
REMARK VINA RESULT: -7.360503880      2.923      5.973
REMARK  8 active torsions:
REMARK  status: ('A' for Active; 'I' for Inactive)
REMARK    1  A    between atoms: C2_2  and  C3_3 
REMARK    2  A    between atoms: C12_13  and  O1_14 
REMARK    3  A    between atoms: C13_16  and  O2_17 
REMARK    4  A    between atoms: O2_17  and  C14_18 
REMARK    5  A    between atoms: C22_30  and  C23_31 
REMARK    6  A    between atoms: C23_31  and  O4_32 
REMARK    7  A    between atoms: O4_32  and  C24_33 
REMARK    8  A    between atoms: C26_36  and  O6_37 
ROOT
HETATM    1  C3  UNL     1      18.025 -16.276  12.923  1.00  0.00     0.015 C 
HETATM    2  C4  UNL     1      17.372 -16.243  14.242  1.00  0.00     0.019 C 
HETATM    3  C5  UNL     1      16.166 -15.382  14.381  1.00  0.00    -0.012 C 
HETATM    4  C6  UNL     1      15.424 -15.983  15.594  1.00  0.00     0.018 C 
HETATM    5  C7  UNL     1      16.479 -13.939  14.657  1.00  0.00     0.017 C 
HETATM    6  C8  UNL     1      16.285 -13.189  13.341  1.00  0.00    -0.002 C 
HETATM    7  C9  UNL     1      15.492 -14.057  12.454  1.00  0.00     0.043 C 
HETATM    8  C10 UNL     1      15.238 -15.355  13.225  1.00  0.00     0.178 C 
HETATM    9  F1  UNL     1      13.922 -15.388  13.721  1.00  0.00    -0.249 F 
HETATM   10  C11 UNL     1      17.466 -12.480  12.840  1.00  0.00     0.055 C 
HETATM   11  C12 UNL     1      16.962 -11.209  12.114  1.00  0.00     0.199 C 
HETATM   12  C13 UNL     1      17.259 -11.454  10.707  1.00  0.00     0.147 C 
HETATM   13  N2  UNL     1      18.086 -12.403  10.628  1.00  0.00    -0.362 N 
ATOM     14  H2  UNL     1      18.451 -12.765   9.748  1.00  0.00     0.162 HD
HETATM   15  C20 UNL     1      18.465 -12.930  11.953  1.00  0.00     0.043 C 
HETATM   16  C21 UNL     1      19.785 -12.187  12.272  1.00  0.00     0.039 C 
HETATM   17  C22 UNL     1      18.866 -14.323  11.696  1.00  0.00     0.067 C 
HETATM   18  C26 UNL     1      19.100 -15.221  12.858  1.00  0.00     0.130 C 
ENDROOT
BRANCH  12  19
HETATM   19  O2  UNL     1      16.738 -10.777   9.614  1.00  0.00    -0.304 OA
BRANCH  19  20
HETATM   20  C14 UNL     1      17.330  -9.626   9.058  1.00  0.00     0.296 C 
HETATM   21  C15 UNL     1      17.918  -9.901   7.672  1.00  0.00     0.332 C 
HETATM   22  N1  UNL     1      18.154  -8.622   7.078  1.00  0.00     0.091 N 
HETATM   23  C16 UNL     1      17.008  -8.145   6.368  1.00  0.00     0.310 C 
HETATM   24  C17 UNL     1      18.803  -7.671   7.905  1.00  0.00     0.303 C 
HETATM   25  C18 UNL     1      18.588  -7.802   9.359  1.00  0.00     0.149 C 
HETATM   26  C19 UNL     1      17.423  -6.945   9.858  1.00  0.00     0.041 C 
HETATM   27  O3  UNL     1      18.352  -9.095   9.804  1.00  0.00    -0.352 OA
ENDBRANCH  19  20
ENDBRANCH  12  19
BRANCH  11  28
HETATM   28  O1  UNL     1      17.477 -10.052  12.629  1.00  0.00    -0.387 OA
ATOM     29  H1  UNL     1      16.907  -9.638  13.265  1.00  0.00     0.210 HD
ENDBRANCH  11  28
BRANCH  17  30
HETATM   30  C23 UNL     1      20.181 -14.346  10.892  1.00  0.00     0.188 C 
BRANCH  30  31
HETATM   31  O4  UNL     1      20.054 -15.039   9.680  1.00  0.00    -0.321 OA
BRANCH  31  32
HETATM   32  C24 UNL     1      21.027 -15.985   9.389  1.00  0.00     0.254 C 
HETATM   33  C25 UNL     1      21.947 -15.857   8.255  1.00  0.00     0.126 C 
HETATM   34  O5  UNL     1      21.146 -17.021  10.128  1.00  0.00    -0.266 OA
ENDBRANCH  31  32
ENDBRANCH  30  31
ENDBRANCH  17  30
BRANCH  18  35
HETATM   35  O6  UNL     1      20.335 -15.916  12.790  1.00  0.00    -0.395 OA
ATOM     36  H6  UNL     1      20.882 -15.552  13.476  1.00  0.00     0.210 HD
ENDBRANCH  18  35
BRANCH   1  37
HETATM   37  C2  UNL     1      18.594 -17.660  12.579  1.00  0.00     0.002 C 
HETATM   38  C1  UNL     1      18.000 -18.143  11.278  1.00  0.00     0.005 C 
ENDBRANCH   1  37
TORSDOF 8
ENDMDL
