MODEL 1
REMARK VINA RESULT: -9.380528615      0.000      0.000
REMARK  7 active torsions:
REMARK  status: ('A' for Active; 'I' for Inactive)
REMARK    1  A    between atoms: O1_2  and  C2_3 
REMARK    2  A    between atoms: N1_11  and  O2_13 
REMARK    3  A    between atoms: C16_22  and  C17_24 
REMARK    4  A    between atoms: C17_24  and  C18_26 
REMARK    5  A    between atoms: C18_26  and  O5_27 
REMARK    6  A    between atoms: C18_26  and  C19_29 
REMARK    7  A    between atoms: C25_36  and  O7_37 
ROOT
HETATM    1  C2  UNL     1      19.027 -12.273  12.417  1.00  0.00     0.154 C 
HETATM    2  C3  UNL     1      18.123 -12.364  13.532  1.00  0.00     0.044 C 
HETATM    3  C4  UNL     1      16.786 -12.978  13.601  1.00  0.00    -0.041 C 
HETATM    4  C5  UNL     1      16.010 -12.021  14.575  1.00  0.00     0.015 C 
HETATM    5  C6  UNL     1      15.902 -12.921  12.432  1.00  0.00     0.015 C 
HETATM    6  C7  UNL     1      16.720 -14.261  14.404  1.00  0.00     0.007 C 
HETATM    7  C8  UNL     1      15.324 -14.464  15.025  1.00  0.00     0.060 C 
HETATM    8  C9  UNL     1      15.396 -15.603  15.980  1.00  0.00     0.010 C 
HETATM    9  N1  UNL     1      15.230 -15.527  17.248  1.00  0.00    -0.277 N 
ATOM     10  H1  UNL     1      15.030 -14.618  17.667  1.00  0.00     0.193 HD
HETATM   11  C10 UNL     1      15.682 -16.913  15.381  1.00  0.00     0.055 C 
HETATM   12  C11 UNL     1      16.188 -16.642  14.016  1.00  0.00     0.015 C 
HETATM   13  C12 UNL     1      17.252 -15.511  13.956  1.00  0.00    -0.032 C 
HETATM   14  C13 UNL     1      18.341 -16.040  14.925  1.00  0.00     0.016 C 
HETATM   15  C14 UNL     1      17.818 -15.746  12.617  1.00  0.00     0.092 C 
HETATM   16  C15 UNL     1      19.054 -15.034  12.238  1.00  0.00     0.177 C 
HETATM   17  O3  UNL     1      19.955 -15.071  13.064  1.00  0.00    -0.294 OA
HETATM   18  C16 UNL     1      19.201 -14.310  10.924  1.00  0.00     0.253 C 
HETATM   19  F1  UNL     1      18.129 -14.864  10.167  1.00  0.00    -0.223 F 
HETATM   20  C25 UNL     1      18.804 -12.854  11.070  1.00  0.00     0.205 C 
ENDROOT
BRANCH  18  21
HETATM   21  C17 UNL     1      20.409 -14.580  10.189  1.00  0.00     0.205 C 
HETATM   22  O4  UNL     1      20.475 -14.135   9.016  1.00  0.00    -0.291 OA
BRANCH  21  23
HETATM   23  C18 UNL     1      21.661 -15.279  10.470  1.00  0.00     0.195 C 
BRANCH  23  24
HETATM   24  O5  UNL     1      21.674 -16.373  11.255  1.00  0.00    -0.388 OA
ATOM     25  H5  UNL     1      21.115 -16.425  12.022  1.00  0.00     0.210 HD
ENDBRANCH  23  24
BRANCH  23  26
HETATM   26  C19 UNL     1      22.384 -15.661   9.179  1.00  0.00     0.022 C 
HETATM   27  C20 UNL     1      23.711 -16.304   9.580  1.00  0.00     0.015 C 
HETATM   28  C21 UNL     1      24.469 -16.712   8.331  1.00  0.00     0.079 C 
HETATM   29  C22 UNL     1      23.766 -16.323   7.095  1.00  0.00     0.127 C 
HETATM   30  O6  UNL     1      24.350 -15.770   6.199  1.00  0.00    -0.298 OA
HETATM   31  C23 UNL     1      22.317 -16.615   6.952  1.00  0.00     0.079 C 
HETATM   32  C24 UNL     1      21.652 -16.620   8.319  1.00  0.00     0.015 C 
ENDBRANCH  23  26
ENDBRANCH  21  23
ENDBRANCH  18  21
BRANCH  20  33
HETATM   33  O7  UNL     1      19.707 -12.212  10.175  1.00  0.00    -0.384 OA
HETATM   34  C26 UNL     1      19.126 -11.295   9.354  1.00  0.00     0.202 C 
ENDBRANCH  20  33
BRANCH   1  35
HETATM   35  O1  UNL     1      19.339 -10.901  12.154  1.00  0.00    -0.388 OA
HETATM   36  C1  UNL     1      18.390 -10.031  12.611  1.00  0.00     0.202 C 
ENDBRANCH   1  35
BRANCH   9  37
HETATM   37  O2  UNL     1      15.312 -16.615  18.049  1.00  0.00    -0.290 OA
ATOM     38  H2  UNL     1      16.125 -17.088  18.174  1.00  0.00     0.244 HD
ENDBRANCH   9  37
TORSDOF 7
ENDMDL
MODEL 2
REMARK VINA RESULT: -9.327443803      3.025      7.706
REMARK  7 active torsions:
REMARK  status: ('A' for Active; 'I' for Inactive)
REMARK    1  A    between atoms: O1_2  and  C2_3 
REMARK    2  A    between atoms: N1_11  and  O2_13 
REMARK    3  A    between atoms: C16_22  and  C17_24 
REMARK    4  A    between atoms: C17_24  and  C18_26 
REMARK    5  A    between atoms: C18_26  and  O5_27 
REMARK    6  A    between atoms: C18_26  and  C19_29 
REMARK    7  A    between atoms: C25_36  and  O7_37 
ROOT
HETATM    1  C2  UNL     1      16.359 -11.496  11.120  1.00  0.00     0.154 C 
HETATM    2  C3  UNL     1      17.565 -11.775  10.387  1.00  0.00     0.044 C 
HETATM    3  C4  UNL     1      18.907 -12.108  10.894  1.00  0.00    -0.041 C 
HETATM    4  C5  UNL     1      19.857 -11.397   9.865  1.00  0.00     0.015 C 
HETATM    5  C6  UNL     1      19.382 -11.498  12.141  1.00  0.00     0.015 C 
HETATM    6  C7  UNL     1      19.328 -13.546  10.672  1.00  0.00     0.007 C 
HETATM    7  C8  UNL     1      20.860 -13.670  10.547  1.00  0.00     0.060 C 
HETATM    8  C9  UNL     1      21.184 -15.052  10.101  1.00  0.00     0.010 C 
HETATM    9  N1  UNL     1      21.723 -15.369   8.983  1.00  0.00    -0.277 N 
ATOM     10  H1  UNL     1      21.961 -14.630   8.320  1.00  0.00     0.193 HD
HETATM   11  C10 UNL     1      20.844 -16.119  11.051  1.00  0.00     0.055 C 
HETATM   12  C11 UNL     1      19.923 -15.515  12.040  1.00  0.00     0.015 C 
HETATM   13  C12 UNL     1      18.797 -14.655  11.403  1.00  0.00    -0.032 C 
HETATM   14  C13 UNL     1      18.108 -15.674  10.458  1.00  0.00     0.016 C 
HETATM   15  C14 UNL     1      17.871 -14.539  12.541  1.00  0.00     0.092 C 
HETATM   16  C15 UNL     1      16.521 -13.993  12.301  1.00  0.00     0.177 C 
HETATM   17  O3  UNL     1      15.923 -14.474  11.349  1.00  0.00    -0.294 OA
HETATM   18  C16 UNL     1      15.916 -12.918  13.167  1.00  0.00     0.253 C 
HETATM   19  F1  UNL     1      16.748 -12.973  14.321  1.00  0.00    -0.223 F 
HETATM   20  C25 UNL     1      16.208 -11.544  12.595  1.00  0.00     0.205 C 
ENDROOT
BRANCH  18  21
HETATM   21  C17 UNL     1      14.569 -13.156  13.617  1.00  0.00     0.205 C 
HETATM   22  O4  UNL     1      13.681 -13.255  12.733  1.00  0.00    -0.291 OA
BRANCH  21  23
HETATM   23  C18 UNL     1      13.924 -13.326  14.917  1.00  0.00     0.195 C 
BRANCH  23  24
HETATM   24  O5  UNL     1      12.592 -13.503  15.003  1.00  0.00    -0.388 OA
ATOM     25  H5  UNL     1      12.144 -13.410  15.836  1.00  0.00     0.210 HD
ENDBRANCH  23  24
BRANCH  23  26
HETATM   26  C19 UNL     1      14.567 -14.460  15.712  1.00  0.00     0.022 C 
HETATM   27  C20 UNL     1      13.747 -14.636  16.989  1.00  0.00     0.015 C 
HETATM   28  C21 UNL     1      14.340 -15.761  17.816  1.00  0.00     0.079 C 
HETATM   29  C22 UNL     1      15.561 -16.322  17.208  1.00  0.00     0.127 C 
HETATM   30  O6  UNL     1      16.553 -16.504  17.866  1.00  0.00    -0.298 OA
HETATM   31  C23 UNL     1      15.570 -16.666  15.763  1.00  0.00     0.079 C 
HETATM   32  C24 UNL     1      14.605 -15.764  15.009  1.00  0.00     0.015 C 
ENDBRANCH  23  26
ENDBRANCH  21  23
ENDBRANCH  18  21
BRANCH  20  33
HETATM   33  O7  UNL     1      15.022 -10.829  12.926  1.00  0.00    -0.384 OA
HETATM   34  C26 UNL     1      15.188  -9.883  13.889  1.00  0.00     0.202 C 
ENDBRANCH  20  33
BRANCH   1  35
HETATM   35  O1  UNL     1      15.861 -10.202  10.764  1.00  0.00    -0.388 OA
HETATM   36  C1  UNL     1      16.360  -9.735   9.580  1.00  0.00     0.202 C 
ENDBRANCH   1  35
BRANCH   9  37
HETATM   37  O2  UNL     1      21.987 -16.655   8.652  1.00  0.00    -0.290 OA
ATOM     38  H2  UNL     1      21.795 -17.003   7.789  1.00  0.00     0.244 HD
ENDBRANCH   9  37
TORSDOF 7
ENDMDL
MODEL 3
REMARK VINA RESULT: -9.166313256      3.001      6.989
REMARK  7 active torsions:
REMARK  status: ('A' for Active; 'I' for Inactive)
REMARK    1  A    between atoms: O1_2  and  C2_3 
REMARK    2  A    between atoms: N1_11  and  O2_13 
REMARK    3  A    between atoms: C16_22  and  C17_24 
REMARK    4  A    between atoms: C17_24  and  C18_26 
REMARK    5  A    between atoms: C18_26  and  O5_27 
REMARK    6  A    between atoms: C18_26  and  C19_29 
REMARK    7  A    between atoms: C25_36  and  O7_37 
ROOT
HETATM    1  C2  UNL     1      19.636 -12.800  11.768  1.00  0.00     0.154 C 
HETATM    2  C3  UNL     1      19.056 -11.542  11.381  1.00  0.00     0.044 C 
HETATM    3  C4  UNL     1      17.720 -11.262  10.828  1.00  0.00    -0.041 C 
HETATM    4  C5  UNL     1      17.996 -10.093   9.816  1.00  0.00     0.015 C 
HETATM    5  C6  UNL     1      17.091 -12.233   9.927  1.00  0.00     0.015 C 
HETATM    6  C7  UNL     1      16.777 -10.552  11.780  1.00  0.00     0.007 C 
HETATM    7  C8  UNL     1      15.751  -9.692  11.016  1.00  0.00     0.060 C 
HETATM    8  C9  UNL     1      15.019  -8.850  12.000  1.00  0.00     0.010 C 
HETATM    9  N1  UNL     1      15.062  -7.572  12.069  1.00  0.00    -0.277 N 
ATOM     10  H1  UNL     1      15.642  -7.059  11.403  1.00  0.00     0.193 HD
HETATM   11  C10 UNL     1      14.183  -9.583  12.960  1.00  0.00     0.055 C 
HETATM   12  C11 UNL     1      14.617 -10.997  12.891  1.00  0.00     0.015 C 
HETATM   13  C12 UNL     1      16.160 -11.181  12.907  1.00  0.00    -0.032 C 
HETATM   14  C13 UNL     1      16.556 -10.476  14.230  1.00  0.00     0.016 C 
HETATM   15  C14 UNL     1      16.256 -12.615  13.220  1.00  0.00     0.092 C 
HETATM   16  C15 UNL     1      17.575 -13.173  13.577  1.00  0.00     0.177 C 
HETATM   17  O3  UNL     1      18.205 -12.539  14.412  1.00  0.00    -0.294 OA
HETATM   18  C16 UNL     1      18.115 -14.437  12.957  1.00  0.00     0.253 C 
HETATM   19  F1  UNL     1      16.937 -15.013  12.401  1.00  0.00    -0.223 F 
HETATM   20  C25 UNL     1      18.953 -14.117  11.735  1.00  0.00     0.205 C 
ENDROOT
BRANCH  18  21
HETATM   21  C17 UNL     1      18.655 -15.406  13.875  1.00  0.00     0.205 C 
HETATM   22  O4  UNL     1      19.835 -15.225  14.267  1.00  0.00    -0.291 OA
BRANCH  21  23
HETATM   23  C18 UNL     1      18.157 -16.624  14.510  1.00  0.00     0.195 C 
BRANCH  23  24
HETATM   24  O5  UNL     1      18.990 -17.429  15.198  1.00  0.00    -0.388 OA
ATOM     25  H5  UNL     1      18.966 -18.370  15.073  1.00  0.00     0.210 HD
ENDBRANCH  23  24
BRANCH  23  26
HETATM   26  C19 UNL     1      16.978 -16.325  15.434  1.00  0.00     0.022 C 
HETATM   27  C20 UNL     1      15.705 -16.679  14.668  1.00  0.00     0.015 C 
HETATM   28  C21 UNL     1      14.498 -16.408  15.546  1.00  0.00     0.079 C 
HETATM   29  C22 UNL     1      14.870 -15.825  16.848  1.00  0.00     0.127 C 
HETATM   30  O6  UNL     1      14.294 -14.861  17.282  1.00  0.00    -0.298 OA
HETATM   31  C23 UNL     1      15.972 -16.433  17.637  1.00  0.00     0.079 C 
HETATM   32  C24 UNL     1      16.976 -17.090  16.703  1.00  0.00     0.015 C 
ENDBRANCH  23  26
ENDBRANCH  21  23
ENDBRANCH  18  21
BRANCH  20  33
HETATM   33  O7  UNL     1      19.961 -15.121  11.798  1.00  0.00    -0.384 OA
HETATM   34  C26 UNL     1      19.891 -16.050  10.807  1.00  0.00     0.202 C 
ENDBRANCH  20  33
BRANCH   1  35
HETATM   35  O1  UNL     1      20.848 -13.021  11.039  1.00  0.00    -0.388 OA
HETATM   36  C1  UNL     1      20.870 -12.402   9.821  1.00  0.00     0.202 C 
ENDBRANCH   1  35
BRANCH   9  37
HETATM   37  O2  UNL     1      14.363  -6.879  12.998  1.00  0.00    -0.290 OA
ATOM     38  H2  UNL     1      13.465  -7.096  13.219  1.00  0.00     0.244 HD
ENDBRANCH   9  37
TORSDOF 7
ENDMDL
MODEL 4
REMARK VINA RESULT: -9.145773088      1.319      1.581
REMARK  7 active torsions:
REMARK  status: ('A' for Active; 'I' for Inactive)
REMARK    1  A    between atoms: O1_2  and  C2_3 
REMARK    2  A    between atoms: N1_11  and  O2_13 
REMARK    3  A    between atoms: C16_22  and  C17_24 
REMARK    4  A    between atoms: C17_24  and  C18_26 
REMARK    5  A    between atoms: C18_26  and  O5_27 
REMARK    6  A    between atoms: C18_26  and  C19_29 
REMARK    7  A    between atoms: C25_36  and  O7_37 
ROOT
HETATM    1  C2  UNL     1      18.056 -11.895  13.149  1.00  0.00     0.154 C 
HETATM    2  C3  UNL     1      17.064 -11.871  14.189  1.00  0.00     0.044 C 
HETATM    3  C4  UNL     1      15.665 -12.330  14.154  1.00  0.00    -0.041 C 
HETATM    4  C5  UNL     1      14.928 -11.281  15.062  1.00  0.00     0.015 C 
HETATM    5  C6  UNL     1      14.887 -12.187  12.919  1.00  0.00     0.015 C 
HETATM    6  C7  UNL     1      15.392 -13.589  14.952  1.00  0.00     0.007 C 
HETATM    7  C8  UNL     1      13.937 -13.626  15.461  1.00  0.00     0.060 C 
HETATM    8  C9  UNL     1      13.805 -14.756  16.421  1.00  0.00     0.010 C 
HETATM    9  N1  UNL     1      13.551 -14.648  17.672  1.00  0.00    -0.277 N 
ATOM     10  H1  UNL     1      13.423 -13.718  18.072  1.00  0.00     0.193 HD
HETATM   11  C10 UNL     1      13.988 -16.096  15.849  1.00  0.00     0.055 C 
HETATM   12  C11 UNL     1      14.626 -15.898  14.528  1.00  0.00     0.015 C 
HETATM   13  C12 UNL     1      15.813 -14.896  14.549  1.00  0.00    -0.032 C 
HETATM   14  C13 UNL     1      16.755 -15.533  15.603  1.00  0.00     0.016 C 
HETATM   15  C14 UNL     1      16.451 -15.207  13.260  1.00  0.00     0.092 C 
HETATM   16  C15 UNL     1      17.785 -14.643  12.978  1.00  0.00     0.177 C 
HETATM   17  O3  UNL     1      18.609 -14.772  13.872  1.00  0.00    -0.294 OA
HETATM   18  C16 UNL     1      18.115 -13.954  11.678  1.00  0.00     0.253 C 
HETATM   19  F1  UNL     1      17.050 -14.392  10.840  1.00  0.00    -0.223 F 
HETATM   20  C25 UNL     1      17.875 -12.461  11.789  1.00  0.00     0.205 C 
ENDROOT
BRANCH  18  21
HETATM   21  C17 UNL     1      19.339 -14.366  11.041  1.00  0.00     0.205 C 
HETATM   22  O4  UNL     1      19.288 -14.609   9.809  1.00  0.00    -0.291 OA
BRANCH  21  23
HETATM   23  C18 UNL     1      20.714 -14.588  11.481  1.00  0.00     0.195 C 
BRANCH  23  24
HETATM   24  O5  UNL     1      20.970 -15.228  12.638  1.00  0.00    -0.388 OA
ATOM     25  H5  UNL     1      21.281 -16.126  12.636  1.00  0.00     0.210 HD
ENDBRANCH  23  24
BRANCH  23  26
HETATM   26  C19 UNL     1      21.534 -15.294  10.403  1.00  0.00     0.022 C 
HETATM   27  C20 UNL     1      22.878 -15.665  11.029  1.00  0.00     0.015 C 
HETATM   28  C21 UNL     1      23.732 -16.379   9.999  1.00  0.00     0.079 C 
HETATM   29  C22 UNL     1      23.074 -16.459   8.682  1.00  0.00     0.127 C 
HETATM   30  O6  UNL     1      23.668 -16.170   7.675  1.00  0.00    -0.298 OA
HETATM   31  C23 UNL     1      21.660 -16.902   8.594  1.00  0.00     0.079 C 
HETATM   32  C24 UNL     1      20.921 -16.533   9.870  1.00  0.00     0.015 C 
ENDBRANCH  23  26
ENDBRANCH  21  23
ENDBRANCH  18  21
BRANCH  20  33
HETATM   33  O7  UNL     1      18.912 -11.934  10.967  1.00  0.00    -0.384 OA
HETATM   34  C26 UNL     1      18.472 -11.299   9.847  1.00  0.00     0.202 C 
ENDBRANCH  20  33
BRANCH   1  35
HETATM   35  O1  UNL     1      18.542 -10.569  12.909  1.00  0.00    -0.388 OA
HETATM   36  C1  UNL     1      17.568  -9.613  12.982  1.00  0.00     0.202 C 
ENDBRANCH   1  35
BRANCH   9  37
HETATM   37  O2  UNL     1      13.446 -15.729  18.479  1.00  0.00    -0.290 OA
ATOM     38  H2  UNL     1      13.222 -15.652  19.399  1.00  0.00     0.244 HD
ENDBRANCH   9  37
TORSDOF 7
ENDMDL
MODEL 5
REMARK VINA RESULT: -9.078363893      1.211      1.595
REMARK  7 active torsions:
REMARK  status: ('A' for Active; 'I' for Inactive)
REMARK    1  A    between atoms: O1_2  and  C2_3 
REMARK    2  A    between atoms: N1_11  and  O2_13 
REMARK    3  A    between atoms: C16_22  and  C17_24 
REMARK    4  A    between atoms: C17_24  and  C18_26 
REMARK    5  A    between atoms: C18_26  and  O5_27 
REMARK    6  A    between atoms: C18_26  and  C19_29 
REMARK    7  A    between atoms: C25_36  and  O7_37 
ROOT
HETATM    1  C2  UNL     1      18.399 -11.486  12.540  1.00  0.00     0.154 C 
HETATM    2  C3  UNL     1      17.536 -11.813  13.643  1.00  0.00     0.044 C 
HETATM    3  C4  UNL     1      16.353 -12.690  13.673  1.00  0.00    -0.041 C 
HETATM    4  C5  UNL     1      15.401 -11.961  14.687  1.00  0.00     0.015 C 
HETATM    5  C6  UNL     1      15.472 -12.758  12.502  1.00  0.00     0.015 C 
HETATM    6  C7  UNL     1      16.553 -13.997  14.413  1.00  0.00     0.007 C 
HETATM    7  C8  UNL     1      15.229 -14.511  15.014  1.00  0.00     0.060 C 
HETATM    8  C9  UNL     1      15.536 -15.656  15.912  1.00  0.00     0.010 C 
HETATM    9  N1  UNL     1      15.362 -15.678  17.182  1.00  0.00    -0.277 N 
ATOM     10  H1  UNL     1      14.982 -14.851  17.643  1.00  0.00     0.193 HD
HETATM   11  C10 UNL     1      16.082 -16.849  15.253  1.00  0.00     0.055 C 
HETATM   12  C11 UNL     1      16.517 -16.414  13.906  1.00  0.00     0.015 C 
HETATM   13  C12 UNL     1      17.328 -15.089  13.908  1.00  0.00    -0.032 C 
HETATM   14  C13 UNL     1      18.504 -15.431  14.858  1.00  0.00     0.016 C 
HETATM   15  C14 UNL     1      17.925 -15.138  12.564  1.00  0.00     0.092 C 
HETATM   16  C15 UNL     1      18.988 -14.171  12.228  1.00  0.00     0.177 C 
HETATM   17  O3  UNL     1      19.881 -14.063  13.057  1.00  0.00    -0.294 OA
HETATM   18  C16 UNL     1      18.980 -13.369  10.952  1.00  0.00     0.253 C 
HETATM   19  F1  UNL     1      18.042 -14.092  10.161  1.00  0.00    -0.223 F 
HETATM   20  C25 UNL     1      18.295 -12.033  11.165  1.00  0.00     0.205 C 
ENDROOT
BRANCH  18  21
HETATM   21  C17 UNL     1      20.216 -13.349  10.213  1.00  0.00     0.205 C 
HETATM   22  O4  UNL     1      21.215 -12.846  10.785  1.00  0.00    -0.291 OA
BRANCH  21  23
HETATM   23  C18 UNL     1      20.639 -13.792   8.886  1.00  0.00     0.195 C 
BRANCH  23  24
HETATM   24  O5  UNL     1      21.066 -12.903   7.970  1.00  0.00    -0.388 OA
ATOM     25  H5  UNL     1      20.583 -12.099   7.814  1.00  0.00     0.210 HD
ENDBRANCH  23  24
BRANCH  23  26
HETATM   26  C19 UNL     1      21.715 -14.873   8.979  1.00  0.00     0.022 C 
HETATM   27  C20 UNL     1      21.191 -15.948   9.929  1.00  0.00     0.015 C 
HETATM   28  C21 UNL     1      22.222 -17.055  10.052  1.00  0.00     0.079 C 
HETATM   29  C22 UNL     1      23.450 -16.765   9.290  1.00  0.00     0.127 C 
HETATM   30  O6  UNL     1      24.537 -16.907   9.790  1.00  0.00    -0.298 OA
HETATM   31  C23 UNL     1      23.350 -16.291   7.887  1.00  0.00     0.079 C 
HETATM   32  C24 UNL     1      22.051 -15.524   7.691  1.00  0.00     0.015 C 
ENDBRANCH  23  26
ENDBRANCH  21  23
ENDBRANCH  18  21
BRANCH  20  33
HETATM   33  O7  UNL     1      19.045 -11.177  10.309  1.00  0.00    -0.384 OA
HETATM   34  C26 UNL     1      18.356 -10.721   9.228  1.00  0.00     0.202 C 
ENDBRANCH  20  33
BRANCH   1  35
HETATM   35  O1  UNL     1      18.424 -10.067  12.346  1.00  0.00    -0.388 OA
HETATM   36  C1  UNL     1      17.225  -9.463  12.603  1.00  0.00     0.202 C 
ENDBRANCH   1  35
BRANCH   9  37
HETATM   37  O2  UNL     1      15.666 -16.764  17.930  1.00  0.00    -0.290 OA
ATOM     38  H2  UNL     1      14.996 -17.297  18.340  1.00  0.00     0.244 HD
ENDBRANCH   9  37
TORSDOF 7
ENDMDL
