MODEL 1
REMARK VINA RESULT: -7.131581999      0.000      0.000
REMARK  8 active torsions:
REMARK  status: ('A' for Active; 'I' for Inactive)
REMARK    1  A    between atoms: C2_2  and  C4_4 
REMARK    2  A    between atoms: C4_4  and  N1_5 
REMARK    3  A    between atoms: C4_4  and  C10_14 
REMARK       I    between atoms: N1_5  and  C5_7 
REMARK    4  A    between atoms: C5_7  and  O2_9 
REMARK    5  A    between atoms: O2_9  and  C6_10 
REMARK       I    between atoms: C10_14  and  N2_16 
REMARK    6  A    between atoms: C13_20  and  C14_21 
REMARK       I    between atoms: C14_21  and  N3_23 
REMARK    7  A    between atoms: N3_23  and  C15_25 
REMARK    8  A    between atoms: C17_30  and  N5_31 
ROOT
HETATM    1  C10 UNL     1      15.168 -15.669  14.582  1.00  0.00     0.244 C 
HETATM    2  O3  UNL     1      14.675 -16.740  14.073  1.00  0.00    -0.271 OA
HETATM    3  N2  UNL     1      14.458 -14.426  14.482  1.00  0.00    -0.327 N 
HETATM    4  C11 UNL     1      13.151 -14.383  13.863  1.00  0.00     0.200 C 
HETATM    5  S1  UNL     1      12.444 -12.872  14.572  1.00  0.00    -0.147 SA
HETATM    6  C12 UNL     1      13.857 -12.425  15.660  1.00  0.00     0.110 C 
HETATM    7  C13 UNL     1      14.953 -13.179  14.928  1.00  0.00     0.190 C 
ENDROOT
BRANCH   1   8
HETATM    8  C4  UNL     1      16.471 -15.846  15.243  1.00  0.00     0.182 C 
BRANCH   8   9
HETATM    9  C2  UNL     1      16.341 -16.715  16.490  1.00  0.00     0.009 C 
HETATM   10  C1  UNL     1      17.641 -17.158  17.040  1.00  0.00     0.012 C 
HETATM   11  C3  UNL     1      15.476 -16.099  17.548  1.00  0.00     0.012 C 
ENDBRANCH   8   9
BRANCH   8  12
HETATM   12  N1  UNL     1      17.359 -16.571  14.306  1.00  0.00    -0.323 N 
HETATM   13  C5  UNL     1      18.319 -15.891  13.539  1.00  0.00     0.362 C 
HETATM   14  O1  UNL     1      18.431 -14.647  13.648  1.00  0.00    -0.238 OA
ATOM     15  H1  UNL     1      17.271 -17.583  14.216  1.00  0.00     0.165 HD
BRANCH  13  16
HETATM   16  O2  UNL     1      19.178 -16.500  12.650  1.00  0.00    -0.294 OA
BRANCH  16  17
HETATM   17  C6  UNL     1      18.786 -16.865  11.379  1.00  0.00     0.061 C 
HETATM   18  C7  UNL     1      19.959 -16.811  10.438  1.00  0.00     0.046 C 
HETATM   19  C8  UNL     1      18.297 -18.321  11.360  1.00  0.00     0.046 C 
HETATM   20  C9  UNL     1      17.674 -16.045  10.787  1.00  0.00     0.046 C 
ENDBRANCH  16  17
ENDBRANCH  13  16
ENDBRANCH   8  12
ENDBRANCH   1   8
BRANCH   7  21
HETATM   21  C14 UNL     1      15.451 -12.375  13.791  1.00  0.00     0.247 C 
HETATM   22  O4  UNL     1      15.214 -11.117  13.889  1.00  0.00    -0.271 OA
HETATM   23  N3  UNL     1      16.124 -12.930  12.698  1.00  0.00    -0.305 N 
ATOM     24  H3  UNL     1      16.925 -13.544  12.846  1.00  0.00     0.171 HD
BRANCH  23  25
HETATM   25  C15 UNL     1      15.720 -12.656  11.487  1.00  0.00     0.154 A 
HETATM   26  N4  UNL     1      14.504 -12.416  11.011  1.00  0.00    -0.324 N 
HETATM   27  C16 UNL     1      14.359 -12.158   9.740  1.00  0.00     0.146 A 
ATOM     28  H4  UNL     1      13.693 -12.433  11.629  1.00  0.00     0.169 HD
HETATM   29 CL1  UNL     1      12.764 -11.821   8.993  1.00  0.00    -0.061 Cl
HETATM   30  C17 UNL     1      15.474 -12.145   8.952  1.00  0.00     0.185 A 
HETATM   31  S2  UNL     1      16.705 -12.511  10.079  1.00  0.00    -0.026 SA
BRANCH  30  32
HETATM   32  N5  UNL     1      15.579 -11.889   7.534  1.00  0.00    -0.105 N 
HETATM   33  O5  UNL     1      15.889 -10.728   7.197  1.00  0.00    -0.531 OA
HETATM   34  O6  UNL     1      15.342 -12.892   6.662  1.00  0.00    -0.531 OA
ENDBRANCH  30  32
ENDBRANCH  23  25
ENDBRANCH   7  21
TORSDOF 8
ENDMDL
MODEL 2
REMARK VINA RESULT: -7.040738601      1.712      1.896
REMARK  8 active torsions:
REMARK  status: ('A' for Active; 'I' for Inactive)
REMARK    1  A    between atoms: C2_2  and  C4_4 
REMARK    2  A    between atoms: C4_4  and  N1_5 
REMARK    3  A    between atoms: C4_4  and  C10_14 
REMARK       I    between atoms: N1_5  and  C5_7 
REMARK    4  A    between atoms: C5_7  and  O2_9 
REMARK    5  A    between atoms: O2_9  and  C6_10 
REMARK       I    between atoms: C10_14  and  N2_16 
REMARK    6  A    between atoms: C13_20  and  C14_21 
REMARK       I    between atoms: C14_21  and  N3_23 
REMARK    7  A    between atoms: N3_23  and  C15_25 
REMARK    8  A    between atoms: C17_30  and  N5_31 
ROOT
HETATM    1  C10 UNL     1      15.401 -14.777  14.293  1.00  0.00     0.244 C 
HETATM    2  O3  UNL     1      14.590 -15.580  13.704  1.00  0.00    -0.271 OA
HETATM    3  N2  UNL     1      15.234 -13.358  14.168  1.00  0.00    -0.327 N 
HETATM    4  C11 UNL     1      14.112 -12.820  13.430  1.00  0.00     0.200 C 
HETATM    5  S1  UNL     1      13.967 -11.150  14.120  1.00  0.00    -0.147 SA
HETATM    6  C12 UNL     1      15.327 -11.273  15.351  1.00  0.00     0.110 C 
HETATM    7  C13 UNL     1      16.120 -12.394  14.702  1.00  0.00     0.190 C 
ENDROOT
BRANCH   1   8
HETATM    8  C4  UNL     1      16.464 -15.437  15.069  1.00  0.00     0.182 C 
BRANCH   8   9
HETATM    9  C2  UNL     1      15.876 -16.362  16.130  1.00  0.00     0.009 C 
HETATM   10  C1  UNL     1      16.898 -17.129  16.876  1.00  0.00     0.012 C 
HETATM   11  C3  UNL     1      14.927 -15.664  17.056  1.00  0.00     0.012 C 
ENDBRANCH   8   9
BRANCH   8  12
HETATM   12  N1  UNL     1      17.239 -16.290  14.139  1.00  0.00    -0.323 N 
HETATM   13  C5  UNL     1      18.467 -15.861  13.609  1.00  0.00     0.362 C 
HETATM   14  O1  UNL     1      18.919 -14.736  13.927  1.00  0.00    -0.238 OA
ATOM     15  H1  UNL     1      16.875 -17.207  13.879  1.00  0.00     0.165 HD
BRANCH  13  16
HETATM   16  O2  UNL     1      19.241 -16.601  12.741  1.00  0.00    -0.294 OA
BRANCH  16  17
HETATM   17  C6  UNL     1      18.863 -16.839  11.436  1.00  0.00     0.061 C 
HETATM   18  C7  UNL     1      20.077 -16.933  10.553  1.00  0.00     0.046 C 
HETATM   19  C8  UNL     1      18.150 -18.195  11.319  1.00  0.00     0.046 C 
HETATM   20  C9  UNL     1      17.927 -15.824  10.840  1.00  0.00     0.046 C 
ENDBRANCH  16  17
ENDBRANCH  13  16
ENDBRANCH   8  12
ENDBRANCH   1   8
BRANCH   7  21
HETATM   21  C14 UNL     1      16.999 -11.848  13.645  1.00  0.00     0.247 C 
HETATM   22  O4  UNL     1      17.375 -10.637  13.844  1.00  0.00    -0.271 OA
HETATM   23  N3  UNL     1      17.392 -12.582  12.521  1.00  0.00    -0.305 N 
ATOM     24  H3  UNL     1      17.801 -13.510  12.631  1.00  0.00     0.171 HD
BRANCH  23  25
HETATM   25  C15 UNL     1      17.231 -12.071  11.331  1.00  0.00     0.154 A 
HETATM   26  N4  UNL     1      17.969 -11.201  10.652  1.00  0.00    -0.324 N 
HETATM   27  C16 UNL     1      17.591 -10.846   9.454  1.00  0.00     0.146 A 
ATOM     28  H4  UNL     1      18.820 -10.815  11.060  1.00  0.00     0.169 HD
HETATM   29 CL1  UNL     1      18.512  -9.678   8.453  1.00  0.00    -0.061 Cl
HETATM   30  C17 UNL     1      16.446 -11.390   8.950  1.00  0.00     0.185 A 
HETATM   31  S2  UNL     1      15.945 -12.405  10.230  1.00  0.00    -0.026 SA
BRANCH  30  32
HETATM   32  N5  UNL     1      15.823 -11.163   7.666  1.00  0.00    -0.105 N 
HETATM   33  O5  UNL     1      15.763 -12.142   6.893  1.00  0.00    -0.531 OA
HETATM   34  O6  UNL     1      15.348  -9.935   7.369  1.00  0.00    -0.531 OA
ENDBRANCH  30  32
ENDBRANCH  23  25
ENDBRANCH   7  21
TORSDOF 8
ENDMDL
MODEL 3
REMARK VINA RESULT: -6.966747431      1.518      1.618
REMARK  8 active torsions:
REMARK  status: ('A' for Active; 'I' for Inactive)
REMARK    1  A    between atoms: C2_2  and  C4_4 
REMARK    2  A    between atoms: C4_4  and  N1_5 
REMARK    3  A    between atoms: C4_4  and  C10_14 
REMARK       I    between atoms: N1_5  and  C5_7 
REMARK    4  A    between atoms: C5_7  and  O2_9 
REMARK    5  A    between atoms: O2_9  and  C6_10 
REMARK       I    between atoms: C10_14  and  N2_16 
REMARK    6  A    between atoms: C13_20  and  C14_21 
REMARK       I    between atoms: C14_21  and  N3_23 
REMARK    7  A    between atoms: N3_23  and  C15_25 
REMARK    8  A    between atoms: C17_30  and  N5_31 
ROOT
HETATM    1  C10 UNL     1      15.280 -14.914  14.244  1.00  0.00     0.244 C 
HETATM    2  O3  UNL     1      14.616 -15.782  13.569  1.00  0.00    -0.271 OA
HETATM    3  N2  UNL     1      14.941 -13.522  14.168  1.00  0.00    -0.327 N 
HETATM    4  C11 UNL     1      13.806 -13.093  13.380  1.00  0.00     0.200 C 
HETATM    5  S1  UNL     1      13.407 -11.491  14.128  1.00  0.00    -0.147 SA
HETATM    6  C12 UNL     1      14.695 -11.504  15.440  1.00  0.00     0.110 C 
HETATM    7  C13 UNL     1      15.662 -12.482  14.799  1.00  0.00     0.190 C 
ENDROOT
BRANCH   1   8
HETATM    8  C4  UNL     1      16.371 -15.474  15.060  1.00  0.00     0.182 C 
BRANCH   8   9
HETATM    9  C2  UNL     1      15.824 -16.376  16.162  1.00  0.00     0.009 C 
HETATM   10  C1  UNL     1      16.875 -17.126  16.885  1.00  0.00     0.012 C 
HETATM   11  C3  UNL     1      14.909 -15.659  17.108  1.00  0.00     0.012 C 
ENDBRANCH   8   9
BRANCH   8  12
HETATM   12  N1  UNL     1      17.202 -16.326  14.181  1.00  0.00    -0.323 N 
HETATM   13  C5  UNL     1      18.413 -15.858  13.645  1.00  0.00     0.362 C 
HETATM   14  O1  UNL     1      18.802 -14.698  13.916  1.00  0.00    -0.238 OA
ATOM     15  H1  UNL     1      16.889 -17.272  13.959  1.00  0.00     0.165 HD
BRANCH  13  16
HETATM   16  O2  UNL     1      19.237 -16.596  12.822  1.00  0.00    -0.294 OA
BRANCH  16  17
HETATM   17  C6  UNL     1      18.935 -16.832  11.497  1.00  0.00     0.061 C 
HETATM   18  C7  UNL     1      20.184 -16.769  10.661  1.00  0.00     0.046 C 
HETATM   19  C8  UNL     1      18.375 -18.251  11.316  1.00  0.00     0.046 C 
HETATM   20  C9  UNL     1      17.919 -15.904  10.892  1.00  0.00     0.046 C 
ENDBRANCH  16  17
ENDBRANCH  13  16
ENDBRANCH   8  12
ENDBRANCH   1   8
BRANCH   7  21
HETATM   21  C14 UNL     1      16.526 -11.779  13.826  1.00  0.00     0.247 C 
HETATM   22  O4  UNL     1      16.513 -10.500  13.935  1.00  0.00    -0.271 OA
HETATM   23  N3  UNL     1      17.295 -12.443  12.865  1.00  0.00    -0.305 N 
ATOM     24  H3  UNL     1      17.919 -13.201  13.141  1.00  0.00     0.171 HD
BRANCH  23  25
HETATM   25  C15 UNL     1      17.209 -12.085  11.613  1.00  0.00     0.154 A 
HETATM   26  N4  UNL     1      16.352 -12.443  10.664  1.00  0.00    -0.324 N 
HETATM   27  C16 UNL     1      16.476 -11.931   9.470  1.00  0.00     0.146 A 
ATOM     28  H4  UNL     1      15.607 -13.110  10.865  1.00  0.00     0.169 HD
HETATM   29 CL1  UNL     1      15.375 -12.346   8.117  1.00  0.00    -0.061 Cl
HETATM   30  C17 UNL     1      17.489 -11.043   9.250  1.00  0.00     0.185 A 
HETATM   31  S2  UNL     1      18.237 -10.975  10.784  1.00  0.00    -0.026 SA
BRANCH  30  32
HETATM   32  N5  UNL     1      17.833 -10.345   8.032  1.00  0.00    -0.105 N 
HETATM   33  O5  UNL     1      18.842 -10.751   7.420  1.00  0.00    -0.531 OA
HETATM   34  O6  UNL     1      17.065  -9.312   7.623  1.00  0.00    -0.531 OA
ENDBRANCH  30  32
ENDBRANCH  23  25
ENDBRANCH   7  21
TORSDOF 8
ENDMDL
MODEL 4
REMARK VINA RESULT: -6.942222653      2.394      2.619
REMARK  8 active torsions:
REMARK  status: ('A' for Active; 'I' for Inactive)
REMARK    1  A    between atoms: C2_2  and  C4_4 
REMARK    2  A    between atoms: C4_4  and  N1_5 
REMARK    3  A    between atoms: C4_4  and  C10_14 
REMARK       I    between atoms: N1_5  and  C5_7 
REMARK    4  A    between atoms: C5_7  and  O2_9 
REMARK    5  A    between atoms: O2_9  and  C6_10 
REMARK       I    between atoms: C10_14  and  N2_16 
REMARK    6  A    between atoms: C13_20  and  C14_21 
REMARK       I    between atoms: C14_21  and  N3_23 
REMARK    7  A    between atoms: N3_23  and  C15_25 
REMARK    8  A    between atoms: C17_30  and  N5_31 
ROOT
HETATM    1  C10 UNL     1      15.623 -14.308  13.738  1.00  0.00     0.244 C 
HETATM    2  O3  UNL     1      14.981 -14.998  12.865  1.00  0.00    -0.271 OA
HETATM    3  N2  UNL     1      15.483 -12.881  13.779  1.00  0.00    -0.327 N 
HETATM    4  C11 UNL     1      14.568 -12.214  12.879  1.00  0.00     0.200 C 
HETATM    5  S1  UNL     1      14.254 -10.652  13.744  1.00  0.00    -0.147 SA
HETATM    6  C12 UNL     1      15.280 -10.984  15.233  1.00  0.00     0.110 C 
HETATM    7  C13 UNL     1      16.211 -12.026  14.639  1.00  0.00     0.190 C 
ENDROOT
BRANCH   1   8
HETATM    8  C4  UNL     1      16.472 -15.100  14.643  1.00  0.00     0.182 C 
BRANCH   8   9
HETATM    9  C2  UNL     1      15.627 -15.955  15.582  1.00  0.00     0.009 C 
HETATM   10  C1  UNL     1      16.430 -16.821  16.475  1.00  0.00     0.012 C 
HETATM   11  C3  UNL     1      14.615 -15.160  16.349  1.00  0.00     0.012 C 
ENDBRANCH   8   9
BRANCH   8  12
HETATM   12  N1  UNL     1      17.269 -16.033  13.814  1.00  0.00    -0.323 N 
HETATM   13  C5  UNL     1      18.536 -15.673  13.326  1.00  0.00     0.362 C 
HETATM   14  O1  UNL     1      19.005 -14.543  13.595  1.00  0.00    -0.238 OA
ATOM     15  H1  UNL     1      16.891 -16.955  13.594  1.00  0.00     0.165 HD
BRANCH  13  16
HETATM   16  O2  UNL     1      19.332 -16.490  12.551  1.00  0.00    -0.294 OA
BRANCH  16  17
HETATM   17  C6  UNL     1      18.975 -16.872  11.275  1.00  0.00     0.061 C 
HETATM   18  C7  UNL     1      20.197 -16.975  10.403  1.00  0.00     0.046 C 
HETATM   19  C8  UNL     1      18.344 -18.272  11.286  1.00  0.00     0.046 C 
HETATM   20  C9  UNL     1      17.983 -15.975  10.587  1.00  0.00     0.046 C 
ENDBRANCH  16  17
ENDBRANCH  13  16
ENDBRANCH   8  12
ENDBRANCH   1   8
BRANCH   7  21
HETATM   21  C14 UNL     1      17.315 -11.366  13.910  1.00  0.00     0.247 C 
HETATM   22  O4  UNL     1      17.601 -10.190  14.338  1.00  0.00    -0.271 OA
HETATM   23  N3  UNL     1      17.994 -11.963  12.844  1.00  0.00    -0.305 N 
ATOM     24  H3  UNL     1      18.383 -12.900  12.943  1.00  0.00     0.171 HD
BRANCH  23  25
HETATM   25  C15 UNL     1      18.126 -11.313  11.720  1.00  0.00     0.154 A 
HETATM   26  N4  UNL     1      18.434 -10.043  11.481  1.00  0.00    -0.324 N 
HETATM   27  C16 UNL     1      18.511  -9.629  10.246  1.00  0.00     0.146 A 
ATOM     28  H4  UNL     1      18.609  -9.400  12.253  1.00  0.00     0.169 HD
HETATM   29 CL1  UNL     1      18.918  -7.938   9.813  1.00  0.00    -0.061 Cl
HETATM   30  C17 UNL     1      18.269 -10.528   9.247  1.00  0.00     0.185 A 
HETATM   31  S2  UNL     1      17.935 -11.952  10.129  1.00  0.00    -0.026 SA
BRANCH  30  32
HETATM   32  N5  UNL     1      18.292 -10.321   7.817  1.00  0.00    -0.105 N 
HETATM   33  O5  UNL     1      17.298  -9.754   7.319  1.00  0.00    -0.531 OA
HETATM   34  O6  UNL     1      19.361 -10.739   7.106  1.00  0.00    -0.531 OA
ENDBRANCH  30  32
ENDBRANCH  23  25
ENDBRANCH   7  21
TORSDOF 8
ENDMDL
MODEL 5
REMARK VINA RESULT: -6.941423742      4.151      6.395
REMARK  8 active torsions:
REMARK  status: ('A' for Active; 'I' for Inactive)
REMARK    1  A    between atoms: C2_2  and  C4_4 
REMARK    2  A    between atoms: C4_4  and  N1_5 
REMARK    3  A    between atoms: C4_4  and  C10_14 
REMARK       I    between atoms: N1_5  and  C5_7 
REMARK    4  A    between atoms: C5_7  and  O2_9 
REMARK    5  A    between atoms: O2_9  and  C6_10 
REMARK       I    between atoms: C10_14  and  N2_16 
REMARK    6  A    between atoms: C13_20  and  C14_21 
REMARK       I    between atoms: C14_21  and  N3_23 
REMARK    7  A    between atoms: N3_23  and  C15_25 
REMARK    8  A    between atoms: C17_30  and  N5_31 
ROOT
HETATM    1  C10 UNL     1      20.644 -16.651  10.484  1.00  0.00     0.244 C 
HETATM    2  O3  UNL     1      20.280 -17.644   9.756  1.00  0.00    -0.271 OA
HETATM    3  N2  UNL     1      19.921 -16.323  11.679  1.00  0.00    -0.327 N 
HETATM    4  C11 UNL     1      18.812 -17.149  12.107  1.00  0.00     0.200 C 
HETATM    5  S1  UNL     1      18.716 -16.769  13.876  1.00  0.00    -0.147 SA
HETATM    6  C12 UNL     1      20.143 -15.613  13.959  1.00  0.00     0.110 C 
HETATM    7  C13 UNL     1      20.186 -15.202  12.498  1.00  0.00     0.190 C 
ENDROOT
BRANCH   1   8
HETATM    8  C4  UNL     1      21.824 -15.924   9.985  1.00  0.00     0.182 C 
BRANCH   8   9
HETATM    9  C2  UNL     1      23.056 -16.228  10.832  1.00  0.00     0.009 C 
HETATM   10  C1  UNL     1      24.211 -16.707  10.042  1.00  0.00     0.012 C 
HETATM   11  C3  UNL     1      23.438 -15.099  11.740  1.00  0.00     0.012 C 
ENDBRANCH   8   9
BRANCH   8  12
HETATM   12  N1  UNL     1      22.112 -16.413   8.618  1.00  0.00    -0.323 N 
HETATM   13  C5  UNL     1      21.905 -15.598   7.494  1.00  0.00     0.362 C 
HETATM   14  O1  UNL     1      21.471 -14.432   7.645  1.00  0.00    -0.238 OA
ATOM     15  H1  UNL     1      22.466 -17.362   8.490  1.00  0.00     0.165 HD
BRANCH  13  16
HETATM   16  O2  UNL     1      22.153 -15.987   6.194  1.00  0.00    -0.294 OA
BRANCH  16  17
HETATM   17  C6  UNL     1      23.421 -15.982   5.652  1.00  0.00     0.061 C 
HETATM   18  C7  UNL     1      23.556 -17.085   4.638  1.00  0.00     0.046 C 
HETATM   19  C8  UNL     1      23.679 -14.674   4.891  1.00  0.00     0.046 C 
HETATM   20  C9  UNL     1      24.546 -16.117   6.642  1.00  0.00     0.046 C 
ENDBRANCH  16  17
ENDBRANCH  13  16
ENDBRANCH   8  12
ENDBRANCH   1   8
BRANCH   7  21
HETATM   21  C14 UNL     1      19.206 -14.124  12.244  1.00  0.00     0.247 C 
HETATM   22  O4  UNL     1      19.150 -13.233  13.166  1.00  0.00    -0.271 OA
HETATM   23  N3  UNL     1      18.405 -14.071  11.100  1.00  0.00    -0.305 N 
ATOM     24  H3  UNL     1      18.826 -14.150  10.174  1.00  0.00     0.171 HD
BRANCH  23  25
HETATM   25  C15 UNL     1      17.114 -13.921  11.224  1.00  0.00     0.154 A 
HETATM   26  N4  UNL     1      16.258 -14.448  12.091  1.00  0.00    -0.324 N 
HETATM   27  C16 UNL     1      14.994 -14.130  12.009  1.00  0.00     0.146 A 
ATOM     28  H4  UNL     1      16.582 -15.092  12.812  1.00  0.00     0.169 HD
HETATM   29 CL1  UNL     1      13.755 -14.784  13.128  1.00  0.00    -0.061 Cl
HETATM   30  C17 UNL     1      14.609 -13.263  11.028  1.00  0.00     0.185 A 
HETATM   31  S2  UNL     1      16.092 -12.932  10.248  1.00  0.00    -0.026 SA
BRANCH  30  32
HETATM   32  N5  UNL     1      13.286 -12.760  10.732  1.00  0.00    -0.105 N 
HETATM   33  O5  UNL     1      13.064 -11.567  11.026  1.00  0.00    -0.531 OA
HETATM   34  O6  UNL     1      12.378 -13.582  10.165  1.00  0.00    -0.531 OA
ENDBRANCH  30  32
ENDBRANCH  23  25
ENDBRANCH   7  21
TORSDOF 8
ENDMDL
