MODEL 1
REMARK VINA RESULT: -8.391646868      0.000      0.000
REMARK  9 active torsions:
REMARK  status: ('A' for Active; 'I' for Inactive)
REMARK    1  A    between atoms: O1_2  and  C2_3 
REMARK    2  A    between atoms: C2_3  and  C3_7 
REMARK    3  A    between atoms: C4_8  and  C5_9 
REMARK    4  A    between atoms: C8_12  and  N2_13 
REMARK       I    between atoms: N2_13  and  C9_15 
REMARK       I    between atoms: C9_15  and  N3_17 
REMARK    5  A    between atoms: C15_26  and  S1_27 
REMARK    6  A    between atoms: S1_27  and  N5_29 
REMARK    7  A    between atoms: S1_27  and  S2_33 
REMARK    8  A    between atoms: S2_33  and  C17_34 
REMARK    9  A    between atoms: C17_34  and  C18_35 
ROOT
HETATM    1  N5  UNL     1      11.681  33.849 -17.655  1.00  0.00    -0.240 N 
ATOM      2  H5  UNL     1      12.685  33.905 -17.825  1.00  0.00     0.189 HD
HETATM    3  C16 UNL     1      10.772  34.596 -18.456  1.00  0.00     0.190 C 
HETATM    4  N6  UNL     1      10.032  35.210 -19.103  1.00  0.00    -0.171 NA
ENDROOT
BRANCH   1   5
HETATM    5  S1  UNL     1      11.135  32.962 -16.539  1.00  0.00     0.139 S 
HETATM    6  O3  UNL     1       9.639  32.903 -16.827  1.00  0.00    -0.231 OA
BRANCH   5   7
HETATM    7  C15 UNL     1      11.285  33.431 -14.908  1.00  0.00     0.146 A 
HETATM    8  C8  UNL     1      12.447  34.031 -14.392  1.00  0.00     0.074 A 
HETATM    9  C7  UNL     1      12.428  34.434 -13.092  1.00  0.00     0.035 A 
HETATM   10  C6  UNL     1      11.309  34.265 -12.275  1.00  0.00     0.032 A 
HETATM   11  C5  UNL     1      10.194  33.675 -12.798  1.00  0.00     0.033 A 
HETATM   12  N7  UNL     1      10.227  33.289 -14.072  1.00  0.00    -0.346 N 
ATOM     13  H7  UNL     1       9.387  32.851 -14.449  1.00  0.00     0.167 HD
BRANCH   8  14
HETATM   14  N2  UNL     1      13.576  34.121 -15.229  1.00  0.00    -0.306 N 
HETATM   15  C9  UNL     1      14.222  35.299 -15.592  1.00  0.00     0.325 C 
HETATM   16  O2  UNL     1      13.873  36.427 -15.206  1.00  0.00    -0.247 OA
HETATM   17  N3  UNL     1      15.369  35.326 -16.462  1.00  0.00    -0.309 N 
HETATM   18  C10 UNL     1      16.431  34.703 -16.167  1.00  0.00     0.038 A 
ATOM     19  H3  UNL     1      15.325  35.857 -17.331  1.00  0.00     0.170 HD
HETATM   20  C11 UNL     1      17.476  34.810 -17.114  1.00  0.00     0.046 A 
HETATM   21  C14 UNL     1      16.671  33.961 -15.036  1.00  0.00     0.046 A 
HETATM   22  C12 UNL     1      18.657  34.171 -16.845  1.00  0.00     0.090 A 
HETATM   23  N4  UNL     1      18.838  33.453 -15.713  1.00  0.00    -0.375 N 
HETATM   24  C13 UNL     1      17.876  33.328 -14.797  1.00  0.00     0.090 A 
ATOM     25  H4  UNL     1      19.734  32.994 -15.556  1.00  0.00     0.164 HD
ATOM     26  H2  UNL     1      13.952  33.248 -15.601  1.00  0.00     0.171 HD
ENDBRANCH   8  14
BRANCH  11  27
HETATM   27  C4  UNL     1       8.985  33.464 -12.054  1.00  0.00     0.034 C 
HETATM   28  C3  UNL     1       8.102  34.418 -11.894  1.00  0.00     0.058 C 
BRANCH  28  29
HETATM   29  C2  UNL     1       6.892  34.136 -11.118  1.00  0.00     0.135 C 
HETATM   30  N1  UNL     1       6.879  33.125 -10.332  1.00  0.00    -0.380 N 
ATOM     31  H12 UNL     1       6.036  32.929  -9.792  1.00  0.00     0.158 HD
ATOM     32  H11 UNL     1       7.688  32.512 -10.233  1.00  0.00     0.158 HD
BRANCH  29  33
HETATM   33  O1  UNL     1       5.798  34.964 -11.251  1.00  0.00    -0.341 OA
HETATM   34  C1  UNL     1       5.593  35.743 -12.441  1.00  0.00     0.211 C 
ENDBRANCH  29  33
ENDBRANCH  28  29
ENDBRANCH  11  27
ENDBRANCH   5   7
BRANCH   5  35
HETATM   35  S2  UNL     1      12.237  31.271 -16.715  1.00  0.00    -0.046 SA
BRANCH  35  36
HETATM   36  C17 UNL     1      12.550  30.624 -18.252  1.00  0.00     0.128 C 
BRANCH  36  37
HETATM   37  C18 UNL     1      13.909  30.886 -18.783  1.00  0.00    -0.048 A 
HETATM   38  C19 UNL     1      14.796  31.669 -18.055  1.00  0.00     0.011 A 
HETATM   39  C20 UNL     1      16.051  31.872 -18.582  1.00  0.00     0.043 A 
HETATM   40  C21 UNL     1      16.448  31.337 -19.784  1.00  0.00     0.116 A 
HETATM   41  F1  UNL     1      17.686  31.534 -20.312  1.00  0.00    -0.206 F 
HETATM   42  C22 UNL     1      15.570  30.560 -20.509  1.00  0.00     0.043 A 
HETATM   43  C23 UNL     1      14.299  30.353 -19.978  1.00  0.00     0.011 A 
ENDBRANCH  36  37
ENDBRANCH  35  36
ENDBRANCH   5  35
ENDBRANCH   1   5
TORSDOF 9
ENDMDL
MODEL 2
REMARK VINA RESULT: -8.352697218      2.141      7.402
REMARK  9 active torsions:
REMARK  status: ('A' for Active; 'I' for Inactive)
REMARK    1  A    between atoms: O1_2  and  C2_3 
REMARK    2  A    between atoms: C2_3  and  C3_7 
REMARK    3  A    between atoms: C4_8  and  C5_9 
REMARK    4  A    between atoms: C8_12  and  N2_13 
REMARK       I    between atoms: N2_13  and  C9_15 
REMARK       I    between atoms: C9_15  and  N3_17 
REMARK    5  A    between atoms: C15_26  and  S1_27 
REMARK    6  A    between atoms: S1_27  and  N5_29 
REMARK    7  A    between atoms: S1_27  and  S2_33 
REMARK    8  A    between atoms: S2_33  and  C17_34 
REMARK    9  A    between atoms: C17_34  and  C18_35 
ROOT
HETATM    1  N5  UNL     1      11.325  32.632 -17.330  1.00  0.00    -0.240 N 
ATOM      2  H5  UNL     1      10.720  31.856 -17.596  1.00  0.00     0.189 HD
HETATM    3  C16 UNL     1      11.063  33.947 -17.810  1.00  0.00     0.190 C 
HETATM    4  N6  UNL     1      10.855  35.016 -18.205  1.00  0.00    -0.171 NA
ENDROOT
BRANCH   1   5
HETATM    5  S1  UNL     1      12.523  32.399 -16.413  1.00  0.00     0.139 S 
HETATM    6  O3  UNL     1      11.927  31.645 -15.229  1.00  0.00    -0.231 OA
BRANCH   5   7
HETATM    7  C15 UNL     1      13.378  33.716 -15.752  1.00  0.00     0.146 A 
HETATM    8  C8  UNL     1      12.925  34.432 -14.630  1.00  0.00     0.074 A 
HETATM    9  C7  UNL     1      13.726  35.417 -14.141  1.00  0.00     0.035 A 
HETATM   10  C6  UNL     1      14.958  35.731 -14.717  1.00  0.00     0.032 A 
HETATM   11  C5  UNL     1      15.374  35.025 -15.809  1.00  0.00     0.033 A 
HETATM   12  N7  UNL     1      14.581  34.062 -16.273  1.00  0.00    -0.346 N 
ATOM     13  H7  UNL     1      14.905  33.542 -17.088  1.00  0.00     0.167 HD
BRANCH   8  14
HETATM   14  N2  UNL     1      11.646  34.130 -14.121  1.00  0.00    -0.306 N 
HETATM   15  C9  UNL     1      11.377  33.654 -12.841  1.00  0.00     0.325 C 
HETATM   16  O2  UNL     1      12.251  33.443 -11.983  1.00  0.00    -0.247 OA
HETATM   17  N3  UNL     1      10.046  33.354 -12.383  1.00  0.00    -0.309 N 
HETATM   18  C10 UNL     1       9.142  34.241 -12.364  1.00  0.00     0.038 A 
ATOM     19  H3  UNL     1       9.826  32.410 -12.067  1.00  0.00     0.170 HD
HETATM   20  C11 UNL     1       7.880  33.807 -11.896  1.00  0.00     0.046 A 
HETATM   21  C14 UNL     1       9.266  35.559 -12.730  1.00  0.00     0.046 A 
HETATM   22  C12 UNL     1       6.865  34.725 -11.837  1.00  0.00     0.090 A 
HETATM   23  N4  UNL     1       7.044  36.011 -12.211  1.00  0.00    -0.375 N 
HETATM   24  C13 UNL     1       8.219  36.459 -12.658  1.00  0.00     0.090 A 
ATOM     25  H4  UNL     1       6.258  36.659 -12.151  1.00  0.00     0.164 HD
ATOM     26  H2  UNL     1      10.850  34.273 -14.743  1.00  0.00     0.171 HD
ENDBRANCH   8  14
BRANCH  11  27
HETATM   27  C4  UNL     1      16.627  35.253 -16.471  1.00  0.00     0.034 C 
HETATM   28  C3  UNL     1      17.766  35.175 -15.831  1.00  0.00     0.058 C 
BRANCH  28  29
HETATM   29  C2  UNL     1      19.008  35.425 -16.567  1.00  0.00     0.135 C 
HETATM   30  N1  UNL     1      20.121  35.056 -16.053  1.00  0.00    -0.380 N 
ATOM     31  H12 UNL     1      20.985  35.231 -16.565  1.00  0.00     0.158 HD
ATOM     32  H11 UNL     1      20.164  34.593 -15.145  1.00  0.00     0.158 HD
BRANCH  29  33
HETATM   33  O1  UNL     1      18.949  36.051 -17.794  1.00  0.00    -0.341 OA
HETATM   34  C1  UNL     1      19.213  37.457 -17.928  1.00  0.00     0.211 C 
ENDBRANCH  29  33
ENDBRANCH  28  29
ENDBRANCH  11  27
ENDBRANCH   5   7
BRANCH   5  35
HETATM   35  S2  UNL     1      13.846  31.450 -17.618  1.00  0.00    -0.046 SA
BRANCH  35  36
HETATM   36  C17 UNL     1      14.270  32.135 -19.111  1.00  0.00     0.128 C 
BRANCH  36  37
HETATM   37  C18 UNL     1      15.699  32.502 -19.254  1.00  0.00    -0.048 A 
HETATM   38  C19 UNL     1      16.089  33.387 -20.252  1.00  0.00     0.011 A 
HETATM   39  C20 UNL     1      17.424  33.709 -20.334  1.00  0.00     0.043 A 
HETATM   40  C21 UNL     1      18.368  33.192 -19.479  1.00  0.00     0.116 A 
HETATM   41  F1  UNL     1      19.689  33.505 -19.556  1.00  0.00    -0.206 F 
HETATM   42  C22 UNL     1      17.985  32.314 -18.488  1.00  0.00     0.043 A 
HETATM   43  C23 UNL     1      16.633  31.986 -18.402  1.00  0.00     0.011 A 
ENDBRANCH  36  37
ENDBRANCH  35  36
ENDBRANCH   5  35
ENDBRANCH   1   5
TORSDOF 9
ENDMDL
MODEL 3
REMARK VINA RESULT: -8.352127720      2.889      7.890
REMARK  9 active torsions:
REMARK  status: ('A' for Active; 'I' for Inactive)
REMARK    1  A    between atoms: O1_2  and  C2_3 
REMARK    2  A    between atoms: C2_3  and  C3_7 
REMARK    3  A    between atoms: C4_8  and  C5_9 
REMARK    4  A    between atoms: C8_12  and  N2_13 
REMARK       I    between atoms: N2_13  and  C9_15 
REMARK       I    between atoms: C9_15  and  N3_17 
REMARK    5  A    between atoms: C15_26  and  S1_27 
REMARK    6  A    between atoms: S1_27  and  N5_29 
REMARK    7  A    between atoms: S1_27  and  S2_33 
REMARK    8  A    between atoms: S2_33  and  C17_34 
REMARK    9  A    between atoms: C17_34  and  C18_35 
ROOT
HETATM    1  N5  UNL     1      11.688  32.944 -17.322  1.00  0.00    -0.240 N 
ATOM      2  H5  UNL     1      11.576  33.350 -18.251  1.00  0.00     0.189 HD
HETATM    3  C16 UNL     1      10.546  32.622 -16.535  1.00  0.00     0.190 C 
HETATM    4  N6  UNL     1       9.617  32.366 -15.891  1.00  0.00    -0.171 NA
ENDROOT
BRANCH   1   5
HETATM    5  S1  UNL     1      13.080  32.674 -16.758  1.00  0.00     0.139 S 
HETATM    6  O3  UNL     1      12.846  31.566 -15.737  1.00  0.00    -0.231 OA
BRANCH   5   7
HETATM    7  C15 UNL     1      13.936  33.898 -15.939  1.00  0.00     0.146 A 
HETATM    8  C8  UNL     1      13.429  34.552 -14.802  1.00  0.00     0.074 A 
HETATM    9  C7  UNL     1      14.230  35.460 -14.183  1.00  0.00     0.035 A 
HETATM   10  C6  UNL     1      15.514  35.758 -14.642  1.00  0.00     0.032 A 
HETATM   11  C5  UNL     1      15.983  35.114 -15.751  1.00  0.00     0.033 A 
HETATM   12  N7  UNL     1      15.188  34.225 -16.344  1.00  0.00    -0.346 N 
ATOM     13  H7  UNL     1      15.551  33.751 -17.170  1.00  0.00     0.167 HD
BRANCH   8  14
HETATM   14  N2  UNL     1      12.104  34.273 -14.411  1.00  0.00    -0.306 N 
HETATM   15  C9  UNL     1      11.725  33.643 -13.229  1.00  0.00     0.325 C 
HETATM   16  O2  UNL     1      12.527  33.253 -12.365  1.00  0.00    -0.247 OA
HETATM   17  N3  UNL     1      10.351  33.378 -12.892  1.00  0.00    -0.309 N 
HETATM   18  C10 UNL     1       9.505  34.315 -12.795  1.00  0.00     0.038 A 
ATOM     19  H3  UNL     1      10.053  32.416 -12.727  1.00  0.00     0.170 HD
HETATM   20  C11 UNL     1       8.191  33.911 -12.463  1.00  0.00     0.046 A 
HETATM   21  C14 UNL     1       9.735  35.660 -12.960  1.00  0.00     0.046 A 
HETATM   22  C12 UNL     1       7.234  34.881 -12.328  1.00  0.00     0.090 A 
HETATM   23  N4  UNL     1       7.516  36.191 -12.503  1.00  0.00    -0.375 N 
HETATM   24  C13 UNL     1       8.743  36.612 -12.816  1.00  0.00     0.090 A 
ATOM     25  H4  UNL     1       6.771  36.878 -12.393  1.00  0.00     0.164 HD
ATOM     26  H2  UNL     1      11.360  34.557 -15.049  1.00  0.00     0.171 HD
ENDBRANCH   8  14
BRANCH  11  27
HETATM   27  C4  UNL     1      17.290  35.332 -16.302  1.00  0.00     0.034 C 
HETATM   28  C3  UNL     1      18.280  34.507 -16.066  1.00  0.00     0.058 C 
BRANCH  28  29
HETATM   29  C2  UNL     1      19.591  34.792 -16.656  1.00  0.00     0.135 C 
HETATM   30  N1  UNL     1      20.572  35.073 -15.882  1.00  0.00    -0.380 N 
ATOM     31  H12 UNL     1      21.485  35.271 -16.293  1.00  0.00     0.158 HD
ATOM     32  H11 UNL     1      20.464  35.104 -14.869  1.00  0.00     0.158 HD
BRANCH  29  33
HETATM   33  O1  UNL     1      19.737  34.751 -18.026  1.00  0.00    -0.341 OA
HETATM   34  C1  UNL     1      19.486  33.545 -18.767  1.00  0.00     0.211 C 
ENDBRANCH  29  33
ENDBRANCH  28  29
ENDBRANCH  11  27
ENDBRANCH   5   7
BRANCH   5  35
HETATM   35  S2  UNL     1      14.175  32.270 -18.414  1.00  0.00    -0.046 SA
BRANCH  35  36
HETATM   36  C17 UNL     1      14.636  33.532 -19.451  1.00  0.00     0.128 C 
BRANCH  36  37
HETATM   37  C18 UNL     1      13.575  34.524 -19.747  1.00  0.00    -0.048 A 
HETATM   38  C19 UNL     1      13.665  35.809 -19.226  1.00  0.00     0.011 A 
HETATM   39  C20 UNL     1      12.664  36.698 -19.541  1.00  0.00     0.043 A 
HETATM   40  C21 UNL     1      11.595  36.363 -20.338  1.00  0.00     0.116 A 
HETATM   41  F1  UNL     1      10.601  37.236 -20.652  1.00  0.00    -0.206 F 
HETATM   42  C22 UNL     1      11.502  35.089 -20.855  1.00  0.00     0.043 A 
HETATM   43  C23 UNL     1      12.514  34.186 -20.538  1.00  0.00     0.011 A 
ENDBRANCH  36  37
ENDBRANCH  35  36
ENDBRANCH   5  35
ENDBRANCH   1   5
TORSDOF 9
ENDMDL
MODEL 4
REMARK VINA RESULT: -8.302033418      1.977      7.355
REMARK  9 active torsions:
REMARK  status: ('A' for Active; 'I' for Inactive)
REMARK    1  A    between atoms: O1_2  and  C2_3 
REMARK    2  A    between atoms: C2_3  and  C3_7 
REMARK    3  A    between atoms: C4_8  and  C5_9 
REMARK    4  A    between atoms: C8_12  and  N2_13 
REMARK       I    between atoms: N2_13  and  C9_15 
REMARK       I    between atoms: C9_15  and  N3_17 
REMARK    5  A    between atoms: C15_26  and  S1_27 
REMARK    6  A    between atoms: S1_27  and  N5_29 
REMARK    7  A    between atoms: S1_27  and  S2_33 
REMARK    8  A    between atoms: S2_33  and  C17_34 
REMARK    9  A    between atoms: C17_34  and  C18_35 
ROOT
HETATM    1  N5  UNL     1      12.171  35.414 -17.940  1.00  0.00    -0.240 N 
ATOM      2  H5  UNL     1      13.054  35.828 -18.239  1.00  0.00     0.189 HD
HETATM    3  C16 UNL     1      11.047  35.407 -18.814  1.00  0.00     0.190 C 
HETATM    4  N6  UNL     1      10.129  35.406 -19.522  1.00  0.00    -0.171 NA
ENDROOT
BRANCH   1   5
HETATM    5  S1  UNL     1      12.038  34.797 -16.551  1.00  0.00     0.139 S 
HETATM    6  O3  UNL     1      10.858  35.542 -15.937  1.00  0.00    -0.231 OA
BRANCH   5   7
HETATM    7  C15 UNL     1      13.310  34.915 -15.424  1.00  0.00     0.146 A 
HETATM    8  C8  UNL     1      13.168  34.553 -14.073  1.00  0.00     0.074 A 
HETATM    9  C7  UNL     1      14.271  34.616 -13.280  1.00  0.00     0.035 A 
HETATM   10  C6  UNL     1      15.514  35.029 -13.762  1.00  0.00     0.032 A 
HETATM   11  C5  UNL     1      15.627  35.381 -15.077  1.00  0.00     0.033 A 
HETATM   12  N7  UNL     1      14.539  35.310 -15.841  1.00  0.00    -0.346 N 
ATOM     13  H7  UNL     1      14.638  35.575 -16.821  1.00  0.00     0.167 HD
BRANCH   8  14
HETATM   14  N2  UNL     1      11.882  34.207 -13.610  1.00  0.00    -0.306 N 
HETATM   15  C9  UNL     1      11.554  33.891 -12.295  1.00  0.00     0.325 C 
HETATM   16  O2  UNL     1      12.373  33.883 -11.360  1.00  0.00    -0.247 OA
HETATM   17  N3  UNL     1      10.220  33.535 -11.887  1.00  0.00    -0.309 N 
HETATM   18  C10 UNL     1       9.248  34.328 -12.056  1.00  0.00     0.038 A 
ATOM     19  H3  UNL     1      10.055  32.628 -11.452  1.00  0.00     0.170 HD
HETATM   20  C11 UNL     1       7.994  33.849 -11.614  1.00  0.00     0.046 A 
HETATM   21  C14 UNL     1       9.292  35.589 -12.601  1.00  0.00     0.046 A 
HETATM   22  C12 UNL     1       6.905  34.668 -11.756  1.00  0.00     0.090 A 
HETATM   23  N4  UNL     1       7.006  35.900 -12.300  1.00  0.00    -0.375 N 
HETATM   24  C13 UNL     1       8.171  36.388 -12.730  1.00  0.00     0.090 A 
ATOM     25  H4  UNL     1       6.167  36.474 -12.386  1.00  0.00     0.164 HD
ATOM     26  H2  UNL     1      11.128  34.187 -14.298  1.00  0.00     0.171 HD
ENDBRANCH   8  14
BRANCH  11  27
HETATM   27  C4  UNL     1      16.856  35.807 -15.682  1.00  0.00     0.034 C 
HETATM   28  C3  UNL     1      17.847  34.974 -15.881  1.00  0.00     0.058 C 
BRANCH  28  29
HETATM   29  C2  UNL     1      19.078  35.476 -16.499  1.00  0.00     0.135 C 
HETATM   30  N1  UNL     1      20.206  35.039 -16.081  1.00  0.00    -0.380 N 
ATOM     31  H12 UNL     1      21.062  35.389 -16.511  1.00  0.00     0.158 HD
ATOM     32  H11 UNL     1      20.270  34.351 -15.330  1.00  0.00     0.158 HD
BRANCH  29  33
HETATM   33  O1  UNL     1      18.991  36.406 -17.513  1.00  0.00    -0.341 OA
HETATM   34  C1  UNL     1      18.853  36.001 -18.885  1.00  0.00     0.211 C 
ENDBRANCH  29  33
ENDBRANCH  28  29
ENDBRANCH  11  27
ENDBRANCH   5   7
BRANCH   5  35
HETATM   35  S2  UNL     1      11.852  32.818 -16.944  1.00  0.00    -0.046 SA
BRANCH  35  36
HETATM   36  C17 UNL     1      13.123  31.759 -16.566  1.00  0.00     0.128 C 
BRANCH  36  37
HETATM   37  C18 UNL     1      14.212  31.696 -17.571  1.00  0.00    -0.048 A 
HETATM   38  C19 UNL     1      14.063  30.906 -18.704  1.00  0.00     0.011 A 
HETATM   39  C20 UNL     1      15.094  30.893 -19.613  1.00  0.00     0.043 A 
HETATM   40  C21 UNL     1      16.248  31.620 -19.441  1.00  0.00     0.116 A 
HETATM   41  F1  UNL     1      17.272  31.610 -20.336  1.00  0.00    -0.206 F 
HETATM   42  C22 UNL     1      16.399  32.404 -18.318  1.00  0.00     0.043 A 
HETATM   43  C23 UNL     1      15.356  32.420 -17.394  1.00  0.00     0.011 A 
ENDBRANCH  36  37
ENDBRANCH  35  36
ENDBRANCH   5  35
ENDBRANCH   1   5
TORSDOF 9
ENDMDL
MODEL 5
REMARK VINA RESULT: -8.269233749      2.926      4.060
REMARK  9 active torsions:
REMARK  status: ('A' for Active; 'I' for Inactive)
REMARK    1  A    between atoms: O1_2  and  C2_3 
REMARK    2  A    between atoms: C2_3  and  C3_7 
REMARK    3  A    between atoms: C4_8  and  C5_9 
REMARK    4  A    between atoms: C8_12  and  N2_13 
REMARK       I    between atoms: N2_13  and  C9_15 
REMARK       I    between atoms: C9_15  and  N3_17 
REMARK    5  A    between atoms: C15_26  and  S1_27 
REMARK    6  A    between atoms: S1_27  and  N5_29 
REMARK    7  A    between atoms: S1_27  and  S2_33 
REMARK    8  A    between atoms: S2_33  and  C17_34 
REMARK    9  A    between atoms: C17_34  and  C18_35 
ROOT
HETATM    1  N5  UNL     1      11.808  32.858 -16.575  1.00  0.00    -0.240 N 
ATOM      2  H5  UNL     1      11.722  32.789 -17.589  1.00  0.00     0.189 HD
HETATM    3  C16 UNL     1      10.886  32.183 -15.727  1.00  0.00     0.190 C 
HETATM    4  N6  UNL     1      10.131  31.640 -15.035  1.00  0.00    -0.171 NA
ENDROOT
BRANCH   1   5
HETATM    5  S1  UNL     1      12.927  33.686 -15.950  1.00  0.00     0.139 S 
HETATM    6  O3  UNL     1      14.185  32.883 -16.260  1.00  0.00    -0.231 OA
BRANCH   5   7
HETATM    7  C15 UNL     1      12.955  33.979 -14.272  1.00  0.00     0.146 A 
HETATM    8  C8  UNL     1      14.043  34.588 -13.622  1.00  0.00     0.074 A 
HETATM    9  C7  UNL     1      13.926  34.842 -12.291  1.00  0.00     0.035 A 
HETATM   10  C6  UNL     1      12.778  34.515 -11.568  1.00  0.00     0.032 A 
HETATM   11  C5  UNL     1      11.736  33.919 -12.219  1.00  0.00     0.033 A 
HETATM   12  N7  UNL     1      11.865  33.680 -13.522  1.00  0.00    -0.346 N 
ATOM     13  H7  UNL     1      11.079  33.236 -13.996  1.00  0.00     0.167 HD
BRANCH   8  14
HETATM   14  N2  UNL     1      15.208  34.840 -14.374  1.00  0.00    -0.306 N 
HETATM   15  C9  UNL     1      16.511  34.788 -13.887  1.00  0.00     0.325 C 
HETATM   16  O2  UNL     1      16.801  34.502 -12.713  1.00  0.00    -0.247 OA
HETATM   17  N3  UNL     1      17.662  35.067 -14.705  1.00  0.00    -0.309 N 
HETATM   18  C10 UNL     1      17.906  34.392 -15.748  1.00  0.00     0.038 A 
ATOM     19  H3  UNL     1      18.294  35.823 -14.440  1.00  0.00     0.170 HD
HETATM   20  C11 UNL     1      19.066  34.777 -16.460  1.00  0.00     0.046 A 
HETATM   21  C14 UNL     1      17.181  33.333 -16.239  1.00  0.00     0.046 A 
HETATM   22  C12 UNL     1      19.392  34.074 -17.589  1.00  0.00     0.090 A 
HETATM   23  N4  UNL     1      18.640  33.039 -18.027  1.00  0.00    -0.375 N 
HETATM   24  C13 UNL     1      17.539  32.646 -17.383  1.00  0.00     0.090 A 
ATOM     25  H4  UNL     1      18.922  32.546 -18.873  1.00  0.00     0.164 HD
ATOM     26  H2  UNL     1      15.086  35.081 -15.358  1.00  0.00     0.171 HD
ENDBRANCH   8  14
BRANCH  11  27
HETATM   27  C4  UNL     1      10.505  33.553 -11.578  1.00  0.00     0.034 C 
HETATM   28  C3  UNL     1       9.351  33.683 -12.183  1.00  0.00     0.058 C 
BRANCH  28  29
HETATM   29  C2  UNL     1       8.132  33.294 -11.469  1.00  0.00     0.135 C 
HETATM   30  N1  UNL     1       7.970  32.068 -11.139  1.00  0.00    -0.380 N 
ATOM     31  H12 UNL     1       7.121  31.797 -10.642  1.00  0.00     0.158 HD
ATOM     32  H11 UNL     1       8.666  31.356 -11.360  1.00  0.00     0.158 HD
BRANCH  29  33
HETATM   33  O1  UNL     1       7.191  34.256 -11.170  1.00  0.00    -0.341 OA
HETATM   34  C1  UNL     1       7.069  35.451 -11.959  1.00  0.00     0.211 C 
ENDBRANCH  29  33
ENDBRANCH  28  29
ENDBRANCH  11  27
ENDBRANCH   5   7
BRANCH   5  35
HETATM   35  S2  UNL     1      12.687  35.506 -16.808  1.00  0.00    -0.046 SA
BRANCH  35  36
HETATM   36  C17 UNL     1      12.976  35.701 -18.469  1.00  0.00     0.128 C 
BRANCH  36  37
HETATM   37  C18 UNL     1      11.766  35.691 -19.325  1.00  0.00    -0.048 A 
HETATM   38  C19 UNL     1      11.655  36.592 -20.376  1.00  0.00     0.011 A 
HETATM   39  C20 UNL     1      10.520  36.533 -21.151  1.00  0.00     0.043 A 
HETATM   40  C21 UNL     1       9.510  35.629 -20.924  1.00  0.00     0.116 A 
HETATM   41  F1  UNL     1       8.385  35.567 -21.685  1.00  0.00    -0.206 F 
HETATM   42  C22 UNL     1       9.617  34.734 -19.881  1.00  0.00     0.043 A 
HETATM   43  C23 UNL     1      10.765  34.791 -19.094  1.00  0.00     0.011 A 
ENDBRANCH  36  37
ENDBRANCH  35  36
ENDBRANCH   5  35
ENDBRANCH   1   5
TORSDOF 9
ENDMDL
