MODEL 1
REMARK VINA RESULT: -9.261736717      0.000      0.000
REMARK  7 active torsions:
REMARK  status: ('A' for Active; 'I' for Inactive)
REMARK    1  A    between atoms: C6_8  and  C7_9 
REMARK    2  A    between atoms: C7_9  and  N2_10 
REMARK    3  A    between atoms: C7_9  and  C15_25 
REMARK       I    between atoms: N2_10  and  C8_12 
REMARK       I    between atoms: C8_12  and  N3_14 
REMARK    4  A    between atoms: N3_14  and  C9_16 
REMARK    5  A    between atoms: C12_19  and  N4_20 
REMARK       I    between atoms: C15_25  and  N5_27 
REMARK    6  A    between atoms: N5_27  and  N6_29 
REMARK    7  A    between atoms: C16_31  and  C17_32 
ROOT
HETATM    1  C7  UNL     1       6.207  35.102 -12.985  1.00  0.00     0.215 C 
ENDROOT
BRANCH   1   2
HETATM    2  C6  UNL     1       5.555  34.939 -11.684  1.00  0.00    -0.004 A 
HETATM    3  C2  UNL     1       4.323  35.375 -11.422  1.00  0.00     0.013 A 
HETATM    4  C1  UNL     1       3.474  36.039 -12.398  1.00  0.00     0.068 C 
HETATM    5  N1  UNL     1       3.783  35.219 -10.171  1.00  0.00    -0.369 N 
HETATM    6  C3  UNL     1       4.517  34.617  -9.208  1.00  0.00     0.088 A 
ATOM      7  H1  UNL     1       2.840  35.553  -9.970  1.00  0.00     0.165 HD
HETATM    8  C4  UNL     1       5.793  34.150  -9.436  1.00  0.00     0.018 A 
HETATM    9  C5  UNL     1       6.328  34.309 -10.692  1.00  0.00     0.013 A 
ENDBRANCH   1   2
BRANCH   1  10
HETATM   10  N2  UNL     1       6.231  33.818 -13.648  1.00  0.00    -0.325 N 
HETATM   11  C8  UNL     1       5.413  33.611 -14.830  1.00  0.00     0.321 C 
HETATM   12  O1  UNL     1       4.749  34.620 -15.185  1.00  0.00    -0.247 OA
HETATM   13  N3  UNL     1       5.392  32.383 -15.486  1.00  0.00    -0.309 N 
ATOM     14  H3  UNL     1       5.959  31.631 -15.095  1.00  0.00     0.170 HD
ATOM     15  H2  UNL     1       6.818  33.064 -13.290  1.00  0.00     0.165 HD
BRANCH  13  16
HETATM   16  C9  UNL     1       4.643  32.096 -16.655  1.00  0.00     0.036 A 
HETATM   17  C10 UNL     1       5.177  32.042 -17.904  1.00  0.00     0.032 A 
HETATM   18  C11 UNL     1       4.415  31.802 -19.041  1.00  0.00     0.038 A 
HETATM   19  C12 UNL     1       3.043  31.601 -18.966  1.00  0.00     0.103 A 
HETATM   20  C13 UNL     1       2.499  31.653 -17.707  1.00  0.00     0.038 A 
HETATM   21  C14 UNL     1       3.248  31.891 -16.579  1.00  0.00     0.032 A 
BRANCH  19  22
HETATM   22  N4  UNL     1       2.280  31.368 -20.125  1.00  0.00    -0.116 N 
HETATM   23  O2  UNL     1       2.562  32.019 -21.171  1.00  0.00    -0.532 OA
HETATM   24  O3  UNL     1       1.250  30.474 -20.167  1.00  0.00    -0.532 OA
ENDBRANCH  19  22
ENDBRANCH  13  16
ENDBRANCH   1  10
BRANCH   1  25
HETATM   25  C15 UNL     1       7.624  35.524 -12.675  1.00  0.00     0.263 C 
HETATM   26  O4  UNL     1       7.833  36.685 -12.261  1.00  0.00    -0.269 OA
HETATM   27  N5  UNL     1       8.672  34.625 -12.857  1.00  0.00    -0.268 N 
ATOM     28  H5  UNL     1       8.416  33.694 -13.184  1.00  0.00     0.190 HD
BRANCH  27  29
HETATM   29  N6  UNL     1      10.025  34.850 -12.645  1.00  0.00    -0.308 N 
HETATM   30  C16 UNL     1      10.852  34.272 -13.555  1.00  0.00     0.126 C 
ATOM     31  H6  UNL     1      10.373  35.408 -11.865  1.00  0.00     0.186 HD
BRANCH  30  32
HETATM   32  C17 UNL     1      12.291  34.478 -13.372  1.00  0.00     0.023 A 
HETATM   33  C18 UNL     1      12.947  34.615 -12.171  1.00  0.00     0.022 A 
HETATM   34  C19 UNL     1      14.270  34.775 -12.210  1.00  0.00     0.028 A 
HETATM   35  C20 UNL     1      14.872  34.792 -13.440  1.00  0.00     0.052 A 
HETATM   36 BR1  UNL     1      16.751  35.004 -13.811  1.00  0.00    -0.043 Br
HETATM   37  S1  UNL     1      13.549  34.580 -14.513  1.00  0.00    -0.081 SA
ENDBRANCH  30  32
ENDBRANCH  27  29
ENDBRANCH   1  25
TORSDOF 7
ENDMDL
MODEL 2
REMARK VINA RESULT: -8.647578097      2.316      2.516
REMARK  7 active torsions:
REMARK  status: ('A' for Active; 'I' for Inactive)
REMARK    1  A    between atoms: C6_8  and  C7_9 
REMARK    2  A    between atoms: C7_9  and  N2_10 
REMARK    3  A    between atoms: C7_9  and  C15_25 
REMARK       I    between atoms: N2_10  and  C8_12 
REMARK       I    between atoms: C8_12  and  N3_14 
REMARK    4  A    between atoms: N3_14  and  C9_16 
REMARK    5  A    between atoms: C12_19  and  N4_20 
REMARK       I    between atoms: C15_25  and  N5_27 
REMARK    6  A    between atoms: N5_27  and  N6_29 
REMARK    7  A    between atoms: C16_31  and  C17_32 
ROOT
HETATM    1  C7  UNL     1       5.348  35.111 -13.204  1.00  0.00     0.215 C 
ENDROOT
BRANCH   1   2
HETATM    2  C6  UNL     1       5.094  34.938 -11.773  1.00  0.00    -0.004 A 
HETATM    3  C2  UNL     1       3.982  35.355 -11.169  1.00  0.00     0.013 A 
HETATM    4  C1  UNL     1       2.880  36.006 -11.861  1.00  0.00     0.068 C 
HETATM    5  N1  UNL     1       3.821  35.191  -9.818  1.00  0.00    -0.369 N 
HETATM    6  C3  UNL     1       4.808  34.601  -9.105  1.00  0.00     0.088 A 
ATOM      7  H1  UNL     1       2.969  35.511  -9.355  1.00  0.00     0.165 HD
HETATM    8  C4  UNL     1       5.973  34.154  -9.688  1.00  0.00     0.018 A 
HETATM    9  C5  UNL     1       6.127  34.321 -11.043  1.00  0.00     0.013 A 
ENDBRANCH   1   2
BRANCH   1  10
HETATM   10  N2  UNL     1       4.707  34.029 -13.916  1.00  0.00    -0.325 N 
HETATM   11  C8  UNL     1       3.612  34.323 -14.825  1.00  0.00     0.321 C 
HETATM   12  O1  UNL     1       3.331  35.547 -14.919  1.00  0.00    -0.247 OA
HETATM   13  N3  UNL     1       2.955  33.308 -15.513  1.00  0.00    -0.309 N 
ATOM     14  H3  UNL     1       3.261  32.349 -15.342  1.00  0.00     0.170 HD
ATOM     15  H2  UNL     1       5.020  33.067 -13.782  1.00  0.00     0.165 HD
BRANCH  13  16
HETATM   16  C9  UNL     1       1.894  33.501 -16.433  1.00  0.00     0.036 A 
HETATM   17  C10 UNL     1       2.037  34.115 -17.638  1.00  0.00     0.032 A 
HETATM   18  C11 UNL     1       0.973  34.333 -18.505  1.00  0.00     0.038 A 
HETATM   19  C12 UNL     1      -0.317  33.929 -18.186  1.00  0.00     0.103 A 
HETATM   20  C13 UNL     1      -0.466  33.308 -16.971  1.00  0.00     0.038 A 
HETATM   21  C14 UNL     1       0.582  33.091 -16.110  1.00  0.00     0.032 A 
BRANCH  19  22
HETATM   22  N4  UNL     1      -1.388  34.163 -19.068  1.00  0.00    -0.116 N 
HETATM   23  O2  UNL     1      -1.149  34.200 -20.308  1.00  0.00    -0.532 OA
HETATM   24  O3  UNL     1      -2.671  34.355 -18.643  1.00  0.00    -0.532 OA
ENDBRANCH  19  22
ENDBRANCH  13  16
ENDBRANCH   1  10
BRANCH   1  25
HETATM   25  C15 UNL     1       6.846  34.991 -13.366  1.00  0.00     0.263 C 
HETATM   26  O4  UNL     1       7.312  33.996 -13.963  1.00  0.00    -0.269 OA
HETATM   27  N5  UNL     1       7.681  35.979 -12.851  1.00  0.00    -0.268 N 
ATOM     28  H5  UNL     1       7.221  36.764 -12.392  1.00  0.00     0.190 HD
BRANCH  27  29
HETATM   29  N6  UNL     1       9.068  36.017 -12.891  1.00  0.00    -0.308 N 
HETATM   30  C16 UNL     1       9.680  34.819 -12.708  1.00  0.00     0.126 C 
ATOM     31  H6  UNL     1       9.588  36.881 -13.046  1.00  0.00     0.186 HD
BRANCH  30  32
HETATM   32  C17 UNL     1      11.145  34.807 -12.738  1.00  0.00     0.023 A 
HETATM   33  C18 UNL     1      11.973  34.234 -11.801  1.00  0.00     0.022 A 
HETATM   34  C19 UNL     1      13.287  34.311 -12.015  1.00  0.00     0.028 A 
HETATM   35  C20 UNL     1      13.709  34.954 -13.149  1.00  0.00     0.052 A 
HETATM   36 BR1  UNL     1      15.529  35.221 -13.723  1.00  0.00    -0.043 Br
HETATM   37  S1  UNL     1      12.235  35.435 -13.884  1.00  0.00    -0.081 SA
ENDBRANCH  30  32
ENDBRANCH  27  29
ENDBRANCH   1  25
TORSDOF 7
ENDMDL
MODEL 3
REMARK VINA RESULT: -8.576248107      5.199      9.732
REMARK  7 active torsions:
REMARK  status: ('A' for Active; 'I' for Inactive)
REMARK    1  A    between atoms: C6_8  and  C7_9 
REMARK    2  A    between atoms: C7_9  and  N2_10 
REMARK    3  A    between atoms: C7_9  and  C15_25 
REMARK       I    between atoms: N2_10  and  C8_12 
REMARK       I    between atoms: C8_12  and  N3_14 
REMARK    4  A    between atoms: N3_14  and  C9_16 
REMARK    5  A    between atoms: C12_19  and  N4_20 
REMARK       I    between atoms: C15_25  and  N5_27 
REMARK    6  A    between atoms: N5_27  and  N6_29 
REMARK    7  A    between atoms: C16_31  and  C17_32 
ROOT
HETATM    1  C7  UNL     1       8.937  33.134 -13.043  1.00  0.00     0.215 C 
ENDROOT
BRANCH   1   2
HETATM    2  C6  UNL     1       7.958  33.523 -12.026  1.00  0.00    -0.004 A 
HETATM    3  C2  UNL     1       7.664  32.772 -10.966  1.00  0.00     0.013 A 
HETATM    4  C1  UNL     1       8.294  31.493 -10.679  1.00  0.00     0.068 C 
HETATM    5  N1  UNL     1       6.712  33.180 -10.068  1.00  0.00    -0.369 N 
HETATM    6  C3  UNL     1       6.076  34.356 -10.273  1.00  0.00     0.088 A 
ATOM      7  H1  UNL     1       6.486  32.605  -9.256  1.00  0.00     0.165 HD
HETATM    8  C4  UNL     1       6.350  35.165 -11.354  1.00  0.00     0.018 A 
HETATM    9  C5  UNL     1       7.306  34.750 -12.250  1.00  0.00     0.013 A 
ENDBRANCH   1   2
BRANCH   1  10
HETATM   10  N2  UNL     1       9.683  34.309 -13.433  1.00  0.00    -0.325 N 
HETATM   11  C8  UNL     1      11.076  34.172 -13.822  1.00  0.00     0.321 C 
HETATM   12  O1  UNL     1      11.508  32.990 -13.798  1.00  0.00    -0.247 OA
HETATM   13  N3  UNL     1      11.834  35.281 -14.184  1.00  0.00    -0.309 N 
ATOM     14  H3  UNL     1      11.380  36.194 -14.149  1.00  0.00     0.170 HD
ATOM     15  H2  UNL     1       9.236  35.226 -13.435  1.00  0.00     0.165 HD
BRANCH  13  16
HETATM   16  C9  UNL     1      13.190  35.242 -14.597  1.00  0.00     0.036 A 
HETATM   17  C10 UNL     1      13.591  35.339 -15.893  1.00  0.00     0.032 A 
HETATM   18  C11 UNL     1      14.924  35.253 -16.279  1.00  0.00     0.038 A 
HETATM   19  C12 UNL     1      15.938  35.061 -15.350  1.00  0.00     0.103 A 
HETATM   20  C13 UNL     1      15.538  34.964 -14.041  1.00  0.00     0.038 A 
HETATM   21  C14 UNL     1      14.221  35.047 -13.653  1.00  0.00     0.032 A 
BRANCH  19  22
HETATM   22  N4  UNL     1      17.282  34.967 -15.754  1.00  0.00    -0.116 N 
HETATM   23  O2  UNL     1      17.965  33.987 -15.344  1.00  0.00    -0.532 OA
HETATM   24  O3  UNL     1      17.879  35.889 -16.563  1.00  0.00    -0.532 OA
ENDBRANCH  19  22
ENDBRANCH  13  16
ENDBRANCH   1  10
BRANCH   1  25
HETATM   25  C15 UNL     1       8.125  32.651 -14.222  1.00  0.00     0.263 C 
HETATM   26  O4  UNL     1       8.721  32.257 -15.247  1.00  0.00    -0.269 OA
HETATM   27  N5  UNL     1       6.734  32.653 -14.153  1.00  0.00    -0.268 N 
ATOM     28  H5  UNL     1       6.325  32.976 -13.276  1.00  0.00     0.190 HD
BRANCH  27  29
HETATM   29  N6  UNL     1       5.839  32.268 -15.141  1.00  0.00    -0.308 N 
HETATM   30  C16 UNL     1       5.105  33.278 -15.676  1.00  0.00     0.126 C 
ATOM     31  H6  UNL     1       5.739  31.299 -15.444  1.00  0.00     0.186 HD
BRANCH  30  32
HETATM   32  C17 UNL     1       4.142  32.921 -16.723  1.00  0.00     0.023 A 
HETATM   33  C18 UNL     1       4.229  31.843 -17.573  1.00  0.00     0.022 A 
HETATM   34  C19 UNL     1       3.239  31.673 -18.449  1.00  0.00     0.028 A 
HETATM   35  C20 UNL     1       2.215  32.584 -18.436  1.00  0.00     0.052 A 
HETATM   36 BR1  UNL     1       0.660  32.600 -19.573  1.00  0.00    -0.043 Br
HETATM   37  S1  UNL     1       2.681  33.659 -17.182  1.00  0.00    -0.081 SA
ENDBRANCH  30  32
ENDBRANCH  27  29
ENDBRANCH   1  25
TORSDOF 7
ENDMDL
MODEL 4
REMARK VINA RESULT: -8.469026496      5.203      9.736
REMARK  7 active torsions:
REMARK  status: ('A' for Active; 'I' for Inactive)
REMARK    1  A    between atoms: C6_8  and  C7_9 
REMARK    2  A    between atoms: C7_9  and  N2_10 
REMARK    3  A    between atoms: C7_9  and  C15_25 
REMARK       I    between atoms: N2_10  and  C8_12 
REMARK       I    between atoms: C8_12  and  N3_14 
REMARK    4  A    between atoms: N3_14  and  C9_16 
REMARK    5  A    between atoms: C12_19  and  N4_20 
REMARK       I    between atoms: C15_25  and  N5_27 
REMARK    6  A    between atoms: N5_27  and  N6_29 
REMARK    7  A    between atoms: C16_31  and  C17_32 
ROOT
HETATM    1  C7  UNL     1       6.726  34.334 -12.756  1.00  0.00     0.215 C 
ENDROOT
BRANCH   1   2
HETATM    2  C6  UNL     1       6.050  34.372 -11.458  1.00  0.00    -0.004 A 
HETATM    3  C2  UNL     1       6.462  33.680 -10.396  1.00  0.00     0.013 A 
HETATM    4  C1  UNL     1       7.640  32.827 -10.392  1.00  0.00     0.068 C 
HETATM    5  N1  UNL     1       5.763  33.735  -9.217  1.00  0.00    -0.369 N 
HETATM    6  C3  UNL     1       4.651  34.501  -9.147  1.00  0.00     0.088 A 
ATOM      7  H1  UNL     1       6.078  33.204  -8.404  1.00  0.00     0.165 HD
HETATM    8  C4  UNL     1       4.191  35.234 -10.220  1.00  0.00     0.018 A 
HETATM    9  C5  UNL     1       4.896  35.175 -11.398  1.00  0.00     0.013 A 
ENDBRANCH   1   2
BRANCH   1  10
HETATM   10  N2  UNL     1       7.738  35.366 -12.775  1.00  0.00    -0.325 N 
HETATM   11  C8  UNL     1       9.126  34.999 -12.995  1.00  0.00     0.321 C 
HETATM   12  O1  UNL     1       9.315  33.767 -13.172  1.00  0.00    -0.247 OA
HETATM   13  N3  UNL     1      10.133  35.960 -13.000  1.00  0.00    -0.309 N 
ATOM     14  H3  UNL     1       9.860  36.928 -12.827  1.00  0.00     0.170 HD
ATOM     15  H2  UNL     1       7.480  36.343 -12.636  1.00  0.00     0.165 HD
BRANCH  13  16
HETATM   16  C9  UNL     1      11.508  35.699 -13.226  1.00  0.00     0.036 A 
HETATM   17  C10 UNL     1      12.139  35.931 -14.408  1.00  0.00     0.032 A 
HETATM   18  C11 UNL     1      13.479  35.625 -14.621  1.00  0.00     0.038 A 
HETATM   19  C12 UNL     1      14.261  35.058 -13.623  1.00  0.00     0.103 A 
HETATM   20  C13 UNL     1      13.628  34.823 -12.428  1.00  0.00     0.038 A 
HETATM   21  C14 UNL     1      12.304  35.122 -12.213  1.00  0.00     0.032 A 
BRANCH  19  22
HETATM   22  N4  UNL     1      15.613  34.745 -13.853  1.00  0.00    -0.116 N 
HETATM   23  O2  UNL     1      15.951  34.348 -15.004  1.00  0.00    -0.532 OA
HETATM   24  O3  UNL     1      16.572  34.848 -12.888  1.00  0.00    -0.532 OA
ENDBRANCH  19  22
ENDBRANCH  13  16
ENDBRANCH   1  10
BRANCH   1  25
HETATM   25  C15 UNL     1       5.661  34.667 -13.775  1.00  0.00     0.263 C 
HETATM   26  O4  UNL     1       5.270  35.849 -13.878  1.00  0.00    -0.269 OA
HETATM   27  N5  UNL     1       5.132  33.660 -14.579  1.00  0.00    -0.268 N 
ATOM     28  H5  UNL     1       5.515  32.726 -14.443  1.00  0.00     0.190 HD
BRANCH  27  29
HETATM   29  N6  UNL     1       4.141  33.783 -15.544  1.00  0.00    -0.308 N 
HETATM   30  C16 UNL     1       2.886  33.960 -15.056  1.00  0.00     0.126 C 
ATOM     31  H6  UNL     1       4.341  33.744 -16.543  1.00  0.00     0.186 HD
BRANCH  30  32
HETATM   32  C17 UNL     1       1.803  34.092 -16.036  1.00  0.00     0.023 A 
HETATM   33  C18 UNL     1       1.747  35.001 -17.067  1.00  0.00     0.022 A 
HETATM   34  C19 UNL     1       0.684  34.951 -17.870  1.00  0.00     0.028 A 
HETATM   35  C20 UNL     1      -0.268  34.002 -17.606  1.00  0.00     0.052 A 
HETATM   36 BR1  UNL     1      -1.899  33.689 -18.582  1.00  0.00    -0.043 Br
HETATM   37  S1  UNL     1       0.366  33.203 -16.226  1.00  0.00    -0.081 SA
ENDBRANCH  30  32
ENDBRANCH  27  29
ENDBRANCH   1  25
TORSDOF 7
ENDMDL
MODEL 5
REMARK VINA RESULT: -8.247262769      4.508      9.407
REMARK  7 active torsions:
REMARK  status: ('A' for Active; 'I' for Inactive)
REMARK    1  A    between atoms: C6_8  and  C7_9 
REMARK    2  A    between atoms: C7_9  and  N2_10 
REMARK    3  A    between atoms: C7_9  and  C15_25 
REMARK       I    between atoms: N2_10  and  C8_12 
REMARK       I    between atoms: C8_12  and  N3_14 
REMARK    4  A    between atoms: N3_14  and  C9_16 
REMARK    5  A    between atoms: C12_19  and  N4_20 
REMARK       I    between atoms: C15_25  and  N5_27 
REMARK    6  A    between atoms: N5_27  and  N6_29 
REMARK    7  A    between atoms: C16_31  and  C17_32 
ROOT
HETATM    1  C7  UNL     1       7.693  34.130 -12.331  1.00  0.00     0.215 C 
ENDROOT
BRANCH   1   2
HETATM    2  C6  UNL     1       6.421  34.787 -12.027  1.00  0.00    -0.004 A 
HETATM    3  C2  UNL     1       5.720  34.552 -10.918  1.00  0.00     0.013 A 
HETATM    4  C1  UNL     1       6.146  33.638  -9.870  1.00  0.00     0.068 C 
HETATM    5  N1  UNL     1       4.518  35.177 -10.710  1.00  0.00    -0.369 N 
HETATM    6  C3  UNL     1       4.053  36.036 -11.646  1.00  0.00     0.088 A 
ATOM      7  H1  UNL     1       3.981  34.997  -9.861  1.00  0.00     0.165 HD
HETATM    8  C4  UNL     1       4.745  36.309 -12.806  1.00  0.00     0.018 A 
HETATM    9  C5  UNL     1       5.949  35.680 -13.007  1.00  0.00     0.013 A 
ENDBRANCH   1   2
BRANCH   1  10
HETATM   10  N2  UNL     1       8.576  35.102 -12.936  1.00  0.00    -0.325 N 
HETATM   11  C8  UNL     1      10.006  34.843 -12.968  1.00  0.00     0.321 C 
HETATM   12  O1  UNL     1      10.345  33.743 -12.460  1.00  0.00    -0.247 OA
HETATM   13  N3  UNL     1      10.891  35.762 -13.523  1.00  0.00    -0.309 N 
ATOM     14  H3  UNL     1      10.500  36.630 -13.890  1.00  0.00     0.170 HD
ATOM     15  H2  UNL     1       8.200  35.961 -13.337  1.00  0.00     0.165 HD
BRANCH  13  16
HETATM   16  C9  UNL     1      12.295  35.587 -13.617  1.00  0.00     0.036 A 
HETATM   17  C10 UNL     1      13.021  35.870 -14.732  1.00  0.00     0.032 A 
HETATM   18  C11 UNL     1      14.391  35.648 -14.816  1.00  0.00     0.038 A 
HETATM   19  C12 UNL     1      15.107  35.117 -13.752  1.00  0.00     0.103 A 
HETATM   20  C13 UNL     1      14.378  34.830 -12.624  1.00  0.00     0.038 A 
HETATM   21  C14 UNL     1      13.024  35.047 -12.535  1.00  0.00     0.032 A 
BRANCH  19  22
HETATM   22  N4  UNL     1      16.491  34.888 -13.852  1.00  0.00    -0.116 N 
HETATM   23  O2  UNL     1      17.095  34.404 -12.853  1.00  0.00    -0.532 OA
HETATM   24  O3  UNL     1      17.210  35.169 -14.978  1.00  0.00    -0.532 OA
ENDBRANCH  19  22
ENDBRANCH  13  16
ENDBRANCH   1  10
BRANCH   1  25
HETATM   25  C15 UNL     1       7.364  33.062 -13.347  1.00  0.00     0.263 C 
HETATM   26  O4  UNL     1       8.097  32.052 -13.423  1.00  0.00    -0.269 OA
HETATM   27  N5  UNL     1       6.259  33.215 -14.181  1.00  0.00    -0.268 N 
ATOM     28  H5  UNL     1       5.705  34.059 -14.045  1.00  0.00     0.190 HD
BRANCH  27  29
HETATM   29  N6  UNL     1       5.827  32.350 -15.177  1.00  0.00    -0.308 N 
HETATM   30  C16 UNL     1       4.889  32.864 -16.015  1.00  0.00     0.126 C 
ATOM     31  H6  UNL     1       6.185  31.400 -15.272  1.00  0.00     0.186 HD
BRANCH  30  32
HETATM   32  C17 UNL     1       4.398  31.988 -17.082  1.00  0.00     0.023 A 
HETATM   33  C18 UNL     1       3.293  31.169 -17.018  1.00  0.00     0.022 A 
HETATM   34  C19 UNL     1       2.994  30.459 -18.106  1.00  0.00     0.028 A 
HETATM   35  C20 UNL     1       3.807  30.598 -19.200  1.00  0.00     0.052 A 
HETATM   36 BR1  UNL     1       3.628  29.710 -20.900  1.00  0.00    -0.043 Br
HETATM   37  S1  UNL     1       4.977  31.731 -18.660  1.00  0.00    -0.081 SA
ENDBRANCH  30  32
ENDBRANCH  27  29
ENDBRANCH   1  25
TORSDOF 7
ENDMDL
