MODEL 1
REMARK VINA RESULT: -7.892402502      0.000      0.000
REMARK  10 active torsions:
REMARK  status: ('A' for Active; 'I' for Inactive)
REMARK    1  A    between atoms: C2_2  and  O2_4 
REMARK    2  A    between atoms: O2_4  and  C3_5 
REMARK    3  A    between atoms: C7_10  and  O3_11 
REMARK    4  A    between atoms: C7_10  and  C8_13 
REMARK    5  A    between atoms: C8_13  and  C9_14 
REMARK    6  A    between atoms: C9_14  and  C10_15 
REMARK    7  A    between atoms: C10_15  and  C11_16 
REMARK    8  A    between atoms: C12_17  and  C13_18 
REMARK    9  A    between atoms: C13_18  and  C14_19 
REMARK   10  A    between atoms: C17_24  and  O6_25 
ROOT
HETATM    1  C3  UNL     1      11.872  35.047 -17.637  1.00  0.00     0.160 C 
HETATM    2  C4  UNL     1      12.013  35.172 -16.133  1.00  0.00     0.113 C 
HETATM    3 CL1  UNL     1      11.569  33.648 -15.388  1.00  0.00    -0.122 Cl
HETATM    4  C5  UNL     1      13.341  35.735 -15.738  1.00  0.00     0.033 C 
HETATM    5  C6  UNL     1      14.411  34.741 -16.130  1.00  0.00     0.061 C 
HETATM    6  C7  UNL     1      15.760  35.090 -15.640  1.00  0.00     0.090 C 
HETATM    7  C15 UNL     1      16.800  35.149 -16.733  1.00  0.00    -0.018 C 
HETATM    8  C16 UNL     1      17.919  35.805 -16.490  1.00  0.00     0.016 C 
HETATM    9  C17 UNL     1      18.972  35.872 -17.574  1.00  0.00     0.175 C 
HETATM   10  C18 UNL     1      18.825  34.830 -18.625  1.00  0.00     0.084 C 
HETATM   11  C19 UNL     1      18.494  35.582 -19.927  1.00  0.00     0.049 C 
HETATM   12  C20 UNL     1      20.169  34.149 -18.934  1.00  0.00     0.049 C 
HETATM   13  O7  UNL     1      17.873  33.843 -18.386  1.00  0.00    -0.368 OA
HETATM   14  C21 UNL     1      16.702  34.516 -18.051  1.00  0.00     0.157 C 
HETATM   15  C22 UNL     1      15.461  33.668 -18.037  1.00  0.00     0.076 C 
HETATM   16  C23 UNL     1      14.366  34.660 -17.640  1.00  0.00     0.080 C 
HETATM   17  O8  UNL     1      14.618  35.847 -18.329  1.00  0.00    -0.368 OA
HETATM   18  C24 UNL     1      13.678  35.578 -19.289  1.00  0.00     0.064 C 
HETATM   19  C25 UNL     1      12.765  36.776 -19.552  1.00  0.00     0.046 C 
HETATM   20  C26 UNL     1      14.087  34.999 -20.595  1.00  0.00     0.046 C 
HETATM   21  C27 UNL     1      13.086  34.556 -18.304  1.00  0.00     0.086 C 
ENDROOT
BRANCH   6  22
HETATM   22  O3  UNL     1      15.731  36.463 -15.216  1.00  0.00    -0.385 OA
ATOM     23  H3  UNL     1      16.187  36.978 -15.871  1.00  0.00     0.211 HD
ENDBRANCH   6  22
BRANCH   6  24
HETATM   24  C8  UNL     1      16.388  34.244 -14.602  1.00  0.00     0.043 C 
BRANCH  24  25
HETATM   25  C9  UNL     1      16.696  34.640 -13.248  1.00  0.00     0.007 C 
BRANCH  25  26
HETATM   26  C10 UNL     1      15.823  34.251 -12.111  1.00  0.00     0.027 C 
BRANCH  26  27
HETATM   27  C11 UNL     1      14.532  35.082 -12.190  1.00  0.00    -0.030 C 
HETATM   28  C12 UNL     1      13.393  34.490 -12.178  1.00  0.00    -0.020 C 
BRANCH  28  29
HETATM   29  C13 UNL     1      12.051  35.048 -12.243  1.00  0.00     0.140 C 
BRANCH  29  30
HETATM   30  C14 UNL     1      10.904  34.194 -12.052  1.00  0.00     0.176 C 
HETATM   31  O4  UNL     1      10.895  33.100 -11.468  1.00  0.00    -0.648 OA
HETATM   32  O5  UNL     1       9.622  34.578 -12.557  1.00  0.00    -0.648 OA
ENDBRANCH  29  30
ENDBRANCH  28  29
ENDBRANCH  26  27
ENDBRANCH  25  26
ENDBRANCH  24  25
ENDBRANCH   6  24
BRANCH   9  33
HETATM   33  O6  UNL     1      20.214  35.825 -16.942  1.00  0.00    -0.389 OA
ATOM     34  H6  UNL     1      20.463  36.720 -16.748  1.00  0.00     0.210 HD
ENDBRANCH   9  33
BRANCH   1  35
HETATM   35  O2  UNL     1      10.829  34.080 -17.831  1.00  0.00    -0.314 OA
BRANCH  35  36
HETATM   36  C2  UNL     1      10.100  33.994 -19.003  1.00  0.00     0.255 C 
HETATM   37  C1  UNL     1      10.150  32.768 -19.856  1.00  0.00     0.126 C 
HETATM   38  O1  UNL     1       9.388  34.970 -19.345  1.00  0.00    -0.266 OA
ENDBRANCH  35  36
ENDBRANCH   1  35
TORSDOF 10
ENDMDL
MODEL 2
REMARK VINA RESULT: -7.507128995      1.138      1.170
REMARK  10 active torsions:
REMARK  status: ('A' for Active; 'I' for Inactive)
REMARK    1  A    between atoms: C2_2  and  O2_4 
REMARK    2  A    between atoms: O2_4  and  C3_5 
REMARK    3  A    between atoms: C7_10  and  O3_11 
REMARK    4  A    between atoms: C7_10  and  C8_13 
REMARK    5  A    between atoms: C8_13  and  C9_14 
REMARK    6  A    between atoms: C9_14  and  C10_15 
REMARK    7  A    between atoms: C10_15  and  C11_16 
REMARK    8  A    between atoms: C12_17  and  C13_18 
REMARK    9  A    between atoms: C13_18  and  C14_19 
REMARK   10  A    between atoms: C17_24  and  O6_25 
ROOT
HETATM    1  C3  UNL     1      12.260  33.393 -17.412  1.00  0.00     0.160 C 
HETATM    2  C4  UNL     1      12.354  33.819 -15.960  1.00  0.00     0.113 C 
HETATM    3 CL1  UNL     1      12.259  32.396 -14.940  1.00  0.00    -0.122 Cl
HETATM    4  C5  UNL     1      13.518  34.726 -15.715  1.00  0.00     0.033 C 
HETATM    5  C6  UNL     1      14.788  33.942 -15.956  1.00  0.00     0.061 C 
HETATM    6  C7  UNL     1      16.019  34.667 -15.581  1.00  0.00     0.090 C 
HETATM    7  C15 UNL     1      17.029  34.757 -16.700  1.00  0.00    -0.018 C 
HETATM    8  C16 UNL     1      17.968  35.680 -16.615  1.00  0.00     0.016 C 
HETATM    9  C17 UNL     1      18.989  35.782 -17.726  1.00  0.00     0.175 C 
HETATM   10  C18 UNL     1      19.091  34.560 -18.567  1.00  0.00     0.084 C 
HETATM   11  C19 UNL     1      18.612  34.969 -19.972  1.00  0.00     0.049 C 
HETATM   12  C20 UNL     1      20.557  34.152 -18.792  1.00  0.00     0.049 C 
HETATM   13  O7  UNL     1      18.384  33.446 -18.125  1.00  0.00    -0.368 OA
HETATM   14  C21 UNL     1      17.089  33.890 -17.879  1.00  0.00     0.157 C 
HETATM   15  C22 UNL     1      16.070  32.802 -17.673  1.00  0.00     0.076 C 
HETATM   16  C23 UNL     1      14.777  33.580 -17.425  1.00  0.00     0.080 C 
HETATM   17  O8  UNL     1      14.761  34.647 -18.324  1.00  0.00    -0.368 OA
HETATM   18  C24 UNL     1      13.915  34.005 -19.189  1.00  0.00     0.064 C 
HETATM   19  C25 UNL     1      12.758  34.900 -19.634  1.00  0.00     0.046 C 
HETATM   20  C26 UNL     1      14.456  33.304 -20.383  1.00  0.00     0.046 C 
HETATM   21  C27 UNL     1      13.559  33.074 -18.019  1.00  0.00     0.086 C 
ENDROOT
BRANCH   6  22
HETATM   22  O3  UNL     1      15.676  36.053 -15.410  1.00  0.00    -0.385 OA
ATOM     23  H3  UNL     1      16.485  36.542 -15.317  1.00  0.00     0.211 HD
ENDBRANCH   6  22
BRANCH   6  24
HETATM   24  C8  UNL     1      16.811  34.187 -14.428  1.00  0.00     0.043 C 
BRANCH  24  25
HETATM   25  C9  UNL     1      16.771  34.713 -13.084  1.00  0.00     0.007 C 
BRANCH  25  26
HETATM   26  C10 UNL     1      15.785  34.219 -12.090  1.00  0.00     0.027 C 
BRANCH  26  27
HETATM   27  C11 UNL     1      14.492  35.035 -12.249  1.00  0.00    -0.030 C 
HETATM   28  C12 UNL     1      13.354  34.454 -12.124  1.00  0.00    -0.020 C 
BRANCH  28  29
HETATM   29  C13 UNL     1      12.011  35.002 -12.229  1.00  0.00     0.140 C 
BRANCH  29  30
HETATM   30  C14 UNL     1      10.868  34.122 -12.225  1.00  0.00     0.176 C 
HETATM   31  O4  UNL     1      10.711  33.131 -11.495  1.00  0.00    -0.648 OA
HETATM   32  O5  UNL     1       9.776  34.347 -13.120  1.00  0.00    -0.648 OA
ENDBRANCH  29  30
ENDBRANCH  28  29
ENDBRANCH  26  27
ENDBRANCH  25  26
ENDBRANCH  24  25
ENDBRANCH   6  24
BRANCH   9  33
HETATM   33  O6  UNL     1      20.204  36.130 -17.136  1.00  0.00    -0.389 OA
ATOM     34  H6  UNL     1      20.293  35.605 -16.350  1.00  0.00     0.210 HD
ENDBRANCH   9  33
BRANCH   1  35
HETATM   35  O2  UNL     1      11.464  32.199 -17.395  1.00  0.00    -0.314 OA
BRANCH  35  36
HETATM   36  C2  UNL     1      10.188  32.146 -17.928  1.00  0.00     0.255 C 
HETATM   37  C1  UNL     1       9.961  31.754 -19.352  1.00  0.00     0.126 C 
HETATM   38  O1  UNL     1       9.213  32.434 -17.190  1.00  0.00    -0.266 OA
ENDBRANCH  35  36
ENDBRANCH   1  35
TORSDOF 10
ENDMDL
MODEL 3
REMARK VINA RESULT: -7.464043426      2.175      6.286
REMARK  10 active torsions:
REMARK  status: ('A' for Active; 'I' for Inactive)
REMARK    1  A    between atoms: C2_2  and  O2_4 
REMARK    2  A    between atoms: O2_4  and  C3_5 
REMARK    3  A    between atoms: C7_10  and  O3_11 
REMARK    4  A    between atoms: C7_10  and  C8_13 
REMARK    5  A    between atoms: C8_13  and  C9_14 
REMARK    6  A    between atoms: C9_14  and  C10_15 
REMARK    7  A    between atoms: C10_15  and  C11_16 
REMARK    8  A    between atoms: C12_17  and  C13_18 
REMARK    9  A    between atoms: C13_18  and  C14_19 
REMARK   10  A    between atoms: C17_24  and  O6_25 
ROOT
HETATM    1  C3  UNL     1      16.632  34.159 -18.445  1.00  0.00     0.160 C 
HETATM    2  C4  UNL     1      15.506  34.414 -19.427  1.00  0.00     0.113 C 
HETATM    3 CL1  UNL     1      15.140  32.923 -20.276  1.00  0.00    -0.122 Cl
HETATM    4  C5  UNL     1      14.346  35.106 -18.786  1.00  0.00     0.033 C 
HETATM    5  C6  UNL     1      13.742  34.170 -17.763  1.00  0.00     0.061 C 
HETATM    6  C7  UNL     1      12.479  34.660 -17.176  1.00  0.00     0.090 C 
HETATM    7  C15 UNL     1      12.498  34.713 -15.667  1.00  0.00    -0.018 C 
HETATM    8  C16 UNL     1      11.603  35.471 -15.062  1.00  0.00     0.016 C 
HETATM    9  C17 UNL     1      11.607  35.533 -13.551  1.00  0.00     0.175 C 
HETATM   10  C18 UNL     1      12.323  34.402 -12.901  1.00  0.00     0.084 C 
HETATM   11  C19 UNL     1      13.542  35.020 -12.193  1.00  0.00     0.049 C 
HETATM   12  C20 UNL     1      11.500  33.805 -11.747  1.00  0.00     0.049 C 
HETATM   13  O7  UNL     1      12.729  33.367 -13.738  1.00  0.00    -0.368 OA
HETATM   14  C21 UNL     1      13.408  33.972 -14.790  1.00  0.00     0.157 C 
HETATM   15  C22 UNL     1      14.192  33.034 -15.667  1.00  0.00     0.076 C 
HETATM   16  C23 UNL     1      14.809  33.967 -16.710  1.00  0.00     0.080 C 
HETATM   17  O8  UNL     1      15.237  35.111 -16.036  1.00  0.00    -0.368 OA
HETATM   18  C24 UNL     1      16.541  34.695 -16.000  1.00  0.00     0.064 C 
HETATM   19  C25 UNL     1      17.508  35.794 -16.442  1.00  0.00     0.046 C 
HETATM   20  C26 UNL     1      17.088  34.047 -14.778  1.00  0.00     0.046 C 
HETATM   21  C27 UNL     1      16.171  33.712 -17.123  1.00  0.00     0.086 C 
ENDROOT
BRANCH   6  22
HETATM   22  O3  UNL     1      12.360  36.057 -17.497  1.00  0.00    -0.385 OA
ATOM     23  H3  UNL     1      12.617  36.553 -16.729  1.00  0.00     0.211 HD
ENDBRANCH   6  22
BRANCH   6  24
HETATM   24  C8  UNL     1      11.220  33.951 -17.489  1.00  0.00     0.043 C 
BRANCH  24  25
HETATM   25  C9  UNL     1      11.058  32.526 -17.654  1.00  0.00     0.007 C 
BRANCH  25  26
HETATM   26  C10 UNL     1      10.840  31.632 -16.488  1.00  0.00     0.027 C 
BRANCH  26  27
HETATM   27  C11 UNL     1       9.476  31.976 -15.866  1.00  0.00    -0.030 C 
HETATM   28  C12 UNL     1       9.404  32.281 -14.621  1.00  0.00    -0.020 C 
BRANCH  28  29
HETATM   29  C13 UNL     1       8.248  32.639 -13.815  1.00  0.00     0.140 C 
BRANCH  29  30
HETATM   30  C14 UNL     1       8.340  32.628 -12.375  1.00  0.00     0.176 C 
HETATM   31  O4  UNL     1       8.639  31.653 -11.669  1.00  0.00    -0.648 OA
HETATM   32  O5  UNL     1       8.074  33.814 -11.622  1.00  0.00    -0.648 OA
ENDBRANCH  29  30
ENDBRANCH  28  29
ENDBRANCH  26  27
ENDBRANCH  25  26
ENDBRANCH  24  25
ENDBRANCH   6  24
BRANCH   9  33
HETATM   33  O6  UNL     1      10.277  35.632 -13.141  1.00  0.00    -0.389 OA
ATOM     34  H6  UNL     1      10.245  35.364 -12.231  1.00  0.00     0.210 HD
ENDBRANCH   9  33
BRANCH   1  35
HETATM   35  O2  UNL     1      17.404  33.101 -19.034  1.00  0.00    -0.314 OA
BRANCH  35  36
HETATM   36  C2  UNL     1      18.695  33.288 -19.494  1.00  0.00     0.255 C 
HETATM   37  C1  UNL     1      19.018  33.194 -20.950  1.00  0.00     0.126 C 
HETATM   38  O1  UNL     1      19.602  33.542 -18.662  1.00  0.00    -0.266 OA
ENDBRANCH  35  36
ENDBRANCH   1  35
TORSDOF 10
ENDMDL
MODEL 4
REMARK VINA RESULT: -7.419028110      2.325      5.543
REMARK  10 active torsions:
REMARK  status: ('A' for Active; 'I' for Inactive)
REMARK    1  A    between atoms: C2_2  and  O2_4 
REMARK    2  A    between atoms: O2_4  and  C3_5 
REMARK    3  A    between atoms: C7_10  and  O3_11 
REMARK    4  A    between atoms: C7_10  and  C8_13 
REMARK    5  A    between atoms: C8_13  and  C9_14 
REMARK    6  A    between atoms: C9_14  and  C10_15 
REMARK    7  A    between atoms: C10_15  and  C11_16 
REMARK    8  A    between atoms: C12_17  and  C13_18 
REMARK    9  A    between atoms: C13_18  and  C14_19 
REMARK   10  A    between atoms: C17_24  and  O6_25 
ROOT
HETATM    1  C3  UNL     1      10.275  33.619 -13.985  1.00  0.00     0.160 C 
HETATM    2  C4  UNL     1      10.813  35.031 -13.856  1.00  0.00     0.113 C 
HETATM    3 CL1  UNL     1      11.779  35.144 -12.396  1.00  0.00    -0.122 Cl
HETATM    4  C5  UNL     1      11.469  35.500 -15.115  1.00  0.00     0.033 C 
HETATM    5  C6  UNL     1      12.700  34.654 -15.351  1.00  0.00     0.061 C 
HETATM    6  C7  UNL     1      13.543  35.122 -16.469  1.00  0.00     0.090 C 
HETATM    7  C15 UNL     1      13.816  34.057 -17.504  1.00  0.00    -0.018 C 
HETATM    8  C16 UNL     1      14.217  34.443 -18.701  1.00  0.00     0.016 C 
HETATM    9  C17 UNL     1      14.498  33.388 -19.748  1.00  0.00     0.175 C 
HETATM   10  C18 UNL     1      14.717  32.027 -19.191  1.00  0.00     0.084 C 
HETATM   11  C19 UNL     1      13.547  31.165 -19.699  1.00  0.00     0.049 C 
HETATM   12  C20 UNL     1      15.953  31.357 -19.812  1.00  0.00     0.049 C 
HETATM   13  O7  UNL     1      14.812  31.935 -17.805  1.00  0.00    -0.368 OA
HETATM   14  C21 UNL     1      13.705  32.610 -17.302  1.00  0.00     0.157 C 
HETATM   15  C22 UNL     1      13.438  32.394 -15.837  1.00  0.00     0.076 C 
HETATM   16  C23 UNL     1      12.194  33.246 -15.581  1.00  0.00     0.080 C 
HETATM   17  O8  UNL     1      11.342  33.067 -16.671  1.00  0.00    -0.368 OA
HETATM   18  C24 UNL     1      10.556  32.165 -16.005  1.00  0.00     0.064 C 
HETATM   19  C25 UNL     1       9.067  32.481 -16.152  1.00  0.00     0.046 C 
HETATM   20  C26 UNL     1      10.752  30.706 -16.208  1.00  0.00     0.046 C 
HETATM   21  C27 UNL     1      11.175  32.710 -14.707  1.00  0.00     0.086 C 
ENDROOT
BRANCH   6  22
HETATM   22  O3  UNL     1      12.769  36.059 -17.239  1.00  0.00    -0.385 OA
ATOM     23  H3  UNL     1      12.627  36.828 -16.700  1.00  0.00     0.211 HD
ENDBRANCH   6  22
BRANCH   6  24
HETATM   24  C8  UNL     1      14.880  35.680 -16.175  1.00  0.00     0.043 C 
BRANCH  24  25
HETATM   25  C9  UNL     1      15.382  36.061 -14.876  1.00  0.00     0.007 C 
BRANCH  25  26
HETATM   26  C10 UNL     1      16.051  35.078 -13.987  1.00  0.00     0.027 C 
BRANCH  26  27
HETATM   27  C11 UNL     1      17.243  34.473 -14.748  1.00  0.00    -0.030 C 
HETATM   28  C12 UNL     1      17.055  33.481 -15.540  1.00  0.00    -0.020 C 
BRANCH  28  29
HETATM   29  C13 UNL     1      18.007  32.747 -16.358  1.00  0.00     0.140 C 
BRANCH  29  30
HETATM   30  C14 UNL     1      18.253  33.153 -17.720  1.00  0.00     0.176 C 
HETATM   31  O4  UNL     1      19.015  32.594 -18.524  1.00  0.00    -0.648 OA
HETATM   32  O5  UNL     1      17.596  34.300 -18.266  1.00  0.00    -0.648 OA
ENDBRANCH  29  30
ENDBRANCH  28  29
ENDBRANCH  26  27
ENDBRANCH  25  26
ENDBRANCH  24  25
ENDBRANCH   6  24
BRANCH   9  33
HETATM   33  O6  UNL     1      15.580  33.839 -20.503  1.00  0.00    -0.389 OA
ATOM     34  H6  UNL     1      15.463  33.505 -21.385  1.00  0.00     0.210 HD
ENDBRANCH   9  33
BRANCH   1  35
HETATM   35  O2  UNL     1      10.146  33.149 -12.635  1.00  0.00    -0.314 OA
BRANCH  35  36
HETATM   36  C2  UNL     1       8.920  32.878 -12.054  1.00  0.00     0.255 C 
HETATM   37  C1  UNL     1       7.977  33.979 -11.693  1.00  0.00     0.126 C 
HETATM   38  O1  UNL     1       8.607  31.682 -11.833  1.00  0.00    -0.266 OA
ENDBRANCH  35  36
ENDBRANCH   1  35
TORSDOF 10
ENDMDL
MODEL 5
REMARK VINA RESULT: -7.416815548      1.873      2.074
REMARK  10 active torsions:
REMARK  status: ('A' for Active; 'I' for Inactive)
REMARK    1  A    between atoms: C2_2  and  O2_4 
REMARK    2  A    between atoms: O2_4  and  C3_5 
REMARK    3  A    between atoms: C7_10  and  O3_11 
REMARK    4  A    between atoms: C7_10  and  C8_13 
REMARK    5  A    between atoms: C8_13  and  C9_14 
REMARK    6  A    between atoms: C9_14  and  C10_15 
REMARK    7  A    between atoms: C10_15  and  C11_16 
REMARK    8  A    between atoms: C12_17  and  C13_18 
REMARK    9  A    between atoms: C13_18  and  C14_19 
REMARK   10  A    between atoms: C17_24  and  O6_25 
ROOT
HETATM    1  C3  UNL     1      12.756  32.398 -17.883  1.00  0.00     0.160 C 
HETATM    2  C4  UNL     1      12.589  33.034 -16.517  1.00  0.00     0.113 C 
HETATM    3 CL1  UNL     1      12.572  31.773 -15.298  1.00  0.00    -0.122 Cl
HETATM    4  C5  UNL     1      13.559  34.150 -16.294  1.00  0.00     0.033 C 
HETATM    5  C6  UNL     1      14.954  33.566 -16.264  1.00  0.00     0.061 C 
HETATM    6  C7  UNL     1      16.000  34.533 -15.876  1.00  0.00     0.090 C 
HETATM    7  C15 UNL     1      17.126  34.635 -16.877  1.00  0.00    -0.018 C 
HETATM    8  C16 UNL     1      17.896  35.706 -16.837  1.00  0.00     0.016 C 
HETATM    9  C17 UNL     1      19.031  35.822 -17.831  1.00  0.00     0.175 C 
HETATM   10  C18 UNL     1      19.427  34.528 -18.449  1.00  0.00     0.084 C 
HETATM   11  C19 UNL     1      19.086  34.648 -19.945  1.00  0.00     0.049 C 
HETATM   12  C20 UNL     1      20.954  34.346 -18.442  1.00  0.00     0.049 C 
HETATM   13  O7  UNL     1      18.842  33.384 -17.914  1.00  0.00    -0.368 OA
HETATM   14  C21 UNL     1      17.474  33.633 -17.887  1.00  0.00     0.157 C 
HETATM   15  C22 UNL     1      16.612  32.429 -17.623  1.00  0.00     0.076 C 
HETATM   16  C23 UNL     1      15.195  33.004 -17.648  1.00  0.00     0.080 C 
HETATM   17  O8  UNL     1      15.140  33.916 -18.702  1.00  0.00    -0.368 OA
HETATM   18  C24 UNL     1      14.525  33.025 -19.541  1.00  0.00     0.064 C 
HETATM   19  C25 UNL     1      13.317  33.640 -20.249  1.00  0.00     0.046 C 
HETATM   20  C26 UNL     1      15.322  32.264 -20.540  1.00  0.00     0.046 C 
HETATM   21  C27 UNL     1      14.158  32.221 -18.283  1.00  0.00     0.086 C 
ENDROOT
BRANCH   6  22
HETATM   22  O3  UNL     1      15.433  35.852 -15.969  1.00  0.00    -0.385 OA
ATOM     23  H3  UNL     1      15.300  36.172 -15.084  1.00  0.00     0.211 HD
ENDBRANCH   6  22
BRANCH   6  24
HETATM   24  C8  UNL     1      16.692  34.361 -14.581  1.00  0.00     0.043 C 
BRANCH  24  25
HETATM   25  C9  UNL     1      16.483  35.146 -13.388  1.00  0.00     0.007 C 
BRANCH  25  26
HETATM   26  C10 UNL     1      15.583  34.680 -12.303  1.00  0.00     0.027 C 
BRANCH  26  27
HETATM   27  C11 UNL     1      14.132  34.961 -12.727  1.00  0.00    -0.030 C 
HETATM   28  C12 UNL     1      13.181  34.235 -12.263  1.00  0.00    -0.020 C 
BRANCH  28  29
HETATM   29  C13 UNL     1      11.750  34.302 -12.511  1.00  0.00     0.140 C 
BRANCH  29  30
HETATM   30  C14 UNL     1      11.191  35.428 -13.219  1.00  0.00     0.176 C 
HETATM   31  O4  UNL     1      11.071  36.582 -12.780  1.00  0.00    -0.648 OA
HETATM   32  O5  UNL     1      10.709  35.277 -14.557  1.00  0.00    -0.648 OA
ENDBRANCH  29  30
ENDBRANCH  28  29
ENDBRANCH  26  27
ENDBRANCH  25  26
ENDBRANCH  24  25
ENDBRANCH   6  24
BRANCH   9  33
HETATM   33  O6  UNL     1      20.089  36.448 -17.174  1.00  0.00    -0.389 OA
ATOM     34  H6  UNL     1      20.075  36.149 -16.273  1.00  0.00     0.210 HD
ENDBRANCH   9  33
BRANCH   1  35
HETATM   35  O2  UNL     1      12.153  31.101 -17.763  1.00  0.00    -0.314 OA
BRANCH  35  36
HETATM   36  C2  UNL     1      11.399  30.533 -18.774  1.00  0.00     0.255 C 
HETATM   37  C1  UNL     1      12.044  29.750 -19.872  1.00  0.00     0.126 C 
HETATM   38  O1  UNL     1      10.152  30.685 -18.756  1.00  0.00    -0.266 OA
ENDBRANCH  35  36
ENDBRANCH   1  35
TORSDOF 10
ENDMDL
