MODEL 1
REMARK VINA RESULT: -9.852248360      0.000      0.000
REMARK  9 active torsions:
REMARK  status: ('A' for Active; 'I' for Inactive)
REMARK    1  A    between atoms: S1_2  and  N1_4 
REMARK    2  A    between atoms: S1_2  and  C19_36 
REMARK    3  A    between atoms: N1_4  and  C1_6 
REMARK    4  A    between atoms: C4_9  and  S2_10 
REMARK    5  A    between atoms: S2_10  and  N2_13 
REMARK    6  A    between atoms: N2_13  and  C5_15 
REMARK    7  A    between atoms: C8_18  and  C9_19 
REMARK    8  A    between atoms: C9_19  and  C10_24 
REMARK    9  A    between atoms: N3_20  and  O5_22 
ROOT
HETATM    1  S2  UNL     1      14.414  34.879 -14.591  1.00  0.00     0.266 S 
HETATM    2  O3  UNL     1      15.530  34.585 -13.594  1.00  0.00    -0.200 OA
HETATM    3  O4  UNL     1      14.654  36.346 -14.964  1.00  0.00    -0.200 OA
ENDROOT
BRANCH   1   4
HETATM    4  C4  UNL     1      12.891  34.715 -13.760  1.00  0.00     0.118 A 
HETATM    5  C3  UNL     1      12.697  34.018 -12.594  1.00  0.00     0.031 A 
HETATM    6  C2  UNL     1      11.455  33.932 -11.976  1.00  0.00     0.032 A 
HETATM    7  C1  UNL     1      10.338  34.546 -12.503  1.00  0.00     0.045 A 
HETATM    8  C18 UNL     1      10.525  35.248 -13.673  1.00  0.00     0.074 A 
HETATM    9  C17 UNL     1      11.750  35.338 -14.290  1.00  0.00     0.141 A 
HETATM   10  F1  UNL     1      11.918  36.035 -15.447  1.00  0.00    -0.204 F 
BRANCH   7  11
HETATM   11  N1  UNL     1       9.072  34.467 -11.882  1.00  0.00    -0.281 N 
ATOM     12  H1  UNL     1       9.042  34.169 -10.907  1.00  0.00     0.179 HD
BRANCH  11  13
HETATM   13  S1  UNL     1       7.596  34.831 -12.635  1.00  0.00     0.263 S 
HETATM   14  O1  UNL     1       7.576  36.205 -13.275  1.00  0.00    -0.200 OA
HETATM   15  O2  UNL     1       7.306  33.855 -13.740  1.00  0.00    -0.200 OA
BRANCH  13  16
HETATM   16  C19 UNL     1       6.239  34.776 -11.534  1.00  0.00     0.079 A 
HETATM   17  C20 UNL     1       5.019  35.283 -11.962  1.00  0.00     0.025 A 
HETATM   18  C21 UNL     1       3.909  35.275 -11.158  1.00  0.00     0.002 A 
HETATM   19  C22 UNL     1       4.028  34.746  -9.891  1.00  0.00     0.000 A 
HETATM   20  C23 UNL     1       5.230  34.236  -9.445  1.00  0.00     0.002 A 
HETATM   21  C24 UNL     1       6.312  34.260 -10.268  1.00  0.00     0.025 A 
ENDBRANCH  13  16
ENDBRANCH  11  13
ENDBRANCH   7  11
ENDBRANCH   1   4
BRANCH   1  22
HETATM   22  N2  UNL     1      14.617  33.870 -15.934  1.00  0.00    -0.281 N 
ATOM     23  H2  UNL     1      15.547  33.765 -16.339  1.00  0.00     0.179 HD
BRANCH  22  24
HETATM   24  C5  UNL     1      13.535  33.167 -16.514  1.00  0.00     0.042 A 
HETATM   25  C6  UNL     1      12.782  33.801 -17.470  1.00  0.00     0.031 A 
HETATM   26  C7  UNL     1      11.702  33.168 -18.050  1.00  0.00     0.016 A 
HETATM   27  C8  UNL     1      11.307  31.868 -17.713  1.00  0.00    -0.005 A 
HETATM   28  C15 UNL     1      12.074  31.261 -16.759  1.00  0.00     0.016 A 
HETATM   29  C16 UNL     1      13.179  31.896 -16.159  1.00  0.00     0.031 A 
BRANCH  27  30
HETATM   30  C9  UNL     1      10.162  31.276 -18.387  1.00  0.00     0.091 C 
HETATM   31  N3  UNL     1       8.992  31.641 -18.116  1.00  0.00    -0.266 N 
ATOM     32  H3  UNL     1       8.377  31.085 -18.711  1.00  0.00     0.194 HD
BRANCH  31  33
HETATM   33  O5  UNL     1       8.233  32.396 -17.428  1.00  0.00    -0.289 OA
ATOM     34  H5  UNL     1       7.346  32.654 -17.204  1.00  0.00     0.244 HD
ENDBRANCH  31  33
BRANCH  30  35
HETATM   35  C10 UNL     1      10.274  30.225 -19.404  1.00  0.00     0.061 A 
HETATM   36  C11 UNL     1      11.299  30.332 -20.354  1.00  0.00     0.032 A 
HETATM   37  C12 UNL     1      11.465  29.380 -21.355  1.00  0.00     0.004 A 
HETATM   38  C13 UNL     1      10.606  28.306 -21.421  1.00  0.00     0.017 A 
HETATM   39  C14 UNL     1       9.617  28.236 -20.476  1.00  0.00     0.088 A 
HETATM   40  N4  UNL     1       9.494  29.177 -19.528  1.00  0.00    -0.364 N 
ATOM     41  H4  UNL     1       8.737  29.070 -18.852  1.00  0.00     0.165 HD
ENDBRANCH  30  35
ENDBRANCH  27  30
ENDBRANCH  22  24
ENDBRANCH   1  22
TORSDOF 9
ENDMDL
MODEL 2
REMARK VINA RESULT: -9.713238333      4.381      6.404
REMARK  9 active torsions:
REMARK  status: ('A' for Active; 'I' for Inactive)
REMARK    1  A    between atoms: S1_2  and  N1_4 
REMARK    2  A    between atoms: S1_2  and  C19_36 
REMARK    3  A    between atoms: N1_4  and  C1_6 
REMARK    4  A    between atoms: C4_9  and  S2_10 
REMARK    5  A    between atoms: S2_10  and  N2_13 
REMARK    6  A    between atoms: N2_13  and  C5_15 
REMARK    7  A    between atoms: C8_18  and  C9_19 
REMARK    8  A    between atoms: C9_19  and  C10_24 
REMARK    9  A    between atoms: N3_20  and  O5_22 
ROOT
HETATM    1  S2  UNL     1      14.620  35.076 -14.105  1.00  0.00     0.266 S 
HETATM    2  O3  UNL     1      15.633  34.993 -12.967  1.00  0.00    -0.200 OA
HETATM    3  O4  UNL     1      14.709  36.541 -14.546  1.00  0.00    -0.200 OA
ENDROOT
BRANCH   1   4
HETATM    4  C4  UNL     1      13.041  34.745 -13.447  1.00  0.00     0.118 A 
HETATM    5  C3  UNL     1      12.796  34.237 -12.196  1.00  0.00     0.031 A 
HETATM    6  C2  UNL     1      11.509  34.003 -11.726  1.00  0.00     0.032 A 
HETATM    7  C1  UNL     1      10.396  34.268 -12.497  1.00  0.00     0.045 A 
HETATM    8  C18 UNL     1      10.634  34.779 -13.754  1.00  0.00     0.074 A 
HETATM    9  C17 UNL     1      11.903  35.013 -14.224  1.00  0.00     0.141 A 
HETATM   10  F1  UNL     1      12.122  35.518 -15.469  1.00  0.00    -0.204 F 
BRANCH   7  11
HETATM   11  N1  UNL     1       9.084  34.035 -12.029  1.00  0.00    -0.281 N 
ATOM     12  H1  UNL     1       8.975  33.452 -11.200  1.00  0.00     0.179 HD
BRANCH  11  13
HETATM   13  S1  UNL     1       7.674  34.653 -12.743  1.00  0.00     0.263 S 
HETATM   14  O1  UNL     1       7.840  36.065 -13.266  1.00  0.00    -0.200 OA
HETATM   15  O2  UNL     1       7.266  33.819 -13.925  1.00  0.00    -0.200 OA
BRANCH  13  16
HETATM   16  C19 UNL     1       6.314  34.685 -11.645  1.00  0.00     0.079 A 
HETATM   17  C20 UNL     1       5.115  35.223 -12.093  1.00  0.00     0.025 A 
HETATM   18  C21 UNL     1       4.003  35.284 -11.293  1.00  0.00     0.002 A 
HETATM   19  C22 UNL     1       4.100  34.793 -10.009  1.00  0.00     0.000 A 
HETATM   20  C23 UNL     1       5.281  34.253  -9.542  1.00  0.00     0.002 A 
HETATM   21  C24 UNL     1       6.365  34.209 -10.363  1.00  0.00     0.025 A 
ENDBRANCH  13  16
ENDBRANCH  11  13
ENDBRANCH   7  11
ENDBRANCH   1   4
BRANCH   1  22
HETATM   22  N2  UNL     1      15.120  34.037 -15.343  1.00  0.00    -0.281 N 
ATOM     23  H2  UNL     1      14.512  33.265 -15.617  1.00  0.00     0.179 HD
BRANCH  22  24
HETATM   24  C5  UNL     1      16.355  34.207 -16.011  1.00  0.00     0.042 A 
HETATM   25  C6  UNL     1      17.412  33.414 -15.640  1.00  0.00     0.031 A 
HETATM   26  C7  UNL     1      18.645  33.555 -16.244  1.00  0.00     0.016 A 
HETATM   27  C8  UNL     1      18.898  34.493 -17.253  1.00  0.00    -0.005 A 
HETATM   28  C15 UNL     1      17.828  35.268 -17.602  1.00  0.00     0.016 A 
HETATM   29  C16 UNL     1      16.565  35.134 -16.993  1.00  0.00     0.031 A 
BRANCH  27  30
HETATM   30  C9  UNL     1      20.225  34.562 -17.842  1.00  0.00     0.091 C 
HETATM   31  N3  UNL     1      21.214  34.940 -17.167  1.00  0.00    -0.266 N 
ATOM     32  H3  UNL     1      22.017  34.903 -17.795  1.00  0.00     0.194 HD
BRANCH  31  33
HETATM   33  O5  UNL     1      21.658  35.350 -16.046  1.00  0.00    -0.289 OA
ATOM     34  H5  UNL     1      22.169  35.996 -15.573  1.00  0.00     0.244 HD
ENDBRANCH  31  33
BRANCH  30  35
HETATM   35  C10 UNL     1      20.513  34.213 -19.237  1.00  0.00     0.061 A 
HETATM   36  C11 UNL     1      21.846  34.252 -19.667  1.00  0.00     0.032 A 
HETATM   37  C12 UNL     1      22.198  33.942 -20.977  1.00  0.00     0.004 A 
HETATM   38  C13 UNL     1      21.218  33.590 -21.879  1.00  0.00     0.017 A 
HETATM   39  C14 UNL     1      19.927  33.564 -21.422  1.00  0.00     0.088 A 
HETATM   40  N4  UNL     1      19.634  33.870 -20.149  1.00  0.00    -0.364 N 
ATOM     41  H4  UNL     1      18.653  33.832 -19.869  1.00  0.00     0.165 HD
ENDBRANCH  30  35
ENDBRANCH  27  30
ENDBRANCH  22  24
ENDBRANCH   1  22
TORSDOF 9
ENDMDL
MODEL 3
REMARK VINA RESULT: -9.648873364      1.440      2.038
REMARK  9 active torsions:
REMARK  status: ('A' for Active; 'I' for Inactive)
REMARK    1  A    between atoms: S1_2  and  N1_4 
REMARK    2  A    between atoms: S1_2  and  C19_36 
REMARK    3  A    between atoms: N1_4  and  C1_6 
REMARK    4  A    between atoms: C4_9  and  S2_10 
REMARK    5  A    between atoms: S2_10  and  N2_13 
REMARK    6  A    between atoms: N2_13  and  C5_15 
REMARK    7  A    between atoms: C8_18  and  C9_19 
REMARK    8  A    between atoms: C9_19  and  C10_24 
REMARK    9  A    between atoms: N3_20  and  O5_22 
ROOT
HETATM    1  S2  UNL     1      14.512  35.004 -14.433  1.00  0.00     0.266 S 
HETATM    2  O3  UNL     1      15.602  34.868 -13.375  1.00  0.00    -0.200 OA
HETATM    3  O4  UNL     1      14.650  36.460 -14.893  1.00  0.00    -0.200 OA
ENDROOT
BRANCH   1   4
HETATM    4  C4  UNL     1      12.971  34.768 -13.655  1.00  0.00     0.118 A 
HETATM    5  C3  UNL     1      12.782  34.139 -12.449  1.00  0.00     0.031 A 
HETATM    6  C2  UNL     1      11.525  33.989 -11.876  1.00  0.00     0.032 A 
HETATM    7  C1  UNL     1      10.386  34.466 -12.491  1.00  0.00     0.045 A 
HETATM    8  C18 UNL     1      10.567  35.099 -13.702  1.00  0.00     0.074 A 
HETATM    9  C17 UNL     1      11.808  35.251 -14.274  1.00  0.00     0.141 A 
HETATM   10  F1  UNL     1      11.971  35.878 -15.470  1.00  0.00    -0.204 F 
BRANCH   7  11
HETATM   11  N1  UNL     1       9.103  34.321 -11.918  1.00  0.00    -0.281 N 
ATOM     12  H1  UNL     1       9.048  33.926 -10.979  1.00  0.00     0.179 HD
BRANCH  11  13
HETATM   13  S1  UNL     1       7.647  34.755 -12.672  1.00  0.00     0.263 S 
HETATM   14  O1  UNL     1       7.684  36.138 -13.289  1.00  0.00    -0.200 OA
HETATM   15  O2  UNL     1       7.326  33.809 -13.795  1.00  0.00    -0.200 OA
BRANCH  13  16
HETATM   16  C19 UNL     1       6.283  34.733 -11.579  1.00  0.00     0.079 A 
HETATM   17  C20 UNL     1       5.095  35.323 -11.992  1.00  0.00     0.025 A 
HETATM   18  C21 UNL     1       3.981  35.346 -11.193  1.00  0.00     0.002 A 
HETATM   19  C22 UNL     1       4.064  34.764  -9.947  1.00  0.00     0.000 A 
HETATM   20  C23 UNL     1       5.233  34.173  -9.515  1.00  0.00     0.002 A 
HETATM   21  C24 UNL     1       6.320  34.167 -10.333  1.00  0.00     0.025 A 
ENDBRANCH  13  16
ENDBRANCH  11  13
ENDBRANCH   7  11
ENDBRANCH   1   4
BRANCH   1  22
HETATM   22  N2  UNL     1      14.856  33.933 -15.697  1.00  0.00    -0.281 N 
ATOM     23  H2  UNL     1      15.825  33.806 -15.989  1.00  0.00     0.179 HD
BRANCH  22  24
HETATM   24  C5  UNL     1      13.840  33.207 -16.361  1.00  0.00     0.042 A 
HETATM   25  C6  UNL     1      13.397  33.666 -17.576  1.00  0.00     0.031 A 
HETATM   26  C7  UNL     1      12.392  33.008 -18.254  1.00  0.00     0.016 A 
HETATM   27  C8  UNL     1      11.768  31.854 -17.764  1.00  0.00    -0.005 A 
HETATM   28  C15 UNL     1      12.228  31.420 -16.553  1.00  0.00     0.016 A 
HETATM   29  C16 UNL     1      13.254  32.083 -15.851  1.00  0.00     0.031 A 
BRANCH  27  30
HETATM   30  C9  UNL     1      10.726  31.219 -18.555  1.00  0.00     0.091 C 
HETATM   31  N3  UNL     1      10.854  30.041 -18.968  1.00  0.00    -0.266 N 
ATOM     32  H3  UNL     1      10.004  29.829 -19.490  1.00  0.00     0.194 HD
BRANCH  31  33
HETATM   33  O5  UNL     1      11.575  28.993 -19.024  1.00  0.00    -0.289 OA
ATOM     34  H5  UNL     1      11.674  28.074 -18.806  1.00  0.00     0.244 HD
ENDBRANCH  31  33
BRANCH  30  35
HETATM   35  C10 UNL     1       9.475  31.886 -18.934  1.00  0.00     0.061 A 
HETATM   36  C11 UNL     1       9.362  32.386 -20.238  1.00  0.00     0.032 A 
HETATM   37  C12 UNL     1       8.210  33.037 -20.670  1.00  0.00     0.004 A 
HETATM   38  C13 UNL     1       7.155  33.199 -19.801  1.00  0.00     0.017 A 
HETATM   39  C14 UNL     1       7.303  32.698 -18.535  1.00  0.00     0.088 A 
HETATM   40  N4  UNL     1       8.432  32.076 -18.161  1.00  0.00    -0.364 N 
ATOM     41  H4  UNL     1       8.482  31.725 -17.205  1.00  0.00     0.165 HD
ENDBRANCH  30  35
ENDBRANCH  27  30
ENDBRANCH  22  24
ENDBRANCH   1  22
TORSDOF 9
ENDMDL
MODEL 4
REMARK VINA RESULT: -9.583185487      4.207      6.386
REMARK  9 active torsions:
REMARK  status: ('A' for Active; 'I' for Inactive)
REMARK    1  A    between atoms: S1_2  and  N1_4 
REMARK    2  A    between atoms: S1_2  and  C19_36 
REMARK    3  A    between atoms: N1_4  and  C1_6 
REMARK    4  A    between atoms: C4_9  and  S2_10 
REMARK    5  A    between atoms: S2_10  and  N2_13 
REMARK    6  A    between atoms: N2_13  and  C5_15 
REMARK    7  A    between atoms: C8_18  and  C9_19 
REMARK    8  A    between atoms: C9_19  and  C10_24 
REMARK    9  A    between atoms: N3_20  and  O5_22 
ROOT
HETATM    1  S2  UNL     1      11.698  34.454 -12.822  1.00  0.00     0.266 S 
HETATM    2  O3  UNL     1      12.311  33.153 -12.315  1.00  0.00    -0.200 OA
HETATM    3  O4  UNL     1      12.382  35.522 -11.962  1.00  0.00    -0.200 OA
ENDROOT
BRANCH   1   4
HETATM    4  C4  UNL     1       9.990  34.416 -12.480  1.00  0.00     0.118 A 
HETATM    5  C3  UNL     1       9.334  33.392 -11.843  1.00  0.00     0.031 A 
HETATM    6  C2  UNL     1       7.967  33.426 -11.593  1.00  0.00     0.032 A 
HETATM    7  C1  UNL     1       7.186  34.497 -11.974  1.00  0.00     0.045 A 
HETATM    8  C18 UNL     1       7.837  35.528 -12.614  1.00  0.00     0.074 A 
HETATM    9  C17 UNL     1       9.188  35.502 -12.864  1.00  0.00     0.141 A 
HETATM   10  F1  UNL     1       9.817  36.529 -13.498  1.00  0.00    -0.204 F 
BRANCH   7  11
HETATM   11  N1  UNL     1       5.796  34.543 -11.723  1.00  0.00    -0.281 N 
ATOM     12  H1  UNL     1       5.439  33.988 -10.945  1.00  0.00     0.179 HD
BRANCH  11  13
HETATM   13  S1  UNL     1       4.677  35.451 -12.617  1.00  0.00     0.263 S 
HETATM   14  O1  UNL     1       3.288  35.448 -12.011  1.00  0.00    -0.200 OA
HETATM   15  O2  UNL     1       5.095  36.892 -12.689  1.00  0.00    -0.200 OA
BRANCH  13  16
HETATM   16  C19 UNL     1       4.503  34.884 -14.262  1.00  0.00     0.079 A 
HETATM   17  C20 UNL     1       3.537  35.476 -15.066  1.00  0.00     0.025 A 
HETATM   18  C21 UNL     1       3.339  35.089 -16.366  1.00  0.00     0.002 A 
HETATM   19  C22 UNL     1       4.132  34.081 -16.871  1.00  0.00     0.000 A 
HETATM   20  C23 UNL     1       5.098  33.479 -16.091  1.00  0.00     0.002 A 
HETATM   21  C24 UNL     1       5.268  33.888 -14.805  1.00  0.00     0.025 A 
ENDBRANCH  13  16
ENDBRANCH  11  13
ENDBRANCH   7  11
ENDBRANCH   1   4
BRANCH   1  22
HETATM   22  N2  UNL     1      12.105  34.637 -14.454  1.00  0.00    -0.281 N 
ATOM     23  H2  UNL     1      11.364  34.816 -15.132  1.00  0.00     0.179 HD
BRANCH  22  24
HETATM   24  C5  UNL     1      13.442  34.550 -14.908  1.00  0.00     0.042 A 
HETATM   25  C6  UNL     1      14.318  35.546 -14.552  1.00  0.00     0.031 A 
HETATM   26  C7  UNL     1      15.627  35.521 -14.987  1.00  0.00     0.016 A 
HETATM   27  C8  UNL     1      16.142  34.504 -15.802  1.00  0.00    -0.005 A 
HETATM   28  C15 UNL     1      15.248  33.527 -16.140  1.00  0.00     0.016 A 
HETATM   29  C16 UNL     1      13.909  33.542 -15.702  1.00  0.00     0.031 A 
BRANCH  27  30
HETATM   30  C9  UNL     1      17.539  34.553 -16.201  1.00  0.00     0.091 C 
HETATM   31  N3  UNL     1      18.386  33.782 -15.688  1.00  0.00    -0.266 N 
ATOM     32  H3  UNL     1      19.279  34.009 -16.126  1.00  0.00     0.194 HD
BRANCH  31  33
HETATM   33  O5  UNL     1      18.625  32.842 -14.863  1.00  0.00    -0.289 OA
ATOM     34  H5  UNL     1      18.678  32.565 -13.956  1.00  0.00     0.244 HD
ENDBRANCH  31  33
BRANCH  30  35
HETATM   35  C10 UNL     1      18.064  35.488 -17.202  1.00  0.00     0.061 A 
HETATM   36  C11 UNL     1      17.413  35.562 -18.441  1.00  0.00     0.032 A 
HETATM   37  C12 UNL     1      17.856  36.419 -19.445  1.00  0.00     0.004 A 
HETATM   38  C13 UNL     1      18.958  37.213 -19.224  1.00  0.00     0.017 A 
HETATM   39  C14 UNL     1      19.567  37.113 -18.001  1.00  0.00     0.088 A 
HETATM   40  N4  UNL     1      19.106  36.273 -17.062  1.00  0.00    -0.364 N 
ATOM     41  H4  UNL     1      19.603  36.242 -16.171  1.00  0.00     0.165 HD
ENDBRANCH  30  35
ENDBRANCH  27  30
ENDBRANCH  22  24
ENDBRANCH   1  22
TORSDOF 9
ENDMDL
MODEL 5
REMARK VINA RESULT: -9.571175286      1.042      1.802
REMARK  9 active torsions:
REMARK  status: ('A' for Active; 'I' for Inactive)
REMARK    1  A    between atoms: S1_2  and  N1_4 
REMARK    2  A    between atoms: S1_2  and  C19_36 
REMARK    3  A    between atoms: N1_4  and  C1_6 
REMARK    4  A    between atoms: C4_9  and  S2_10 
REMARK    5  A    between atoms: S2_10  and  N2_13 
REMARK    6  A    between atoms: N2_13  and  C5_15 
REMARK    7  A    between atoms: C8_18  and  C9_19 
REMARK    8  A    between atoms: C9_19  and  C10_24 
REMARK    9  A    between atoms: N3_20  and  O5_22 
ROOT
HETATM    1  S2  UNL     1      14.177  35.150 -14.479  1.00  0.00     0.266 S 
HETATM    2  O3  UNL     1      15.019  34.816 -13.253  1.00  0.00    -0.200 OA
HETATM    3  O4  UNL     1      14.778  36.473 -14.967  1.00  0.00    -0.200 OA
ENDROOT
BRANCH   1   4
HETATM    4  C4  UNL     1      12.534  35.399 -13.956  1.00  0.00     0.118 A 
HETATM    5  C3  UNL     1      11.763  36.492 -14.262  1.00  0.00     0.031 A 
HETATM    6  C2  UNL     1      10.452  36.627 -13.819  1.00  0.00     0.032 A 
HETATM    7  C1  UNL     1       9.848  35.664 -13.038  1.00  0.00     0.045 A 
HETATM    8  C18 UNL     1      10.615  34.563 -12.726  1.00  0.00     0.074 A 
HETATM    9  C17 UNL     1      11.911  34.423 -13.161  1.00  0.00     0.141 A 
HETATM   10  F1  UNL     1      12.657  33.329 -12.844  1.00  0.00    -0.204 F 
BRANCH   7  11
HETATM   11  N1  UNL     1       8.517  35.790 -12.583  1.00  0.00    -0.281 N 
ATOM     12  H1  UNL     1       8.198  36.719 -12.310  1.00  0.00     0.179 HD
BRANCH  11  13
HETATM   13  S1  UNL     1       7.408  34.512 -12.455  1.00  0.00     0.263 S 
HETATM   14  O1  UNL     1       7.351  33.647 -13.698  1.00  0.00    -0.200 OA
HETATM   15  O2  UNL     1       7.781  33.593 -11.327  1.00  0.00    -0.200 OA
BRANCH  13  16
HETATM   16  C19 UNL     1       5.775  35.058 -12.153  1.00  0.00     0.079 A 
HETATM   17  C20 UNL     1       5.196  34.763 -10.925  1.00  0.00     0.025 A 
HETATM   18  C21 UNL     1       3.921  35.157 -10.612  1.00  0.00     0.002 A 
HETATM   19  C22 UNL     1       3.208  35.864 -11.557  1.00  0.00     0.000 A 
HETATM   20  C23 UNL     1       3.763  36.168 -12.783  1.00  0.00     0.002 A 
HETATM   21  C24 UNL     1       5.031  35.762 -13.061  1.00  0.00     0.025 A 
ENDBRANCH  13  16
ENDBRANCH  11  13
ENDBRANCH   7  11
ENDBRANCH   1   4
BRANCH   1  22
HETATM   22  N2  UNL     1      14.393  33.925 -15.627  1.00  0.00    -0.281 N 
ATOM     23  H2  UNL     1      15.335  33.582 -15.813  1.00  0.00     0.179 HD
BRANCH  22  24
HETATM   24  C5  UNL     1      13.306  33.363 -16.336  1.00  0.00     0.042 A 
HETATM   25  C6  UNL     1      12.911  32.086 -16.020  1.00  0.00     0.031 A 
HETATM   26  C7  UNL     1      11.872  31.483 -16.697  1.00  0.00     0.016 A 
HETATM   27  C8  UNL     1      11.163  32.113 -17.728  1.00  0.00    -0.005 A 
HETATM   28  C15 UNL     1      11.578  33.382 -18.021  1.00  0.00     0.016 A 
HETATM   29  C16 UNL     1      12.638  34.009 -17.337  1.00  0.00     0.031 A 
BRANCH  27  30
HETATM   30  C9  UNL     1      10.073  31.403 -18.377  1.00  0.00     0.091 C 
HETATM   31  N3  UNL     1       8.876  31.657 -18.093  1.00  0.00    -0.266 N 
ATOM     32  H3  UNL     1       8.310  31.037 -18.672  1.00  0.00     0.194 HD
BRANCH  31  33
HETATM   33  O5  UNL     1       8.057  32.344 -17.402  1.00  0.00    -0.289 OA
ATOM     34  H5  UNL     1       7.418  32.363 -16.699  1.00  0.00     0.244 HD
ENDBRANCH  31  33
BRANCH  30  35
HETATM   35  C10 UNL     1      10.272  30.356 -19.384  1.00  0.00     0.061 A 
HETATM   36  C11 UNL     1      11.287  30.536 -20.333  1.00  0.00     0.032 A 
HETATM   37  C12 UNL     1      11.533  29.590 -21.325  1.00  0.00     0.004 A 
HETATM   38  C13 UNL     1      10.764  28.449 -21.381  1.00  0.00     0.017 A 
HETATM   39  C14 UNL     1       9.782  28.308 -20.436  1.00  0.00     0.088 A 
HETATM   40  N4  UNL     1       9.581  29.246 -19.498  1.00  0.00    -0.364 N 
ATOM     41  H4  UNL     1       8.833  29.084 -18.822  1.00  0.00     0.165 HD
ENDBRANCH  30  35
ENDBRANCH  27  30
ENDBRANCH  22  24
ENDBRANCH   1  22
TORSDOF 9
ENDMDL
