MODEL 1
REMARK VINA RESULT: -8.702880524      0.000      0.000
REMARK  11 active torsions:
REMARK  status: ('A' for Active; 'I' for Inactive)
REMARK    1  A    between atoms: O1_2  and  C2_3 
REMARK    2  A    between atoms: C2_3  and  C3_4 
REMARK    3  A    between atoms: C2_3  and  C9_10 
REMARK    4  A    between atoms: C10_11  and  C11_12 
REMARK    5  A    between atoms: C11_12  and  O2_13 
REMARK    6  A    between atoms: C11_12  and  C12_15 
REMARK    7  A    between atoms: C20_23  and  S1_24 
REMARK    8  A    between atoms: S1_24  and  C21_27 
REMARK    9  A    between atoms: C21_27  and  C22_28 
REMARK   10  A    between atoms: C22_28  and  O5_29 
REMARK   11  A    between atoms: N1_31  and  O6_33 
ROOT
HETATM    1  C9  UNL     1      10.957  34.315 -14.239  1.00  0.00     0.047 A 
HETATM    2  C10 UNL     1      10.120  33.586 -13.454  1.00  0.00    -0.009 A 
HETATM    3  C18 UNL     1       9.477  32.517 -14.079  1.00  0.00     0.013 A 
HETATM    4  C19 UNL     1       9.663  32.194 -15.414  1.00  0.00     0.027 A 
HETATM    5  C20 UNL     1      10.492  32.912 -16.193  1.00  0.00     0.100 A 
HETATM    6  C27 UNL     1      11.138  33.990 -15.563  1.00  0.00     0.151 A 
HETATM    7  F1  UNL     1      11.982  34.728 -16.343  1.00  0.00    -0.203 F 
ENDROOT
BRANCH   5   8
HETATM    8  S1  UNL     1      10.782  32.615 -17.880  1.00  0.00     0.195 S 
HETATM    9  O3  UNL     1      11.206  33.918 -18.544  1.00  0.00    -0.221 OA
HETATM   10  O4  UNL     1       9.435  32.287 -18.547  1.00  0.00    -0.221 OA
BRANCH   8  11
HETATM   11  C21 UNL     1      11.948  31.394 -18.279  1.00  0.00     0.138 C 
HETATM   12  C23 UNL     1      12.796  30.946 -17.125  1.00  0.00     0.060 C 
HETATM   13  C24 UNL     1      13.903  31.881 -16.762  1.00  0.00     0.169 C 
HETATM   14  O7  UNL     1      14.736  32.067 -17.839  1.00  0.00    -0.391 OA
HETATM   15  C25 UNL     1      14.008  32.761 -18.808  1.00  0.00     0.169 C 
HETATM   16  C26 UNL     1      12.890  31.941 -19.357  1.00  0.00     0.060 C 
BRANCH  11  17
HETATM   17  C22 UNL     1      11.367  30.163 -18.913  1.00  0.00     0.160 C 
HETATM   18  N1  UNL     1      10.148  29.795 -18.759  1.00  0.00    -0.250 N 
ATOM     19  H1  UNL     1       9.520  30.352 -18.179  1.00  0.00     0.196 HD
BRANCH  17  20
HETATM   20  O5  UNL     1      12.205  29.394 -19.696  1.00  0.00    -0.347 OA
ATOM     21  H5  UNL     1      12.170  28.451 -19.581  1.00  0.00     0.219 HD
ENDBRANCH  17  20
BRANCH  18  22
HETATM   22  O6  UNL     1       9.684  28.666 -19.364  1.00  0.00    -0.288 OA
ATOM     23  H6  UNL     1       9.365  27.936 -18.846  1.00  0.00     0.244 HD
ENDBRANCH  18  22
ENDBRANCH  11  17
ENDBRANCH   8  11
ENDBRANCH   5   8
BRANCH   1  24
HETATM   24  C2  UNL     1      11.654  35.483 -13.667  1.00  0.00     0.092 C 
BRANCH  24  25
HETATM   25  O1  UNL     1      11.307  36.689 -14.184  1.00  0.00    -0.354 OA
HETATM   26  C1  UNL     1      10.698  37.590 -13.358  1.00  0.00     0.210 C 
ENDBRANCH  24  25
BRANCH  24  27
HETATM   27  C3  UNL     1      13.072  35.245 -13.361  1.00  0.00    -0.002 A 
HETATM   28  C4  UNL     1      13.452  34.697 -12.166  1.00  0.00     0.014 A 
HETATM   29  C5  UNL     1      14.795  34.482 -11.897  1.00  0.00     0.001 A 
HETATM   30  C6  UNL     1      15.751  34.824 -12.838  1.00  0.00     0.000 A 
HETATM   31  C7  UNL     1      15.366  35.372 -14.030  1.00  0.00     0.001 A 
HETATM   32  C8  UNL     1      14.020  35.578 -14.279  1.00  0.00     0.014 A 
ENDBRANCH  24  27
ENDBRANCH   1  24
BRANCH   2  33
HETATM   33  C11 UNL     1       9.786  33.734 -12.058  1.00  0.00     0.185 C 
BRANCH  33  34
HETATM   34  O2  UNL     1       9.778  32.763 -11.175  1.00  0.00    -0.386 OA
ATOM     35  H2  UNL     1       9.105  32.624 -10.519  1.00  0.00     0.210 HD
ENDBRANCH  33  34
BRANCH  33  36
HETATM   36  C12 UNL     1       8.408  34.361 -11.988  1.00  0.00    -0.025 A 
HETATM   37  C13 UNL     1       7.415  33.820 -11.165  1.00  0.00     0.010 A 
HETATM   38  C14 UNL     1       6.162  34.372 -11.047  1.00  0.00     0.001 A 
HETATM   39  C15 UNL     1       5.867  35.495 -11.760  1.00  0.00     0.000 A 
HETATM   40  C16 UNL     1       6.804  36.073 -12.588  1.00  0.00     0.001 A 
HETATM   41  C17 UNL     1       8.044  35.482 -12.671  1.00  0.00     0.010 A 
ENDBRANCH  33  36
ENDBRANCH   2  33
TORSDOF 11
ENDMDL
MODEL 2
REMARK VINA RESULT: -8.379807777      1.607      2.541
REMARK  11 active torsions:
REMARK  status: ('A' for Active; 'I' for Inactive)
REMARK    1  A    between atoms: O1_2  and  C2_3 
REMARK    2  A    between atoms: C2_3  and  C3_4 
REMARK    3  A    between atoms: C2_3  and  C9_10 
REMARK    4  A    between atoms: C10_11  and  C11_12 
REMARK    5  A    between atoms: C11_12  and  O2_13 
REMARK    6  A    between atoms: C11_12  and  C12_15 
REMARK    7  A    between atoms: C20_23  and  S1_24 
REMARK    8  A    between atoms: S1_24  and  C21_27 
REMARK    9  A    between atoms: C21_27  and  C22_28 
REMARK   10  A    between atoms: C22_28  and  O5_29 
REMARK   11  A    between atoms: N1_31  and  O6_33 
ROOT
HETATM    1  C9  UNL     1      11.171  34.282 -14.303  1.00  0.00     0.047 A 
HETATM    2  C10 UNL     1      10.318  33.594 -13.498  1.00  0.00    -0.009 A 
HETATM    3  C18 UNL     1       9.687  32.495 -14.081  1.00  0.00     0.013 A 
HETATM    4  C19 UNL     1       9.897  32.105 -15.395  1.00  0.00     0.027 A 
HETATM    5  C20 UNL     1      10.741  32.783 -16.193  1.00  0.00     0.100 A 
HETATM    6  C27 UNL     1      11.376  33.891 -15.606  1.00  0.00     0.151 A 
HETATM    7  F1  UNL     1      12.234  34.589 -16.406  1.00  0.00    -0.203 F 
ENDROOT
BRANCH   5   8
HETATM    8  S1  UNL     1      11.062  32.402 -17.857  1.00  0.00     0.195 S 
HETATM    9  O3  UNL     1      10.868  30.907 -18.067  1.00  0.00    -0.221 OA
HETATM   10  O4  UNL     1      12.564  32.616 -18.116  1.00  0.00    -0.221 OA
BRANCH   8  11
HETATM   11  C21 UNL     1      10.134  33.246 -19.055  1.00  0.00     0.138 C 
HETATM   12  C23 UNL     1      10.476  32.887 -20.471  1.00  0.00     0.060 C 
HETATM   13  C24 UNL     1      11.724  33.521 -20.994  1.00  0.00     0.169 C 
HETATM   14  O7  UNL     1      11.620  34.890 -20.929  1.00  0.00    -0.391 OA
HETATM   15  C25 UNL     1      11.601  35.238 -19.577  1.00  0.00     0.169 C 
HETATM   16  C26 UNL     1      10.368  34.752 -18.894  1.00  0.00     0.060 C 
BRANCH  11  17
HETATM   17  C22 UNL     1       8.647  33.104 -18.905  1.00  0.00     0.160 C 
HETATM   18  N1  UNL     1       8.082  32.067 -18.402  1.00  0.00    -0.250 N 
ATOM     19  H1  UNL     1       8.652  31.285 -18.082  1.00  0.00     0.196 HD
BRANCH  17  20
HETATM   20  O5  UNL     1       7.859  34.151 -19.339  1.00  0.00    -0.347 OA
ATOM     21  H5  UNL     1       6.971  34.200 -19.006  1.00  0.00     0.219 HD
ENDBRANCH  17  20
BRANCH  18  22
HETATM   22  O6  UNL     1       6.725  32.003 -18.293  1.00  0.00    -0.288 OA
ATOM     23  H6  UNL     1       6.221  32.779 -18.080  1.00  0.00     0.244 HD
ENDBRANCH  18  22
ENDBRANCH  11  17
ENDBRANCH   8  11
ENDBRANCH   5   8
BRANCH   1  24
HETATM   24  C2  UNL     1      11.857  35.478 -13.778  1.00  0.00     0.092 C 
BRANCH  24  25
HETATM   25  O1  UNL     1      11.486  36.661 -14.328  1.00  0.00    -0.354 OA
HETATM   26  C1  UNL     1      10.808  37.550 -13.544  1.00  0.00     0.210 C 
ENDBRANCH  24  25
BRANCH  24  27
HETATM   27  C3  UNL     1      13.283  35.270 -13.483  1.00  0.00    -0.002 A 
HETATM   28  C4  UNL     1      14.246  35.597 -14.398  1.00  0.00     0.014 A 
HETATM   29  C5  UNL     1      15.585  35.391 -14.100  1.00  0.00     0.001 A 
HETATM   30  C6  UNL     1      15.944  34.854 -12.877  1.00  0.00     0.000 A 
HETATM   31  C7  UNL     1      14.978  34.528 -11.966  1.00  0.00     0.001 A 
HETATM   32  C8  UNL     1      13.647  34.742 -12.283  1.00  0.00     0.014 A 
ENDBRANCH  24  27
ENDBRANCH   1  24
BRANCH   2  33
HETATM   33  C11 UNL     1       9.960  33.811 -12.119  1.00  0.00     0.185 C 
BRANCH  33  34
HETATM   34  O2  UNL     1       9.965  32.892 -11.181  1.00  0.00    -0.386 OA
ATOM     35  H2  UNL     1       9.229  32.679 -10.618  1.00  0.00     0.210 HD
ENDBRANCH  33  34
BRANCH  33  36
HETATM   36  C12 UNL     1       8.563  34.401 -12.104  1.00  0.00    -0.025 A 
HETATM   37  C13 UNL     1       7.552  33.830 -11.324  1.00  0.00     0.010 A 
HETATM   38  C14 UNL     1       6.280  34.348 -11.256  1.00  0.00     0.001 A 
HETATM   39  C15 UNL     1       5.985  35.466 -11.978  1.00  0.00     0.000 A 
HETATM   40  C16 UNL     1       6.940  36.072 -12.763  1.00  0.00     0.001 A 
HETATM   41  C17 UNL     1       8.198  35.515 -12.797  1.00  0.00     0.010 A 
ENDBRANCH  33  36
ENDBRANCH   2  33
TORSDOF 11
ENDMDL
MODEL 3
REMARK VINA RESULT: -8.284771114      3.199      8.021
REMARK  11 active torsions:
REMARK  status: ('A' for Active; 'I' for Inactive)
REMARK    1  A    between atoms: O1_2  and  C2_3 
REMARK    2  A    between atoms: C2_3  and  C3_4 
REMARK    3  A    between atoms: C2_3  and  C9_10 
REMARK    4  A    between atoms: C10_11  and  C11_12 
REMARK    5  A    between atoms: C11_12  and  O2_13 
REMARK    6  A    between atoms: C11_12  and  C12_15 
REMARK    7  A    between atoms: C20_23  and  S1_24 
REMARK    8  A    between atoms: S1_24  and  C21_27 
REMARK    9  A    between atoms: C21_27  and  C22_28 
REMARK   10  A    between atoms: C22_28  and  O5_29 
REMARK   11  A    between atoms: N1_31  and  O6_33 
ROOT
HETATM    1  C9  UNL     1      12.779  33.161 -18.174  1.00  0.00     0.047 A 
HETATM    2  C10 UNL     1      13.433  31.970 -18.153  1.00  0.00    -0.009 A 
HETATM    3  C18 UNL     1      13.500  31.335 -16.912  1.00  0.00     0.013 A 
HETATM    4  C19 UNL     1      12.943  31.863 -15.758  1.00  0.00     0.027 A 
HETATM    5  C20 UNL     1      12.294  33.041 -15.776  1.00  0.00     0.100 A 
HETATM    6  C27 UNL     1      12.227  33.680 -17.026  1.00  0.00     0.151 A 
HETATM    7  F1  UNL     1      11.572  34.878 -17.059  1.00  0.00    -0.203 F 
ENDROOT
BRANCH   5   8
HETATM    8  S1  UNL     1      11.580  33.808 -14.390  1.00  0.00     0.195 S 
HETATM    9  O3  UNL     1      11.665  32.858 -13.203  1.00  0.00    -0.221 OA
HETATM   10  O4  UNL     1      10.068  33.942 -14.643  1.00  0.00    -0.221 OA
BRANCH   8  11
HETATM   11  C21 UNL     1      12.233  35.341 -13.911  1.00  0.00     0.138 C 
HETATM   12  C23 UNL     1      13.305  35.870 -14.817  1.00  0.00     0.060 C 
HETATM   13  C24 UNL     1      14.648  35.242 -14.628  1.00  0.00     0.169 C 
HETATM   14  O7  UNL     1      15.075  35.420 -13.335  1.00  0.00    -0.391 OA
HETATM   15  C25 UNL     1      14.230  34.670 -12.514  1.00  0.00     0.169 C 
HETATM   16  C26 UNL     1      12.839  35.207 -12.510  1.00  0.00     0.060 C 
BRANCH  11  17
HETATM   17  C22 UNL     1      11.210  36.430 -13.747  1.00  0.00     0.160 C 
HETATM   18  N1  UNL     1      11.095  37.138 -12.683  1.00  0.00    -0.250 N 
ATOM     19  H1  UNL     1      11.719  36.971 -11.894  1.00  0.00     0.196 HD
BRANCH  17  20
HETATM   20  O5  UNL     1      10.354  36.664 -14.804  1.00  0.00    -0.347 OA
ATOM     21  H5  UNL     1       9.938  35.911 -15.206  1.00  0.00     0.219 HD
ENDBRANCH  17  20
BRANCH  18  22
HETATM   22  O6  UNL     1      10.146  38.112 -12.600  1.00  0.00    -0.288 OA
ATOM     23  H6  UNL     1       9.300  37.999 -13.018  1.00  0.00     0.244 HD
ENDBRANCH  18  22
ENDBRANCH  11  17
ENDBRANCH   8  11
ENDBRANCH   5   8
BRANCH   1  24
HETATM   24  C2  UNL     1      12.688  33.916 -19.439  1.00  0.00     0.092 C 
BRANCH  24  25
HETATM   25  O1  UNL     1      11.886  33.379 -20.392  1.00  0.00    -0.354 OA
HETATM   26  C1  UNL     1      10.564  33.721 -20.385  1.00  0.00     0.210 C 
ENDBRANCH  24  25
BRANCH  24  27
HETATM   27  C3  UNL     1      13.957  34.524 -19.867  1.00  0.00    -0.002 A 
HETATM   28  C4  UNL     1      14.771  35.160 -18.969  1.00  0.00     0.014 A 
HETATM   29  C5  UNL     1      15.962  35.728 -19.393  1.00  0.00     0.001 A 
HETATM   30  C6  UNL     1      16.327  35.653 -20.726  1.00  0.00     0.000 A 
HETATM   31  C7  UNL     1      15.510  35.016 -21.619  1.00  0.00     0.001 A 
HETATM   32  C8  UNL     1      14.325  34.456 -21.175  1.00  0.00     0.014 A 
ENDBRANCH  24  27
ENDBRANCH   1  24
BRANCH   2  33
HETATM   33  C11 UNL     1      14.072  31.239 -19.219  1.00  0.00     0.185 C 
BRANCH  33  34
HETATM   34  O2  UNL     1      14.025  29.936 -19.378  1.00  0.00    -0.386 OA
ATOM     35  H2  UNL     1      14.602  29.311 -18.955  1.00  0.00     0.210 HD
ENDBRANCH  33  34
BRANCH  33  36
HETATM   36  C12 UNL     1      15.546  31.591 -19.187  1.00  0.00    -0.025 A 
HETATM   37  C13 UNL     1      16.320  31.548 -20.350  1.00  0.00     0.010 A 
HETATM   38  C14 UNL     1      17.652  31.889 -20.374  1.00  0.00     0.001 A 
HETATM   39  C15 UNL     1      18.250  32.287 -19.216  1.00  0.00     0.000 A 
HETATM   40  C16 UNL     1      17.539  32.349 -18.038  1.00  0.00     0.001 A 
HETATM   41  C17 UNL     1      16.208  31.998 -18.068  1.00  0.00     0.010 A 
ENDBRANCH  33  36
ENDBRANCH   2  33
TORSDOF 11
ENDMDL
MODEL 4
REMARK VINA RESULT: -8.132105242      1.157      2.334
REMARK  11 active torsions:
REMARK  status: ('A' for Active; 'I' for Inactive)
REMARK    1  A    between atoms: O1_2  and  C2_3 
REMARK    2  A    between atoms: C2_3  and  C3_4 
REMARK    3  A    between atoms: C2_3  and  C9_10 
REMARK    4  A    between atoms: C10_11  and  C11_12 
REMARK    5  A    between atoms: C11_12  and  O2_13 
REMARK    6  A    between atoms: C11_12  and  C12_15 
REMARK    7  A    between atoms: C20_23  and  S1_24 
REMARK    8  A    between atoms: S1_24  and  C21_27 
REMARK    9  A    between atoms: C21_27  and  C22_28 
REMARK   10  A    between atoms: C22_28  and  O5_29 
REMARK   11  A    between atoms: N1_31  and  O6_33 
ROOT
HETATM    1  C9  UNL     1      10.920  34.300 -14.373  1.00  0.00     0.047 A 
HETATM    2  C10 UNL     1      10.140  33.545 -13.554  1.00  0.00    -0.009 A 
HETATM    3  C18 UNL     1       9.531  32.439 -14.145  1.00  0.00     0.013 A 
HETATM    4  C19 UNL     1       9.693  32.105 -15.481  1.00  0.00     0.027 A 
HETATM    5  C20 UNL     1      10.465  32.848 -16.293  1.00  0.00     0.100 A 
HETATM    6  C27 UNL     1      11.078  33.964 -15.698  1.00  0.00     0.151 A 
HETATM    7  F1  UNL     1      11.863  34.729 -16.511  1.00  0.00    -0.203 F 
ENDROOT
BRANCH   5   8
HETATM    8  S1  UNL     1      10.720  32.540 -17.984  1.00  0.00     0.195 S 
HETATM    9  O3  UNL     1      10.634  33.857 -18.743  1.00  0.00    -0.221 OA
HETATM   10  O4  UNL     1       9.519  31.736 -18.511  1.00  0.00    -0.221 OA
BRANCH   8  11
HETATM   11  C21 UNL     1      12.198  31.748 -18.429  1.00  0.00     0.138 C 
HETATM   12  C23 UNL     1      12.740  32.154 -19.768  1.00  0.00     0.060 C 
HETATM   13  C24 UNL     1      12.054  31.526 -20.937  1.00  0.00     0.169 C 
HETATM   14  O7  UNL     1      12.139  30.157 -20.854  1.00  0.00    -0.391 OA
HETATM   15  C25 UNL     1      11.373  29.762 -19.756  1.00  0.00     0.169 C 
HETATM   16  C26 UNL     1      11.958  30.235 -18.469  1.00  0.00     0.060 C 
BRANCH  11  17
HETATM   17  C22 UNL     1      13.310  31.900 -17.432  1.00  0.00     0.160 C 
HETATM   18  N1  UNL     1      14.180  32.843 -17.478  1.00  0.00    -0.250 N 
ATOM     19  H1  UNL     1      14.133  33.538 -18.224  1.00  0.00     0.196 HD
BRANCH  17  20
HETATM   20  O5  UNL     1      13.391  30.965 -16.420  1.00  0.00    -0.347 OA
ATOM     21  H5  UNL     1      12.882  30.168 -16.517  1.00  0.00     0.219 HD
ENDBRANCH  17  20
BRANCH  18  22
HETATM   22  O6  UNL     1      15.164  32.924 -16.540  1.00  0.00    -0.288 OA
ATOM     23  H6  UNL     1      15.857  33.567 -16.622  1.00  0.00     0.244 HD
ENDBRANCH  18  22
ENDBRANCH  11  17
ENDBRANCH   8  11
ENDBRANCH   5   8
BRANCH   1  24
HETATM   24  C2  UNL     1      11.577  35.508 -13.838  1.00  0.00     0.092 C 
BRANCH  24  25
HETATM   25  O1  UNL     1      11.136  36.690 -14.336  1.00  0.00    -0.354 OA
HETATM   26  C1  UNL     1      10.704  37.638 -13.453  1.00  0.00     0.210 C 
ENDBRANCH  24  25
BRANCH  24  27
HETATM   27  C3  UNL     1      13.021  35.352 -13.604  1.00  0.00    -0.002 A 
HETATM   28  C4  UNL     1      13.933  35.751 -14.543  1.00  0.00     0.014 A 
HETATM   29  C5  UNL     1      15.289  35.593 -14.303  1.00  0.00     0.001 A 
HETATM   30  C6  UNL     1      15.719  35.031 -13.114  1.00  0.00     0.000 A 
HETATM   31  C7  UNL     1      14.804  34.634 -12.179  1.00  0.00     0.001 A 
HETATM   32  C8  UNL     1      13.454  34.800 -12.438  1.00  0.00     0.014 A 
ENDBRANCH  24  27
ENDBRANCH   1  24
BRANCH   2  33
HETATM   33  C11 UNL     1       9.841  33.699 -12.151  1.00  0.00     0.185 C 
BRANCH  33  34
HETATM   34  O2  UNL     1       9.859  32.731 -11.264  1.00  0.00    -0.386 OA
ATOM     35  H2  UNL     1       9.372  32.727 -10.448  1.00  0.00     0.210 HD
ENDBRANCH  33  34
BRANCH  33  36
HETATM   36  C12 UNL     1       8.461  34.318 -12.050  1.00  0.00    -0.025 A 
HETATM   37  C13 UNL     1       7.497  33.786 -11.188  1.00  0.00     0.010 A 
HETATM   38  C14 UNL     1       6.244  34.333 -11.042  1.00  0.00     0.001 A 
HETATM   39  C15 UNL     1       5.921  35.442 -11.765  1.00  0.00     0.000 A 
HETATM   40  C16 UNL     1       6.829  36.011 -12.630  1.00  0.00     0.001 A 
HETATM   41  C17 UNL     1       8.070  35.425 -12.740  1.00  0.00     0.010 A 
ENDBRANCH  33  36
ENDBRANCH   2  33
TORSDOF 11
ENDMDL
MODEL 5
REMARK VINA RESULT: -8.100263016      1.704      5.165
REMARK  11 active torsions:
REMARK  status: ('A' for Active; 'I' for Inactive)
REMARK    1  A    between atoms: O1_2  and  C2_3 
REMARK    2  A    between atoms: C2_3  and  C3_4 
REMARK    3  A    between atoms: C2_3  and  C9_10 
REMARK    4  A    between atoms: C10_11  and  C11_12 
REMARK    5  A    between atoms: C11_12  and  O2_13 
REMARK    6  A    between atoms: C11_12  and  C12_15 
REMARK    7  A    between atoms: C20_23  and  S1_24 
REMARK    8  A    between atoms: S1_24  and  C21_27 
REMARK    9  A    between atoms: C21_27  and  C22_28 
REMARK   10  A    between atoms: C22_28  and  O5_29 
REMARK   11  A    between atoms: N1_31  and  O6_33 
ROOT
HETATM    1  C9  UNL     1      12.151  34.717 -15.186  1.00  0.00     0.047 A 
HETATM    2  C10 UNL     1      13.173  35.499 -15.623  1.00  0.00    -0.009 A 
HETATM    3  C18 UNL     1      13.387  35.505 -17.001  1.00  0.00     0.013 A 
HETATM    4  C19 UNL     1      12.622  34.769 -17.893  1.00  0.00     0.027 A 
HETATM    5  C20 UNL     1      11.609  33.995 -17.464  1.00  0.00     0.100 A 
HETATM    6  C27 UNL     1      11.393  33.989 -16.075  1.00  0.00     0.151 A 
HETATM    7  F1  UNL     1      10.368  33.207 -15.626  1.00  0.00    -0.203 F 
ENDROOT
BRANCH   5   8
HETATM    8  S1  UNL     1      10.601  33.015 -18.485  1.00  0.00     0.195 S 
HETATM    9  O3  UNL     1      10.459  33.697 -19.838  1.00  0.00    -0.221 OA
HETATM   10  O4  UNL     1       9.173  33.039 -17.913  1.00  0.00    -0.221 OA
BRANCH   8  11
HETATM   11  C21 UNL     1      11.100  31.375 -18.749  1.00  0.00     0.138 C 
HETATM   12  C23 UNL     1      11.750  30.726 -17.563  1.00  0.00     0.060 C 
HETATM   13  C24 UNL     1      13.174  31.120 -17.337  1.00  0.00     0.169 C 
HETATM   14  O7  UNL     1      13.930  30.813 -18.442  1.00  0.00    -0.391 OA
HETATM   15  C25 UNL     1      13.506  31.649 -19.477  1.00  0.00     0.169 C 
HETATM   16  C26 UNL     1      12.110  31.343 -19.902  1.00  0.00     0.060 C 
BRANCH  11  17
HETATM   17  C22 UNL     1      10.006  30.459 -19.216  1.00  0.00     0.160 C 
HETATM   18  N1  UNL     1      10.092  29.179 -19.185  1.00  0.00    -0.250 N 
ATOM     19  H1  UNL     1      10.940  28.738 -18.829  1.00  0.00     0.196 HD
BRANCH  17  20
HETATM   20  O5  UNL     1       8.854  31.041 -19.707  1.00  0.00    -0.347 OA
ATOM     21  H5  UNL     1       8.951  31.793 -20.279  1.00  0.00     0.219 HD
ENDBRANCH  17  20
BRANCH  18  22
HETATM   22  O6  UNL     1       9.060  28.405 -19.624  1.00  0.00    -0.288 OA
ATOM     23  H6  UNL     1       8.235  28.391 -19.155  1.00  0.00     0.244 HD
ENDBRANCH  18  22
ENDBRANCH  11  17
ENDBRANCH   8  11
ENDBRANCH   5   8
BRANCH   1  24
HETATM   24  C2  UNL     1      11.873  34.626 -13.739  1.00  0.00     0.092 C 
BRANCH  24  25
HETATM   25  O1  UNL     1      12.046  33.403 -13.180  1.00  0.00    -0.354 OA
HETATM   26  C1  UNL     1      12.529  33.342 -11.904  1.00  0.00     0.210 C 
ENDBRANCH  24  25
BRANCH  24  27
HETATM   27  C3  UNL     1      10.725  35.432 -13.297  1.00  0.00    -0.002 A 
HETATM   28  C4  UNL     1       9.525  34.845 -13.003  1.00  0.00     0.014 A 
HETATM   29  C5  UNL     1       8.455  35.623 -12.589  1.00  0.00     0.001 A 
HETATM   30  C6  UNL     1       8.602  36.995 -12.475  1.00  0.00     0.000 A 
HETATM   31  C7  UNL     1       9.804  37.577 -12.771  1.00  0.00     0.001 A 
HETATM   32  C8  UNL     1      10.860  36.781 -13.182  1.00  0.00     0.014 A 
ENDBRANCH  24  27
ENDBRANCH   1  24
BRANCH   2  33
HETATM   33  C11 UNL     1      14.081  36.342 -14.886  1.00  0.00     0.185 C 
BRANCH  33  34
HETATM   34  O2  UNL     1      14.575  37.480 -15.316  1.00  0.00    -0.386 OA
ATOM     35  H2  UNL     1      14.828  37.663 -16.213  1.00  0.00     0.210 HD
ENDBRANCH  33  34
BRANCH  33  36
HETATM   36  C12 UNL     1      15.280  35.494 -14.511  1.00  0.00    -0.025 A 
HETATM   37  C13 UNL     1      15.487  35.090 -13.188  1.00  0.00     0.010 A 
HETATM   38  C14 UNL     1      16.544  34.296 -12.808  1.00  0.00     0.001 A 
HETATM   39  C15 UNL     1      17.430  33.881 -13.756  1.00  0.00     0.000 A 
HETATM   40  C16 UNL     1      17.277  34.246 -15.075  1.00  0.00     0.001 A 
HETATM   41  C17 UNL     1      16.204  35.042 -15.404  1.00  0.00     0.010 A 
ENDBRANCH  33  36
ENDBRANCH   2  33
TORSDOF 11
ENDMDL
