MODEL 1
REMARK VINA RESULT: -9.563547180      0.000      0.000
REMARK  14 active torsions:
REMARK  status: ('A' for Active; 'I' for Inactive)
REMARK    1  A    between atoms: C2_2  and  C3_3 
REMARK    2  A    between atoms: C3_3  and  C4_4 
REMARK    3  A    between atoms: N2_7  and  C5_8 
REMARK    4  A    between atoms: C5_8  and  C6_9 
REMARK       I    between atoms: N3_12  and  C9_13 
REMARK    5  A    between atoms: C9_13  and  O2_15 
REMARK    6  A    between atoms: O2_15  and  C10_16 
REMARK    7  A    between atoms: N4_24  and  C17_25 
REMARK    8  A    between atoms: C20_28  and  C21_29 
REMARK       I    between atoms: C21_29  and  N5_31 
REMARK    9  A    between atoms: N5_31  and  C22_33 
REMARK   10  A    between atoms: C22_33  and  C23_34 
REMARK   11  A    between atoms: C23_34  and  C24_35 
REMARK   12  A    between atoms: C24_35  and  S1_36 
REMARK   13  A    between atoms: S1_36  and  N6_39 
REMARK   14  A    between atoms: N6_39  and  C25_41 
ROOT
HETATM    1  C4  UNL     1      16.219  22.163  15.485  1.00  0.00     0.102 A 
HETATM    2  N1  UNL     1      15.745  21.403  16.498  1.00  0.00    -0.282 N 
ATOM      3  H1  UNL     1      14.989  20.725  16.408  1.00  0.00     0.188 HD
HETATM    4  N2  UNL     1      16.394  21.660  17.619  1.00  0.00    -0.241 N 
HETATM    5  C16 UNL     1      17.283  22.592  17.295  1.00  0.00     0.345 A 
HETATM    6  O3  UNL     1      18.093  23.084  18.154  1.00  0.00    -0.245 OA
HETATM    7  N4  UNL     1      17.210  22.931  15.992  1.00  0.00    -0.282 N 
ENDROOT
BRANCH   7   8
HETATM    8  C17 UNL     1      18.063  23.900  15.340  1.00  0.00     0.096 C 
HETATM    9  C18 UNL     1      17.447  25.289  15.397  1.00  0.00     0.027 C 
HETATM   10  C19 UNL     1      18.504  26.227  14.787  1.00  0.00     0.016 C 
HETATM   11  C20 UNL     1      19.558  26.337  15.883  1.00  0.00     0.078 C 
HETATM   12  C28 UNL     1      20.117  25.020  16.267  1.00  0.00     0.016 C 
HETATM   13  C29 UNL     1      19.504  23.811  15.631  1.00  0.00     0.027 C 
BRANCH  11  14
HETATM   14  C21 UNL     1      20.583  27.349  15.574  1.00  0.00     0.221 C 
HETATM   15  O4  UNL     1      20.265  28.555  15.444  1.00  0.00    -0.273 OA
HETATM   16  N5  UNL     1      21.935  26.980  15.418  1.00  0.00    -0.361 N 
ATOM     17  H5  UNL     1      22.179  25.997  15.537  1.00  0.00     0.162 HD
BRANCH  16  18
HETATM   18  C22 UNL     1      23.016  27.923  15.095  1.00  0.00     0.123 C 
BRANCH  18  19
HETATM   19  C23 UNL     1      24.069  27.934  16.139  1.00  0.00     0.036 C 
BRANCH  19  20
HETATM   20  C24 UNL     1      24.402  26.649  16.811  1.00  0.00     0.165 C 
BRANCH  20  21
HETATM   21  S1  UNL     1      23.813  26.521  18.454  1.00  0.00     0.226 S 
HETATM   22  O5  UNL     1      24.718  27.300  19.403  1.00  0.00    -0.206 OA
HETATM   23  O6  UNL     1      22.475  27.234  18.548  1.00  0.00    -0.206 OA
BRANCH  21  24
HETATM   24  N6  UNL     1      23.701  24.922  19.020  1.00  0.00    -0.315 N 
ATOM     25  H6  UNL     1      24.436  24.224  18.907  1.00  0.00     0.172 HD
BRANCH  24  26
HETATM   26  C25 UNL     1      22.440  24.671  19.680  1.00  0.00     0.093 A 
HETATM   27  C26 UNL     1      22.591  24.032  21.081  1.00  0.00     0.028 A 
HETATM   28  C27 UNL     1      21.930  23.330  19.976  1.00  0.00     0.028 A 
ENDBRANCH  24  26
ENDBRANCH  21  24
ENDBRANCH  20  21
ENDBRANCH  19  20
ENDBRANCH  18  19
ENDBRANCH  16  18
ENDBRANCH  11  14
ENDBRANCH   7   8
BRANCH   1  29
HETATM   29  C3  UNL     1      15.747  22.175  14.073  1.00  0.00     0.078 C 
BRANCH  29  30
HETATM   30  C2  UNL     1      14.225  22.035  14.100  1.00  0.00     0.003 C 
HETATM   31  C1  UNL     1      13.573  23.302  14.616  1.00  0.00     0.005 C 
ENDBRANCH  29  30
ENDBRANCH   1  29
BRANCH   4  32
HETATM   32  C5  UNL     1      16.222  21.072  18.918  1.00  0.00     0.158 C 
BRANCH  32  33
HETATM   33  C6  UNL     1      15.035  20.160  18.991  1.00  0.00     0.009 C 
HETATM   34  C7  UNL     1      15.417  18.783  18.576  1.00  0.00     0.026 C 
HETATM   35  C8  UNL     1      14.225  17.825  18.564  1.00  0.00     0.128 C 
HETATM   36  N3  UNL     1      13.286  18.339  19.572  1.00  0.00    -0.328 N 
HETATM   37  C9  UNL     1      11.900  18.290  19.376  1.00  0.00     0.363 C 
HETATM   38  C14 UNL     1      13.899  18.883  20.757  1.00  0.00     0.128 C 
HETATM   39  O1  UNL     1      11.109  18.734  20.238  1.00  0.00    -0.238 OA
HETATM   40  C15 UNL     1      14.538  20.196  20.414  1.00  0.00     0.026 C 
BRANCH  37  41
HETATM   41  O2  UNL     1      11.399  17.749  18.228  1.00  0.00    -0.293 OA
BRANCH  41  42
HETATM   42  C10 UNL     1      11.010  18.444  17.067  1.00  0.00     0.069 A 
HETATM   43  C11 UNL     1      10.402  17.553  15.994  1.00  0.00     0.047 C 
HETATM   44  C12 UNL     1      11.973  19.513  16.651  1.00  0.00     0.041 A 
HETATM   45  C13 UNL     1      10.615  19.849  17.211  1.00  0.00     0.041 A 
ENDBRANCH  41  42
ENDBRANCH  37  41
ENDBRANCH  32  33
ENDBRANCH   4  32
TORSDOF 14
ENDMDL
MODEL 2
REMARK VINA RESULT: -9.548016073      3.145     11.424
REMARK  14 active torsions:
REMARK  status: ('A' for Active; 'I' for Inactive)
REMARK    1  A    between atoms: C2_2  and  C3_3 
REMARK    2  A    between atoms: C3_3  and  C4_4 
REMARK    3  A    between atoms: N2_7  and  C5_8 
REMARK    4  A    between atoms: C5_8  and  C6_9 
REMARK       I    between atoms: N3_12  and  C9_13 
REMARK    5  A    between atoms: C9_13  and  O2_15 
REMARK    6  A    between atoms: O2_15  and  C10_16 
REMARK    7  A    between atoms: N4_24  and  C17_25 
REMARK    8  A    between atoms: C20_28  and  C21_29 
REMARK       I    between atoms: C21_29  and  N5_31 
REMARK    9  A    between atoms: N5_31  and  C22_33 
REMARK   10  A    between atoms: C22_33  and  C23_34 
REMARK   11  A    between atoms: C23_34  and  C24_35 
REMARK   12  A    between atoms: C24_35  and  S1_36 
REMARK   13  A    between atoms: S1_36  and  N6_39 
REMARK   14  A    between atoms: N6_39  and  C25_41 
ROOT
HETATM    1  C4  UNL     1      18.051  23.917  19.412  1.00  0.00     0.102 A 
HETATM    2  N1  UNL     1      18.284  24.920  18.536  1.00  0.00    -0.282 N 
ATOM      3  H1  UNL     1      18.890  25.720  18.719  1.00  0.00     0.188 HD
HETATM    4  N2  UNL     1      17.622  24.723  17.411  1.00  0.00    -0.241 N 
HETATM    5  C16 UNL     1      16.969  23.581  17.593  1.00  0.00     0.345 A 
HETATM    6  O3  UNL     1      16.213  23.080  16.690  1.00  0.00    -0.245 OA
HETATM    7  N4  UNL     1      17.204  23.052  18.810  1.00  0.00    -0.282 N 
ENDROOT
BRANCH   7   8
HETATM    8  C17 UNL     1      16.652  21.803  19.291  1.00  0.00     0.096 C 
HETATM    9  C18 UNL     1      15.224  21.994  19.775  1.00  0.00     0.027 C 
HETATM   10  C19 UNL     1      14.727  20.582  20.135  1.00  0.00     0.016 C 
HETATM   11  C20 UNL     1      14.483  19.934  18.777  1.00  0.00     0.078 C 
HETATM   12  C28 UNL     1      15.699  19.913  17.931  1.00  0.00     0.016 C 
HETATM   13  C29 UNL     1      16.911  20.609  18.468  1.00  0.00     0.027 C 
BRANCH  11  14
HETATM   14  C21 UNL     1      13.818  18.624  18.893  1.00  0.00     0.221 C 
HETATM   15  O4  UNL     1      14.427  17.573  18.585  1.00  0.00    -0.273 OA
HETATM   16  N5  UNL     1      12.486  18.531  19.349  1.00  0.00    -0.361 N 
ATOM     17  H5  UNL     1      12.007  19.394  19.605  1.00  0.00     0.162 HD
BRANCH  16  18
HETATM   18  C22 UNL     1      11.745  17.268  19.480  1.00  0.00     0.123 C 
BRANCH  18  19
HETATM   19  C23 UNL     1      10.544  17.240  18.612  1.00  0.00     0.036 C 
BRANCH  19  20
HETATM   20  C24 UNL     1      10.746  17.237  17.138  1.00  0.00     0.165 C 
BRANCH  20  21
HETATM   21  S1  UNL     1      10.843  18.831  16.420  1.00  0.00     0.226 S 
HETATM   22  O5  UNL     1       9.730  19.018  15.394  1.00  0.00    -0.206 OA
HETATM   23  O6  UNL     1      10.540  19.866  17.491  1.00  0.00    -0.206 OA
BRANCH  21  24
HETATM   24  N6  UNL     1      12.328  19.150  15.656  1.00  0.00    -0.315 N 
ATOM     25  H6  UNL     1      13.103  18.488  15.617  1.00  0.00     0.172 HD
BRANCH  24  26
HETATM   26  C25 UNL     1      12.360  20.471  15.070  1.00  0.00     0.093 A 
HETATM   27  C26 UNL     1      13.710  20.817  14.397  1.00  0.00     0.028 A 
HETATM   28  C27 UNL     1      13.210  21.557  15.560  1.00  0.00     0.028 A 
ENDBRANCH  24  26
ENDBRANCH  21  24
ENDBRANCH  20  21
ENDBRANCH  19  20
ENDBRANCH  18  19
ENDBRANCH  16  18
ENDBRANCH  11  14
ENDBRANCH   7   8
BRANCH   1  29
HETATM   29  C3  UNL     1      18.603  23.778  20.787  1.00  0.00     0.078 C 
BRANCH  29  30
HETATM   30  C2  UNL     1      20.041  23.277  20.654  1.00  0.00     0.003 C 
HETATM   31  C1  UNL     1      20.082  21.765  20.567  1.00  0.00     0.005 C 
ENDBRANCH  29  30
ENDBRANCH   1  29
BRANCH   4  32
HETATM   32  C5  UNL     1      17.599  25.529  16.222  1.00  0.00     0.158 C 
BRANCH  32  33
HETATM   33  C6  UNL     1      18.970  25.903  15.746  1.00  0.00     0.009 C 
HETATM   34  C7  UNL     1      19.703  24.694  15.284  1.00  0.00     0.026 C 
HETATM   35  C8  UNL     1      21.136  25.008  14.853  1.00  0.00     0.128 C 
HETATM   36  N3  UNL     1      21.118  26.404  14.387  1.00  0.00    -0.328 N 
HETATM   37  C9  UNL     1      22.188  27.272  14.634  1.00  0.00     0.363 C 
HETATM   38  C14 UNL     1      19.932  26.791  13.667  1.00  0.00     0.128 C 
HETATM   39  O1  UNL     1      22.163  28.459  14.237  1.00  0.00    -0.238 OA
HETATM   40  C15 UNL     1      18.792  26.907  14.635  1.00  0.00     0.026 C 
BRANCH  37  41
HETATM   41  O2  UNL     1      23.281  26.822  15.316  1.00  0.00    -0.293 OA
BRANCH  41  42
HETATM   42  C10 UNL     1      23.614  27.103  16.655  1.00  0.00     0.069 A 
HETATM   43  C11 UNL     1      22.406  27.307  17.558  1.00  0.00     0.047 C 
HETATM   44  C12 UNL     1      24.786  28.023  16.806  1.00  0.00     0.041 A 
HETATM   45  C13 UNL     1      24.876  26.564  17.173  1.00  0.00     0.041 A 
ENDBRANCH  41  42
ENDBRANCH  37  41
ENDBRANCH  32  33
ENDBRANCH   4  32
TORSDOF 14
ENDMDL
MODEL 3
REMARK VINA RESULT: -9.372515830      3.034     11.373
REMARK  14 active torsions:
REMARK  status: ('A' for Active; 'I' for Inactive)
REMARK    1  A    between atoms: C2_2  and  C3_3 
REMARK    2  A    between atoms: C3_3  and  C4_4 
REMARK    3  A    between atoms: N2_7  and  C5_8 
REMARK    4  A    between atoms: C5_8  and  C6_9 
REMARK       I    between atoms: N3_12  and  C9_13 
REMARK    5  A    between atoms: C9_13  and  O2_15 
REMARK    6  A    between atoms: O2_15  and  C10_16 
REMARK    7  A    between atoms: N4_24  and  C17_25 
REMARK    8  A    between atoms: C20_28  and  C21_29 
REMARK       I    between atoms: C21_29  and  N5_31 
REMARK    9  A    between atoms: N5_31  and  C22_33 
REMARK   10  A    between atoms: C22_33  and  C23_34 
REMARK   11  A    between atoms: C23_34  and  C24_35 
REMARK   12  A    between atoms: C24_35  and  S1_36 
REMARK   13  A    between atoms: S1_36  and  N6_39 
REMARK   14  A    between atoms: N6_39  and  C25_41 
ROOT
HETATM    1  C4  UNL     1      17.587  24.308  18.188  1.00  0.00     0.102 A 
HETATM    2  N1  UNL     1      18.202  25.304  17.512  1.00  0.00    -0.282 N 
ATOM      3  H1  UNL     1      18.819  25.997  17.935  1.00  0.00     0.188 HD
HETATM    4  N2  UNL     1      17.895  25.258  16.228  1.00  0.00    -0.241 N 
HETATM    5  C16 UNL     1      17.079  24.218  16.108  1.00  0.00     0.345 A 
HETATM    6  O3  UNL     1      16.577  23.876  14.981  1.00  0.00    -0.245 OA
HETATM    7  N4  UNL     1      16.862  23.605  17.289  1.00  0.00    -0.282 N 
ENDROOT
BRANCH   7   8
HETATM    8  C17 UNL     1      16.037  22.430  17.473  1.00  0.00     0.096 C 
HETATM    9  C18 UNL     1      16.871  21.253  17.953  1.00  0.00     0.027 C 
HETATM   10  C19 UNL     1      15.859  20.125  18.223  1.00  0.00     0.016 C 
HETATM   11  C20 UNL     1      15.192  20.550  19.526  1.00  0.00     0.078 C 
HETATM   12  C28 UNL     1      14.549  21.881  19.426  1.00  0.00     0.016 C 
HETATM   13  C29 UNL     1      14.743  22.634  18.146  1.00  0.00     0.027 C 
BRANCH  11  14
HETATM   14  C21 UNL     1      14.308  19.504  20.070  1.00  0.00     0.221 C 
HETATM   15  O4  UNL     1      13.947  19.538  21.270  1.00  0.00    -0.273 OA
HETATM   16  N5  UNL     1      13.856  18.447  19.252  1.00  0.00    -0.361 N 
ATOM     17  H5  UNL     1      14.150  18.439  18.276  1.00  0.00     0.162 HD
BRANCH  16  18
HETATM   18  C22 UNL     1      12.986  17.356  19.718  1.00  0.00     0.123 C 
BRANCH  18  19
HETATM   19  C23 UNL     1      11.626  17.449  19.139  1.00  0.00     0.036 C 
BRANCH  19  20
HETATM   20  C24 UNL     1      11.491  17.407  17.658  1.00  0.00     0.165 C 
BRANCH  20  21
HETATM   21  S1  UNL     1      11.354  18.981  16.902  1.00  0.00     0.226 S 
HETATM   22  O5  UNL     1      10.352  18.930  15.753  1.00  0.00    -0.206 OA
HETATM   23  O6  UNL     1      10.732  19.945  17.897  1.00  0.00    -0.206 OA
BRANCH  21  24
HETATM   24  N6  UNL     1      12.825  19.581  16.297  1.00  0.00    -0.315 N 
ATOM     25  H6  UNL     1      13.732  19.419  16.736  1.00  0.00     0.172 HD
BRANCH  24  26
HETATM   26  C25 UNL     1      12.637  20.350  15.087  1.00  0.00     0.093 A 
HETATM   27  C26 UNL     1      13.914  21.084  14.616  1.00  0.00     0.028 A 
HETATM   28  C27 UNL     1      12.711  21.811  15.033  1.00  0.00     0.028 A 
ENDBRANCH  24  26
ENDBRANCH  21  24
ENDBRANCH  20  21
ENDBRANCH  19  20
ENDBRANCH  18  19
ENDBRANCH  16  18
ENDBRANCH  11  14
ENDBRANCH   7   8
BRANCH   1  29
HETATM   29  C3  UNL     1      17.671  24.027  19.647  1.00  0.00     0.078 C 
BRANCH  29  30
HETATM   30  C2  UNL     1      19.151  23.867  19.997  1.00  0.00     0.003 C 
HETATM   31  C1  UNL     1      19.530  22.403  20.090  1.00  0.00     0.005 C 
ENDBRANCH  29  30
ENDBRANCH   1  29
BRANCH   4  32
HETATM   32  C5  UNL     1      18.338  26.113  15.162  1.00  0.00     0.158 C 
BRANCH  32  33
HETATM   33  C6  UNL     1      19.788  26.475  15.270  1.00  0.00     0.009 C 
HETATM   34  C7  UNL     1      20.624  25.474  14.554  1.00  0.00     0.026 C 
HETATM   35  C8  UNL     1      22.120  25.756  14.693  1.00  0.00     0.128 C 
HETATM   36  N3  UNL     1      22.240  27.211  14.872  1.00  0.00    -0.328 N 
HETATM   37  C9  UNL     1      23.191  27.768  15.736  1.00  0.00     0.363 C 
HETATM   38  C14 UNL     1      21.317  27.999  14.097  1.00  0.00     0.128 C 
HETATM   39  O1  UNL     1      23.283  29.007  15.885  1.00  0.00    -0.238 OA
HETATM   40  C15 UNL     1      19.943  27.854  14.682  1.00  0.00     0.026 C 
BRANCH  37  41
HETATM   41  O2  UNL     1      24.036  26.950  16.428  1.00  0.00    -0.293 OA
BRANCH  41  42
HETATM   42  C10 UNL     1      24.007  26.680  17.809  1.00  0.00     0.069 A 
HETATM   43  C11 UNL     1      22.607  26.692  18.407  1.00  0.00     0.047 C 
HETATM   44  C12 UNL     1      25.118  27.328  18.575  1.00  0.00     0.041 A 
HETATM   45  C13 UNL     1      25.071  25.837  18.364  1.00  0.00     0.041 A 
ENDBRANCH  41  42
ENDBRANCH  37  41
ENDBRANCH  32  33
ENDBRANCH   4  32
TORSDOF 14
ENDMDL
MODEL 4
REMARK VINA RESULT: -9.362437057      2.158      3.622
REMARK  14 active torsions:
REMARK  status: ('A' for Active; 'I' for Inactive)
REMARK    1  A    between atoms: C2_2  and  C3_3 
REMARK    2  A    between atoms: C3_3  and  C4_4 
REMARK    3  A    between atoms: N2_7  and  C5_8 
REMARK    4  A    between atoms: C5_8  and  C6_9 
REMARK       I    between atoms: N3_12  and  C9_13 
REMARK    5  A    between atoms: C9_13  and  O2_15 
REMARK    6  A    between atoms: O2_15  and  C10_16 
REMARK    7  A    between atoms: N4_24  and  C17_25 
REMARK    8  A    between atoms: C20_28  and  C21_29 
REMARK       I    between atoms: C21_29  and  N5_31 
REMARK    9  A    between atoms: N5_31  and  C22_33 
REMARK   10  A    between atoms: C22_33  and  C23_34 
REMARK   11  A    between atoms: C23_34  and  C24_35 
REMARK   12  A    between atoms: C24_35  and  S1_36 
REMARK   13  A    between atoms: S1_36  and  N6_39 
REMARK   14  A    between atoms: N6_39  and  C25_41 
ROOT
HETATM    1  C4  UNL     1      15.205  22.701  16.966  1.00  0.00     0.102 A 
HETATM    2  N1  UNL     1      14.024  22.053  16.842  1.00  0.00    -0.282 N 
ATOM      3  H1  UNL     1      13.419  21.798  17.621  1.00  0.00     0.188 HD
HETATM    4  N2  UNL     1      13.763  21.795  15.573  1.00  0.00    -0.241 N 
HETATM    5  C16 UNL     1      14.796  22.291  14.903  1.00  0.00     0.345 A 
HETATM    6  O3  UNL     1      14.877  22.215  13.628  1.00  0.00    -0.245 OA
HETATM    7  N4  UNL     1      15.707  22.857  15.720  1.00  0.00    -0.282 N 
ENDROOT
BRANCH   7   8
HETATM    8  C17 UNL     1      16.926  23.500  15.282  1.00  0.00     0.096 C 
HETATM    9  C18 UNL     1      16.832  25.009  15.444  1.00  0.00     0.027 C 
HETATM   10  C19 UNL     1      18.224  25.545  15.064  1.00  0.00     0.016 C 
HETATM   11  C20 UNL     1      19.086  25.182  16.268  1.00  0.00     0.078 C 
HETATM   12  C28 UNL     1      19.091  23.727  16.545  1.00  0.00     0.016 C 
HETATM   13  C29 UNL     1      18.190  22.874  15.707  1.00  0.00     0.027 C 
BRANCH  11  14
HETATM   14  C21 UNL     1      20.432  25.777  16.192  1.00  0.00     0.221 C 
HETATM   15  O4  UNL     1      21.190  25.511  15.229  1.00  0.00    -0.273 OA
HETATM   16  N5  UNL     1      20.890  26.652  17.198  1.00  0.00    -0.361 N 
ATOM     17  H5  UNL     1      20.258  26.866  17.969  1.00  0.00     0.162 HD
BRANCH  16  18
HETATM   18  C22 UNL     1      22.222  27.275  17.207  1.00  0.00     0.123 C 
BRANCH  18  19
HETATM   19  C23 UNL     1      23.006  26.887  18.403  1.00  0.00     0.036 C 
BRANCH  19  20
HETATM   20  C24 UNL     1      22.536  25.721  19.200  1.00  0.00     0.165 C 
BRANCH  20  21
HETATM   21  S1  UNL     1      21.926  26.133  20.789  1.00  0.00     0.226 S 
HETATM   22  O5  UNL     1      22.689  25.366  21.863  1.00  0.00    -0.206 OA
HETATM   23  O6  UNL     1      22.251  27.591  21.071  1.00  0.00    -0.206 OA
BRANCH  21  24
HETATM   24  N6  UNL     1      20.268  25.821  20.989  1.00  0.00    -0.315 N 
ATOM     25  H6  UNL     1      19.664  26.330  21.635  1.00  0.00     0.172 HD
BRANCH  24  26
HETATM   26  C25 UNL     1      19.814  24.746  20.134  1.00  0.00     0.093 A 
HETATM   27  C26 UNL     1      18.550  24.027  20.663  1.00  0.00     0.028 A 
HETATM   28  C27 UNL     1      19.836  23.335  20.523  1.00  0.00     0.028 A 
ENDBRANCH  24  26
ENDBRANCH  21  24
ENDBRANCH  20  21
ENDBRANCH  19  20
ENDBRANCH  18  19
ENDBRANCH  16  18
ENDBRANCH  11  14
ENDBRANCH   7   8
BRANCH   1  29
HETATM   29  C3  UNL     1      15.852  23.155  18.227  1.00  0.00     0.078 C 
BRANCH  29  30
HETATM   30  C2  UNL     1      15.963  21.939  19.147  1.00  0.00     0.003 C 
HETATM   31  C1  UNL     1      17.135  21.065  18.751  1.00  0.00     0.005 C 
ENDBRANCH  29  30
ENDBRANCH   1  29
BRANCH   4  32
HETATM   32  C5  UNL     1      12.618  21.143  15.001  1.00  0.00     0.158 C 
BRANCH  32  33
HETATM   33  C6  UNL     1      12.167  19.956  15.796  1.00  0.00     0.009 C 
HETATM   34  C7  UNL     1      11.003  20.319  16.649  1.00  0.00     0.026 C 
HETATM   35  C8  UNL     1      10.546  19.161  17.537  1.00  0.00     0.128 C 
HETATM   36  N3  UNL     1      10.908  17.933  16.813  1.00  0.00    -0.328 N 
HETATM   37  C9  UNL     1      11.372  16.796  17.485  1.00  0.00     0.363 C 
HETATM   38  C14 UNL     1      10.743  17.996  15.383  1.00  0.00     0.128 C 
HETATM   39  O1  UNL     1      11.682  15.756  16.861  1.00  0.00    -0.238 OA
HETATM   40  C15 UNL     1      11.818  18.871  14.809  1.00  0.00     0.026 C 
BRANCH  37  41
HETATM   41  O2  UNL     1      11.491  16.815  18.844  1.00  0.00    -0.293 OA
BRANCH  41  42
HETATM   42  C10 UNL     1      12.505  17.440  19.595  1.00  0.00     0.069 A 
HETATM   43  C11 UNL     1      13.850  17.489  18.885  1.00  0.00     0.047 C 
HETATM   44  C12 UNL     1      12.475  17.100  21.053  1.00  0.00     0.041 A 
HETATM   45  C13 UNL     1      12.106  18.474  20.556  1.00  0.00     0.041 A 
ENDBRANCH  41  42
ENDBRANCH  37  41
ENDBRANCH  32  33
ENDBRANCH   4  32
TORSDOF 14
ENDMDL
MODEL 5
REMARK VINA RESULT: -9.336165778      3.288     10.964
REMARK  14 active torsions:
REMARK  status: ('A' for Active; 'I' for Inactive)
REMARK    1  A    between atoms: C2_2  and  C3_3 
REMARK    2  A    between atoms: C3_3  and  C4_4 
REMARK    3  A    between atoms: N2_7  and  C5_8 
REMARK    4  A    between atoms: C5_8  and  C6_9 
REMARK       I    between atoms: N3_12  and  C9_13 
REMARK    5  A    between atoms: C9_13  and  O2_15 
REMARK    6  A    between atoms: O2_15  and  C10_16 
REMARK    7  A    between atoms: N4_24  and  C17_25 
REMARK    8  A    between atoms: C20_28  and  C21_29 
REMARK       I    between atoms: C21_29  and  N5_31 
REMARK    9  A    between atoms: N5_31  and  C22_33 
REMARK   10  A    between atoms: C22_33  and  C23_34 
REMARK   11  A    between atoms: C23_34  and  C24_35 
REMARK   12  A    between atoms: C24_35  and  S1_36 
REMARK   13  A    between atoms: S1_36  and  N6_39 
REMARK   14  A    between atoms: N6_39  and  C25_41 
ROOT
HETATM    1  C4  UNL     1      17.499  23.796  18.340  1.00  0.00     0.102 A 
HETATM    2  N1  UNL     1      18.530  24.637  18.582  1.00  0.00    -0.282 N 
ATOM      3  H1  UNL     1      18.634  25.561  18.165  1.00  0.00     0.188 HD
HETATM    4  N2  UNL     1      19.385  24.097  19.432  1.00  0.00    -0.241 N 
HETATM    5  C16 UNL     1      18.876  22.905  19.720  1.00  0.00     0.345 A 
HETATM    6  O3  UNL     1      19.455  22.097  20.526  1.00  0.00    -0.245 OA
HETATM    7  N4  UNL     1      17.716  22.679  19.070  1.00  0.00    -0.282 N 
ENDROOT
BRANCH   7   8
HETATM    8  C17 UNL     1      16.916  21.480  19.198  1.00  0.00     0.096 C 
HETATM    9  C18 UNL     1      15.663  21.751  20.017  1.00  0.00     0.027 C 
HETATM   10  C19 UNL     1      14.856  20.441  19.966  1.00  0.00     0.016 C 
HETATM   11  C20 UNL     1      14.278  20.434  18.556  1.00  0.00     0.078 C 
HETATM   12  C28 UNL     1      15.327  20.498  17.512  1.00  0.00     0.016 C 
HETATM   13  C29 UNL     1      16.739  20.673  17.979  1.00  0.00     0.027 C 
BRANCH  11  14
HETATM   14  C21 UNL     1      13.307  19.344  18.355  1.00  0.00     0.221 C 
HETATM   15  O4  UNL     1      13.634  18.154  18.572  1.00  0.00    -0.273 OA
HETATM   16  N5  UNL     1      11.996  19.620  17.914  1.00  0.00    -0.361 N 
ATOM     17  H5  UNL     1      11.742  20.594  17.751  1.00  0.00     0.162 HD
BRANCH  16  18
HETATM   18  C22 UNL     1      10.972  18.593  17.673  1.00  0.00     0.123 C 
BRANCH  18  19
HETATM   19  C23 UNL     1      10.780  18.332  16.227  1.00  0.00     0.036 C 
BRANCH  19  20
HETATM   20  C24 UNL     1      11.563  19.146  15.259  1.00  0.00     0.165 C 
BRANCH  20  21
HETATM   21  S1  UNL     1      10.687  20.502  14.582  1.00  0.00     0.226 S 
HETATM   22  O5  UNL     1      10.573  20.356  13.068  1.00  0.00    -0.206 OA
HETATM   23  O6  UNL     1       9.249  20.444  15.071  1.00  0.00    -0.206 OA
BRANCH  21  24
HETATM   24  N6  UNL     1      11.393  22.012  14.918  1.00  0.00    -0.315 N 
ATOM     25  H6  UNL     1      10.882  22.895  14.915  1.00  0.00     0.172 HD
BRANCH  24  26
HETATM   26  C25 UNL     1      12.804  21.894  15.209  1.00  0.00     0.093 A 
HETATM   27  C26 UNL     1      13.589  23.213  15.012  1.00  0.00     0.028 A 
HETATM   28  C27 UNL     1      13.856  22.022  14.198  1.00  0.00     0.028 A 
ENDBRANCH  24  26
ENDBRANCH  21  24
ENDBRANCH  20  21
ENDBRANCH  19  20
ENDBRANCH  18  19
ENDBRANCH  16  18
ENDBRANCH  11  14
ENDBRANCH   7   8
BRANCH   1  29
HETATM   29  C3  UNL     1      16.341  24.031  17.436  1.00  0.00     0.078 C 
BRANCH  29  30
HETATM   30  C2  UNL     1      16.901  24.415  16.066  1.00  0.00     0.003 C 
HETATM   31  C1  UNL     1      17.358  23.188  15.305  1.00  0.00     0.005 C 
ENDBRANCH  29  30
ENDBRANCH   1  29
BRANCH   4  32
HETATM   32  C5  UNL     1      20.599  24.650  19.967  1.00  0.00     0.158 C 
BRANCH  32  33
HETATM   33  C6  UNL     1      21.391  25.410  18.947  1.00  0.00     0.009 C 
HETATM   34  C7  UNL     1      21.166  26.872  19.105  1.00  0.00     0.026 C 
HETATM   35  C8  UNL     1      21.897  27.693  18.042  1.00  0.00     0.128 C 
HETATM   36  N3  UNL     1      23.075  26.900  17.661  1.00  0.00    -0.328 N 
HETATM   37  C9  UNL     1      23.531  26.853  16.338  1.00  0.00     0.363 C 
HETATM   38  C14 UNL     1      23.711  26.193  18.743  1.00  0.00     0.128 C 
HETATM   39  O1  UNL     1      24.532  26.172  16.022  1.00  0.00    -0.238 OA
HETATM   40  C15 UNL     1      22.839  25.042  19.150  1.00  0.00     0.026 C 
BRANCH  37  41
HETATM   41  O2  UNL     1      22.876  27.561  15.372  1.00  0.00    -0.293 OA
BRANCH  41  42
HETATM   42  C10 UNL     1      21.677  27.201  14.729  1.00  0.00     0.069 A 
HETATM   43  C11 UNL     1      21.502  25.700  14.553  1.00  0.00     0.047 C 
HETATM   44  C12 UNL     1      21.306  28.104  13.593  1.00  0.00     0.041 A 
HETATM   45  C13 UNL     1      20.524  28.095  14.881  1.00  0.00     0.041 A 
ENDBRANCH  41  42
ENDBRANCH  37  41
ENDBRANCH  32  33
ENDBRANCH   4  32
TORSDOF 14
ENDMDL
