MODEL 1
REMARK VINA RESULT: -8.995849647      0.000      0.000
REMARK  15 active torsions:
REMARK  status: ('A' for Active; 'I' for Inactive)
REMARK    1  A    between atoms: C2_2  and  C3_3 
REMARK    2  A    between atoms: C3_3  and  C4_4 
REMARK    3  A    between atoms: C4_4  and  C5_5 
REMARK    4  A    between atoms: C5_5  and  O1_6 
REMARK    5  A    between atoms: O1_6  and  C6_7 
REMARK       I    between atoms: C6_7  and  N1_9 
REMARK       I    between atoms: N2_12  and  C9_13 
REMARK    6  A    between atoms: C9_13  and  C10_15 
REMARK    7  A    between atoms: C10_15  and  C11_16 
REMARK    8  A    between atoms: C10_15  and  C18_25 
REMARK    9  A    between atoms: C11_16  and  C12_17 
REMARK   10  A    between atoms: C12_17  and  C13_18 
REMARK   11  A    between atoms: C13_18  and  C14_19 
REMARK   12  A    between atoms: C14_19  and  N3_20 
REMARK       I    between atoms: C18_25  and  N4_27 
REMARK   13  A    between atoms: N4_27  and  C19_29 
REMARK   14  A    between atoms: C19_29  and  C20_30 
REMARK   15  A    between atoms: C21_34  and  C22_35 
ROOT
HETATM    1  C10 UNL     1      16.828  22.875  16.062  1.00  0.00     0.170 C 
ENDROOT
BRANCH   1   2
HETATM    2  C9  UNL     1      17.675  22.120  17.015  1.00  0.00     0.233 C 
HETATM    3  N2  UNL     1      18.114  22.623  18.269  1.00  0.00    -0.348 N 
HETATM    4  C8  UNL     1      18.905  21.754  19.116  1.00  0.00     0.145 C 
HETATM    5  C28 UNL     1      17.825  23.964  18.736  1.00  0.00     0.145 C 
HETATM    6  C7  UNL     1      19.435  22.555  20.279  1.00  0.00     0.148 C 
HETATM    7  N1  UNL     1      20.021  23.754  19.724  1.00  0.00    -0.325 N 
HETATM    8  C6  UNL     1      21.399  23.975  19.811  1.00  0.00     0.362 C 
HETATM    9  C29 UNL     1      19.119  24.693  19.093  1.00  0.00     0.148 C 
HETATM   10  O2  UNL     1      22.130  23.130  20.387  1.00  0.00    -0.238 OA
HETATM   11  O3  UNL     1      18.049  20.931  16.721  1.00  0.00    -0.272 OA
BRANCH   8  12
HETATM   12  O1  UNL     1      21.995  25.111  19.274  1.00  0.00    -0.304 OA
BRANCH  12  13
HETATM   13  C5  UNL     1      22.621  26.019  20.160  1.00  0.00     0.180 C 
BRANCH  13  14
HETATM   14  C4  UNL     1      21.896  27.325  20.253  1.00  0.00     0.027 C 
BRANCH  14  15
HETATM   15  C3  UNL     1      21.287  27.548  21.612  1.00  0.00     0.002 C 
BRANCH  15  16
HETATM   16  C2  UNL     1      21.978  26.620  22.596  1.00  0.00    -0.004 C 
HETATM   17  C1  UNL     1      21.894  27.238  23.974  1.00  0.00     0.005 C 
ENDBRANCH  15  16
ENDBRANCH  14  15
ENDBRANCH  13  14
ENDBRANCH  12  13
ENDBRANCH   8  12
ENDBRANCH   1   2
BRANCH   1  18
HETATM   18  C11 UNL     1      17.649  23.451  14.961  1.00  0.00     0.024 C 
BRANCH  18  19
HETATM   19  C12 UNL     1      18.247  24.765  15.313  1.00  0.00     0.003 C 
BRANCH  19  20
HETATM   20  C13 UNL     1      19.752  24.604  15.475  1.00  0.00     0.030 C 
BRANCH  20  21
HETATM   21  C14 UNL     1      20.448  25.828  14.917  1.00  0.00     0.273 C 
BRANCH  21  22
HETATM   22  N3  UNL     1      19.989  27.027  15.584  1.00  0.00     0.098 N 
HETATM   23  C15 UNL     1      20.735  27.302  16.791  1.00  0.00     0.283 C 
HETATM   24  C16 UNL     1      22.217  27.311  16.386  1.00  0.00     0.105 C 
HETATM   25  S1  UNL     1      22.060  28.173  14.767  1.00  0.00    -0.138 SA
HETATM   26  C17 UNL     1      20.219  28.154  14.695  1.00  0.00     0.346 C 
ENDBRANCH  21  22
ENDBRANCH  20  21
ENDBRANCH  19  20
ENDBRANCH  18  19
ENDBRANCH   1  18
BRANCH   1  27
HETATM   27  C18 UNL     1      15.806  21.926  15.444  1.00  0.00     0.231 C 
HETATM   28  O4  UNL     1      15.800  21.716  14.209  1.00  0.00    -0.273 OA
HETATM   29  N4  UNL     1      14.860  21.274  16.252  1.00  0.00    -0.358 N 
ATOM     30  H4  UNL     1      14.864  21.443  17.258  1.00  0.00     0.162 HD
BRANCH  29  31
HETATM   31  C19 UNL     1      13.898  20.386  15.700  1.00  0.00     0.166 C 
BRANCH  31  32
HETATM   32  C20 UNL     1      12.592  20.307  16.454  1.00  0.00     0.265 C 
HETATM   33  N5  UNL     1      12.709  19.241  17.420  1.00  0.00    -0.053 N 
HETATM   34  C21 UNL     1      11.432  18.670  17.646  1.00  0.00     0.230 C 
ATOM     35  H52 UNL     1      13.400  18.543  17.143  1.00  0.00     0.279 HD
ATOM     36  H51 UNL     1      13.152  19.550  18.285  1.00  0.00     0.279 HD
HETATM   37  C27 UNL     1      10.908  18.141  16.320  1.00  0.00     0.112 C 
HETATM   38  S2  UNL     1      11.402  19.565  15.261  1.00  0.00    -0.133 SA
BRANCH  34  39
HETATM   39  C22 UNL     1      11.498  17.593  18.673  1.00  0.00     0.086 C 
HETATM   40  C23 UNL     1      10.824  16.311  18.298  1.00  0.00     0.048 C 
HETATM   41  C24 UNL     1      12.918  17.283  19.038  1.00  0.00     0.042 C 
HETATM   42  C25 UNL     1      13.007  17.728  20.479  1.00  0.00     0.029 C 
HETATM   43  C26 UNL     1      11.861  18.711  20.566  1.00  0.00     0.169 C 
HETATM   44  O5  UNL     1      10.877  18.078  19.821  1.00  0.00    -0.378 OA
ENDBRANCH  34  39
ENDBRANCH  31  32
ENDBRANCH  29  31
ENDBRANCH   1  27
TORSDOF 15
ENDMDL
MODEL 2
REMARK VINA RESULT: -8.771700743      2.652     11.458
REMARK  15 active torsions:
REMARK  status: ('A' for Active; 'I' for Inactive)
REMARK    1  A    between atoms: C2_2  and  C3_3 
REMARK    2  A    between atoms: C3_3  and  C4_4 
REMARK    3  A    between atoms: C4_4  and  C5_5 
REMARK    4  A    between atoms: C5_5  and  O1_6 
REMARK    5  A    between atoms: O1_6  and  C6_7 
REMARK       I    between atoms: C6_7  and  N1_9 
REMARK       I    between atoms: N2_12  and  C9_13 
REMARK    6  A    between atoms: C9_13  and  C10_15 
REMARK    7  A    between atoms: C10_15  and  C11_16 
REMARK    8  A    between atoms: C10_15  and  C18_25 
REMARK    9  A    between atoms: C11_16  and  C12_17 
REMARK   10  A    between atoms: C12_17  and  C13_18 
REMARK   11  A    between atoms: C13_18  and  C14_19 
REMARK   12  A    between atoms: C14_19  and  N3_20 
REMARK       I    between atoms: C18_25  and  N4_27 
REMARK   13  A    between atoms: N4_27  and  C19_29 
REMARK   14  A    between atoms: C19_29  and  C20_30 
REMARK   15  A    between atoms: C21_34  and  C22_35 
ROOT
HETATM    1  C10 UNL     1      16.946  22.167  18.268  1.00  0.00     0.170 C 
ENDROOT
BRANCH   1   2
HETATM    2  C9  UNL     1      16.918  21.898  16.812  1.00  0.00     0.233 C 
HETATM    3  N2  UNL     1      15.816  22.191  15.964  1.00  0.00    -0.348 N 
HETATM    4  C8  UNL     1      15.948  21.909  14.550  1.00  0.00     0.145 C 
HETATM    5  C28 UNL     1      14.565  22.743  16.444  1.00  0.00     0.145 C 
HETATM    6  C7  UNL     1      14.605  22.093  13.887  1.00  0.00     0.148 C 
HETATM    7  N1  UNL     1      13.646  21.362  14.685  1.00  0.00    -0.325 N 
HETATM    8  C6  UNL     1      13.000  20.237  14.163  1.00  0.00     0.362 C 
HETATM    9  C29 UNL     1      13.397  21.853  16.022  1.00  0.00     0.148 C 
HETATM   10  O2  UNL     1      13.246  19.868  12.986  1.00  0.00    -0.238 OA
HETATM   11  O3  UNL     1      17.940  21.370  16.248  1.00  0.00    -0.272 OA
BRANCH   8  12
HETATM   12  O1  UNL     1      12.084  19.505  14.909  1.00  0.00    -0.304 OA
BRANCH  12  13
HETATM   13  C5  UNL     1      10.716  19.591  14.560  1.00  0.00     0.180 C 
BRANCH  13  14
HETATM   14  C4  UNL     1       9.903  20.308  15.591  1.00  0.00     0.027 C 
BRANCH  14  15
HETATM   15  C3  UNL     1       9.381  21.630  15.092  1.00  0.00     0.002 C 
BRANCH  15  16
HETATM   16  C2  UNL     1       9.550  21.665  13.583  1.00  0.00    -0.004 C 
HETATM   17  C1  UNL     1       8.400  22.448  12.992  1.00  0.00     0.005 C 
ENDBRANCH  15  16
ENDBRANCH  14  15
ENDBRANCH  13  14
ENDBRANCH  12  13
ENDBRANCH   8  12
ENDBRANCH   1   2
BRANCH   1  18
HETATM   18  C11 UNL     1      16.469  20.985  19.038  1.00  0.00     0.024 C 
BRANCH  18  19
HETATM   19  C12 UNL     1      15.146  21.207  19.677  1.00  0.00     0.003 C 
BRANCH  19  20
HETATM   20  C13 UNL     1      14.878  20.092  20.678  1.00  0.00     0.030 C 
BRANCH  20  21
HETATM   21  C14 UNL     1      13.527  19.473  20.386  1.00  0.00     0.273 C 
BRANCH  21  22
HETATM   22  N3  UNL     1      13.621  18.029  20.361  1.00  0.00     0.098 N 
HETATM   23  C15 UNL     1      12.369  17.393  20.706  1.00  0.00     0.283 C 
HETATM   24  C16 UNL     1      11.310  17.992  19.768  1.00  0.00     0.105 C 
HETATM   25  S1  UNL     1      12.312  18.066  18.225  1.00  0.00    -0.138 SA
HETATM   26  C17 UNL     1      13.925  17.621  18.998  1.00  0.00     0.346 C 
ENDBRANCH  21  22
ENDBRANCH  20  21
ENDBRANCH  19  20
ENDBRANCH  18  19
ENDBRANCH   1  18
BRANCH   1  27
HETATM   27  C18 UNL     1      18.382  22.461  18.693  1.00  0.00     0.231 C 
HETATM   28  O4  UNL     1      19.021  21.634  19.382  1.00  0.00    -0.273 OA
HETATM   29  N4  UNL     1      19.004  23.661  18.315  1.00  0.00    -0.358 N 
ATOM     30  H4  UNL     1      18.486  24.336  17.752  1.00  0.00     0.162 HD
BRANCH  29  31
HETATM   31  C19 UNL     1      20.340  23.957  18.697  1.00  0.00     0.166 C 
BRANCH  31  32
HETATM   32  C20 UNL     1      20.720  25.417  18.622  1.00  0.00     0.265 C 
HETATM   33  N5  UNL     1      21.269  25.658  17.309  1.00  0.00    -0.053 N 
HETATM   34  C21 UNL     1      22.221  26.705  17.383  1.00  0.00     0.230 C 
ATOM     35  H52 UNL     1      21.656  24.813  16.891  1.00  0.00     0.279 HD
ATOM     36  H51 UNL     1      20.543  25.845  16.616  1.00  0.00     0.279 HD
HETATM   37  C27 UNL     1      23.313  26.284  18.354  1.00  0.00     0.112 C 
HETATM   38  S2  UNL     1      22.233  25.566  19.661  1.00  0.00    -0.133 SA
BRANCH  34  39
HETATM   39  C22 UNL     1      22.780  27.019  16.039  1.00  0.00     0.086 C 
HETATM   40  C23 UNL     1      24.236  26.719  15.866  1.00  0.00     0.048 C 
HETATM   41  C24 UNL     1      22.025  26.302  14.959  1.00  0.00     0.042 C 
HETATM   42  C25 UNL     1      21.363  27.427  14.199  1.00  0.00     0.029 C 
HETATM   43  C26 UNL     1      21.356  28.532  15.231  1.00  0.00     0.169 C 
HETATM   44  O5  UNL     1      22.601  28.384  15.825  1.00  0.00    -0.378 OA
ENDBRANCH  34  39
ENDBRANCH  31  32
ENDBRANCH  29  31
ENDBRANCH   1  27
TORSDOF 15
ENDMDL
MODEL 3
REMARK VINA RESULT: -8.722442892      0.729      1.042
REMARK  15 active torsions:
REMARK  status: ('A' for Active; 'I' for Inactive)
REMARK    1  A    between atoms: C2_2  and  C3_3 
REMARK    2  A    between atoms: C3_3  and  C4_4 
REMARK    3  A    between atoms: C4_4  and  C5_5 
REMARK    4  A    between atoms: C5_5  and  O1_6 
REMARK    5  A    between atoms: O1_6  and  C6_7 
REMARK       I    between atoms: C6_7  and  N1_9 
REMARK       I    between atoms: N2_12  and  C9_13 
REMARK    6  A    between atoms: C9_13  and  C10_15 
REMARK    7  A    between atoms: C10_15  and  C11_16 
REMARK    8  A    between atoms: C10_15  and  C18_25 
REMARK    9  A    between atoms: C11_16  and  C12_17 
REMARK   10  A    between atoms: C12_17  and  C13_18 
REMARK   11  A    between atoms: C13_18  and  C14_19 
REMARK   12  A    between atoms: C14_19  and  N3_20 
REMARK       I    between atoms: C18_25  and  N4_27 
REMARK   13  A    between atoms: N4_27  and  C19_29 
REMARK   14  A    between atoms: C19_29  and  C20_30 
REMARK   15  A    between atoms: C21_34  and  C22_35 
ROOT
HETATM    1  C10 UNL     1      16.803  22.799  16.098  1.00  0.00     0.170 C 
ENDROOT
BRANCH   1   2
HETATM    2  C9  UNL     1      17.664  22.038  17.033  1.00  0.00     0.233 C 
HETATM    3  N2  UNL     1      18.060  22.503  18.316  1.00  0.00    -0.348 N 
HETATM    4  C8  UNL     1      18.872  21.631  19.139  1.00  0.00     0.145 C 
HETATM    5  C28 UNL     1      17.706  23.809  18.835  1.00  0.00     0.145 C 
HETATM    6  C7  UNL     1      19.347  22.401  20.346  1.00  0.00     0.148 C 
HETATM    7  N1  UNL     1      19.892  23.647  19.855  1.00  0.00    -0.325 N 
HETATM    8  C6  UNL     1      21.258  23.921  19.977  1.00  0.00     0.362 C 
HETATM    9  C29 UNL     1      18.963  24.574  19.248  1.00  0.00     0.148 C 
HETATM   10  O2  UNL     1      22.014  23.082  20.530  1.00  0.00    -0.238 OA
HETATM   11  O3  UNL     1      18.093  20.879  16.695  1.00  0.00    -0.272 OA
BRANCH   8  12
HETATM   12  O1  UNL     1      21.814  25.103  19.502  1.00  0.00    -0.304 OA
BRANCH  12  13
HETATM   13  C5  UNL     1      22.381  25.998  20.439  1.00  0.00     0.180 C 
BRANCH  13  14
HETATM   14  C4  UNL     1      21.434  26.354  21.542  1.00  0.00     0.027 C 
BRANCH  14  15
HETATM   15  C3  UNL     1      22.147  26.684  22.826  1.00  0.00     0.002 C 
BRANCH  15  16
HETATM   16  C2  UNL     1      23.477  25.950  22.830  1.00  0.00    -0.004 C 
HETATM   17  C1  UNL     1      24.110  26.117  24.193  1.00  0.00     0.005 C 
ENDBRANCH  15  16
ENDBRANCH  14  15
ENDBRANCH  13  14
ENDBRANCH  12  13
ENDBRANCH   8  12
ENDBRANCH   1   2
BRANCH   1  18
HETATM   18  C11 UNL     1      17.612  23.410  15.007  1.00  0.00     0.024 C 
BRANCH  18  19
HETATM   19  C12 UNL     1      18.358  24.617  15.448  1.00  0.00     0.003 C 
BRANCH  19  20
HETATM   20  C13 UNL     1      19.844  24.294  15.507  1.00  0.00     0.030 C 
BRANCH  20  21
HETATM   21  C14 UNL     1      20.610  25.539  15.901  1.00  0.00     0.273 C 
BRANCH  21  22
HETATM   22  N3  UNL     1      21.422  26.010  14.799  1.00  0.00     0.098 N 
HETATM   23  C15 UNL     1      20.754  27.031  14.023  1.00  0.00     0.283 C 
HETATM   24  C16 UNL     1      20.323  28.116  15.023  1.00  0.00     0.105 C 
HETATM   25  S1  UNL     1      21.817  28.114  16.099  1.00  0.00    -0.138 SA
HETATM   26  C17 UNL     1      22.615  26.631  15.351  1.00  0.00     0.346 C 
ENDBRANCH  21  22
ENDBRANCH  20  21
ENDBRANCH  19  20
ENDBRANCH  18  19
ENDBRANCH   1  18
BRANCH   1  27
HETATM   27  C18 UNL     1      15.794  21.846  15.463  1.00  0.00     0.231 C 
HETATM   28  O4  UNL     1      15.874  21.555  14.248  1.00  0.00    -0.273 OA
HETATM   29  N4  UNL     1      14.765  21.282  16.234  1.00  0.00    -0.358 N 
ATOM     30  H4  UNL     1      14.698  21.517  17.224  1.00  0.00     0.162 HD
BRANCH  29  31
HETATM   31  C19 UNL     1      13.814  20.393  15.666  1.00  0.00     0.166 C 
BRANCH  31  32
HETATM   32  C20 UNL     1      12.507  20.287  16.415  1.00  0.00     0.265 C 
HETATM   33  N5  UNL     1      12.646  19.231  17.389  1.00  0.00    -0.053 N 
HETATM   34  C21 UNL     1      11.383  18.630  17.614  1.00  0.00     0.230 C 
ATOM     35  H52 UNL     1      13.355  18.548  17.120  1.00  0.00     0.279 HD
ATOM     36  H51 UNL     1      13.078  19.557  18.253  1.00  0.00     0.279 HD
HETATM   37  C27 UNL     1      10.876  18.080  16.290  1.00  0.00     0.112 C 
HETATM   38  S2  UNL     1      11.340  19.507  15.223  1.00  0.00    -0.133 SA
BRANCH  34  39
HETATM   39  C22 UNL     1      11.471  17.563  18.649  1.00  0.00     0.086 C 
HETATM   40  C23 UNL     1      10.796  16.275  18.297  1.00  0.00     0.048 C 
HETATM   41  C24 UNL     1      12.899  17.262  18.993  1.00  0.00     0.042 C 
HETATM   42  C25 UNL     1      13.010  17.721  20.428  1.00  0.00     0.029 C 
HETATM   43  C26 UNL     1      11.861  18.699  20.527  1.00  0.00     0.169 C 
HETATM   44  O5  UNL     1      10.867  18.055  19.804  1.00  0.00    -0.378 OA
ENDBRANCH  34  39
ENDBRANCH  31  32
ENDBRANCH  29  31
ENDBRANCH   1  27
TORSDOF 15
ENDMDL
MODEL 4
REMARK VINA RESULT: -8.713103719      2.850      5.568
REMARK  15 active torsions:
REMARK  status: ('A' for Active; 'I' for Inactive)
REMARK    1  A    between atoms: C2_2  and  C3_3 
REMARK    2  A    between atoms: C3_3  and  C4_4 
REMARK    3  A    between atoms: C4_4  and  C5_5 
REMARK    4  A    between atoms: C5_5  and  O1_6 
REMARK    5  A    between atoms: O1_6  and  C6_7 
REMARK       I    between atoms: C6_7  and  N1_9 
REMARK       I    between atoms: N2_12  and  C9_13 
REMARK    6  A    between atoms: C9_13  and  C10_15 
REMARK    7  A    between atoms: C10_15  and  C11_16 
REMARK    8  A    between atoms: C10_15  and  C18_25 
REMARK    9  A    between atoms: C11_16  and  C12_17 
REMARK   10  A    between atoms: C12_17  and  C13_18 
REMARK   11  A    between atoms: C13_18  and  C14_19 
REMARK   12  A    between atoms: C14_19  and  N3_20 
REMARK       I    between atoms: C18_25  and  N4_27 
REMARK   13  A    between atoms: N4_27  and  C19_29 
REMARK   14  A    between atoms: C19_29  and  C20_30 
REMARK   15  A    between atoms: C21_34  and  C22_35 
ROOT
HETATM    1  C10 UNL     1      18.290  23.550  19.304  1.00  0.00     0.170 C 
ENDROOT
BRANCH   1   2
HETATM    2  C9  UNL     1      17.788  24.447  18.238  1.00  0.00     0.233 C 
HETATM    3  N2  UNL     1      18.511  24.772  17.058  1.00  0.00    -0.348 N 
HETATM    4  C8  UNL     1      17.875  25.632  16.081  1.00  0.00     0.145 C 
HETATM    5  C28 UNL     1      19.855  24.299  16.790  1.00  0.00     0.145 C 
HETATM    6  C7  UNL     1      18.890  26.012  15.031  1.00  0.00     0.148 C 
HETATM    7  N1  UNL     1      20.067  26.465  15.737  1.00  0.00    -0.325 N 
HETATM    8  C6  UNL     1      20.474  27.800  15.654  1.00  0.00     0.362 C 
HETATM    9  C29 UNL     1      20.786  25.478  16.512  1.00  0.00     0.148 C 
HETATM   10  O2  UNL     1      19.817  28.608  14.950  1.00  0.00    -0.238 OA
HETATM   11  O3  UNL     1      16.628  24.978  18.353  1.00  0.00    -0.272 OA
BRANCH   8  12
HETATM   12  O1  UNL     1      21.593  28.269  16.333  1.00  0.00    -0.304 OA
BRANCH  12  13
HETATM   13  C5  UNL     1      22.597  28.930  15.588  1.00  0.00     0.180 C 
BRANCH  13  14
HETATM   14  C4  UNL     1      23.975  28.459  15.934  1.00  0.00     0.027 C 
BRANCH  14  15
HETATM   15  C3  UNL     1      24.181  27.002  15.609  1.00  0.00     0.002 C 
BRANCH  15  16
HETATM   16  C2  UNL     1      25.616  26.641  15.951  1.00  0.00    -0.004 C 
HETATM   17  C1  UNL     1      26.536  27.553  15.171  1.00  0.00     0.005 C 
ENDBRANCH  15  16
ENDBRANCH  14  15
ENDBRANCH  13  14
ENDBRANCH  12  13
ENDBRANCH   8  12
ENDBRANCH   1   2
BRANCH   1  18
HETATM   18  C11 UNL     1      18.226  24.217  20.635  1.00  0.00     0.024 C 
BRANCH  18  19
HETATM   19  C12 UNL     1      19.539  24.754  21.074  1.00  0.00     0.003 C 
BRANCH  19  20
HETATM   20  C13 UNL     1      20.653  23.882  20.511  1.00  0.00     0.030 C 
BRANCH  20  21
HETATM   21  C14 UNL     1      21.789  24.765  20.040  1.00  0.00     0.273 C 
BRANCH  21  22
HETATM   22  N3  UNL     1      21.736  26.057  20.690  1.00  0.00     0.098 N 
HETATM   23  C15 UNL     1      22.793  26.225  21.662  1.00  0.00     0.283 C 
HETATM   24  C16 UNL     1      24.106  25.922  20.925  1.00  0.00     0.105 C 
HETATM   25  S1  UNL     1      23.719  26.734  19.318  1.00  0.00    -0.138 SA
HETATM   26  C17 UNL     1      21.945  27.080  19.678  1.00  0.00     0.346 C 
ENDBRANCH  21  22
ENDBRANCH  20  21
ENDBRANCH  19  20
ENDBRANCH  18  19
ENDBRANCH   1  18
BRANCH   1  27
HETATM   27  C18 UNL     1      17.414  22.302  19.358  1.00  0.00     0.231 C 
HETATM   28  O4  UNL     1      17.932  21.162  19.332  1.00  0.00    -0.273 OA
HETATM   29  N4  UNL     1      16.017  22.416  19.441  1.00  0.00    -0.358 N 
ATOM     30  H4  UNL     1      15.593  23.343  19.463  1.00  0.00     0.162 HD
BRANCH  29  31
HETATM   31  C19 UNL     1      15.180  21.268  19.492  1.00  0.00     0.166 C 
BRANCH  31  32
HETATM   32  C20 UNL     1      15.052  20.510  18.194  1.00  0.00     0.265 C 
HETATM   33  N5  UNL     1      14.955  21.479  17.129  1.00  0.00    -0.053 N 
HETATM   34  C21 UNL     1      14.182  20.939  16.071  1.00  0.00     0.230 C 
ATOM     35  H52 UNL     1      14.591  22.374  17.454  1.00  0.00     0.279 HD
ATOM     36  H51 UNL     1      15.871  21.799  16.813  1.00  0.00     0.279 HD
HETATM   37  C27 UNL     1      12.805  20.597  16.616  1.00  0.00     0.112 C 
HETATM   38  S2  UNL     1      13.338  19.836  18.206  1.00  0.00    -0.133 SA
BRANCH  34  39
HETATM   39  C22 UNL     1      14.095  21.890  14.928  1.00  0.00     0.086 C 
HETATM   40  C23 UNL     1      13.454  23.206  15.241  1.00  0.00     0.048 C 
HETATM   41  C24 UNL     1      15.449  22.159  14.345  1.00  0.00     0.042 C 
HETATM   42  C25 UNL     1      15.355  21.551  12.965  1.00  0.00     0.029 C 
HETATM   43  C26 UNL     1      14.224  20.563  13.142  1.00  0.00     0.169 C 
HETATM   44  O5  UNL     1      13.336  21.277  13.935  1.00  0.00    -0.378 OA
ENDBRANCH  34  39
ENDBRANCH  31  32
ENDBRANCH  29  31
ENDBRANCH   1  27
TORSDOF 15
ENDMDL
MODEL 5
REMARK VINA RESULT: -8.585069601      2.908      5.437
REMARK  15 active torsions:
REMARK  status: ('A' for Active; 'I' for Inactive)
REMARK    1  A    between atoms: C2_2  and  C3_3 
REMARK    2  A    between atoms: C3_3  and  C4_4 
REMARK    3  A    between atoms: C4_4  and  C5_5 
REMARK    4  A    between atoms: C5_5  and  O1_6 
REMARK    5  A    between atoms: O1_6  and  C6_7 
REMARK       I    between atoms: C6_7  and  N1_9 
REMARK       I    between atoms: N2_12  and  C9_13 
REMARK    6  A    between atoms: C9_13  and  C10_15 
REMARK    7  A    between atoms: C10_15  and  C11_16 
REMARK    8  A    between atoms: C10_15  and  C18_25 
REMARK    9  A    between atoms: C11_16  and  C12_17 
REMARK   10  A    between atoms: C12_17  and  C13_18 
REMARK   11  A    between atoms: C13_18  and  C14_19 
REMARK   12  A    between atoms: C14_19  and  N3_20 
REMARK       I    between atoms: C18_25  and  N4_27 
REMARK   13  A    between atoms: N4_27  and  C19_29 
REMARK   14  A    between atoms: C19_29  and  C20_30 
REMARK   15  A    between atoms: C21_34  and  C22_35 
ROOT
HETATM    1  C10 UNL     1      18.886  22.507  18.310  1.00  0.00     0.170 C 
ENDROOT
BRANCH   1   2
HETATM    2  C9  UNL     1      18.316  23.802  17.871  1.00  0.00     0.233 C 
HETATM    3  N2  UNL     1      18.592  24.415  16.618  1.00  0.00    -0.348 N 
HETATM    4  C8  UNL     1      17.929  25.665  16.308  1.00  0.00     0.145 C 
HETATM    5  C28 UNL     1      19.512  23.861  15.645  1.00  0.00     0.145 C 
HETATM    6  C7  UNL     1      18.525  26.233  15.044  1.00  0.00     0.148 C 
HETATM    7  N1  UNL     1      19.961  26.197  15.210  1.00  0.00    -0.325 N 
HETATM    8  C6  UNL     1      20.696  27.384  15.294  1.00  0.00     0.362 C 
HETATM    9  C29 UNL     1      20.579  24.891  15.279  1.00  0.00     0.148 C 
HETATM   10  O2  UNL     1      20.103  28.489  15.211  1.00  0.00    -0.238 OA
HETATM   11  O3  UNL     1      17.516  24.435  18.645  1.00  0.00    -0.272 OA
BRANCH   8  12
HETATM   12  O1  UNL     1      22.075  27.382  15.468  1.00  0.00    -0.304 OA
BRANCH  12  13
HETATM   13  C5  UNL     1      22.819  28.450  14.916  1.00  0.00     0.180 C 
BRANCH  13  14
HETATM   14  C4  UNL     1      24.247  28.449  15.365  1.00  0.00     0.027 C 
BRANCH  14  15
HETATM   15  C3  UNL     1      24.749  27.064  15.679  1.00  0.00     0.002 C 
BRANCH  15  16
HETATM   16  C2  UNL     1      26.254  27.051  15.479  1.00  0.00    -0.004 C 
HETATM   17  C1  UNL     1      26.674  28.395  14.927  1.00  0.00     0.005 C 
ENDBRANCH  15  16
ENDBRANCH  14  15
ENDBRANCH  13  14
ENDBRANCH  12  13
ENDBRANCH   8  12
ENDBRANCH   1   2
BRANCH   1  18
HETATM   18  C11 UNL     1      19.142  22.509  19.777  1.00  0.00     0.024 C 
BRANCH  18  19
HETATM   19  C12 UNL     1      20.528  22.098  20.121  1.00  0.00     0.003 C 
BRANCH  19  20
HETATM   20  C13 UNL     1      21.226  23.243  20.842  1.00  0.00     0.030 C 
BRANCH  20  21
HETATM   21  C14 UNL     1      21.665  24.278  19.828  1.00  0.00     0.273 C 
BRANCH  21  22
HETATM   22  N3  UNL     1      20.898  25.497  19.976  1.00  0.00     0.098 N 
HETATM   23  C15 UNL     1      21.372  26.313  21.071  1.00  0.00     0.283 C 
HETATM   24  C16 UNL     1      22.877  26.517  20.834  1.00  0.00     0.105 C 
HETATM   25  S1  UNL     1      22.845  26.740  19.007  1.00  0.00    -0.138 SA
HETATM   26  C17 UNL     1      21.073  26.289  18.769  1.00  0.00     0.346 C 
ENDBRANCH  21  22
ENDBRANCH  20  21
ENDBRANCH  19  20
ENDBRANCH  18  19
ENDBRANCH   1  18
BRANCH   1  27
HETATM   27  C18 UNL     1      17.887  21.395  18.006  1.00  0.00     0.231 C 
HETATM   28  O4  UNL     1      17.940  20.774  16.920  1.00  0.00    -0.273 OA
HETATM   29  N4  UNL     1      16.897  21.051  18.941  1.00  0.00    -0.358 N 
ATOM     30  H4  UNL     1      16.852  21.554  19.827  1.00  0.00     0.162 HD
BRANCH  29  31
HETATM   31  C19 UNL     1      15.956  20.019  18.681  1.00  0.00     0.166 C 
BRANCH  31  32
HETATM   32  C20 UNL     1      14.609  20.489  18.187  1.00  0.00     0.265 C 
HETATM   33  N5  UNL     1      14.659  20.524  16.745  1.00  0.00    -0.053 N 
HETATM   34  C21 UNL     1      13.789  21.535  16.269  1.00  0.00     0.230 C 
ATOM     35  H52 UNL     1      15.610  20.636  16.394  1.00  0.00     0.279 HD
ATOM     36  H51 UNL     1      14.457  19.614  16.330  1.00  0.00     0.279 HD
HETATM   37  C27 UNL     1      14.239  22.863  16.855  1.00  0.00     0.112 C 
HETATM   38  S2  UNL     1      14.565  22.289  18.575  1.00  0.00    -0.133 SA
BRANCH  34  39
HETATM   39  C22 UNL     1      13.774  21.574  14.780  1.00  0.00     0.086 C 
HETATM   40  C23 UNL     1      14.961  22.230  14.147  1.00  0.00     0.048 C 
HETATM   41  C24 UNL     1      13.642  20.196  14.205  1.00  0.00     0.042 C 
HETATM   42  C25 UNL     1      12.284  20.229  13.544  1.00  0.00     0.029 C 
HETATM   43  C26 UNL     1      11.611  21.365  14.282  1.00  0.00     0.169 C 
HETATM   44  O5  UNL     1      12.641  22.288  14.396  1.00  0.00    -0.378 OA
ENDBRANCH  34  39
ENDBRANCH  31  32
ENDBRANCH  29  31
ENDBRANCH   1  27
TORSDOF 15
ENDMDL
