MODEL 1
REMARK VINA RESULT: -8.933165213      0.000      0.000
REMARK  13 active torsions:
REMARK  status: ('A' for Active; 'I' for Inactive)
REMARK    1  A    between atoms: C2_2  and  C3_3 
REMARK    2  A    between atoms: C3_3  and  C4_4 
REMARK    3  A    between atoms: C4_4  and  C5_5 
REMARK    4  A    between atoms: C5_5  and  C6_6 
REMARK    5  A    between atoms: C6_6  and  C7_7 
REMARK    6  A    between atoms: C7_7  and  C8_8 
REMARK    7  A    between atoms: C8_8  and  S1_9 
REMARK    8  A    between atoms: S1_9  and  N1_12 
REMARK    9  A    between atoms: C12_16  and  C13_17 
REMARK       I    between atoms: C13_17  and  N2_19 
REMARK   10  A    between atoms: C15_26  and  C16_27 
REMARK   11  A    between atoms: C16_27  and  C17_28 
REMARK   12  A    between atoms: C17_28  and  S2_29 
REMARK   13  A    between atoms: S2_29  and  C18_30 
ROOT
HETATM    1  C13 UNL     1      15.277  23.040  18.117  1.00  0.00     0.242 C 
HETATM    2  O3  UNL     1      14.320  23.752  17.694  1.00  0.00    -0.271 OA
HETATM    3  N2  UNL     1      15.172  21.915  18.942  1.00  0.00    -0.305 N 
ATOM      4  H2  UNL     1      15.910  21.750  19.628  1.00  0.00     0.171 HD
HETATM    5  C14 UNL     1      14.202  21.077  18.887  1.00  0.00     0.167 A 
HETATM    6  N3  UNL     1      13.129  21.055  18.099  1.00  0.00    -0.279 N 
ATOM      7  H3  UNL     1      12.985  21.785  17.401  1.00  0.00     0.189 HD
HETATM    8  N4  UNL     1      12.282  20.111  18.229  1.00  0.00    -0.296 N 
ATOM      9  H4  UNL     1      11.457  20.087  17.630  1.00  0.00     0.187 HD
HETATM   10  C15 UNL     1      12.464  19.164  19.133  1.00  0.00     0.070 A 
HETATM   11  S5  UNL     1      13.939  19.651  19.843  1.00  0.00    -0.038 SA
ENDROOT
BRANCH   1  12
HETATM   12  C12 UNL     1      16.632  23.518  17.641  1.00  0.00     0.166 C 
HETATM   13  N1  UNL     1      17.617  22.481  17.748  1.00  0.00    -0.197 NA
HETATM   14  C9  UNL     1      18.252  22.287  16.484  1.00  0.00     0.108 C 
HETATM   15  C10 UNL     1      17.609  23.188  15.477  1.00  0.00     0.018 C 
HETATM   16  C11 UNL     1      16.512  23.917  16.204  1.00  0.00     0.031 C 
BRANCH  13  17
HETATM   17  S1  UNL     1      18.885  22.972  18.876  1.00  0.00     0.212 S 
HETATM   18  O1  UNL     1      19.475  21.664  19.385  1.00  0.00    -0.211 OA
HETATM   19  O2  UNL     1      18.152  23.585  20.001  1.00  0.00    -0.211 OA
BRANCH  17  20
HETATM   20  C8  UNL     1      20.080  23.931  18.046  1.00  0.00     0.157 C 
BRANCH  20  21
HETATM   21  C7  UNL     1      19.924  25.368  17.911  1.00  0.00     0.016 C 
BRANCH  21  22
HETATM   22  C6  UNL     1      19.561  26.115  16.721  1.00  0.00     0.001 C 
BRANCH  22  23
HETATM   23  C5  UNL     1      20.121  25.757  15.411  1.00  0.00     0.000 C 
BRANCH  23  24
HETATM   24  C4  UNL     1      19.663  26.738  14.311  1.00  0.00     0.000 C 
BRANCH  24  25
HETATM   25  C3  UNL     1      20.293  28.056  14.543  1.00  0.00    -0.000 C 
BRANCH  25  26
HETATM   26  C2  UNL     1      21.768  28.072  14.142  1.00  0.00    -0.005 C 
HETATM   27  C1  UNL     1      22.477  28.815  15.268  1.00  0.00     0.005 C 
ENDBRANCH  25  26
ENDBRANCH  24  25
ENDBRANCH  23  24
ENDBRANCH  22  23
ENDBRANCH  21  22
ENDBRANCH  20  21
ENDBRANCH  17  20
ENDBRANCH  13  17
ENDBRANCH   1  12
BRANCH  10  28
HETATM   28  C16 UNL     1      11.587  17.980  19.449  1.00  0.00     0.077 C 
BRANCH  28  29
HETATM   29  C17 UNL     1      11.879  16.833  18.509  1.00  0.00     0.088 C 
BRANCH  29  30
HETATM   30  S2  UNL     1      10.363  16.522  17.568  1.00  0.00    -0.104 SA
BRANCH  30  31
HETATM   31  C18 UNL     1      10.368  17.565  16.089  1.00  0.00     0.113 A 
HETATM   32  N5  UNL     1      10.090  18.838  15.957  1.00  0.00    -0.334 N 
HETATM   33  C19 UNL     1      10.148  19.402  14.788  1.00  0.00     0.163 A 
ATOM     34  H5  UNL     1       9.827  19.388  16.774  1.00  0.00     0.168 HD
HETATM   35  C20 UNL     1      10.507  18.612  13.725  1.00  0.00     0.027 A 
HETATM   36  S4  UNL     1       9.812  21.097  14.362  1.00  0.00     0.275 S 
HETATM   37  S3  UNL     1      10.739  17.103  14.480  1.00  0.00    -0.067 SA
HETATM   38  C21 UNL     1      10.570  19.242  12.361  1.00  0.00     0.069 C 
HETATM   39  C22 UNL     1       9.215  19.926  12.106  1.00  0.00     0.137 C 
HETATM   40  N6  UNL     1       9.099  21.179  12.805  1.00  0.00    -0.314 N 
ATOM     41  H6  UNL     1       8.650  22.011  12.422  1.00  0.00     0.172 HD
HETATM   42  O4  UNL     1      11.110  21.891  14.378  1.00  0.00    -0.199 OA
HETATM   43  O5  UNL     1       8.872  21.707  15.385  1.00  0.00    -0.199 OA
ENDBRANCH  30  31
ENDBRANCH  29  30
ENDBRANCH  28  29
ENDBRANCH  10  28
TORSDOF 13
ENDMDL
MODEL 2
REMARK VINA RESULT: -8.919390213      3.690     11.394
REMARK  13 active torsions:
REMARK  status: ('A' for Active; 'I' for Inactive)
REMARK    1  A    between atoms: C2_2  and  C3_3 
REMARK    2  A    between atoms: C3_3  and  C4_4 
REMARK    3  A    between atoms: C4_4  and  C5_5 
REMARK    4  A    between atoms: C5_5  and  C6_6 
REMARK    5  A    between atoms: C6_6  and  C7_7 
REMARK    6  A    between atoms: C7_7  and  C8_8 
REMARK    7  A    between atoms: C8_8  and  S1_9 
REMARK    8  A    between atoms: S1_9  and  N1_12 
REMARK    9  A    between atoms: C12_16  and  C13_17 
REMARK       I    between atoms: C13_17  and  N2_19 
REMARK   10  A    between atoms: C15_26  and  C16_27 
REMARK   11  A    between atoms: C16_27  and  C17_28 
REMARK   12  A    between atoms: C17_28  and  S2_29 
REMARK   13  A    between atoms: S2_29  and  C18_30 
ROOT
HETATM    1  C13 UNL     1      17.835  22.938  16.224  1.00  0.00     0.242 C 
HETATM    2  O3  UNL     1      18.685  22.299  16.911  1.00  0.00    -0.271 OA
HETATM    3  N2  UNL     1      17.936  24.270  15.808  1.00  0.00    -0.305 N 
ATOM      4  H2  UNL     1      17.082  24.826  15.762  1.00  0.00     0.171 HD
HETATM    5  C14 UNL     1      19.042  24.834  15.482  1.00  0.00     0.167 A 
HETATM    6  N3  UNL     1      20.280  24.346  15.454  1.00  0.00    -0.279 N 
ATOM      7  H3  UNL     1      20.460  23.377  15.717  1.00  0.00     0.189 HD
HETATM    8  N4  UNL     1      21.239  25.105  15.095  1.00  0.00    -0.296 N 
ATOM      9  H4  UNL     1      22.191  24.740  15.070  1.00  0.00     0.187 HD
HETATM   10  C15 UNL     1      21.011  26.362  14.754  1.00  0.00     0.070 A 
HETATM   11  S5  UNL     1      19.319  26.466  14.958  1.00  0.00    -0.038 SA
ENDROOT
BRANCH   1  12
HETATM   12  C12 UNL     1      16.621  22.111  15.858  1.00  0.00     0.166 C 
HETATM   13  N1  UNL     1      15.537  22.346  16.769  1.00  0.00    -0.197 NA
HETATM   14  C9  UNL     1      14.369  22.726  16.041  1.00  0.00     0.108 C 
HETATM   15  C10 UNL     1      14.715  22.817  14.587  1.00  0.00     0.018 C 
HETATM   16  C11 UNL     1      16.182  22.503  14.482  1.00  0.00     0.031 C 
BRANCH  13  17
HETATM   17  S1  UNL     1      15.134  20.850  17.618  1.00  0.00     0.212 S 
HETATM   18  O1  UNL     1      16.477  20.181  17.877  1.00  0.00    -0.211 OA
HETATM   19  O2  UNL     1      14.431  20.037  16.607  1.00  0.00    -0.211 OA
BRANCH  17  20
HETATM   20  C8  UNL     1      14.306  21.217  19.107  1.00  0.00     0.157 C 
BRANCH  20  21
HETATM   21  C7  UNL     1      14.752  20.656  20.369  1.00  0.00     0.016 C 
BRANCH  21  22
HETATM   22  C6  UNL     1      14.229  19.490  21.057  1.00  0.00     0.001 C 
BRANCH  22  23
HETATM   23  C5  UNL     1      13.721  18.338  20.301  1.00  0.00     0.000 C 
BRANCH  23  24
HETATM   24  C4  UNL     1      12.362  17.854  20.850  1.00  0.00     0.000 C 
BRANCH  24  25
HETATM   25  C3  UNL     1      11.339  17.972  19.788  1.00  0.00    -0.000 C 
BRANCH  25  26
HETATM   26  C2  UNL     1      11.959  18.207  18.410  1.00  0.00    -0.005 C 
HETATM   27  C1  UNL     1      11.194  19.388  17.826  1.00  0.00     0.005 C 
ENDBRANCH  25  26
ENDBRANCH  24  25
ENDBRANCH  23  24
ENDBRANCH  22  23
ENDBRANCH  21  22
ENDBRANCH  20  21
ENDBRANCH  17  20
ENDBRANCH  13  17
ENDBRANCH   1  12
BRANCH  10  28
HETATM   28  C16 UNL     1      21.996  27.414  14.314  1.00  0.00     0.077 C 
BRANCH  28  29
HETATM   29  C17 UNL     1      22.171  28.463  15.389  1.00  0.00     0.088 C 
BRANCH  29  30
HETATM   30  S2  UNL     1      23.467  27.866  16.503  1.00  0.00    -0.104 SA
BRANCH  30  31
HETATM   31  C18 UNL     1      22.703  26.885  17.817  1.00  0.00     0.113 A 
HETATM   32  N5  UNL     1      23.154  25.829  18.449  1.00  0.00    -0.334 N 
HETATM   33  C19 UNL     1      22.434  25.261  19.370  1.00  0.00     0.163 A 
ATOM     34  H5  UNL     1      24.072  25.452  18.216  1.00  0.00     0.168 HD
HETATM   35  C20 UNL     1      21.206  25.813  19.638  1.00  0.00     0.027 A 
HETATM   36  S4  UNL     1      22.826  23.829  20.350  1.00  0.00     0.275 S 
HETATM   37  S3  UNL     1      21.168  27.117  18.545  1.00  0.00    -0.067 SA
HETATM   38  C21 UNL     1      20.353  25.166  20.693  1.00  0.00     0.069 C 
HETATM   39  C22 UNL     1      20.219  23.676  20.329  1.00  0.00     0.137 C 
HETATM   40  N6  UNL     1      21.402  22.927  20.664  1.00  0.00    -0.314 N 
ATOM     41  H6  UNL     1      21.394  21.979  21.040  1.00  0.00     0.172 HD
HETATM   42  O4  UNL     1      23.456  24.270  21.663  1.00  0.00    -0.199 OA
HETATM   43  O5  UNL     1      23.827  22.960  19.613  1.00  0.00    -0.199 OA
ENDBRANCH  30  31
ENDBRANCH  29  30
ENDBRANCH  28  29
ENDBRANCH  10  28
TORSDOF 13
ENDMDL
MODEL 3
REMARK VINA RESULT: -8.864309514      2.967     10.243
REMARK  13 active torsions:
REMARK  status: ('A' for Active; 'I' for Inactive)
REMARK    1  A    between atoms: C2_2  and  C3_3 
REMARK    2  A    between atoms: C3_3  and  C4_4 
REMARK    3  A    between atoms: C4_4  and  C5_5 
REMARK    4  A    between atoms: C5_5  and  C6_6 
REMARK    5  A    between atoms: C6_6  and  C7_7 
REMARK    6  A    between atoms: C7_7  and  C8_8 
REMARK    7  A    between atoms: C8_8  and  S1_9 
REMARK    8  A    between atoms: S1_9  and  N1_12 
REMARK    9  A    between atoms: C12_16  and  C13_17 
REMARK       I    between atoms: C13_17  and  N2_19 
REMARK   10  A    between atoms: C15_26  and  C16_27 
REMARK   11  A    between atoms: C16_27  and  C17_28 
REMARK   12  A    between atoms: C17_28  and  S2_29 
REMARK   13  A    between atoms: S2_29  and  C18_30 
ROOT
HETATM    1  C13 UNL     1      13.534  21.211  15.350  1.00  0.00     0.242 C 
HETATM    2  O3  UNL     1      13.074  22.377  15.170  1.00  0.00    -0.271 OA
HETATM    3  N2  UNL     1      14.728  20.882  16.000  1.00  0.00    -0.305 N 
ATOM      4  H2  UNL     1      15.260  20.083  15.653  1.00  0.00     0.171 HD
HETATM    5  C14 UNL     1      15.193  21.525  17.008  1.00  0.00     0.167 A 
HETATM    6  N3  UNL     1      14.708  22.587  17.649  1.00  0.00    -0.279 N 
ATOM      7  H3  UNL     1      13.829  23.012  17.353  1.00  0.00     0.189 HD
HETATM    8  N4  UNL     1      15.356  23.066  18.636  1.00  0.00    -0.296 N 
ATOM      9  H4  UNL     1      14.992  23.878  19.133  1.00  0.00     0.187 HD
HETATM   10  C15 UNL     1      16.496  22.518  19.022  1.00  0.00     0.070 A 
HETATM   11  S5  UNL     1      16.653  21.237  17.904  1.00  0.00    -0.038 SA
ENDROOT
BRANCH   1  12
HETATM   12  C12 UNL     1      12.648  20.126  14.776  1.00  0.00     0.166 C 
HETATM   13  N1  UNL     1      11.334  20.624  14.490  1.00  0.00    -0.197 NA
HETATM   14  C9  UNL     1      11.001  20.352  13.128  1.00  0.00     0.108 C 
HETATM   15  C10 UNL     1      12.178  19.708  12.464  1.00  0.00     0.018 C 
HETATM   16  C11 UNL     1      13.264  19.640  13.502  1.00  0.00     0.031 C 
BRANCH  13  17
HETATM   17  S1  UNL     1      10.141  19.771  15.477  1.00  0.00     0.212 S 
HETATM   18  O1  UNL     1       9.726  18.575  14.630  1.00  0.00    -0.211 OA
HETATM   19  O2  UNL     1       8.988  20.690  15.528  1.00  0.00    -0.211 OA
BRANCH  17  20
HETATM   20  C8  UNL     1      10.866  19.268  16.980  1.00  0.00     0.157 C 
BRANCH  20  21
HETATM   21  C7  UNL     1      10.988  17.862  17.318  1.00  0.00     0.016 C 
BRANCH  21  22
HETATM   22  C6  UNL     1      10.898  17.253  18.632  1.00  0.00     0.001 C 
BRANCH  22  23
HETATM   23  C5  UNL     1      11.266  18.009  19.836  1.00  0.00     0.000 C 
BRANCH  23  24
HETATM   24  C4  UNL     1      12.522  17.422  20.513  1.00  0.00     0.000 C 
BRANCH  24  25
HETATM   25  C3  UNL     1      13.730  17.966  19.854  1.00  0.00    -0.000 C 
BRANCH  25  26
HETATM   26  C2  UNL     1      13.712  19.492  19.782  1.00  0.00    -0.005 C 
HETATM   27  C1  UNL     1      14.521  19.957  20.987  1.00  0.00     0.005 C 
ENDBRANCH  25  26
ENDBRANCH  24  25
ENDBRANCH  23  24
ENDBRANCH  22  23
ENDBRANCH  21  22
ENDBRANCH  20  21
ENDBRANCH  17  20
ENDBRANCH  13  17
ENDBRANCH   1  12
BRANCH  10  28
HETATM   28  C16 UNL     1      17.410  22.934  20.147  1.00  0.00     0.077 C 
BRANCH  28  29
HETATM   29  C17 UNL     1      18.847  22.601  19.817  1.00  0.00     0.088 C 
BRANCH  29  30
HETATM   30  S2  UNL     1      19.773  24.157  19.862  1.00  0.00    -0.104 SA
BRANCH  30  31
HETATM   31  C18 UNL     1      19.798  24.871  18.200  1.00  0.00     0.113 A 
HETATM   32  N5  UNL     1      20.813  25.170  17.429  1.00  0.00    -0.334 N 
HETATM   33  C19 UNL     1      20.612  25.690  16.254  1.00  0.00     0.163 A 
ATOM     34  H5  UNL     1      21.765  24.995  17.751  1.00  0.00     0.168 HD
HETATM   35  C20 UNL     1      19.311  25.904  15.876  1.00  0.00     0.027 A 
HETATM   36  S4  UNL     1      21.819  26.180  15.043  1.00  0.00     0.275 S 
HETATM   37  S3  UNL     1      18.458  25.341  17.238  1.00  0.00    -0.067 SA
HETATM   38  C21 UNL     1      19.055  26.514  14.526  1.00  0.00     0.069 C 
HETATM   39  C22 UNL     1      19.874  27.815  14.445  1.00  0.00     0.137 C 
HETATM   40  N6  UNL     1      21.269  27.565  14.195  1.00  0.00    -0.314 N 
ATOM     41  H6  UNL     1      21.856  28.138  13.590  1.00  0.00     0.172 HD
HETATM   42  O4  UNL     1      22.052  25.036  14.067  1.00  0.00    -0.199 OA
HETATM   43  O5  UNL     1      23.137  26.493  15.728  1.00  0.00    -0.199 OA
ENDBRANCH  30  31
ENDBRANCH  29  30
ENDBRANCH  28  29
ENDBRANCH  10  28
TORSDOF 13
ENDMDL
MODEL 4
REMARK VINA RESULT: -8.788534268      3.302      9.771
REMARK  13 active torsions:
REMARK  status: ('A' for Active; 'I' for Inactive)
REMARK    1  A    between atoms: C2_2  and  C3_3 
REMARK    2  A    between atoms: C3_3  and  C4_4 
REMARK    3  A    between atoms: C4_4  and  C5_5 
REMARK    4  A    between atoms: C5_5  and  C6_6 
REMARK    5  A    between atoms: C6_6  and  C7_7 
REMARK    6  A    between atoms: C7_7  and  C8_8 
REMARK    7  A    between atoms: C8_8  and  S1_9 
REMARK    8  A    between atoms: S1_9  and  N1_12 
REMARK    9  A    between atoms: C12_16  and  C13_17 
REMARK       I    between atoms: C13_17  and  N2_19 
REMARK   10  A    between atoms: C15_26  and  C16_27 
REMARK   11  A    between atoms: C16_27  and  C17_28 
REMARK   12  A    between atoms: C17_28  and  S2_29 
REMARK   13  A    between atoms: S2_29  and  C18_30 
ROOT
HETATM    1  C13 UNL     1      14.478  21.150  18.729  1.00  0.00     0.242 C 
HETATM    2  O3  UNL     1      13.956  22.228  18.319  1.00  0.00    -0.271 OA
HETATM    3  N2  UNL     1      15.845  20.896  18.883  1.00  0.00    -0.305 N 
ATOM      4  H2  UNL     1      16.184  19.954  18.689  1.00  0.00     0.171 HD
HETATM    5  C14 UNL     1      16.698  21.779  19.255  1.00  0.00     0.167 A 
HETATM    6  N3  UNL     1      16.526  23.063  19.566  1.00  0.00    -0.279 N 
ATOM      7  H3  UNL     1      15.598  23.483  19.531  1.00  0.00     0.189 HD
HETATM    8  N4  UNL     1      17.537  23.759  19.909  1.00  0.00    -0.296 N 
ATOM      9  H4  UNL     1      17.415  24.743  20.149  1.00  0.00     0.187 HD
HETATM   10  C15 UNL     1      18.742  23.218  19.956  1.00  0.00     0.070 A 
HETATM   11  S5  UNL     1      18.412  21.611  19.481  1.00  0.00    -0.038 SA
ENDROOT
BRANCH   1  12
HETATM   12  C12 UNL     1      13.457  20.083  19.064  1.00  0.00     0.166 C 
HETATM   13  N1  UNL     1      13.440  19.049  18.069  1.00  0.00    -0.197 NA
HETATM   14  C9  UNL     1      13.631  17.778  18.691  1.00  0.00     0.108 C 
HETATM   15  C10 UNL     1      13.855  17.987  20.156  1.00  0.00     0.018 C 
HETATM   16  C11 UNL     1      13.827  19.474  20.380  1.00  0.00     0.031 C 
BRANCH  13  17
HETATM   17  S1  UNL     1      11.855  18.994  17.290  1.00  0.00     0.212 S 
HETATM   18  O1  UNL     1      10.965  19.862  18.168  1.00  0.00    -0.211 OA
HETATM   19  O2  UNL     1      11.412  17.597  17.467  1.00  0.00    -0.211 OA
BRANCH  17  20
HETATM   20  C8  UNL     1      11.967  19.628  15.671  1.00  0.00     0.157 C 
BRANCH  20  21
HETATM   21  C7  UNL     1      13.013  20.565  15.304  1.00  0.00     0.016 C 
BRANCH  21  22
HETATM   22  C6  UNL     1      13.920  20.487  14.174  1.00  0.00     0.001 C 
BRANCH  22  23
HETATM   23  C5  UNL     1      14.893  21.558  13.919  1.00  0.00     0.000 C 
BRANCH  23  24
HETATM   24  C4  UNL     1      14.521  22.854  14.669  1.00  0.00     0.000 C 
BRANCH  24  25
HETATM   25  C3  UNL     1      15.645  23.248  15.545  1.00  0.00    -0.000 C 
BRANCH  25  26
HETATM   26  C2  UNL     1      16.915  22.448  15.254  1.00  0.00    -0.005 C 
HETATM   27  C1  UNL     1      18.030  23.194  15.978  1.00  0.00     0.005 C 
ENDBRANCH  25  26
ENDBRANCH  24  25
ENDBRANCH  23  24
ENDBRANCH  22  23
ENDBRANCH  21  22
ENDBRANCH  20  21
ENDBRANCH  17  20
ENDBRANCH  13  17
ENDBRANCH   1  12
BRANCH  10  28
HETATM   28  C16 UNL     1      20.054  23.865  20.323  1.00  0.00     0.077 C 
BRANCH  28  29
HETATM   29  C17 UNL     1      19.825  25.078  21.194  1.00  0.00     0.088 C 
BRANCH  29  30
HETATM   30  S2  UNL     1      21.298  26.121  21.044  1.00  0.00    -0.104 SA
BRANCH  30  31
HETATM   31  C18 UNL     1      21.621  26.428  19.290  1.00  0.00     0.113 A 
HETATM   32  N5  UNL     1      20.783  26.643  18.306  1.00  0.00    -0.334 N 
HETATM   33  C19 UNL     1      21.227  26.838  17.100  1.00  0.00     0.163 A 
ATOM     34  H5  UNL     1      19.780  26.657  18.487  1.00  0.00     0.168 HD
HETATM   35  C20 UNL     1      22.587  26.807  16.918  1.00  0.00     0.027 A 
HETATM   36  S4  UNL     1      20.294  27.140  15.616  1.00  0.00     0.275 S 
HETATM   37  S3  UNL     1      23.140  26.499  18.498  1.00  0.00    -0.067 SA
HETATM   38  C21 UNL     1      23.121  27.019  15.529  1.00  0.00     0.069 C 
HETATM   39  C22 UNL     1      22.418  26.009  14.604  1.00  0.00     0.137 C 
HETATM   40  N6  UNL     1      21.078  26.417  14.274  1.00  0.00    -0.314 N 
ATOM     41  H6  UNL     1      20.649  26.292  13.357  1.00  0.00     0.172 HD
HETATM   42  O4  UNL     1      20.167  28.640  15.393  1.00  0.00    -0.199 OA
HETATM   43  O5  UNL     1      18.897  26.564  15.761  1.00  0.00    -0.199 OA
ENDBRANCH  30  31
ENDBRANCH  29  30
ENDBRANCH  28  29
ENDBRANCH  10  28
TORSDOF 13
ENDMDL
MODEL 5
REMARK VINA RESULT: -8.730924336      1.790      2.297
REMARK  13 active torsions:
REMARK  status: ('A' for Active; 'I' for Inactive)
REMARK    1  A    between atoms: C2_2  and  C3_3 
REMARK    2  A    between atoms: C3_3  and  C4_4 
REMARK    3  A    between atoms: C4_4  and  C5_5 
REMARK    4  A    between atoms: C5_5  and  C6_6 
REMARK    5  A    between atoms: C6_6  and  C7_7 
REMARK    6  A    between atoms: C7_7  and  C8_8 
REMARK    7  A    between atoms: C8_8  and  S1_9 
REMARK    8  A    between atoms: S1_9  and  N1_12 
REMARK    9  A    between atoms: C12_16  and  C13_17 
REMARK       I    between atoms: C13_17  and  N2_19 
REMARK   10  A    between atoms: C15_26  and  C16_27 
REMARK   11  A    between atoms: C16_27  and  C17_28 
REMARK   12  A    between atoms: C17_28  and  S2_29 
REMARK   13  A    between atoms: S2_29  and  C18_30 
ROOT
HETATM    1  C13 UNL     1      16.965  21.352  17.649  1.00  0.00     0.242 C 
HETATM    2  O3  UNL     1      16.986  20.907  16.464  1.00  0.00    -0.271 OA
HETATM    3  N2  UNL     1      15.936  21.179  18.582  1.00  0.00    -0.305 N 
ATOM      4  H2  UNL     1      15.743  21.941  19.232  1.00  0.00     0.171 HD
HETATM    5  C14 UNL     1      15.222  20.116  18.668  1.00  0.00     0.167 A 
HETATM    6  N3  UNL     1      15.263  18.992  17.955  1.00  0.00    -0.279 N 
ATOM      7  H3  UNL     1      15.946  18.881  17.206  1.00  0.00     0.189 HD
HETATM    8  N4  UNL     1      14.439  18.058  18.221  1.00  0.00    -0.296 N 
ATOM      9  H4  UNL     1      14.463  17.193  17.681  1.00  0.00     0.187 HD
HETATM   10  C15 UNL     1      13.552  18.199  19.192  1.00  0.00     0.070 A 
HETATM   11  S5  UNL     1      13.920  19.766  19.762  1.00  0.00    -0.038 SA
ENDROOT
BRANCH   1  12
HETATM   12  C12 UNL     1      18.208  22.136  18.014  1.00  0.00     0.166 C 
HETATM   13  N1  UNL     1      17.939  23.544  18.063  1.00  0.00    -0.197 NA
HETATM   14  C9  UNL     1      18.339  24.067  19.330  1.00  0.00     0.108 C 
HETATM   15  C10 UNL     1      18.830  22.940  20.184  1.00  0.00     0.018 C 
HETATM   16  C11 UNL     1      18.665  21.689  19.367  1.00  0.00     0.031 C 
BRANCH  13  17
HETATM   17  S1  UNL     1      18.908  24.382  16.846  1.00  0.00     0.212 S 
HETATM   18  O1  UNL     1      19.395  23.278  15.917  1.00  0.00    -0.211 OA
HETATM   19  O2  UNL     1      20.083  24.872  17.592  1.00  0.00    -0.211 OA
BRANCH  17  20
HETATM   20  C8  UNL     1      17.922  25.542  15.998  1.00  0.00     0.157 C 
BRANCH  20  21
HETATM   21  C7  UNL     1      18.271  25.985  14.661  1.00  0.00     0.016 C 
BRANCH  21  22
HETATM   22  C6  UNL     1      19.176  27.057  14.289  1.00  0.00     0.001 C 
BRANCH  22  23
HETATM   23  C5  UNL     1      20.629  26.840  14.273  1.00  0.00     0.000 C 
BRANCH  23  24
HETATM   24  C4  UNL     1      21.393  28.138  13.937  1.00  0.00     0.000 C 
BRANCH  24  25
HETATM   25  C3  UNL     1      22.669  28.158  14.685  1.00  0.00    -0.000 C 
BRANCH  25  26
HETATM   26  C2  UNL     1      22.953  26.828  15.382  1.00  0.00    -0.005 C 
HETATM   27  C1  UNL     1      24.432  26.878  15.747  1.00  0.00     0.005 C 
ENDBRANCH  25  26
ENDBRANCH  24  25
ENDBRANCH  23  24
ENDBRANCH  22  23
ENDBRANCH  21  22
ENDBRANCH  20  21
ENDBRANCH  17  20
ENDBRANCH  13  17
ENDBRANCH   1  12
BRANCH  10  28
HETATM   28  C16 UNL     1      12.495  17.228  19.653  1.00  0.00     0.077 C 
BRANCH  28  29
HETATM   29  C17 UNL     1      11.115  17.743  19.316  1.00  0.00     0.088 C 
BRANCH  29  30
HETATM   30  S2  UNL     1      10.472  16.697  17.984  1.00  0.00    -0.104 SA
BRANCH  30  31
HETATM   31  C18 UNL     1      10.465  17.649  16.446  1.00  0.00     0.113 A 
HETATM   32  N5  UNL     1      10.167  18.907  16.236  1.00  0.00    -0.334 N 
HETATM   33  C19 UNL     1      10.219  19.401  15.035  1.00  0.00     0.163 A 
ATOM     34  H5  UNL     1       9.892  19.501  17.018  1.00  0.00     0.168 HD
HETATM   35  C20 UNL     1      10.594  18.554  14.023  1.00  0.00     0.027 A 
HETATM   36  S4  UNL     1       9.857  21.061  14.508  1.00  0.00     0.275 S 
HETATM   37  S3  UNL     1      10.848  17.097  14.867  1.00  0.00    -0.067 SA
HETATM   38  C21 UNL     1      10.651  19.101  12.624  1.00  0.00     0.069 C 
HETATM   39  C22 UNL     1       9.286  19.747  12.325  1.00  0.00     0.137 C 
HETATM   40  N6  UNL     1       9.148  21.038  12.947  1.00  0.00    -0.314 N 
ATOM     41  H6  UNL     1       8.686  21.838  12.514  1.00  0.00     0.172 HD
HETATM   42  O4  UNL     1      11.142  21.875  14.478  1.00  0.00    -0.199 OA
HETATM   43  O5  UNL     1       8.904  21.716  15.490  1.00  0.00    -0.199 OA
ENDBRANCH  30  31
ENDBRANCH  29  30
ENDBRANCH  28  29
ENDBRANCH  10  28
TORSDOF 13
ENDMDL
