MODEL 1
REMARK VINA RESULT: -8.753592352      0.000      0.000
REMARK  14 active torsions:
REMARK  status: ('A' for Active; 'I' for Inactive)
REMARK    1  A    between atoms: C2_2  and  C3_3 
REMARK    2  A    between atoms: C3_3  and  C4_4 
REMARK    3  A    between atoms: C4_4  and  N1_5 
REMARK    4  A    between atoms: N2_11  and  C9_12 
REMARK    5  A    between atoms: N3_15  and  C12_16 
REMARK    6  A    between atoms: C15_21  and  N5_22 
REMARK    7  A    between atoms: N5_22  and  C16_23 
REMARK    8  A    between atoms: N5_22  and  C18_27 
REMARK    9  A    between atoms: C16_23  and  C17_24 
REMARK   10  A    between atoms: C17_24  and  O2_25 
REMARK   11  A    between atoms: C18_27  and  C19_28 
REMARK   12  A    between atoms: C19_28  and  C20_29 
REMARK   13  A    between atoms: C20_29  and  N6_30 
REMARK   14  A    between atoms: C23_33  and  N7_34 
ROOT
HETATM    1  C12 UNL     1      15.829  22.696  15.657  1.00  0.00     0.682 A 
HETATM    2  N4  UNL     1      14.777  22.287  16.385  1.00  0.00    -0.188 N 
ATOM      3  H4  UNL     1      14.593  22.580  17.345  1.00  0.00     0.184 HD
HETATM    4  C13 UNL     1      13.987  21.433  15.680  1.00  0.00     0.096 A 
HETATM    5  C14 UNL     1      12.837  20.764  15.965  1.00  0.00     0.067 A 
HETATM    6  C15 UNL     1      12.243  19.932  14.997  1.00  0.00     0.077 A 
HETATM    7  C23 UNL     1      12.840  19.813  13.776  1.00  0.00     0.132 A 
HETATM    8  N8  UNL     1      14.001  20.517  13.554  1.00  0.00    -0.325 N 
ATOM      9  H8  UNL     1      14.442  20.424  12.639  1.00  0.00     0.169 HD
HETATM   10  C29 UNL     1      14.590  21.310  14.440  1.00  0.00     0.150 A 
HETATM   11  N9  UNL     1      15.685  22.080  14.473  1.00  0.00    -0.174 N 
ATOM     12  H9  UNL     1      16.332  22.186  13.692  1.00  0.00     0.186 HD
ENDROOT
BRANCH   1  13
HETATM   13  N3  UNL     1      16.871  23.594  16.058  1.00  0.00    -0.217 N 
HETATM   14  C11 UNL     1      16.620  24.432  17.205  1.00  0.00     0.143 C 
HETATM   15  C10 UNL     1      17.760  25.416  17.391  1.00  0.00     0.046 C 
HETATM   16  C9  UNL     1      19.028  24.571  17.351  1.00  0.00     0.100 C 
HETATM   17  C31 UNL     1      19.287  24.161  15.953  1.00  0.00     0.046 C 
HETATM   18  C30 UNL     1      18.077  23.593  15.298  1.00  0.00     0.143 C 
BRANCH  16  19
HETATM   19  N2  UNL     1      20.053  25.288  18.008  1.00  0.00    -0.265 N 
HETATM   20  C8  UNL     1      20.723  26.340  17.295  1.00  0.00     0.233 C 
HETATM   21  C6  UNL     1      22.154  26.640  17.670  1.00  0.00     0.092 C 
HETATM   22  O1  UNL     1      20.174  27.006  16.390  1.00  0.00    -0.272 OA
HETATM   23  C5  UNL     1      22.157  26.988  19.136  1.00  0.00     0.141 C 
HETATM   24  C7  UNL     1      22.673  27.782  16.848  1.00  0.00     0.021 C 
HETATM   25  N1  UNL     1      21.540  25.892  19.857  1.00  0.00    -0.333 N 
HETATM   26  C32 UNL     1      20.503  25.085  19.326  1.00  0.00     0.327 C 
HETATM   27  O3  UNL     1      19.997  24.210  20.022  1.00  0.00    -0.247 OA
BRANCH  25  28
HETATM   28  C4  UNL     1      22.026  25.621  21.217  1.00  0.00     0.127 C 
BRANCH  28  29
HETATM   29  C3  UNL     1      21.679  26.782  22.087  1.00  0.00     0.020 C 
BRANCH  29  30
HETATM   30  C2  UNL     1      22.407  26.733  23.417  1.00  0.00    -0.003 C 
HETATM   31  C1  UNL     1      21.666  27.557  24.446  1.00  0.00     0.005 C 
ENDBRANCH  29  30
ENDBRANCH  28  29
ENDBRANCH  25  28
ENDBRANCH  16  19
ENDBRANCH   1  13
BRANCH   6  32
HETATM   32  N5  UNL     1      11.050  19.253  15.359  1.00  0.00    -0.375 N 
BRANCH  32  33
HETATM   33  C16 UNL     1       9.733  19.753  15.126  1.00  0.00     0.149 C 
BRANCH  33  34
HETATM   34  C17 UNL     1       9.696  21.277  15.037  1.00  0.00     0.183 C 
BRANCH  34  35
HETATM   35  O2  UNL     1       8.898  21.709  16.096  1.00  0.00    -0.399 OA
ATOM     36  H2  UNL     1       9.494  22.026  16.764  1.00  0.00     0.209 HD
ENDBRANCH  34  35
ENDBRANCH  33  34
ENDBRANCH  32  33
BRANCH  32  37
HETATM   37  C18 UNL     1      11.186  17.907  15.951  1.00  0.00     0.128 C 
BRANCH  37  38
HETATM   38  C19 UNL     1      10.890  17.839  17.400  1.00  0.00     0.064 C 
BRANCH  38  39
HETATM   39  C20 UNL     1      11.596  16.801  18.193  1.00  0.00     0.058 C 
BRANCH  39  40
HETATM   40  N6  UNL     1      12.427  17.184  19.255  1.00  0.00    -0.402 N 
HETATM   41  C21 UNL     1      13.773  17.536  18.994  1.00  0.00     0.148 C 
HETATM   42  C22 UNL     1      11.809  17.946  20.310  1.00  0.00     0.148 C 
ENDBRANCH  39  40
ENDBRANCH  38  39
ENDBRANCH  37  38
ENDBRANCH  32  37
ENDBRANCH   6  32
BRANCH   7  43
HETATM   43  N7  UNL     1      12.340  19.020  12.702  1.00  0.00    -0.365 N 
HETATM   44  C24 UNL     1      12.753  17.656  12.546  1.00  0.00     0.124 C 
HETATM   45  C25 UNL     1      11.605  16.722  12.255  1.00  0.00     0.020 C 
HETATM   46  C26 UNL     1      10.259  17.350  12.346  1.00  0.00     0.003 C 
HETATM   47  C27 UNL     1      10.134  18.682  11.680  1.00  0.00     0.020 C 
HETATM   48  C28 UNL     1      11.367  19.516  11.732  1.00  0.00     0.124 C 
ENDBRANCH   7  43
TORSDOF 14
ENDMDL
MODEL 2
REMARK VINA RESULT: -8.686151534      1.770      2.513
REMARK  14 active torsions:
REMARK  status: ('A' for Active; 'I' for Inactive)
REMARK    1  A    between atoms: C2_2  and  C3_3 
REMARK    2  A    between atoms: C3_3  and  C4_4 
REMARK    3  A    between atoms: C4_4  and  N1_5 
REMARK    4  A    between atoms: N2_11  and  C9_12 
REMARK    5  A    between atoms: N3_15  and  C12_16 
REMARK    6  A    between atoms: C15_21  and  N5_22 
REMARK    7  A    between atoms: N5_22  and  C16_23 
REMARK    8  A    between atoms: N5_22  and  C18_27 
REMARK    9  A    between atoms: C16_23  and  C17_24 
REMARK   10  A    between atoms: C17_24  and  O2_25 
REMARK   11  A    between atoms: C18_27  and  C19_28 
REMARK   12  A    between atoms: C19_28  and  C20_29 
REMARK   13  A    between atoms: C20_29  and  N6_30 
REMARK   14  A    between atoms: C23_33  and  N7_34 
ROOT
HETATM    1  C12 UNL     1      15.962  22.405  15.804  1.00  0.00     0.682 A 
HETATM    2  N4  UNL     1      14.942  22.012  16.586  1.00  0.00    -0.188 N 
ATOM      3  H4  UNL     1      14.849  22.253  17.572  1.00  0.00     0.184 HD
HETATM    4  C13 UNL     1      14.052  21.251  15.894  1.00  0.00     0.096 A 
HETATM    5  C14 UNL     1      12.887  20.631  16.227  1.00  0.00     0.067 A 
HETATM    6  C15 UNL     1      12.174  19.899  15.259  1.00  0.00     0.077 A 
HETATM    7  C23 UNL     1      12.671  19.824  13.990  1.00  0.00     0.132 A 
HETATM    8  N8  UNL     1      13.853  20.474  13.723  1.00  0.00    -0.325 N 
ATOM      9  H8  UNL     1      14.220  20.414  12.773  1.00  0.00     0.169 HD
HETATM   10  C29 UNL     1      14.554  21.173  14.606  1.00  0.00     0.150 A 
HETATM   11  N9  UNL     1      15.693  21.876  14.600  1.00  0.00    -0.174 N 
ATOM     12  H9  UNL     1      16.287  21.995  13.779  1.00  0.00     0.186 HD
ENDROOT
BRANCH   1  13
HETATM   13  N3  UNL     1      17.084  23.215  16.176  1.00  0.00    -0.217 N 
HETATM   14  C11 UNL     1      18.366  22.874  15.611  1.00  0.00     0.143 C 
HETATM   15  C10 UNL     1      19.453  23.733  16.227  1.00  0.00     0.046 C 
HETATM   16  C9  UNL     1      18.947  25.166  16.106  1.00  0.00     0.100 C 
HETATM   17  C31 UNL     1      17.875  25.380  17.103  1.00  0.00     0.046 C 
HETATM   18  C30 UNL     1      16.853  24.298  17.074  1.00  0.00     0.143 C 
BRANCH  16  19
HETATM   19  N2  UNL     1      20.061  26.031  16.170  1.00  0.00    -0.265 N 
HETATM   20  C8  UNL     1      20.274  26.961  15.095  1.00  0.00     0.233 C 
HETATM   21  C6  UNL     1      21.693  27.382  14.802  1.00  0.00     0.092 C 
HETATM   22  O1  UNL     1      19.342  27.428  14.405  1.00  0.00    -0.272 OA
HETATM   23  C5  UNL     1      22.238  27.991  16.068  1.00  0.00     0.141 C 
HETATM   24  C7  UNL     1      21.715  28.374  13.678  1.00  0.00     0.021 C 
HETATM   25  N1  UNL     1      22.083  27.022  17.134  1.00  0.00    -0.333 N 
HETATM   26  C32 UNL     1      21.016  26.091  17.203  1.00  0.00     0.327 C 
HETATM   27  O3  UNL     1      20.927  25.338  18.168  1.00  0.00    -0.247 OA
BRANCH  25  28
HETATM   28  C4  UNL     1      23.094  27.023  18.200  1.00  0.00     0.127 C 
BRANCH  28  29
HETATM   29  C3  UNL     1      24.394  27.473  17.623  1.00  0.00     0.020 C 
BRANCH  29  30
HETATM   30  C2  UNL     1      25.175  26.321  17.019  1.00  0.00    -0.003 C 
HETATM   31  C1  UNL     1      25.864  26.770  15.750  1.00  0.00     0.005 C 
ENDBRANCH  29  30
ENDBRANCH  28  29
ENDBRANCH  25  28
ENDBRANCH  16  19
ENDBRANCH   1  13
BRANCH   6  32
HETATM   32  N5  UNL     1      10.971  19.267  15.671  1.00  0.00    -0.375 N 
BRANCH  32  33
HETATM   33  C16 UNL     1       9.673  19.853  15.568  1.00  0.00     0.149 C 
BRANCH  33  34
HETATM   34  C17 UNL     1       9.733  21.340  15.225  1.00  0.00     0.183 C 
BRANCH  34  35
HETATM   35  O2  UNL     1       8.811  21.969  16.062  1.00  0.00    -0.399 OA
ATOM     36  H2  UNL     1       8.743  22.866  15.754  1.00  0.00     0.209 HD
ENDBRANCH  34  35
ENDBRANCH  33  34
ENDBRANCH  32  33
BRANCH  32  37
HETATM   37  C18 UNL     1      11.067  17.882  16.172  1.00  0.00     0.128 C 
BRANCH  37  38
HETATM   38  C19 UNL     1      10.805  17.731  17.622  1.00  0.00     0.064 C 
BRANCH  38  39
HETATM   39  C20 UNL     1      11.635  16.753  18.369  1.00  0.00     0.058 C 
BRANCH  39  40
HETATM   40  N6  UNL     1      12.530  17.206  19.347  1.00  0.00    -0.402 N 
HETATM   41  C21 UNL     1      13.813  17.662  18.961  1.00  0.00     0.148 C 
HETATM   42  C22 UNL     1      11.956  17.923  20.459  1.00  0.00     0.148 C 
ENDBRANCH  39  40
ENDBRANCH  38  39
ENDBRANCH  37  38
ENDBRANCH  32  37
ENDBRANCH   6  32
BRANCH   7  43
HETATM   43  N7  UNL     1      12.046  19.131  12.913  1.00  0.00    -0.365 N 
HETATM   44  C24 UNL     1      12.389  17.770  12.622  1.00  0.00     0.124 C 
HETATM   45  C25 UNL     1      11.183  16.899  12.372  1.00  0.00     0.020 C 
HETATM   46  C26 UNL     1       9.877  17.562  12.631  1.00  0.00     0.003 C 
HETATM   47  C27 UNL     1       9.745  18.944  12.079  1.00  0.00     0.020 C 
HETATM   48  C28 UNL     1      11.009  19.730  12.076  1.00  0.00     0.124 C 
ENDBRANCH   7  43
TORSDOF 14
ENDMDL
MODEL 3
REMARK VINA RESULT: -8.642948981      2.605     12.519
REMARK  14 active torsions:
REMARK  status: ('A' for Active; 'I' for Inactive)
REMARK    1  A    between atoms: C2_2  and  C3_3 
REMARK    2  A    between atoms: C3_3  and  C4_4 
REMARK    3  A    between atoms: C4_4  and  N1_5 
REMARK    4  A    between atoms: N2_11  and  C9_12 
REMARK    5  A    between atoms: N3_15  and  C12_16 
REMARK    6  A    between atoms: C15_21  and  N5_22 
REMARK    7  A    between atoms: N5_22  and  C16_23 
REMARK    8  A    between atoms: N5_22  and  C18_27 
REMARK    9  A    between atoms: C16_23  and  C17_24 
REMARK   10  A    between atoms: C17_24  and  O2_25 
REMARK   11  A    between atoms: C18_27  and  C19_28 
REMARK   12  A    between atoms: C19_28  and  C20_29 
REMARK   13  A    between atoms: C20_29  and  N6_30 
REMARK   14  A    between atoms: C23_33  and  N7_34 
ROOT
HETATM    1  C12 UNL     1      17.764  22.588  19.000  1.00  0.00     0.682 A 
HETATM    2  N4  UNL     1      18.128  23.850  18.717  1.00  0.00    -0.188 N 
ATOM      3  H4  UNL     1      17.517  24.540  18.281  1.00  0.00     0.184 HD
HETATM    4  C13 UNL     1      19.416  24.089  19.084  1.00  0.00     0.096 A 
HETATM    5  C14 UNL     1      20.227  25.179  19.011  1.00  0.00     0.067 A 
HETATM    6  C15 UNL     1      21.548  25.112  19.493  1.00  0.00     0.077 A 
HETATM    7  C23 UNL     1      21.995  23.939  20.030  1.00  0.00     0.132 A 
HETATM    8  N8  UNL     1      21.122  22.877  20.073  1.00  0.00    -0.325 N 
ATOM      9  H8  UNL     1      21.462  22.003  20.476  1.00  0.00     0.169 HD
HETATM   10  C29 UNL     1      19.872  22.901  19.630  1.00  0.00     0.150 A 
HETATM   11  N9  UNL     1      18.853  22.036  19.558  1.00  0.00    -0.174 N 
ATOM     12  H9  UNL     1      18.898  21.071  19.888  1.00  0.00     0.186 HD
ENDROOT
BRANCH   1  13
HETATM   13  N3  UNL     1      16.492  21.973  18.762  1.00  0.00    -0.217 N 
HETATM   14  C11 UNL     1      15.375  22.843  18.491  1.00  0.00     0.143 C 
HETATM   15  C10 UNL     1      14.092  22.037  18.415  1.00  0.00     0.046 C 
HETATM   16  C9  UNL     1      14.395  20.895  17.452  1.00  0.00     0.100 C 
HETATM   17  C31 UNL     1      15.260  19.909  18.136  1.00  0.00     0.046 C 
HETATM   18  C30 UNL     1      16.423  20.551  18.809  1.00  0.00     0.143 C 
BRANCH  16  19
HETATM   19  N2  UNL     1      13.168  20.420  16.936  1.00  0.00    -0.265 N 
HETATM   20  C8  UNL     1      12.385  19.522  17.740  1.00  0.00     0.233 C 
HETATM   21  C6  UNL     1      11.496  18.534  17.025  1.00  0.00     0.092 C 
HETATM   22  O1  UNL     1      12.410  19.530  18.990  1.00  0.00    -0.272 OA
HETATM   23  C5  UNL     1      10.557  19.337  16.161  1.00  0.00     0.141 C 
HETATM   24  C7  UNL     1      10.736  17.710  18.020  1.00  0.00     0.021 C 
HETATM   25  N1  UNL     1      11.356  20.191  15.305  1.00  0.00    -0.333 N 
HETATM   26  C32 UNL     1      12.606  20.740  15.686  1.00  0.00     0.327 C 
HETATM   27  O3  UNL     1      13.195  21.498  14.922  1.00  0.00    -0.247 OA
BRANCH  25  28
HETATM   28  C4  UNL     1      10.821  20.500  13.972  1.00  0.00     0.127 C 
BRANCH  28  29
HETATM   29  C3  UNL     1       9.678  21.446  14.126  1.00  0.00     0.020 C 
BRANCH  29  30
HETATM   30  C2  UNL     1       8.878  21.584  12.844  1.00  0.00    -0.003 C 
HETATM   31  C1  UNL     1       8.091  22.875  12.859  1.00  0.00     0.005 C 
ENDBRANCH  29  30
ENDBRANCH  28  29
ENDBRANCH  25  28
ENDBRANCH  16  19
ENDBRANCH   1  13
BRANCH   6  32
HETATM   32  N5  UNL     1      22.348  26.279  19.379  1.00  0.00    -0.375 N 
BRANCH  32  33
HETATM   33  C16 UNL     1      22.491  27.265  20.402  1.00  0.00     0.149 C 
BRANCH  33  34
HETATM   34  C17 UNL     1      21.287  27.306  21.342  1.00  0.00     0.183 C 
BRANCH  34  35
HETATM   35  O2  UNL     1      20.747  28.586  21.226  1.00  0.00    -0.399 OA
ATOM     36  H2  UNL     1      21.119  29.096  21.937  1.00  0.00     0.209 HD
ENDBRANCH  34  35
ENDBRANCH  33  34
ENDBRANCH  32  33
BRANCH  32  37
HETATM   37  C18 UNL     1      23.140  26.444  18.143  1.00  0.00     0.128 C 
BRANCH  37  38
HETATM   38  C19 UNL     1      22.524  27.331  17.131  1.00  0.00     0.064 C 
BRANCH  38  39
HETATM   39  C20 UNL     1      21.835  26.686  15.985  1.00  0.00     0.058 C 
BRANCH  39  40
HETATM   40  N6  UNL     1      20.521  27.056  15.667  1.00  0.00    -0.402 N 
HETATM   41  C21 UNL     1      20.295  28.185  14.844  1.00  0.00     0.148 C 
HETATM   42  C22 UNL     1      19.583  25.980  15.468  1.00  0.00     0.148 C 
ENDBRANCH  39  40
ENDBRANCH  38  39
ENDBRANCH  37  38
ENDBRANCH  32  37
ENDBRANCH   6  32
BRANCH   7  43
HETATM   43  N7  UNL     1      23.300  23.737  20.566  1.00  0.00    -0.365 N 
HETATM   44  C24 UNL     1      24.372  23.283  19.730  1.00  0.00     0.124 C 
HETATM   45  C25 UNL     1      25.651  24.053  19.941  1.00  0.00     0.020 C 
HETATM   46  C26 UNL     1      25.522  25.230  20.843  1.00  0.00     0.003 C 
HETATM   47  C27 UNL     1      24.754  24.986  22.100  1.00  0.00     0.020 C 
HETATM   48  C28 UNL     1      23.638  24.009  21.962  1.00  0.00     0.124 C 
ENDBRANCH   7  43
TORSDOF 14
ENDMDL
MODEL 4
REMARK VINA RESULT: -8.440795354      1.334      3.029
REMARK  14 active torsions:
REMARK  status: ('A' for Active; 'I' for Inactive)
REMARK    1  A    between atoms: C2_2  and  C3_3 
REMARK    2  A    between atoms: C3_3  and  C4_4 
REMARK    3  A    between atoms: C4_4  and  N1_5 
REMARK    4  A    between atoms: N2_11  and  C9_12 
REMARK    5  A    between atoms: N3_15  and  C12_16 
REMARK    6  A    between atoms: C15_21  and  N5_22 
REMARK    7  A    between atoms: N5_22  and  C16_23 
REMARK    8  A    between atoms: N5_22  and  C18_27 
REMARK    9  A    between atoms: C16_23  and  C17_24 
REMARK   10  A    between atoms: C17_24  and  O2_25 
REMARK   11  A    between atoms: C18_27  and  C19_28 
REMARK   12  A    between atoms: C19_28  and  C20_29 
REMARK   13  A    between atoms: C20_29  and  N6_30 
REMARK   14  A    between atoms: C23_33  and  N7_34 
ROOT
HETATM    1  C12 UNL     1      15.876  22.285  15.960  1.00  0.00     0.682 A 
HETATM    2  N4  UNL     1      14.773  21.900  16.623  1.00  0.00    -0.188 N 
ATOM      3  H4  UNL     1      14.567  22.150  17.590  1.00  0.00     0.184 HD
HETATM    4  C13 UNL     1      13.966  21.136  15.839  1.00  0.00     0.096 A 
HETATM    5  C14 UNL     1      12.769  20.521  16.041  1.00  0.00     0.067 A 
HETATM    6  C15 UNL     1      12.169  19.782  15.003  1.00  0.00     0.077 A 
HETATM    7  C23 UNL     1      12.809  19.695  13.801  1.00  0.00     0.132 A 
HETATM    8  N8  UNL     1      14.016  20.341  13.666  1.00  0.00    -0.325 N 
ATOM      9  H8  UNL     1      14.489  20.272  12.765  1.00  0.00     0.169 HD
HETATM   10  C29 UNL     1      14.612  21.046  14.618  1.00  0.00     0.150 A 
HETATM   11  N9  UNL     1      15.747  21.746  14.738  1.00  0.00    -0.174 N 
ATOM     12  H9  UNL     1      16.431  21.857  13.990  1.00  0.00     0.186 HD
ENDROOT
BRANCH   1  13
HETATM   13  N3  UNL     1      16.951  23.096  16.453  1.00  0.00    -0.217 N 
HETATM   14  C11 UNL     1      18.292  22.712  16.089  1.00  0.00     0.143 C 
HETATM   15  C10 UNL     1      19.299  23.584  16.815  1.00  0.00     0.046 C 
HETATM   16  C9  UNL     1      18.842  25.017  16.564  1.00  0.00     0.100 C 
HETATM   17  C31 UNL     1      17.645  25.289  17.390  1.00  0.00     0.046 C 
HETATM   18  C30 UNL     1      16.617  24.220  17.262  1.00  0.00     0.143 C 
BRANCH  16  19
HETATM   19  N2  UNL     1      19.954  25.869  16.747  1.00  0.00    -0.265 N 
HETATM   20  C8  UNL     1      20.456  26.068  18.079  1.00  0.00     0.233 C 
HETATM   21  C6  UNL     1      21.132  27.383  18.384  1.00  0.00     0.092 C 
HETATM   22  O1  UNL     1      20.358  25.207  18.979  1.00  0.00    -0.272 OA
HETATM   23  C5  UNL     1      22.283  27.517  17.420  1.00  0.00     0.141 C 
HETATM   24  C7  UNL     1      21.618  27.395  19.803  1.00  0.00     0.021 C 
HETATM   25  N1  UNL     1      21.758  27.382  16.076  1.00  0.00    -0.333 N 
HETATM   26  C32 UNL     1      20.650  26.565  15.741  1.00  0.00     0.327 C 
HETATM   27  O3  UNL     1      20.301  26.465  14.569  1.00  0.00    -0.247 OA
BRANCH  25  28
HETATM   28  C4  UNL     1      22.431  28.139  15.010  1.00  0.00     0.127 C 
BRANCH  28  29
HETATM   29  C3  UNL     1      23.481  28.999  15.628  1.00  0.00     0.020 C 
BRANCH  29  30
HETATM   30  C2  UNL     1      24.841  28.779  14.992  1.00  0.00    -0.003 C 
HETATM   31  C1  UNL     1      25.525  27.589  15.627  1.00  0.00     0.005 C 
ENDBRANCH  29  30
ENDBRANCH  28  29
ENDBRANCH  25  28
ENDBRANCH  16  19
ENDBRANCH   1  13
BRANCH   6  32
HETATM   32  N5  UNL     1      10.925  19.156  15.279  1.00  0.00    -0.375 N 
BRANCH  32  33
HETATM   33  C16 UNL     1       9.649  19.754  15.046  1.00  0.00     0.149 C 
BRANCH  33  34
HETATM   34  C17 UNL     1       9.719  21.280  15.018  1.00  0.00     0.183 C 
BRANCH  34  35
HETATM   35  O2  UNL     1       8.887  21.726  16.044  1.00  0.00    -0.399 OA
ATOM     36  H2  UNL     1       9.120  22.634  16.198  1.00  0.00     0.209 HD
ENDBRANCH  34  35
ENDBRANCH  33  34
ENDBRANCH  32  33
BRANCH  32  37
HETATM   37  C18 UNL     1      10.958  17.765  15.773  1.00  0.00     0.128 C 
BRANCH  37  38
HETATM   38  C19 UNL     1      10.705  17.621  17.225  1.00  0.00     0.064 C 
BRANCH  38  39
HETATM   39  C20 UNL     1      11.791  17.037  18.052  1.00  0.00     0.058 C 
BRANCH  39  40
HETATM   40  N6  UNL     1      12.486  17.848  18.959  1.00  0.00    -0.402 N 
HETATM   41  C21 UNL     1      11.888  18.182  20.197  1.00  0.00     0.148 C 
HETATM   42  C22 UNL     1      13.914  17.660  19.022  1.00  0.00     0.148 C 
ENDBRANCH  39  40
ENDBRANCH  38  39
ENDBRANCH  37  38
ENDBRANCH  32  37
ENDBRANCH   6  32
BRANCH   7  43
HETATM   43  N7  UNL     1      12.309  18.994  12.664  1.00  0.00    -0.365 N 
HETATM   44  C24 UNL     1      12.661  17.623  12.438  1.00  0.00     0.124 C 
HETATM   45  C25 UNL     1      11.480  16.768  12.053  1.00  0.00     0.020 C 
HETATM   46  C26 UNL     1      10.164  17.457  12.138  1.00  0.00     0.003 C 
HETATM   47  C27 UNL     1      10.127  18.831  11.553  1.00  0.00     0.020 C 
HETATM   48  C28 UNL     1      11.396  19.597  11.696  1.00  0.00     0.124 C 
ENDBRANCH   7  43
TORSDOF 14
ENDMDL
MODEL 5
REMARK VINA RESULT: -8.424698897      0.862      2.658
REMARK  14 active torsions:
REMARK  status: ('A' for Active; 'I' for Inactive)
REMARK    1  A    between atoms: C2_2  and  C3_3 
REMARK    2  A    between atoms: C3_3  and  C4_4 
REMARK    3  A    between atoms: C4_4  and  N1_5 
REMARK    4  A    between atoms: N2_11  and  C9_12 
REMARK    5  A    between atoms: N3_15  and  C12_16 
REMARK    6  A    between atoms: C15_21  and  N5_22 
REMARK    7  A    between atoms: N5_22  and  C16_23 
REMARK    8  A    between atoms: N5_22  and  C18_27 
REMARK    9  A    between atoms: C16_23  and  C17_24 
REMARK   10  A    between atoms: C17_24  and  O2_25 
REMARK   11  A    between atoms: C18_27  and  C19_28 
REMARK   12  A    between atoms: C19_28  and  C20_29 
REMARK   13  A    between atoms: C20_29  and  N6_30 
REMARK   14  A    between atoms: C23_33  and  N7_34 
ROOT
HETATM    1  C12 UNL     1      15.874  22.574  15.606  1.00  0.00     0.682 A 
HETATM    2  N4  UNL     1      14.833  22.213  16.375  1.00  0.00    -0.188 N 
ATOM      3  H4  UNL     1      14.697  22.520  17.338  1.00  0.00     0.184 HD
HETATM    4  C13 UNL     1      13.985  21.387  15.705  1.00  0.00     0.096 A 
HETATM    5  C14 UNL     1      12.820  20.767  16.037  1.00  0.00     0.067 A 
HETATM    6  C15 UNL     1      12.159  19.954  15.097  1.00  0.00     0.077 A 
HETATM    7  C23 UNL     1      12.706  19.802  13.856  1.00  0.00     0.132 A 
HETATM    8  N8  UNL     1      13.886  20.457  13.588  1.00  0.00    -0.325 N 
ATOM      9  H8  UNL     1      14.289  20.340  12.658  1.00  0.00     0.169 HD
HETATM   10  C29 UNL     1      14.538  21.231  14.446  1.00  0.00     0.150 A 
HETATM   11  N9  UNL     1      15.663  21.956  14.433  1.00  0.00    -0.174 N 
ATOM     12  H9  UNL     1      16.286  22.031  13.628  1.00  0.00     0.186 HD
ENDROOT
BRANCH   1  13
HETATM   13  N3  UNL     1      16.966  23.432  15.962  1.00  0.00    -0.217 N 
HETATM   14  C11 UNL     1      16.739  24.392  17.014  1.00  0.00     0.143 C 
HETATM   15  C10 UNL     1      17.940  25.308  17.152  1.00  0.00     0.046 C 
HETATM   16  C9  UNL     1      19.144  24.376  17.244  1.00  0.00     0.100 C 
HETATM   17  C31 UNL     1      19.419  23.816  15.903  1.00  0.00     0.046 C 
HETATM   18  C30 UNL     1      18.193  23.273  15.256  1.00  0.00     0.143 C 
BRANCH  16  19
HETATM   19  N2  UNL     1      20.196  25.080  17.871  1.00  0.00    -0.265 N 
HETATM   20  C8  UNL     1      20.466  24.823  19.259  1.00  0.00     0.233 C 
HETATM   21  C6  UNL     1      21.061  25.943  20.077  1.00  0.00     0.092 C 
HETATM   22  O1  UNL     1      20.232  23.723  19.805  1.00  0.00    -0.272 OA
HETATM   23  C5  UNL     1      22.354  26.333  19.408  1.00  0.00     0.141 C 
HETATM   24  C7  UNL     1      21.303  25.481  21.483  1.00  0.00     0.021 C 
HETATM   25  N1  UNL     1      22.063  26.656  18.026  1.00  0.00    -0.333 N 
HETATM   26  C32 UNL     1      21.039  26.034  17.270  1.00  0.00     0.327 C 
HETATM   27  O3  UNL     1      20.892  26.328  16.088  1.00  0.00    -0.247 OA
BRANCH  25  28
HETATM   28  C4  UNL     1      22.892  27.687  17.386  1.00  0.00     0.127 C 
BRANCH  28  29
HETATM   29  C3  UNL     1      24.177  27.064  16.954  1.00  0.00     0.020 C 
BRANCH  29  30
HETATM   30  C2  UNL     1      24.520  27.408  15.517  1.00  0.00    -0.003 C 
HETATM   31  C1  UNL     1      23.595  28.490  15.006  1.00  0.00     0.005 C 
ENDBRANCH  29  30
ENDBRANCH  28  29
ENDBRANCH  25  28
ENDBRANCH  16  19
ENDBRANCH   1  13
BRANCH   6  32
HETATM   32  N5  UNL     1      10.953  19.326  15.506  1.00  0.00    -0.375 N 
BRANCH  32  33
HETATM   33  C16 UNL     1       9.648  19.863  15.289  1.00  0.00     0.149 C 
BRANCH  33  34
HETATM   34  C17 UNL     1       9.659  21.384  15.158  1.00  0.00     0.183 C 
BRANCH  34  35
HETATM   35  O2  UNL     1       8.831  21.868  16.170  1.00  0.00    -0.399 OA
ATOM     36  H2  UNL     1       9.406  22.251  16.823  1.00  0.00     0.209 HD
ENDBRANCH  34  35
ENDBRANCH  33  34
ENDBRANCH  32  33
BRANCH  32  37
HETATM   37  C18 UNL     1      11.059  17.994  16.135  1.00  0.00     0.128 C 
BRANCH  37  38
HETATM   38  C19 UNL     1      10.904  17.994  17.607  1.00  0.00     0.064 C 
BRANCH  38  39
HETATM   39  C20 UNL     1      11.561  16.899  18.364  1.00  0.00     0.058 C 
BRANCH  39  40
HETATM   40  N6  UNL     1      12.497  17.207  19.360  1.00  0.00    -0.402 N 
HETATM   41  C21 UNL     1      13.821  17.545  18.993  1.00  0.00     0.148 C 
HETATM   42  C22 UNL     1      11.999  17.924  20.507  1.00  0.00     0.148 C 
ENDBRANCH  39  40
ENDBRANCH  38  39
ENDBRANCH  37  38
ENDBRANCH  32  37
ENDBRANCH   6  32
BRANCH   7  43
HETATM   43  N7  UNL     1      12.137  19.023  12.807  1.00  0.00    -0.365 N 
HETATM   44  C24 UNL     1      12.480  17.639  12.654  1.00  0.00     0.124 C 
HETATM   45  C25 UNL     1      11.282  16.758  12.409  1.00  0.00     0.020 C 
HETATM   46  C26 UNL     1       9.970  17.449  12.534  1.00  0.00     0.003 C 
HETATM   47  C27 UNL     1       9.886  18.779  11.858  1.00  0.00     0.020 C 
HETATM   48  C28 UNL     1      11.157  19.554  11.862  1.00  0.00     0.124 C 
ENDBRANCH   7  43
TORSDOF 14
ENDMDL
