MODEL 1
REMARK VINA RESULT: -8.652434472      0.000      0.000
REMARK  18 active torsions:
REMARK  status: ('A' for Active; 'I' for Inactive)
REMARK    1  A    between atoms: C5_6  and  C6_7 
REMARK    2  A    between atoms: C6_7  and  N2_8 
REMARK    3  A    between atoms: N2_8  and  C7_9 
REMARK    4  A    between atoms: C7_9  and  O1_10 
REMARK    5  A    between atoms: C7_9  and  C8_12 
REMARK    6  A    between atoms: C10_14  and  N3_15 
REMARK    7  A    between atoms: C16_22  and  C17_23 
REMARK    8  A    between atoms: C17_23  and  O4_25 
REMARK    9  A    between atoms: O4_25  and  C18_26 
REMARK   10  A    between atoms: C18_26  and  C19_27 
REMARK   11  A    between atoms: C22_30  and  O5_31 
REMARK   12  A    between atoms: O5_31  and  C23_32 
REMARK   13  A    between atoms: C23_32  and  C24_33 
REMARK       I    between atoms: C24_33  and  N4_35 
REMARK   14  A    between atoms: C28_42  and  C29_43 
REMARK   15  A    between atoms: C29_43  and  C30_44 
REMARK   16  A    between atoms: C30_44  and  C31_45 
REMARK   17  A    between atoms: C31_45  and  C32_46 
REMARK   18  A    between atoms: C32_46  and  N6_47 
ROOT
HETATM    1  C8  UNL     1      18.026  23.997  18.104  1.00  0.00     0.066 A 
HETATM    2  C9  UNL     1      19.015  24.849  17.571  1.00  0.00     0.049 A 
HETATM    3  C10 UNL     1      19.061  25.049  16.213  1.00  0.00     0.039 A 
HETATM    4  C15 UNL     1      18.151  24.420  15.402  1.00  0.00     0.050 A 
HETATM    5  C16 UNL     1      17.152  23.566  15.881  1.00  0.00     0.076 A 
HETATM    6  C22 UNL     1      17.141  23.384  17.274  1.00  0.00     0.101 A 
ENDROOT
BRANCH   6   7
HETATM    7  O5  UNL     1      16.127  22.497  17.688  1.00  0.00    -0.340 OA
BRANCH   7   8
HETATM    8  C23 UNL     1      16.434  21.101  17.761  1.00  0.00     0.278 C 
BRANCH   8   9
HETATM    9  C24 UNL     1      15.210  20.304  17.539  1.00  0.00     0.244 C 
HETATM   10  O6  UNL     1      14.802  20.149  16.340  1.00  0.00    -0.271 OA
HETATM   11  N4  UNL     1      14.478  19.705  18.578  1.00  0.00    -0.335 N 
HETATM   12  C25 UNL     1      14.849  19.804  19.939  1.00  0.00     0.146 C 
HETATM   13  C28 UNL     1      13.266  18.909  18.227  1.00  0.00     0.179 C 
HETATM   14  C26 UNL     1      13.848  19.337  20.945  1.00  0.00     0.142 C 
HETATM   15  N5  UNL     1      13.279  18.076  20.524  1.00  0.00    -0.358 N 
HETATM   16  C27 UNL     1      13.254  17.741  19.112  1.00  0.00     0.240 C 
ATOM     17  H5  UNL     1      12.899  17.427  21.213  1.00  0.00     0.162 HD
HETATM   18  O7  UNL     1      13.228  16.553  18.720  1.00  0.00    -0.271 OA
BRANCH  13  19
HETATM   19  C29 UNL     1      12.128  19.831  18.222  1.00  0.00     0.035 C 
BRANCH  19  20
HETATM   20  C30 UNL     1      10.899  19.529  17.458  1.00  0.00     0.004 C 
BRANCH  20  21
HETATM   21  C31 UNL     1      11.065  18.791  16.171  1.00  0.00     0.027 C 
BRANCH  21  22
HETATM   22  C32 UNL     1      10.376  17.413  16.333  1.00  0.00     0.229 C 
BRANCH  22  23
HETATM   23  N6  UNL     1      11.318  16.340  16.357  1.00  0.00    -0.079 N 
ATOM     24  H63 UNL     1      12.174  16.589  15.862  1.00  0.00     0.274 HD
ATOM     25  H62 UNL     1      11.704  16.208  17.292  1.00  0.00     0.274 HD
ATOM     26  H61 UNL     1      10.922  15.472  15.996  1.00  0.00     0.274 HD
ENDBRANCH  22  23
ENDBRANCH  21  22
ENDBRANCH  20  21
ENDBRANCH  19  20
ENDBRANCH  13  19
ENDBRANCH   8   9
ENDBRANCH   7   8
ENDBRANCH   6   7
BRANCH   1  27
HETATM   27  C7  UNL     1      17.971  23.975  19.568  1.00  0.00     0.226 C 
BRANCH  27  28
HETATM   28  N2  UNL     1      18.966  24.322  20.411  1.00  0.00    -0.394 NA
BRANCH  28  29
HETATM   29  C6  UNL     1      19.984  24.710  21.262  1.00  0.00     0.194 C 
BRANCH  29  30
HETATM   30  C5  UNL     1      21.308  24.917  20.609  1.00  0.00     0.274 C 
HETATM   31  N1  UNL     1      22.056  26.073  20.981  1.00  0.00     0.094 N 
HETATM   32  C1  UNL     1      22.648  26.071  22.281  1.00  0.00     0.310 C 
HETATM   33  C2  UNL     1      23.212  25.912  20.049  1.00  0.00     0.273 C 
HETATM   34  C3  UNL     1      23.560  24.448  20.154  1.00  0.00     0.033 C 
HETATM   35  C4  UNL     1      22.288  23.790  20.727  1.00  0.00     0.044 C 
ENDBRANCH  29  30
ENDBRANCH  28  29
ENDBRANCH  27  28
BRANCH  27  36
HETATM   36  O1  UNL     1      16.835  23.560  20.049  1.00  0.00    -0.335 OA
ATOM     37  H1  UNL     1      16.804  22.754  20.552  1.00  0.00     0.220 HD
ENDBRANCH  27  36
ENDBRANCH   1  27
BRANCH   5  38
HETATM   38  C17 UNL     1      16.163  23.027  14.985  1.00  0.00     0.296 C 
HETATM   39  O3  UNL     1      16.248  22.053  14.254  1.00  0.00    -0.259 OA
BRANCH  38  40
HETATM   40  O4  UNL     1      14.933  23.713  14.949  1.00  0.00    -0.317 OA
BRANCH  40  41
HETATM   41  C18 UNL     1      13.725  23.071  15.308  1.00  0.00     0.183 C 
BRANCH  41  42
HETATM   42  C19 UNL     1      12.879  22.733  14.128  1.00  0.00     0.010 A 
HETATM   43  C20 UNL     1      12.902  21.267  13.665  1.00  0.00     0.007 A 
HETATM   44  C21 UNL     1      11.667  21.893  14.196  1.00  0.00     0.007 A 
ENDBRANCH  41  42
ENDBRANCH  40  41
ENDBRANCH  38  40
ENDBRANCH   5  38
BRANCH   3  45
HETATM   45  N3  UNL     1      20.049  25.932  15.710  1.00  0.00    -0.318 N 
HETATM   46  C11 UNL     1      20.271  27.258  16.262  1.00  0.00     0.133 C 
HETATM   47  C12 UNL     1      21.098  27.996  15.238  1.00  0.00     0.029 C 
HETATM   48  C13 UNL     1      21.444  27.025  14.139  1.00  0.00     0.105 C 
HETATM   49  C14 UNL     1      20.946  25.708  14.651  1.00  0.00     0.224 C 
HETATM   50  O2  UNL     1      21.321  24.613  14.155  1.00  0.00    -0.273 OA
ENDBRANCH   3  45
TORSDOF 18
ENDMDL
MODEL 2
REMARK VINA RESULT: -8.645527466      2.158      9.620
REMARK  18 active torsions:
REMARK  status: ('A' for Active; 'I' for Inactive)
REMARK    1  A    between atoms: C5_6  and  C6_7 
REMARK    2  A    between atoms: C6_7  and  N2_8 
REMARK    3  A    between atoms: N2_8  and  C7_9 
REMARK    4  A    between atoms: C7_9  and  O1_10 
REMARK    5  A    between atoms: C7_9  and  C8_12 
REMARK    6  A    between atoms: C10_14  and  N3_15 
REMARK    7  A    between atoms: C16_22  and  C17_23 
REMARK    8  A    between atoms: C17_23  and  O4_25 
REMARK    9  A    between atoms: O4_25  and  C18_26 
REMARK   10  A    between atoms: C18_26  and  C19_27 
REMARK   11  A    between atoms: C22_30  and  O5_31 
REMARK   12  A    between atoms: O5_31  and  C23_32 
REMARK   13  A    between atoms: C23_32  and  C24_33 
REMARK       I    between atoms: C24_33  and  N4_35 
REMARK   14  A    between atoms: C28_42  and  C29_43 
REMARK   15  A    between atoms: C29_43  and  C30_44 
REMARK   16  A    between atoms: C30_44  and  C31_45 
REMARK   17  A    between atoms: C31_45  and  C32_46 
REMARK   18  A    between atoms: C32_46  and  N6_47 
ROOT
HETATM    1  C8  UNL     1      16.978  22.176  17.618  1.00  0.00     0.066 A 
HETATM    2  C9  UNL     1      15.878  21.994  16.756  1.00  0.00     0.049 A 
HETATM    3  C10 UNL     1      15.848  22.672  15.561  1.00  0.00     0.039 A 
HETATM    4  C15 UNL     1      16.881  23.510  15.229  1.00  0.00     0.050 A 
HETATM    5  C16 UNL     1      17.994  23.725  16.050  1.00  0.00     0.076 A 
HETATM    6  C22 UNL     1      17.985  23.018  17.263  1.00  0.00     0.101 A 
ENDROOT
BRANCH   6   7
HETATM    7  O5  UNL     1      19.120  23.296  18.052  1.00  0.00    -0.340 OA
BRANCH   7   8
HETATM    8  C23 UNL     1      18.974  24.186  19.162  1.00  0.00     0.278 C 
BRANCH   8   9
HETATM    9  C24 UNL     1      20.288  24.424  19.794  1.00  0.00     0.244 C 
HETATM   10  O6  UNL     1      20.645  23.654  20.748  1.00  0.00    -0.271 OA
HETATM   11  N4  UNL     1      21.164  25.448  19.397  1.00  0.00    -0.335 N 
HETATM   12  C25 UNL     1      20.873  26.347  18.346  1.00  0.00     0.146 C 
HETATM   13  C28 UNL     1      22.472  25.578  20.103  1.00  0.00     0.179 C 
HETATM   14  C26 UNL     1      21.774  27.530  18.204  1.00  0.00     0.142 C 
HETATM   15  N5  UNL     1      23.154  27.117  18.332  1.00  0.00    -0.358 N 
HETATM   16  C27 UNL     1      23.471  25.919  19.087  1.00  0.00     0.240 C 
ATOM     17  H5  UNL     1      23.897  27.662  17.895  1.00  0.00     0.162 HD
HETATM   18  O7  UNL     1      24.510  25.258  18.862  1.00  0.00    -0.271 OA
BRANCH  13  19
HETATM   19  C29 UNL     1      22.262  26.469  21.246  1.00  0.00     0.035 C 
BRANCH  19  20
HETATM   20  C30 UNL     1      22.768  26.125  22.591  1.00  0.00     0.004 C 
BRANCH  20  21
HETATM   21  C31 UNL     1      23.832  25.080  22.669  1.00  0.00     0.027 C 
BRANCH  21  22
HETATM   22  C32 UNL     1      25.197  25.811  22.714  1.00  0.00     0.229 C 
BRANCH  22  23
HETATM   23  N6  UNL     1      26.024  25.478  21.597  1.00  0.00    -0.079 N 
ATOM     24  H63 UNL     1      25.464  25.165  20.804  1.00  0.00     0.274 HD
ATOM     25  H62 UNL     1      26.439  26.313  21.184  1.00  0.00     0.274 HD
ATOM     26  H61 UNL     1      26.739  24.791  21.839  1.00  0.00     0.274 HD
ENDBRANCH  22  23
ENDBRANCH  21  22
ENDBRANCH  20  21
ENDBRANCH  19  20
ENDBRANCH  13  19
ENDBRANCH   8   9
ENDBRANCH   7   8
ENDBRANCH   6   7
BRANCH   1  27
HETATM   27  C7  UNL     1      16.982  21.294  18.789  1.00  0.00     0.226 C 
BRANCH  27  28
HETATM   28  N2  UNL     1      15.906  20.922  19.513  1.00  0.00    -0.394 NA
BRANCH  28  29
HETATM   29  C6  UNL     1      14.817  20.558  20.282  1.00  0.00     0.194 C 
BRANCH  29  30
HETATM   30  C5  UNL     1      14.294  19.186  20.027  1.00  0.00     0.274 C 
HETATM   31  N1  UNL     1      12.884  19.030  19.884  1.00  0.00     0.094 N 
HETATM   32  C1  UNL     1      12.296  19.525  18.681  1.00  0.00     0.310 C 
HETATM   33  C2  UNL     1      12.827  17.545  19.740  1.00  0.00     0.273 C 
HETATM   34  C3  UNL     1      13.946  17.233  18.777  1.00  0.00     0.033 C 
HETATM   35  C4  UNL     1      14.866  18.469  18.841  1.00  0.00     0.044 C 
ENDBRANCH  29  30
ENDBRANCH  28  29
ENDBRANCH  27  28
BRANCH  27  36
HETATM   36  O1  UNL     1      18.165  20.870  19.128  1.00  0.00    -0.335 OA
ATOM     37  H1  UNL     1      18.885  21.487  19.193  1.00  0.00     0.220 HD
ENDBRANCH  27  36
ENDBRANCH   1  27
BRANCH   5  38
HETATM   38  C17 UNL     1      19.093  24.533  15.590  1.00  0.00     0.296 C 
HETATM   39  O3  UNL     1      20.214  24.178  15.262  1.00  0.00    -0.259 OA
BRANCH  38  40
HETATM   40  O4  UNL     1      18.840  25.916  15.506  1.00  0.00    -0.317 OA
BRANCH  40  41
HETATM   41  C18 UNL     1      19.283  26.676  14.398  1.00  0.00     0.183 C 
BRANCH  41  42
HETATM   42  C19 UNL     1      20.382  27.620  14.749  1.00  0.00     0.010 A 
HETATM   43  C20 UNL     1      21.818  27.108  14.539  1.00  0.00     0.007 A 
HETATM   44  C21 UNL     1      21.278  28.247  13.758  1.00  0.00     0.007 A 
ENDBRANCH  41  42
ENDBRANCH  40  41
ENDBRANCH  38  40
ENDBRANCH   5  38
BRANCH   3  45
HETATM   45  N3  UNL     1      14.743  22.446  14.703  1.00  0.00    -0.318 N 
HETATM   46  C11 UNL     1      13.454  23.089  14.898  1.00  0.00     0.133 C 
HETATM   47  C12 UNL     1      12.476  22.313  14.050  1.00  0.00     0.029 C 
HETATM   48  C13 UNL     1      13.256  21.285  13.272  1.00  0.00     0.105 C 
HETATM   49  C14 UNL     1      14.686  21.614  13.572  1.00  0.00     0.224 C 
HETATM   50  O2  UNL     1      15.635  21.174  12.870  1.00  0.00    -0.273 OA
ENDBRANCH   3  45
TORSDOF 18
ENDMDL
MODEL 3
REMARK VINA RESULT: -8.623976400      2.543      9.653
REMARK  18 active torsions:
REMARK  status: ('A' for Active; 'I' for Inactive)
REMARK    1  A    between atoms: C5_6  and  C6_7 
REMARK    2  A    between atoms: C6_7  and  N2_8 
REMARK    3  A    between atoms: N2_8  and  C7_9 
REMARK    4  A    between atoms: C7_9  and  O1_10 
REMARK    5  A    between atoms: C7_9  and  C8_12 
REMARK    6  A    between atoms: C10_14  and  N3_15 
REMARK    7  A    between atoms: C16_22  and  C17_23 
REMARK    8  A    between atoms: C17_23  and  O4_25 
REMARK    9  A    between atoms: O4_25  and  C18_26 
REMARK   10  A    between atoms: C18_26  and  C19_27 
REMARK   11  A    between atoms: C22_30  and  O5_31 
REMARK   12  A    between atoms: O5_31  and  C23_32 
REMARK   13  A    between atoms: C23_32  and  C24_33 
REMARK       I    between atoms: C24_33  and  N4_35 
REMARK   14  A    between atoms: C28_42  and  C29_43 
REMARK   15  A    between atoms: C29_43  and  C30_44 
REMARK   16  A    between atoms: C30_44  and  C31_45 
REMARK   17  A    between atoms: C31_45  and  C32_46 
REMARK   18  A    between atoms: C32_46  and  N6_47 
ROOT
HETATM    1  C8  UNL     1      16.750  24.038  17.679  1.00  0.00     0.066 A 
HETATM    2  C9  UNL     1      15.726  23.408  16.942  1.00  0.00     0.049 A 
HETATM    3  C10 UNL     1      15.671  23.596  15.582  1.00  0.00     0.039 A 
HETATM    4  C15 UNL     1      16.605  24.390  14.968  1.00  0.00     0.050 A 
HETATM    5  C16 UNL     1      17.638  25.037  15.653  1.00  0.00     0.076 A 
HETATM    6  C22 UNL     1      17.658  24.823  17.041  1.00  0.00     0.101 A 
ENDROOT
BRANCH   6   7
HETATM    7  O5  UNL     1      18.708  25.519  17.674  1.00  0.00    -0.340 OA
BRANCH   7   8
HETATM    8  C23 UNL     1      19.731  24.761  18.325  1.00  0.00     0.278 C 
BRANCH   8   9
HETATM    9  C24 UNL     1      20.897  25.623  18.606  1.00  0.00     0.244 C 
HETATM   10  O6  UNL     1      20.801  26.869  18.347  1.00  0.00    -0.271 OA
HETATM   11  N4  UNL     1      22.102  25.143  19.147  1.00  0.00    -0.335 N 
HETATM   12  C25 UNL     1      22.310  23.785  19.481  1.00  0.00     0.146 C 
HETATM   13  C28 UNL     1      23.204  26.116  19.402  1.00  0.00     0.179 C 
HETATM   14  C26 UNL     1      23.710  23.379  19.806  1.00  0.00     0.142 C 
HETATM   15  N5  UNL     1      24.316  24.357  20.683  1.00  0.00    -0.358 N 
HETATM   16  C27 UNL     1      23.831  25.725  20.667  1.00  0.00     0.240 C 
ATOM     17  H5  UNL     1      25.076  24.088  21.307  1.00  0.00     0.162 HD
HETATM   18  O7  UNL     1      23.951  26.475  21.662  1.00  0.00    -0.271 OA
BRANCH  13  19
HETATM   19  C29 UNL     1      24.010  26.188  18.180  1.00  0.00     0.035 C 
BRANCH  19  20
HETATM   20  C30 UNL     1      24.404  27.487  17.597  1.00  0.00     0.004 C 
BRANCH  20  21
HETATM   21  C31 UNL     1      25.244  27.448  16.362  1.00  0.00     0.027 C 
BRANCH  21  22
HETATM   22  C32 UNL     1      25.471  28.912  15.910  1.00  0.00     0.229 C 
BRANCH  22  23
HETATM   23  N6  UNL     1      24.420  29.779  16.340  1.00  0.00    -0.079 N 
ATOM     24  H63 UNL     1      23.511  29.443  16.022  1.00  0.00     0.274 HD
ATOM     25  H62 UNL     1      24.275  29.711  17.347  1.00  0.00     0.274 HD
ATOM     26  H61 UNL     1      24.577  30.745  16.054  1.00  0.00     0.274 HD
ENDBRANCH  22  23
ENDBRANCH  21  22
ENDBRANCH  20  21
ENDBRANCH  19  20
ENDBRANCH  13  19
ENDBRANCH   8   9
ENDBRANCH   7   8
ENDBRANCH   6   7
BRANCH   1  27
HETATM   27  C7  UNL     1      16.807  23.649  19.090  1.00  0.00     0.226 C 
BRANCH  27  28
HETATM   28  N2  UNL     1      16.650  22.403  19.583  1.00  0.00    -0.394 NA
BRANCH  28  29
HETATM   29  C6  UNL     1      16.470  21.139  20.114  1.00  0.00     0.194 C 
BRANCH  29  30
HETATM   30  C5  UNL     1      15.082  20.604  20.011  1.00  0.00     0.274 C 
HETATM   31  N1  UNL     1      14.675  20.057  18.758  1.00  0.00     0.094 N 
HETATM   32  C1  UNL     1      15.235  18.796  18.389  1.00  0.00     0.310 C 
HETATM   33  C2  UNL     1      13.253  19.745  19.092  1.00  0.00     0.273 C 
HETATM   34  C3  UNL     1      13.334  19.107  20.456  1.00  0.00     0.033 C 
HETATM   35  C4  UNL     1      14.700  19.557  21.012  1.00  0.00     0.044 C 
ENDBRANCH  29  30
ENDBRANCH  28  29
ENDBRANCH  27  28
BRANCH  27  36
HETATM   36  O1  UNL     1      17.017  24.642  19.905  1.00  0.00    -0.335 OA
ATOM     37  H1  UNL     1      17.306  25.480  19.561  1.00  0.00     0.220 HD
ENDBRANCH  27  36
ENDBRANCH   1  27
BRANCH   5  38
HETATM   38  C17 UNL     1      18.647  25.766  14.931  1.00  0.00     0.296 C 
HETATM   39  O3  UNL     1      18.511  26.735  14.201  1.00  0.00    -0.259 OA
BRANCH  38  40
HETATM   40  O4  UNL     1      19.968  25.300  15.089  1.00  0.00    -0.317 OA
BRANCH  40  41
HETATM   41  C18 UNL     1      21.016  25.774  14.265  1.00  0.00     0.183 C 
BRANCH  41  42
HETATM   42  C19 UNL     1      21.856  26.804  14.939  1.00  0.00     0.010 A 
HETATM   43  C20 UNL     1      22.219  28.045  14.106  1.00  0.00     0.007 A 
HETATM   44  C21 UNL     1      21.371  28.146  15.317  1.00  0.00     0.007 A 
ENDBRANCH  41  42
ENDBRANCH  40  41
ENDBRANCH  38  40
ENDBRANCH   5  38
BRANCH   3  45
HETATM   45  N3  UNL     1      14.647  22.927  14.866  1.00  0.00    -0.318 N 
HETATM   46  C11 UNL     1      13.241  23.270  15.000  1.00  0.00     0.133 C 
HETATM   47  C12 UNL     1      12.478  22.114  14.403  1.00  0.00     0.029 C 
HETATM   48  C13 UNL     1      13.480  21.153  13.816  1.00  0.00     0.105 C 
HETATM   49  C14 UNL     1      14.787  21.873  13.946  1.00  0.00     0.224 C 
HETATM   50  O2  UNL     1      15.809  21.526  13.296  1.00  0.00    -0.273 OA
ENDBRANCH   3  45
TORSDOF 18
ENDMDL
MODEL 4
REMARK VINA RESULT: -8.585372698      2.330      9.629
REMARK  18 active torsions:
REMARK  status: ('A' for Active; 'I' for Inactive)
REMARK    1  A    between atoms: C5_6  and  C6_7 
REMARK    2  A    between atoms: C6_7  and  N2_8 
REMARK    3  A    between atoms: N2_8  and  C7_9 
REMARK    4  A    between atoms: C7_9  and  O1_10 
REMARK    5  A    between atoms: C7_9  and  C8_12 
REMARK    6  A    between atoms: C10_14  and  N3_15 
REMARK    7  A    between atoms: C16_22  and  C17_23 
REMARK    8  A    between atoms: C17_23  and  O4_25 
REMARK    9  A    between atoms: O4_25  and  C18_26 
REMARK   10  A    between atoms: C18_26  and  C19_27 
REMARK   11  A    between atoms: C22_30  and  O5_31 
REMARK   12  A    between atoms: O5_31  and  C23_32 
REMARK   13  A    between atoms: C23_32  and  C24_33 
REMARK       I    between atoms: C24_33  and  N4_35 
REMARK   14  A    between atoms: C28_42  and  C29_43 
REMARK   15  A    between atoms: C29_43  and  C30_44 
REMARK   16  A    between atoms: C30_44  and  C31_45 
REMARK   17  A    between atoms: C31_45  and  C32_46 
REMARK   18  A    between atoms: C32_46  and  N6_47 
ROOT
HETATM    1  C8  UNL     1      17.598  22.527  17.628  1.00  0.00     0.066 A 
HETATM    2  C9  UNL     1      16.421  22.303  16.886  1.00  0.00     0.049 A 
HETATM    3  C10 UNL     1      16.258  22.946  15.683  1.00  0.00     0.039 A 
HETATM    4  C15 UNL     1      17.236  23.791  15.227  1.00  0.00     0.050 A 
HETATM    5  C16 UNL     1      18.421  24.048  15.925  1.00  0.00     0.076 A 
HETATM    6  C22 UNL     1      18.548  23.375  17.151  1.00  0.00     0.101 A 
ENDROOT
BRANCH   6   7
HETATM    7  O5  UNL     1      19.750  23.693  17.813  1.00  0.00    -0.340 OA
BRANCH   7   8
HETATM    8  C23 UNL     1      19.703  24.626  18.897  1.00  0.00     0.278 C 
BRANCH   8   9
HETATM    9  C24 UNL     1      20.802  24.354  19.846  1.00  0.00     0.244 C 
HETATM   10  O6  UNL     1      20.594  23.515  20.784  1.00  0.00    -0.271 OA
HETATM   11  N4  UNL     1      22.064  24.968  19.764  1.00  0.00    -0.335 N 
HETATM   12  C25 UNL     1      22.403  25.903  18.759  1.00  0.00     0.146 C 
HETATM   13  C28 UNL     1      23.100  24.600  20.772  1.00  0.00     0.179 C 
HETATM   14  C26 UNL     1      23.679  26.656  18.944  1.00  0.00     0.142 C 
HETATM   15  N5  UNL     1      24.729  25.753  19.362  1.00  0.00    -0.358 N 
HETATM   16  C27 UNL     1      24.379  24.530  20.061  1.00  0.00     0.240 C 
ATOM     17  H5  UNL     1      25.705  25.973  19.167  1.00  0.00     0.162 HD
HETATM   18  O7  UNL     1      25.123  23.524  20.034  1.00  0.00    -0.271 OA
BRANCH  13  19
HETATM   19  C29 UNL     1      22.946  25.514  21.907  1.00  0.00     0.035 C 
BRANCH  19  20
HETATM   20  C30 UNL     1      24.078  25.816  22.808  1.00  0.00     0.004 C 
BRANCH  20  21
HETATM   21  C31 UNL     1      24.560  24.707  23.684  1.00  0.00     0.027 C 
BRANCH  21  22
HETATM   22  C32 UNL     1      26.069  24.510  23.394  1.00  0.00     0.229 C 
BRANCH  22  23
HETATM   23  N6  UNL     1      26.360  23.193  22.924  1.00  0.00    -0.079 N 
ATOM     24  H63 UNL     1      26.619  23.202  21.938  1.00  0.00     0.274 HD
ATOM     25  H62 UNL     1      27.234  22.845  23.318  1.00  0.00     0.274 HD
ATOM     26  H61 UNL     1      25.592  22.544  23.099  1.00  0.00     0.274 HD
ENDBRANCH  22  23
ENDBRANCH  21  22
ENDBRANCH  20  21
ENDBRANCH  19  20
ENDBRANCH  13  19
ENDBRANCH   8   9
ENDBRANCH   7   8
ENDBRANCH   6   7
BRANCH   1  27
HETATM   27  C7  UNL     1      17.737  21.679  18.815  1.00  0.00     0.226 C 
BRANCH  27  28
HETATM   28  N2  UNL     1      16.748  21.318  19.660  1.00  0.00    -0.394 NA
BRANCH  28  29
HETATM   29  C6  UNL     1      15.760  20.937  20.548  1.00  0.00     0.194 C 
BRANCH  29  30
HETATM   30  C5  UNL     1      14.528  20.381  19.920  1.00  0.00     0.274 C 
HETATM   31  N1  UNL     1      14.637  19.854  18.600  1.00  0.00     0.094 N 
HETATM   32  C1  UNL     1      15.326  18.611  18.452  1.00  0.00     0.310 C 
HETATM   33  C2  UNL     1      13.203  19.511  18.366  1.00  0.00     0.273 C 
HETATM   34  C3  UNL     1      12.777  18.845  19.651  1.00  0.00     0.033 C 
HETATM   35  C4  UNL     1      13.821  19.306  20.689  1.00  0.00     0.044 C 
ENDBRANCH  29  30
ENDBRANCH  28  29
ENDBRANCH  27  28
BRANCH  27  36
HETATM   36  O1  UNL     1      18.953  21.274  19.037  1.00  0.00    -0.335 OA
ATOM     37  H1  UNL     1      19.643  21.497  18.422  1.00  0.00     0.220 HD
ENDBRANCH  27  36
ENDBRANCH   1  27
BRANCH   5  38
HETATM   38  C17 UNL     1      19.452  24.860  15.336  1.00  0.00     0.296 C 
HETATM   39  O3  UNL     1      20.489  24.504  14.798  1.00  0.00    -0.259 OA
BRANCH  38  40
HETATM   40  O4  UNL     1      19.235  26.252  15.384  1.00  0.00    -0.317 OA
BRANCH  40  41
HETATM   41  C18 UNL     1      20.153  27.115  16.028  1.00  0.00     0.183 C 
BRANCH  41  42
HETATM   42  C19 UNL     1      20.746  28.121  15.102  1.00  0.00     0.010 A 
HETATM   43  C20 UNL     1      22.206  28.521  15.369  1.00  0.00     0.007 A 
HETATM   44  C21 UNL     1      21.811  27.816  14.126  1.00  0.00     0.007 A 
ENDBRANCH  41  42
ENDBRANCH  40  41
ENDBRANCH  38  40
ENDBRANCH   5  38
BRANCH   3  45
HETATM   45  N3  UNL     1      15.076  22.678  14.947  1.00  0.00    -0.318 N 
HETATM   46  C11 UNL     1      13.792  23.271  15.281  1.00  0.00     0.133 C 
HETATM   47  C12 UNL     1      12.759  22.459  14.539  1.00  0.00     0.029 C 
HETATM   48  C13 UNL     1      13.490  21.460  13.679  1.00  0.00     0.105 C 
HETATM   49  C14 UNL     1      14.931  21.844  13.826  1.00  0.00     0.224 C 
HETATM   50  O2  UNL     1      15.815  21.439  13.025  1.00  0.00    -0.273 OA
ENDBRANCH   3  45
TORSDOF 18
ENDMDL
MODEL 5
REMARK VINA RESULT: -8.549919389      2.066     10.543
REMARK  18 active torsions:
REMARK  status: ('A' for Active; 'I' for Inactive)
REMARK    1  A    between atoms: C5_6  and  C6_7 
REMARK    2  A    between atoms: C6_7  and  N2_8 
REMARK    3  A    between atoms: N2_8  and  C7_9 
REMARK    4  A    between atoms: C7_9  and  O1_10 
REMARK    5  A    between atoms: C7_9  and  C8_12 
REMARK    6  A    between atoms: C10_14  and  N3_15 
REMARK    7  A    between atoms: C16_22  and  C17_23 
REMARK    8  A    between atoms: C17_23  and  O4_25 
REMARK    9  A    between atoms: O4_25  and  C18_26 
REMARK   10  A    between atoms: C18_26  and  C19_27 
REMARK   11  A    between atoms: C22_30  and  O5_31 
REMARK   12  A    between atoms: O5_31  and  C23_32 
REMARK   13  A    between atoms: C23_32  and  C24_33 
REMARK       I    between atoms: C24_33  and  N4_35 
REMARK   14  A    between atoms: C28_42  and  C29_43 
REMARK   15  A    between atoms: C29_43  and  C30_44 
REMARK   16  A    between atoms: C30_44  and  C31_45 
REMARK   17  A    between atoms: C31_45  and  C32_46 
REMARK   18  A    between atoms: C32_46  and  N6_47 
ROOT
HETATM    1  C8  UNL     1      14.747  21.600  17.300  1.00  0.00     0.066 A 
HETATM    2  C9  UNL     1      14.027  20.527  17.864  1.00  0.00     0.049 A 
HETATM    3  C10 UNL     1      14.548  19.876  18.956  1.00  0.00     0.039 A 
HETATM    4  C15 UNL     1      15.751  20.277  19.476  1.00  0.00     0.050 A 
HETATM    5  C16 UNL     1      16.504  21.334  18.953  1.00  0.00     0.076 A 
HETATM    6  C22 UNL     1      15.940  21.971  17.835  1.00  0.00     0.101 A 
ENDROOT
BRANCH   6   7
HETATM    7  O5  UNL     1      16.757  23.009  17.344  1.00  0.00    -0.340 OA
BRANCH   7   8
HETATM    8  C23 UNL     1      17.743  22.690  16.359  1.00  0.00     0.278 C 
BRANCH   8   9
HETATM    9  C24 UNL     1      18.933  23.546  16.539  1.00  0.00     0.244 C 
HETATM   10  O6  UNL     1      19.840  23.154  17.347  1.00  0.00    -0.271 OA
HETATM   11  N4  UNL     1      19.119  24.765  15.865  1.00  0.00    -0.335 N 
HETATM   12  C25 UNL     1      18.183  25.286  14.942  1.00  0.00     0.146 C 
HETATM   13  C28 UNL     1      20.372  25.534  16.119  1.00  0.00     0.179 C 
HETATM   14  C26 UNL     1      18.389  26.697  14.499  1.00  0.00     0.142 C 
HETATM   15  N5  UNL     1      19.785  26.918  14.192  1.00  0.00    -0.358 N 
HETATM   16  C27 UNL     1      20.794  26.095  14.832  1.00  0.00     0.240 C 
ATOM     17  H5  UNL     1      20.058  27.646  13.532  1.00  0.00     0.162 HD
HETATM   18  O7  UNL     1      21.912  25.898  14.304  1.00  0.00    -0.271 OA
BRANCH  13  19
HETATM   19  C29 UNL     1      20.111  26.427  17.252  1.00  0.00     0.035 C 
BRANCH  19  20
HETATM   20  C30 UNL     1      21.186  27.250  17.843  1.00  0.00     0.004 C 
BRANCH  20  21
HETATM   21  C31 UNL     1      22.483  26.566  18.132  1.00  0.00     0.027 C 
BRANCH  21  22
HETATM   22  C32 UNL     1      23.558  27.207  17.219  1.00  0.00     0.229 C 
BRANCH  22  23
HETATM   23  N6  UNL     1      24.120  26.264  16.305  1.00  0.00    -0.079 N 
ATOM     24  H63 UNL     1      23.408  25.884  15.681  1.00  0.00     0.274 HD
ATOM     25  H62 UNL     1      24.711  26.726  15.614  1.00  0.00     0.274 HD
ATOM     26  H61 UNL     1      24.627  25.519  16.784  1.00  0.00     0.274 HD
ENDBRANCH  22  23
ENDBRANCH  21  22
ENDBRANCH  20  21
ENDBRANCH  19  20
ENDBRANCH  13  19
ENDBRANCH   8   9
ENDBRANCH   7   8
ENDBRANCH   6   7
BRANCH   1  27
HETATM   27  C7  UNL     1      14.033  22.318  16.241  1.00  0.00     0.226 C 
BRANCH  27  28
HETATM   28  N2  UNL     1      13.650  21.811  15.050  1.00  0.00    -0.394 NA
BRANCH  28  29
HETATM   29  C6  UNL     1      13.230  21.313  13.831  1.00  0.00     0.194 C 
BRANCH  29  30
HETATM   30  C5  UNL     1      11.795  20.915  13.773  1.00  0.00     0.274 C 
HETATM   31  N1  UNL     1      11.475  19.551  14.036  1.00  0.00     0.094 N 
HETATM   32  C1  UNL     1      11.588  19.107  15.389  1.00  0.00     0.310 C 
HETATM   33  C2  UNL     1      10.003  19.604  13.787  1.00  0.00     0.273 C 
HETATM   34  C3  UNL     1       9.564  20.863  14.492  1.00  0.00     0.033 C 
HETATM   35  C4  UNL     1      10.857  21.689  14.649  1.00  0.00     0.044 C 
ENDBRANCH  29  30
ENDBRANCH  28  29
ENDBRANCH  27  28
BRANCH  27  36
HETATM   36  O1  UNL     1      13.781  23.563  16.522  1.00  0.00    -0.335 OA
ATOM     37  H1  UNL     1      14.300  24.011  17.180  1.00  0.00     0.220 HD
ENDBRANCH  27  36
ENDBRANCH   1  27
BRANCH   5  38
HETATM   38  C17 UNL     1      17.705  21.771  19.615  1.00  0.00     0.296 C 
HETATM   39  O3  UNL     1      18.824  21.287  19.560  1.00  0.00    -0.259 OA
BRANCH  38  40
HETATM   40  O4  UNL     1      17.571  22.910  20.433  1.00  0.00    -0.317 OA
BRANCH  40  41
HETATM   41  C18 UNL     1      18.307  24.090  20.173  1.00  0.00     0.183 C 
BRANCH  41  42
HETATM   42  C19 UNL     1      19.463  24.264  21.098  1.00  0.00     0.010 A 
HETATM   43  C20 UNL     1      20.861  24.046  20.496  1.00  0.00     0.007 A 
HETATM   44  C21 UNL     1      20.434  25.372  21.005  1.00  0.00     0.007 A 
ENDBRANCH  41  42
ENDBRANCH  40  41
ENDBRANCH  38  40
ENDBRANCH   5  38
BRANCH   3  45
HETATM   45  N3  UNL     1      13.787  18.820  19.518  1.00  0.00    -0.318 N 
HETATM   46  C11 UNL     1      13.419  17.632  18.766  1.00  0.00     0.133 C 
HETATM   47  C12 UNL     1      12.324  16.965  19.562  1.00  0.00     0.029 C 
HETATM   48  C13 UNL     1      12.155  17.735  20.847  1.00  0.00     0.105 C 
HETATM   49  C14 UNL     1      13.279  18.725  20.825  1.00  0.00     0.224 C 
HETATM   50  O2  UNL     1      13.651  19.337  21.861  1.00  0.00    -0.273 OA
ENDBRANCH   3  45
TORSDOF 18
ENDMDL
