MODEL 1
REMARK VINA RESULT: -9.146600197      0.000      0.000
REMARK  15 active torsions:
REMARK  status: ('A' for Active; 'I' for Inactive)
REMARK    1  A    between atoms: C2_2  and  C3_3 
REMARK    2  A    between atoms: C3_3  and  C4_4 
REMARK    3  A    between atoms: C4_4  and  N1_5 
REMARK    4  A    between atoms: N1_5  and  C5_7 
REMARK    5  A    between atoms: N2_10  and  C8_11 
REMARK    6  A    between atoms: C8_11  and  C9_12 
REMARK    7  A    between atoms: C9_12  and  C10_13 
REMARK    8  A    between atoms: C10_13  and  C11_14 
REMARK    9  A    between atoms: C11_14  and  N3_15 
REMARK       I    between atoms: N4_21  and  C17_22 
REMARK   10  A    between atoms: C17_22  and  C18_24 
REMARK   11  A    between atoms: C18_24  and  C19_25 
REMARK   12  A    between atoms: C19_25  and  C20_26 
REMARK       I    between atoms: N5_33  and  C25_35 
REMARK   13  A    between atoms: C25_35  and  C26_37 
REMARK   14  A    between atoms: C26_37  and  C27_39 
REMARK   15  A    between atoms: C27_39  and  C28_40 
ROOT
HETATM    1  C9  UNL     1      18.311  24.137  15.758  1.00  0.00     0.013 C 
HETATM    2  N5  UNL     1      19.008  23.161  16.164  1.00  0.00    -0.326 N 
ATOM      3  H5  UNL     1      19.987  23.138  15.876  1.00  0.00     0.168 HD
HETATM    4  C25 UNL     1      18.552  22.095  16.982  1.00  0.00     0.291 C 
HETATM    5  O4  UNL     1      18.362  20.977  16.469  1.00  0.00    -0.264 OA
ENDROOT
BRANCH   1   6
HETATM    6  C8  UNL     1      18.927  25.187  14.910  1.00  0.00     0.186 C 
BRANCH   6   7
HETATM    7  N2  UNL     1      20.030  25.828  15.559  1.00  0.00    -0.304 N 
HETATM    8  C7  UNL     1      19.838  26.624  16.622  1.00  0.00     0.100 A 
HETATM    9  C6  UNL     1      20.872  27.260  17.293  1.00  0.00     0.065 A 
HETATM   10  C5  UNL     1      22.153  27.059  16.841  1.00  0.00     0.106 A 
HETATM   11  N6  UNL     1      22.341  26.248  15.759  1.00  0.00    -0.294 N 
HETATM   12  C32 UNL     1      21.288  25.657  15.147  1.00  0.00     0.328 A 
ATOM     13  H6  UNL     1      23.285  26.086  15.408  1.00  0.00     0.172 HD
HETATM   14  O6  UNL     1      21.541  24.924  14.157  1.00  0.00    -0.246 OA
BRANCH  10  15
HETATM   15  N1  UNL     1      23.189  27.587  17.379  1.00  0.00    -0.376 N 
ATOM     16  H1  UNL     1      23.261  28.604  17.400  1.00  0.00     0.161 HD
BRANCH  15  17
HETATM   17  C4  UNL     1      24.255  26.816  17.954  1.00  0.00     0.121 C 
BRANCH  17  18
HETATM   18  C3  UNL     1      23.880  26.394  19.364  1.00  0.00     0.019 C 
BRANCH  18  19
HETATM   19  C2  UNL     1      23.636  24.924  19.474  1.00  0.00    -0.003 C 
HETATM   20  C1  UNL     1      22.202  24.540  19.649  1.00  0.00     0.005 C 
ENDBRANCH  18  19
ENDBRANCH  17  18
ENDBRANCH  15  17
ENDBRANCH  10  15
ENDBRANCH   6   7
ENDBRANCH   1   6
BRANCH   1  21
HETATM   21  C10 UNL     1      16.867  24.245  16.066  1.00  0.00     0.098 C 
BRANCH  21  22
HETATM   22  C11 UNL     1      16.127  23.404  15.051  1.00  0.00     0.064 C 
BRANCH  22  23
HETATM   23  N3  UNL     1      15.367  22.408  15.694  1.00  0.00    -0.392 N 
HETATM   24  C12 UNL     1      14.222  22.825  16.440  1.00  0.00     0.124 C 
HETATM   25  C13 UNL     1      13.049  23.009  15.531  1.00  0.00     0.052 C 
HETATM   26  C14 UNL     1      12.742  21.674  14.875  1.00  0.00     0.046 C 
HETATM   27  C15 UNL     1      11.646  21.896  13.846  1.00  0.00     0.052 C 
HETATM   28  N4  UNL     1      11.861  20.831  15.610  1.00  0.00    -0.342 N 
HETATM   29  C21 UNL     1      13.928  21.092  14.195  1.00  0.00    -0.006 C 
HETATM   30  C16 UNL     1      10.719  21.359  14.868  1.00  0.00     0.129 C 
HETATM   31  C17 UNL     1      11.880  19.852  16.662  1.00  0.00     0.221 C 
HETATM   32  O1  UNL     1      12.925  19.493  17.257  1.00  0.00    -0.273 OA
HETATM   33  C22 UNL     1      13.731  19.675  13.736  1.00  0.00     0.019 C 
HETATM   34  C23 UNL     1      14.117  21.907  12.898  1.00  0.00     0.019 C 
HETATM   35  C24 UNL     1      15.202  21.182  14.979  1.00  0.00     0.133 C 
BRANCH  31  36
HETATM   36  C18 UNL     1      10.619  19.207  17.098  1.00  0.00     0.113 C 
BRANCH  36  37
HETATM   37  C19 UNL     1      10.692  17.736  17.272  1.00  0.00     0.122 C 
BRANCH  37  38
HETATM   38  C20 UNL     1      10.817  17.398  18.699  1.00  0.00     0.172 C 
HETATM   39  O2  UNL     1      10.613  18.260  19.571  1.00  0.00    -0.648 OA
HETATM   40  O3  UNL     1      11.162  16.106  19.032  1.00  0.00    -0.648 OA
ENDBRANCH  37  38
ENDBRANCH  36  37
ENDBRANCH  31  36
ENDBRANCH  22  23
ENDBRANCH  21  22
ENDBRANCH   1  21
BRANCH   4  41
HETATM   41  C26 UNL     1      18.319  22.332  18.390  1.00  0.00     0.217 C 
HETATM   42  O5  UNL     1      19.285  22.480  19.155  1.00  0.00    -0.287 OA
BRANCH  41  43
HETATM   43  C27 UNL     1      16.940  22.392  18.877  1.00  0.00     0.093 C 
BRANCH  43  44
HETATM   44  C28 UNL     1      16.392  21.193  19.547  1.00  0.00    -0.007 C 
HETATM   45  C29 UNL     1      14.873  21.153  19.717  1.00  0.00     0.005 C 
HETATM   46  C30 UNL     1      15.124  20.400  21.009  1.00  0.00     0.001 C 
HETATM   47  C31 UNL     1      16.541  20.983  21.003  1.00  0.00     0.005 C 
ENDBRANCH  43  44
ENDBRANCH  41  43
ENDBRANCH   4  41
TORSDOF 15
ENDMDL
MODEL 2
REMARK VINA RESULT: -9.121866512      0.891      1.536
REMARK  15 active torsions:
REMARK  status: ('A' for Active; 'I' for Inactive)
REMARK    1  A    between atoms: C2_2  and  C3_3 
REMARK    2  A    between atoms: C3_3  and  C4_4 
REMARK    3  A    between atoms: C4_4  and  N1_5 
REMARK    4  A    between atoms: N1_5  and  C5_7 
REMARK    5  A    between atoms: N2_10  and  C8_11 
REMARK    6  A    between atoms: C8_11  and  C9_12 
REMARK    7  A    between atoms: C9_12  and  C10_13 
REMARK    8  A    between atoms: C10_13  and  C11_14 
REMARK    9  A    between atoms: C11_14  and  N3_15 
REMARK       I    between atoms: N4_21  and  C17_22 
REMARK   10  A    between atoms: C17_22  and  C18_24 
REMARK   11  A    between atoms: C18_24  and  C19_25 
REMARK   12  A    between atoms: C19_25  and  C20_26 
REMARK       I    between atoms: N5_33  and  C25_35 
REMARK   13  A    between atoms: C25_35  and  C26_37 
REMARK   14  A    between atoms: C26_37  and  C27_39 
REMARK   15  A    between atoms: C27_39  and  C28_40 
ROOT
HETATM    1  C9  UNL     1      18.306  24.144  15.776  1.00  0.00     0.013 C 
HETATM    2  N5  UNL     1      19.039  23.207  16.211  1.00  0.00    -0.326 N 
ATOM      3  H5  UNL     1      20.022  23.222  15.937  1.00  0.00     0.168 HD
HETATM    4  C25 UNL     1      18.617  22.139  17.044  1.00  0.00     0.291 C 
HETATM    5  O4  UNL     1      18.484  21.004  16.551  1.00  0.00    -0.264 OA
ENDROOT
BRANCH   1   6
HETATM    6  C8  UNL     1      18.889  25.203  14.915  1.00  0.00     0.186 C 
BRANCH   6   7
HETATM    7  N2  UNL     1      20.006  25.849  15.535  1.00  0.00    -0.304 N 
HETATM    8  C7  UNL     1      19.835  26.657  16.593  1.00  0.00     0.100 A 
HETATM    9  C6  UNL     1      20.884  27.299  17.236  1.00  0.00     0.065 A 
HETATM   10  C5  UNL     1      22.155  27.092  16.760  1.00  0.00     0.106 A 
HETATM   11  N6  UNL     1      22.321  26.269  15.683  1.00  0.00    -0.294 N 
HETATM   12  C32 UNL     1      21.255  25.672  15.099  1.00  0.00     0.328 A 
ATOM     13  H6  UNL     1      23.257  26.102  15.314  1.00  0.00     0.172 HD
HETATM   14  O6  UNL     1      21.487  24.929  14.111  1.00  0.00    -0.246 OA
BRANCH  10  15
HETATM   15  N1  UNL     1      23.203  27.624  17.271  1.00  0.00    -0.376 N 
ATOM     16  H1  UNL     1      23.182  28.619  17.495  1.00  0.00     0.161 HD
BRANCH  15  17
HETATM   17  C4  UNL     1      24.404  26.888  17.545  1.00  0.00     0.121 C 
BRANCH  17  18
HETATM   18  C3  UNL     1      25.586  27.568  16.877  1.00  0.00     0.019 C 
BRANCH  18  19
HETATM   19  C2  UNL     1      25.951  26.930  15.575  1.00  0.00    -0.003 C 
HETATM   20  C1  UNL     1      27.266  26.218  15.575  1.00  0.00     0.005 C 
ENDBRANCH  18  19
ENDBRANCH  17  18
ENDBRANCH  15  17
ENDBRANCH  10  15
ENDBRANCH   6   7
ENDBRANCH   1   6
BRANCH   1  21
HETATM   21  C10 UNL     1      16.854  24.195  16.061  1.00  0.00     0.098 C 
BRANCH  21  22
HETATM   22  C11 UNL     1      16.166  23.306  15.050  1.00  0.00     0.064 C 
BRANCH  22  23
HETATM   23  N3  UNL     1      15.389  22.328  15.701  1.00  0.00    -0.392 N 
HETATM   24  C12 UNL     1      14.261  22.771  16.456  1.00  0.00     0.124 C 
HETATM   25  C13 UNL     1      13.085  22.980  15.556  1.00  0.00     0.052 C 
HETATM   26  C14 UNL     1      12.742  21.651  14.904  1.00  0.00     0.046 C 
HETATM   27  C15 UNL     1      11.643  21.897  13.885  1.00  0.00     0.052 C 
HETATM   28  N4  UNL     1      11.849  20.829  15.647  1.00  0.00    -0.342 N 
HETATM   29  C21 UNL     1      13.910  21.043  14.216  1.00  0.00    -0.006 C 
HETATM   30  C16 UNL     1      10.713  21.382  14.914  1.00  0.00     0.129 C 
HETATM   31  C17 UNL     1      11.854  19.851  16.700  1.00  0.00     0.221 C 
HETATM   32  O1  UNL     1      12.896  19.469  17.287  1.00  0.00    -0.273 OA
HETATM   33  C22 UNL     1      13.677  19.630  13.760  1.00  0.00     0.019 C 
HETATM   34  C23 UNL     1      14.105  21.852  12.916  1.00  0.00     0.019 C 
HETATM   35  C24 UNL     1      15.191  21.105  14.988  1.00  0.00     0.133 C 
BRANCH  31  36
HETATM   36  C18 UNL     1      10.583  19.235  17.147  1.00  0.00     0.113 C 
BRANCH  36  37
HETATM   37  C19 UNL     1      10.579  17.752  17.178  1.00  0.00     0.122 C 
BRANCH  37  38
HETATM   38  C20 UNL     1      10.724  17.271  18.562  1.00  0.00     0.172 C 
HETATM   39  O2  UNL     1      10.972  16.075  18.790  1.00  0.00    -0.648 OA
HETATM   40  O3  UNL     1      10.577  18.183  19.584  1.00  0.00    -0.648 OA
ENDBRANCH  37  38
ENDBRANCH  36  37
ENDBRANCH  31  36
ENDBRANCH  22  23
ENDBRANCH  21  22
ENDBRANCH   1  21
BRANCH   4  41
HETATM   41  C26 UNL     1      18.353  22.393  18.444  1.00  0.00     0.217 C 
HETATM   42  O5  UNL     1      18.574  23.520  18.915  1.00  0.00    -0.287 OA
BRANCH  41  43
HETATM   43  C27 UNL     1      17.828  21.306  19.271  1.00  0.00     0.093 C 
BRANCH  43  44
HETATM   44  C28 UNL     1      16.362  21.222  19.451  1.00  0.00    -0.007 C 
HETATM   45  C29 UNL     1      15.874  20.945  20.873  1.00  0.00     0.005 C 
HETATM   46  C30 UNL     1      14.726  20.184  20.237  1.00  0.00     0.001 C 
HETATM   47  C31 UNL     1      15.588  20.055  18.977  1.00  0.00     0.005 C 
ENDBRANCH  43  44
ENDBRANCH  41  43
ENDBRANCH   4  41
TORSDOF 15
ENDMDL
MODEL 3
REMARK VINA RESULT: -9.006074237      1.884      2.553
REMARK  15 active torsions:
REMARK  status: ('A' for Active; 'I' for Inactive)
REMARK    1  A    between atoms: C2_2  and  C3_3 
REMARK    2  A    between atoms: C3_3  and  C4_4 
REMARK    3  A    between atoms: C4_4  and  N1_5 
REMARK    4  A    between atoms: N1_5  and  C5_7 
REMARK    5  A    between atoms: N2_10  and  C8_11 
REMARK    6  A    between atoms: C8_11  and  C9_12 
REMARK    7  A    between atoms: C9_12  and  C10_13 
REMARK    8  A    between atoms: C10_13  and  C11_14 
REMARK    9  A    between atoms: C11_14  and  N3_15 
REMARK       I    between atoms: N4_21  and  C17_22 
REMARK   10  A    between atoms: C17_22  and  C18_24 
REMARK   11  A    between atoms: C18_24  and  C19_25 
REMARK   12  A    between atoms: C19_25  and  C20_26 
REMARK       I    between atoms: N5_33  and  C25_35 
REMARK   13  A    between atoms: C25_35  and  C26_37 
REMARK   14  A    between atoms: C26_37  and  C27_39 
REMARK   15  A    between atoms: C27_39  and  C28_40 
ROOT
HETATM    1  C9  UNL     1      17.657  23.719  17.265  1.00  0.00     0.013 C 
HETATM    2  N5  UNL     1      17.854  23.310  18.447  1.00  0.00    -0.326 N 
ATOM      3  H5  UNL     1      17.828  24.008  19.190  1.00  0.00     0.168 HD
HETATM    4  C25 UNL     1      18.109  21.968  18.831  1.00  0.00     0.291 C 
HETATM    5  O4  UNL     1      19.264  21.642  19.161  1.00  0.00    -0.264 OA
ENDROOT
BRANCH   1   6
HETATM    6  C8  UNL     1      17.395  25.158  17.012  1.00  0.00     0.186 C 
BRANCH   6   7
HETATM    7  N2  UNL     1      18.525  25.819  16.433  1.00  0.00    -0.304 N 
HETATM    8  C7  UNL     1      19.628  26.062  17.157  1.00  0.00     0.100 A 
HETATM    9  C6  UNL     1      20.753  26.690  16.642  1.00  0.00     0.065 A 
HETATM   10  C5  UNL     1      20.728  27.079  15.326  1.00  0.00     0.106 A 
HETATM   11  N6  UNL     1      19.601  26.830  14.595  1.00  0.00    -0.294 N 
HETATM   12  C32 UNL     1      18.535  26.213  15.158  1.00  0.00     0.328 A 
ATOM     13  H6  UNL     1      19.562  27.111  13.615  1.00  0.00     0.172 HD
HETATM   14  O6  UNL     1      17.534  26.019  14.421  1.00  0.00    -0.246 OA
BRANCH  10  15
HETATM   15  N1  UNL     1      21.704  27.663  14.736  1.00  0.00    -0.376 N 
ATOM     16  H1  UNL     1      21.934  27.381  13.783  1.00  0.00     0.161 HD
BRANCH  15  17
HETATM   17  C4  UNL     1      22.491  28.694  15.352  1.00  0.00     0.121 C 
BRANCH  17  18
HETATM   18  C3  UNL     1      23.967  28.419  15.121  1.00  0.00     0.019 C 
BRANCH  18  19
HETATM   19  C2  UNL     1      24.401  27.109  15.695  1.00  0.00    -0.003 C 
HETATM   20  C1  UNL     1      25.877  26.871  15.663  1.00  0.00     0.005 C 
ENDBRANCH  18  19
ENDBRANCH  17  18
ENDBRANCH  15  17
ENDBRANCH  10  15
ENDBRANCH   6   7
ENDBRANCH   1   6
BRANCH   1  21
HETATM   21  C10 UNL     1      17.728  22.807  16.101  1.00  0.00     0.098 C 
BRANCH  21  22
HETATM   22  C11 UNL     1      16.418  22.927  15.356  1.00  0.00     0.064 C 
BRANCH  22  23
HETATM   23  N3  UNL     1      15.484  21.994  15.846  1.00  0.00    -0.392 N 
HETATM   24  C12 UNL     1      14.333  22.501  16.523  1.00  0.00     0.124 C 
HETATM   25  C13 UNL     1      13.284  22.900  15.536  1.00  0.00     0.052 C 
HETATM   26  C14 UNL     1      12.879  21.667  14.746  1.00  0.00     0.046 C 
HETATM   27  C15 UNL     1      11.922  22.103  13.650  1.00  0.00     0.052 C 
HETATM   28  N4  UNL     1      11.836  20.895  15.330  1.00  0.00    -0.342 N 
HETATM   29  C21 UNL     1      14.045  20.987  14.125  1.00  0.00    -0.006 C 
HETATM   30  C16 UNL     1      10.844  21.619  14.540  1.00  0.00     0.129 C 
HETATM   31  C17 UNL     1      11.634  19.848  16.294  1.00  0.00     0.221 C 
HETATM   32  O1  UNL     1      12.565  19.314  16.944  1.00  0.00    -0.273 OA
HETATM   33  C22 UNL     1      13.720  19.644  13.533  1.00  0.00     0.019 C 
HETATM   34  C23 UNL     1      14.455  21.862  12.921  1.00  0.00     0.019 C 
HETATM   35  C24 UNL     1      15.239  20.855  15.019  1.00  0.00     0.133 C 
BRANCH  31  36
HETATM   36  C18 UNL     1      10.267  19.342  16.565  1.00  0.00     0.113 C 
BRANCH  36  37
HETATM   37  C19 UNL     1      10.081  17.887  16.347  1.00  0.00     0.122 C 
BRANCH  37  38
HETATM   38  C20 UNL     1      10.273  17.555  14.926  1.00  0.00     0.172 C 
HETATM   39  O2  UNL     1      11.047  16.643  14.592  1.00  0.00    -0.648 OA
HETATM   40  O3  UNL     1       9.573  18.284  13.990  1.00  0.00    -0.648 OA
ENDBRANCH  37  38
ENDBRANCH  36  37
ENDBRANCH  31  36
ENDBRANCH  22  23
ENDBRANCH  21  22
ENDBRANCH   1  21
BRANCH   4  41
HETATM   41  C26 UNL     1      17.023  21.012  18.831  1.00  0.00     0.217 C 
HETATM   42  O5  UNL     1      17.026  20.081  18.009  1.00  0.00    -0.287 OA
BRANCH  41  43
HETATM   43  C27 UNL     1      15.944  21.169  19.807  1.00  0.00     0.093 C 
BRANCH  43  44
HETATM   44  C28 UNL     1      15.270  19.947  20.295  1.00  0.00    -0.007 C 
HETATM   45  C29 UNL     1      13.848  19.714  19.785  1.00  0.00     0.005 C 
HETATM   46  C30 UNL     1      13.564  19.072  21.130  1.00  0.00     0.001 C 
HETATM   47  C31 UNL     1      14.771  19.837  21.682  1.00  0.00     0.005 C 
ENDBRANCH  43  44
ENDBRANCH  41  43
ENDBRANCH   4  41
TORSDOF 15
ENDMDL
MODEL 4
REMARK VINA RESULT: -8.979201136      2.321      6.823
REMARK  15 active torsions:
REMARK  status: ('A' for Active; 'I' for Inactive)
REMARK    1  A    between atoms: C2_2  and  C3_3 
REMARK    2  A    between atoms: C3_3  and  C4_4 
REMARK    3  A    between atoms: C4_4  and  N1_5 
REMARK    4  A    between atoms: N1_5  and  C5_7 
REMARK    5  A    between atoms: N2_10  and  C8_11 
REMARK    6  A    between atoms: C8_11  and  C9_12 
REMARK    7  A    between atoms: C9_12  and  C10_13 
REMARK    8  A    between atoms: C10_13  and  C11_14 
REMARK    9  A    between atoms: C11_14  and  N3_15 
REMARK       I    between atoms: N4_21  and  C17_22 
REMARK   10  A    between atoms: C17_22  and  C18_24 
REMARK   11  A    between atoms: C18_24  and  C19_25 
REMARK   12  A    between atoms: C19_25  and  C20_26 
REMARK       I    between atoms: N5_33  and  C25_35 
REMARK   13  A    between atoms: C25_35  and  C26_37 
REMARK   14  A    between atoms: C26_37  and  C27_39 
REMARK   15  A    between atoms: C27_39  and  C28_40 
ROOT
HETATM    1  C9  UNL     1      18.447  23.071  17.055  1.00  0.00     0.013 C 
HETATM    2  N5  UNL     1      18.655  24.296  17.298  1.00  0.00    -0.326 N 
ATOM      3  H5  UNL     1      19.007  24.532  18.227  1.00  0.00     0.168 HD
HETATM    4  C25 UNL     1      18.445  25.371  16.397  1.00  0.00     0.291 C 
HETATM    5  O4  UNL     1      17.463  26.118  16.565  1.00  0.00    -0.264 OA
ENDROOT
BRANCH   1   6
HETATM    6  C8  UNL     1      18.721  22.051  18.098  1.00  0.00     0.186 C 
BRANCH   6   7
HETATM    7  N2  UNL     1      17.519  21.551  18.693  1.00  0.00    -0.304 N 
HETATM    8  C7  UNL     1      16.997  20.375  18.311  1.00  0.00     0.100 A 
HETATM    9  C6  UNL     1      15.841  19.842  18.863  1.00  0.00     0.065 A 
HETATM   10  C5  UNL     1      15.206  20.559  19.847  1.00  0.00     0.106 A 
HETATM   11  N6  UNL     1      15.743  21.754  20.230  1.00  0.00    -0.294 N 
HETATM   12  C32 UNL     1      16.875  22.220  19.651  1.00  0.00     0.328 A 
ATOM     13  H6  UNL     1      15.287  22.302  20.960  1.00  0.00     0.172 HD
HETATM   14  O6  UNL     1      17.308  23.329  20.057  1.00  0.00    -0.246 OA
BRANCH  10  15
HETATM   15  N1  UNL     1      14.136  20.169  20.434  1.00  0.00    -0.376 N 
ATOM     16  H1  UNL     1      13.470  20.875  20.748  1.00  0.00     0.161 HD
BRANCH  15  17
HETATM   17  C4  UNL     1      13.828  18.787  20.672  1.00  0.00     0.121 C 
BRANCH  17  18
HETATM   18  C3  UNL     1      12.334  18.561  20.520  1.00  0.00     0.019 C 
BRANCH  18  19
HETATM   19  C2  UNL     1      11.978  17.110  20.470  1.00  0.00    -0.003 C 
HETATM   20  C1  UNL     1      11.678  16.587  19.102  1.00  0.00     0.005 C 
ENDBRANCH  18  19
ENDBRANCH  17  18
ENDBRANCH  15  17
ENDBRANCH  10  15
ENDBRANCH   6   7
ENDBRANCH   1   6
BRANCH   1  21
HETATM   21  C10 UNL     1      17.885  22.617  15.763  1.00  0.00     0.098 C 
BRANCH  21  22
HETATM   22  C11 UNL     1      16.480  23.166  15.667  1.00  0.00     0.064 C 
BRANCH  22  23
HETATM   23  N3  UNL     1      15.545  22.212  16.112  1.00  0.00    -0.392 N 
HETATM   24  C12 UNL     1      14.340  22.692  16.711  1.00  0.00     0.124 C 
HETATM   25  C13 UNL     1      13.342  23.047  15.656  1.00  0.00     0.052 C 
HETATM   26  C14 UNL     1      13.023  21.792  14.860  1.00  0.00     0.046 C 
HETATM   27  C15 UNL     1      12.123  22.186  13.702  1.00  0.00     0.052 C 
HETATM   28  N4  UNL     1      11.969  20.996  15.390  1.00  0.00    -0.342 N 
HETATM   29  C21 UNL     1      14.245  21.140  14.321  1.00  0.00    -0.006 C 
HETATM   30  C16 UNL     1      11.007  21.680  14.531  1.00  0.00     0.129 C 
HETATM   31  C17 UNL     1      11.739  19.956  16.354  1.00  0.00     0.221 C 
HETATM   32  O1  UNL     1      12.644  19.458  17.067  1.00  0.00    -0.273 OA
HETATM   33  C22 UNL     1      13.997  19.781  13.729  1.00  0.00     0.019 C 
HETATM   34  C23 UNL     1      14.701  22.013  13.132  1.00  0.00     0.019 C 
HETATM   35  C24 UNL     1      15.385  21.055  15.288  1.00  0.00     0.133 C 
BRANCH  31  36
HETATM   36  C18 UNL     1      10.375  19.412  16.548  1.00  0.00     0.113 C 
BRANCH  36  37
HETATM   37  C19 UNL     1      10.186  18.010  16.102  1.00  0.00     0.122 C 
BRANCH  37  38
HETATM   38  C20 UNL     1      10.358  17.913  14.643  1.00  0.00     0.172 C 
HETATM   39  O2  UNL     1      11.259  17.207  14.161  1.00  0.00    -0.648 OA
HETATM   40  O3  UNL     1       9.493  18.623  13.840  1.00  0.00    -0.648 OA
ENDBRANCH  37  38
ENDBRANCH  36  37
ENDBRANCH  31  36
ENDBRANCH  22  23
ENDBRANCH  21  22
ENDBRANCH   1  21
BRANCH   4  41
HETATM   41  C26 UNL     1      19.373  25.574  15.306  1.00  0.00     0.217 C 
HETATM   42  O5  UNL     1      20.270  24.741  15.100  1.00  0.00    -0.287 OA
BRANCH  41  43
HETATM   43  C27 UNL     1      19.226  26.765  14.467  1.00  0.00     0.093 C 
BRANCH  43  44
HETATM   44  C28 UNL     1      20.180  27.876  14.674  1.00  0.00    -0.007 C 
HETATM   45  C29 UNL     1      21.439  27.852  13.807  1.00  0.00     0.005 C 
HETATM   46  C30 UNL     1      22.156  28.486  14.984  1.00  0.00     0.001 C 
HETATM   47  C31 UNL     1      21.034  27.952  15.879  1.00  0.00     0.005 C 
ENDBRANCH  43  44
ENDBRANCH  41  43
ENDBRANCH   4  41
TORSDOF 15
ENDMDL
MODEL 5
REMARK VINA RESULT: -8.973474450      1.192      1.950
REMARK  15 active torsions:
REMARK  status: ('A' for Active; 'I' for Inactive)
REMARK    1  A    between atoms: C2_2  and  C3_3 
REMARK    2  A    between atoms: C3_3  and  C4_4 
REMARK    3  A    between atoms: C4_4  and  N1_5 
REMARK    4  A    between atoms: N1_5  and  C5_7 
REMARK    5  A    between atoms: N2_10  and  C8_11 
REMARK    6  A    between atoms: C8_11  and  C9_12 
REMARK    7  A    between atoms: C9_12  and  C10_13 
REMARK    8  A    between atoms: C10_13  and  C11_14 
REMARK    9  A    between atoms: C11_14  and  N3_15 
REMARK       I    between atoms: N4_21  and  C17_22 
REMARK   10  A    between atoms: C17_22  and  C18_24 
REMARK   11  A    between atoms: C18_24  and  C19_25 
REMARK   12  A    between atoms: C19_25  and  C20_26 
REMARK       I    between atoms: N5_33  and  C25_35 
REMARK   13  A    between atoms: C25_35  and  C26_37 
REMARK   14  A    between atoms: C26_37  and  C27_39 
REMARK   15  A    between atoms: C27_39  and  C28_40 
ROOT
HETATM    1  C9  UNL     1      18.288  24.135  15.717  1.00  0.00     0.013 C 
HETATM    2  N5  UNL     1      18.973  23.173  16.174  1.00  0.00    -0.326 N 
ATOM      3  H5  UNL     1      19.970  23.169  15.957  1.00  0.00     0.168 HD
HETATM    4  C25 UNL     1      18.480  22.099  16.960  1.00  0.00     0.291 C 
HETATM    5  O4  UNL     1      18.349  20.977  16.437  1.00  0.00    -0.264 OA
ENDROOT
BRANCH   1   6
HETATM    6  C8  UNL     1      18.943  25.196  14.912  1.00  0.00     0.186 C 
BRANCH   6   7
HETATM    7  N2  UNL     1      20.018  25.824  15.620  1.00  0.00    -0.304 N 
HETATM    8  C7  UNL     1      19.784  26.565  16.714  1.00  0.00     0.100 A 
HETATM    9  C6  UNL     1      20.790  27.186  17.440  1.00  0.00     0.065 A 
HETATM   10  C5  UNL     1      22.085  27.029  17.013  1.00  0.00     0.106 A 
HETATM   11  N6  UNL     1      22.315  26.273  15.899  1.00  0.00    -0.294 N 
HETATM   12  C32 UNL     1      21.288  25.694  15.233  1.00  0.00     0.328 A 
ATOM     13  H6  UNL     1      23.270  26.144  15.565  1.00  0.00     0.172 HD
HETATM   14  O6  UNL     1      21.580  25.013  14.216  1.00  0.00    -0.246 OA
BRANCH  10  15
HETATM   15  N1  UNL     1      23.097  27.548  17.602  1.00  0.00    -0.376 N 
ATOM     16  H1  UNL     1      23.024  28.509  17.938  1.00  0.00     0.161 HD
BRANCH  15  17
HETATM   17  C4  UNL     1      24.330  26.844  17.812  1.00  0.00     0.121 C 
BRANCH  17  18
HETATM   18  C3  UNL     1      24.287  26.121  19.147  1.00  0.00     0.019 C 
BRANCH  18  19
HETATM   19  C2  UNL     1      25.053  24.838  19.127  1.00  0.00    -0.003 C 
HETATM   20  C1  UNL     1      24.722  23.895  20.240  1.00  0.00     0.005 C 
ENDBRANCH  18  19
ENDBRANCH  17  18
ENDBRANCH  15  17
ENDBRANCH  10  15
ENDBRANCH   6   7
ENDBRANCH   1   6
BRANCH   1  21
HETATM   21  C10 UNL     1      16.824  24.215  15.921  1.00  0.00     0.098 C 
BRANCH  21  22
HETATM   22  C11 UNL     1      16.181  23.260  14.940  1.00  0.00     0.064 C 
BRANCH  22  23
HETATM   23  N3  UNL     1      15.406  22.301  15.621  1.00  0.00    -0.392 N 
HETATM   24  C12 UNL     1      14.297  22.768  16.391  1.00  0.00     0.124 C 
HETATM   25  C13 UNL     1      13.106  22.977  15.511  1.00  0.00     0.052 C 
HETATM   26  C14 UNL     1      12.737  21.642  14.886  1.00  0.00     0.046 C 
HETATM   27  C15 UNL     1      11.621  21.885  13.885  1.00  0.00     0.052 C 
HETATM   28  N4  UNL     1      11.849  20.842  15.660  1.00  0.00    -0.342 N 
HETATM   29  C21 UNL     1      13.884  21.010  14.185  1.00  0.00    -0.006 C 
HETATM   30  C16 UNL     1      10.705  21.396  14.940  1.00  0.00     0.129 C 
HETATM   31  C17 UNL     1      11.864  19.880  16.727  1.00  0.00     0.221 C 
HETATM   32  O1  UNL     1      12.913  19.495  17.299  1.00  0.00    -0.273 OA
HETATM   33  C22 UNL     1      13.626  19.593  13.756  1.00  0.00     0.019 C 
HETATM   34  C23 UNL     1      14.063  21.797  12.870  1.00  0.00     0.019 C 
HETATM   35  C24 UNL     1      15.181  21.070  14.932  1.00  0.00     0.133 C 
BRANCH  31  36
HETATM   36  C18 UNL     1      10.595  19.285  17.208  1.00  0.00     0.113 C 
BRANCH  36  37
HETATM   37  C19 UNL     1      10.593  17.805  17.311  1.00  0.00     0.122 C 
BRANCH  37  38
HETATM   38  C20 UNL     1      10.819  17.391  18.706  1.00  0.00     0.172 C 
HETATM   39  O2  UNL     1      10.579  18.173  19.641  1.00  0.00    -0.648 OA
HETATM   40  O3  UNL     1      11.299  16.120  18.935  1.00  0.00    -0.648 OA
ENDBRANCH  37  38
ENDBRANCH  36  37
ENDBRANCH  31  36
ENDBRANCH  22  23
ENDBRANCH  21  22
ENDBRANCH   1  21
BRANCH   4  41
HETATM   41  C26 UNL     1      18.141  22.333  18.347  1.00  0.00     0.217 C 
HETATM   42  O5  UNL     1      16.949  22.353  18.693  1.00  0.00    -0.287 OA
BRANCH  41  43
HETATM   43  C27 UNL     1      19.223  22.539  19.312  1.00  0.00     0.093 C 
BRANCH  43  44
HETATM   44  C28 UNL     1      19.656  23.928  19.577  1.00  0.00    -0.007 C 
HETATM   45  C29 UNL     1      21.161  24.187  19.514  1.00  0.00     0.005 C 
HETATM   46  C30 UNL     1      20.941  25.224  20.598  1.00  0.00     0.001 C 
HETATM   47  C31 UNL     1      19.633  24.501  20.939  1.00  0.00     0.005 C 
ENDBRANCH  43  44
ENDBRANCH  41  43
ENDBRANCH   4  41
TORSDOF 15
ENDMDL
