MODEL 1
REMARK VINA RESULT: -8.595896825      0.000      0.000
REMARK  4 active torsions:
REMARK  status: ('A' for Active; 'I' for Inactive)
REMARK    1  A    between atoms: C2_2  and  C3_3 
REMARK    2  A    between atoms: C6_6  and  C7_7 
REMARK    3  A    between atoms: C13_16  and  C14_17 
REMARK    4  A    between atoms: N1_18  and  O3_20 
ROOT
HETATM    1  C3  UNL     1       7.971   9.407  42.915  1.00  0.00     0.176 C 
HETATM    2  C4  UNL     1       7.146  10.511  42.301  1.00  0.00     0.072 C 
HETATM    3  C5  UNL     1       7.093  11.748  43.214  1.00  0.00     0.045 C 
HETATM    4  C6  UNL     1       5.611  11.842  43.583  1.00  0.00     0.196 C 
HETATM    5  O1  UNL     1       5.516  10.505  44.262  1.00  0.00    -0.225 OA
HETATM    6  O2  UNL     1       6.588  10.353  44.992  1.00  0.00    -0.165 OA
HETATM    7  C13 UNL     1       7.430   9.338  44.744  1.00  0.00     0.353 C 
HETATM    8  O4  UNL     1       7.171   8.575  43.649  1.00  0.00    -0.289 OA
HETATM    9  O5  UNL     1       8.592   9.885  44.090  1.00  0.00    -0.289 OA
ENDROOT
BRANCH   4  10
HETATM   10  C7  UNL     1       5.217  12.839  44.502  1.00  0.00     0.012 A 
HETATM   11  C8  UNL     1       5.578  13.015  45.828  1.00  0.00     0.013 A 
HETATM   12  C9  UNL     1       5.020  13.943  46.677  1.00  0.00     0.001 A 
HETATM   13  C10 UNL     1       4.020  14.781  46.201  1.00  0.00     0.003 A 
HETATM   14  C11 UNL     1       3.623  14.657  44.909  1.00  0.00     0.043 A 
HETATM   15  C12 UNL     1       4.182  13.732  44.083  1.00  0.00     0.125 A 
HETATM   16  F1  UNL     1       3.760  13.680  42.817  1.00  0.00    -0.205 F 
ENDBRANCH   4  10
BRANCH   1  17
HETATM   17  C2  UNL     1       8.955   8.762  41.991  1.00  0.00     0.064 C 
HETATM   18  C1  UNL     1      10.002   9.691  41.489  1.00  0.00     0.010 C 
ENDBRANCH   1  17
BRANCH   7  19
HETATM   19  C14 UNL     1       7.912   8.545  45.947  1.00  0.00     0.190 C 
HETATM   20  N1  UNL     1       8.722   7.611  45.721  1.00  0.00    -0.276 N 
ATOM     21  H1  UNL     1       8.982   7.471  44.744  1.00  0.00     0.193 HD
BRANCH  20  22
HETATM   22  O3  UNL     1       9.299   6.756  46.627  1.00  0.00    -0.290 OA
ATOM     23  H3  UNL     1       9.476   5.829  46.524  1.00  0.00     0.244 HD
ENDBRANCH  20  22
ENDBRANCH   7  19
TORSDOF 4
ENDMDL
MODEL 2
REMARK VINA RESULT: -8.414698796      1.651      1.874
REMARK  4 active torsions:
REMARK  status: ('A' for Active; 'I' for Inactive)
REMARK    1  A    between atoms: C2_2  and  C3_3 
REMARK    2  A    between atoms: C6_6  and  C7_7 
REMARK    3  A    between atoms: C13_16  and  C14_17 
REMARK    4  A    between atoms: N1_18  and  O3_20 
ROOT
HETATM    1  C3  UNL     1       8.881   8.690  42.721  1.00  0.00     0.176 C 
HETATM    2  C4  UNL     1       8.721  10.122  42.271  1.00  0.00     0.072 C 
HETATM    3  C5  UNL     1       8.372  11.045  43.451  1.00  0.00     0.045 C 
HETATM    4  C6  UNL     1       6.970  11.545  43.095  1.00  0.00     0.196 C 
HETATM    5  O1  UNL     1       6.304  10.199  43.081  1.00  0.00    -0.225 OA
HETATM    6  O2  UNL     1       6.754   9.521  44.102  1.00  0.00    -0.165 OA
HETATM    7  C13 UNL     1       7.419   8.372  43.905  1.00  0.00     0.353 C 
HETATM    8  O4  UNL     1       7.689   8.028  42.617  1.00  0.00    -0.289 OA
HETATM    9  O5  UNL     1       8.818   8.632  44.130  1.00  0.00    -0.289 OA
ENDROOT
BRANCH   4  10
HETATM   10  C7  UNL     1       6.299  12.365  44.030  1.00  0.00     0.012 A 
HETATM   11  C8  UNL     1       6.636  12.676  45.337  1.00  0.00     0.013 A 
HETATM   12  C9  UNL     1       5.833  13.374  46.210  1.00  0.00     0.001 A 
HETATM   13  C10 UNL     1       4.588  13.814  45.779  1.00  0.00     0.003 A 
HETATM   14  C11 UNL     1       4.201  13.539  44.508  1.00  0.00     0.043 A 
HETATM   15  C12 UNL     1       5.006  12.845  43.658  1.00  0.00     0.125 A 
HETATM   16  F1  UNL     1       4.572  12.631  42.413  1.00  0.00    -0.205 F 
ENDBRANCH   4  10
BRANCH   1  17
HETATM   17  C2  UNL     1      10.093   7.992  42.190  1.00  0.00     0.064 C 
HETATM   18  C1  UNL     1      10.591   6.904  43.074  1.00  0.00     0.010 C 
ENDBRANCH   1  17
BRANCH   7  19
HETATM   19  C14 UNL     1       7.023   7.198  44.784  1.00  0.00     0.190 C 
HETATM   20  N1  UNL     1       5.899   6.681  44.566  1.00  0.00    -0.276 N 
ATOM     21  H1  UNL     1       5.352   7.101  43.814  1.00  0.00     0.193 HD
BRANCH  20  22
HETATM   22  O3  UNL     1       5.316   5.621  45.216  1.00  0.00    -0.290 OA
ATOM     23  H3  UNL     1       4.489   5.606  45.683  1.00  0.00     0.244 HD
ENDBRANCH  20  22
ENDBRANCH   7  19
TORSDOF 4
ENDMDL
MODEL 3
REMARK VINA RESULT: -8.339598717      1.919      2.892
REMARK  4 active torsions:
REMARK  status: ('A' for Active; 'I' for Inactive)
REMARK    1  A    between atoms: C2_2  and  C3_3 
REMARK    2  A    between atoms: C6_6  and  C7_7 
REMARK    3  A    between atoms: C13_16  and  C14_17 
REMARK    4  A    between atoms: N1_18  and  O3_20 
ROOT
HETATM    1  C3  UNL     1       9.747   7.594  41.595  1.00  0.00     0.176 C 
HETATM    2  C4  UNL     1       9.195   8.852  40.970  1.00  0.00     0.072 C 
HETATM    3  C5  UNL     1       9.093   9.992  41.999  1.00  0.00     0.045 C 
HETATM    4  C6  UNL     1       7.586  10.247  42.083  1.00  0.00     0.196 C 
HETATM    5  O1  UNL     1       7.204   8.876  42.564  1.00  0.00    -0.225 OA
HETATM    6  O2  UNL     1       8.078   8.513  43.464  1.00  0.00    -0.165 OA
HETATM    7  C13 UNL     1       8.835   7.423  43.262  1.00  0.00     0.353 C 
HETATM    8  O4  UNL     1       8.725   6.810  42.053  1.00  0.00    -0.289 OA
HETATM    9  O5  UNL     1      10.161   7.871  42.916  1.00  0.00    -0.289 OA
ENDROOT
BRANCH   4  10
HETATM   10  C7  UNL     1       7.124  11.195  43.023  1.00  0.00     0.012 A 
HETATM   11  C8  UNL     1       7.830  11.931  43.960  1.00  0.00     0.013 A 
HETATM   12  C9  UNL     1       7.260  12.725  44.928  1.00  0.00     0.001 A 
HETATM   13  C10 UNL     1       5.876  12.818  44.996  1.00  0.00     0.003 A 
HETATM   14  C11 UNL     1       5.128  12.120  44.105  1.00  0.00     0.043 A 
HETATM   15  C12 UNL     1       5.708  11.336  43.155  1.00  0.00     0.125 A 
HETATM   16  F1  UNL     1       4.913  10.695  42.295  1.00  0.00    -0.205 F 
ENDBRANCH   4  10
BRANCH   1  17
HETATM   17  C2  UNL     1      10.823   6.915  40.807  1.00  0.00     0.064 C 
HETATM   18  C1  UNL     1      10.682   5.435  40.756  1.00  0.00     0.010 C 
ENDBRANCH   1  17
BRANCH   7  19
HETATM   19  C14 UNL     1       8.967   6.461  44.431  1.00  0.00     0.190 C 
HETATM   20  N1  UNL     1       9.161   6.970  45.563  1.00  0.00    -0.276 N 
ATOM     21  H1  UNL     1       9.213   7.988  45.593  1.00  0.00     0.193 HD
BRANCH  20  22
HETATM   22  O3  UNL     1       9.311   6.323  46.765  1.00  0.00    -0.290 OA
ATOM     23  H3  UNL     1       8.685   5.764  47.209  1.00  0.00     0.244 HD
ENDBRANCH  20  22
ENDBRANCH   7  19
TORSDOF 4
ENDMDL
MODEL 4
REMARK VINA RESULT: -8.201447757      1.083      1.266
REMARK  4 active torsions:
REMARK  status: ('A' for Active; 'I' for Inactive)
REMARK    1  A    between atoms: C2_2  and  C3_3 
REMARK    2  A    between atoms: C6_6  and  C7_7 
REMARK    3  A    between atoms: C13_16  and  C14_17 
REMARK    4  A    between atoms: N1_18  and  O3_20 
ROOT
HETATM    1  C3  UNL     1       7.824   8.487  42.506  1.00  0.00     0.176 C 
HETATM    2  C4  UNL     1       6.930   9.397  41.698  1.00  0.00     0.072 C 
HETATM    3  C5  UNL     1       6.839  10.798  42.327  1.00  0.00     0.045 C 
HETATM    4  C6  UNL     1       5.363  10.905  42.718  1.00  0.00     0.196 C 
HETATM    5  O1  UNL     1       5.350   9.743  43.669  1.00  0.00    -0.225 OA
HETATM    6  O2  UNL     1       6.445   9.797  44.378  1.00  0.00    -0.165 OA
HETATM    7  C13 UNL     1       7.330   8.790  44.325  1.00  0.00     0.353 C 
HETATM    8  O4  UNL     1       7.083   7.799  43.427  1.00  0.00    -0.289 OA
HETATM    9  O5  UNL     1       8.448   9.233  43.530  1.00  0.00    -0.289 OA
ENDROOT
BRANCH   4  10
HETATM   10  C7  UNL     1       4.942  12.059  43.415  1.00  0.00     0.012 A 
HETATM   11  C8  UNL     1       4.753  12.254  44.773  1.00  0.00     0.013 A 
HETATM   12  C9  UNL     1       4.200  13.381  45.336  1.00  0.00     0.001 A 
HETATM   13  C10 UNL     1       3.792  14.419  44.508  1.00  0.00     0.003 A 
HETATM   14  C11 UNL     1       3.952  14.288  43.167  1.00  0.00     0.043 A 
HETATM   15  C12 UNL     1       4.498  13.165  42.626  1.00  0.00     0.125 A 
HETATM   16  F1  UNL     1       4.646  13.112  41.300  1.00  0.00    -0.205 F 
ENDBRANCH   4  10
BRANCH   1  17
HETATM   17  C2  UNL     1       8.815   7.701  41.708  1.00  0.00     0.064 C 
HETATM   18  C1  UNL     1      10.231   8.003  42.050  1.00  0.00     0.010 C 
ENDBRANCH   1  17
BRANCH   7  19
HETATM   19  C14 UNL     1       7.879   8.296  45.652  1.00  0.00     0.190 C 
HETATM   20  N1  UNL     1       8.716   7.359  45.604  1.00  0.00    -0.276 N 
ATOM     21  H1  UNL     1       8.949   7.015  44.673  1.00  0.00     0.193 HD
BRANCH  20  22
HETATM   22  O3  UNL     1       9.353   6.742  46.652  1.00  0.00    -0.290 OA
ATOM     23  H3  UNL     1      10.269   6.503  46.719  1.00  0.00     0.244 HD
ENDBRANCH  20  22
ENDBRANCH   7  19
TORSDOF 4
ENDMDL
MODEL 5
REMARK VINA RESULT: -8.197894006      2.460      3.465
REMARK  4 active torsions:
REMARK  status: ('A' for Active; 'I' for Inactive)
REMARK    1  A    between atoms: C2_2  and  C3_3 
REMARK    2  A    between atoms: C6_6  and  C7_7 
REMARK    3  A    between atoms: C13_16  and  C14_17 
REMARK    4  A    between atoms: N1_18  and  O3_20 
ROOT
HETATM    1  C3  UNL     1       7.474   9.752  44.237  1.00  0.00     0.176 C 
HETATM    2  C4  UNL     1       6.211   9.909  45.048  1.00  0.00     0.072 C 
HETATM    3  C5  UNL     1       5.347  11.069  44.522  1.00  0.00     0.045 C 
HETATM    4  C6  UNL     1       5.348  12.057  45.690  1.00  0.00     0.196 C 
HETATM    5  O1  UNL     1       6.832  12.289  45.720  1.00  0.00    -0.225 OA
HETATM    6  O2  UNL     1       7.242  12.399  44.485  1.00  0.00    -0.165 OA
HETATM    7  C13 UNL     1       8.136  11.526  43.994  1.00  0.00     0.353 C 
HETATM    8  O4  UNL     1       8.485  10.484  44.796  1.00  0.00    -0.289 OA
HETATM    9  O5  UNL     1       7.428  10.621  43.125  1.00  0.00    -0.289 OA
ENDROOT
BRANCH   4  10
HETATM   10  C7  UNL     1       4.705  13.302  45.509  1.00  0.00     0.012 A 
HETATM   11  C8  UNL     1       3.938  13.757  44.449  1.00  0.00     0.013 A 
HETATM   12  C9  UNL     1       3.475  15.045  44.309  1.00  0.00     0.001 A 
HETATM   13  C10 UNL     1       3.781  15.982  45.287  1.00  0.00     0.003 A 
HETATM   14  C11 UNL     1       4.530  15.597  46.352  1.00  0.00     0.043 A 
HETATM   15  C12 UNL     1       4.983  14.319  46.473  1.00  0.00     0.125 A 
HETATM   16  F1  UNL     1       5.695  14.003  47.558  1.00  0.00    -0.205 F 
ENDBRANCH   4  10
BRANCH   1  17
HETATM   17  C2  UNL     1       7.797   8.348  43.833  1.00  0.00     0.064 C 
HETATM   18  C1  UNL     1       6.617   7.441  43.830  1.00  0.00     0.010 C 
ENDBRANCH   1  17
BRANCH   7  19
HETATM   19  C14 UNL     1       9.294  12.109  43.204  1.00  0.00     0.190 C 
HETATM   20  N1  UNL     1       9.862  13.117  43.694  1.00  0.00    -0.276 N 
ATOM     21  H1  UNL     1       9.490  13.452  44.584  1.00  0.00     0.193 HD
BRANCH  20  22
HETATM   22  O3  UNL     1      10.922  13.823  43.180  1.00  0.00    -0.290 OA
ATOM     23  H3  UNL     1      11.283  14.644  43.493  1.00  0.00     0.244 HD
ENDBRANCH  20  22
ENDBRANCH   7  19
TORSDOF 4
ENDMDL
