MODEL 1
REMARK VINA RESULT: -7.592463055      0.000      0.000
REMARK  5 active torsions:
REMARK  status: ('A' for Active; 'I' for Inactive)
REMARK       I    between atoms: C1_2  and  N1_3 
REMARK    1  A    between atoms: C1_2  and  O4_15 
REMARK    2  A    between atoms: N1_3  and  C2_5 
REMARK    3  A    between atoms: C5_8  and  N2_9 
REMARK    4  A    between atoms: O4_15  and  C8_16 
REMARK    5  A    between atoms: C8_16  and  C9_18 
ROOT
HETATM    1  O1  UNL     1       6.653   7.282  43.505  1.00  0.00    -0.238 OA
HETATM    2  C1  UNL     1       7.760   7.381  44.063  1.00  0.00     0.373 C 
HETATM    3  N1  UNL     1       8.285   8.447  44.793  1.00  0.00    -0.302 N 
ATOM      4  H1  UNL     1       9.224   8.327  45.173  1.00  0.00     0.171 HD
ENDROOT
BRANCH   3   5
HETATM    5  C2  UNL     1       7.648   9.664  45.054  1.00  0.00     0.040 A 
HETATM    6  C3  UNL     1       6.693   9.707  46.088  1.00  0.00     0.032 A 
HETATM    7  C4  UNL     1       6.034  10.877  46.377  1.00  0.00     0.041 A 
HETATM    8  C5  UNL     1       6.295  12.027  45.661  1.00  0.00     0.141 A 
HETATM    9  C6  UNL     1       7.215  12.035  44.646  1.00  0.00     0.151 A 
HETATM   10  F1  UNL     1       7.492  13.148  43.930  1.00  0.00    -0.203 F 
HETATM   11  C7  UNL     1       7.877  10.824  44.369  1.00  0.00     0.074 A 
BRANCH   8  12
HETATM   12  N2  UNL     1       5.586  13.208  46.001  1.00  0.00    -0.113 N 
HETATM   13  O2  UNL     1       5.799  13.813  47.070  1.00  0.00    -0.532 OA
HETATM   14  O3  UNL     1       4.640  13.706  45.135  1.00  0.00    -0.532 OA
ENDBRANCH   8  12
ENDBRANCH   3   5
BRANCH   2  15
HETATM   15  O4  UNL     1       8.571   6.236  43.918  1.00  0.00    -0.221 OA
BRANCH  15  16
HETATM   16  C8  UNL     1       9.954   6.318  43.828  1.00  0.00     0.326 C 
HETATM   17  O5  UNL     1      10.589   6.723  44.820  1.00  0.00    -0.256 OA
BRANCH  16  18
HETATM   18  C9  UNL     1      10.607   5.931  42.584  1.00  0.00     0.150 A 
HETATM   19  C10 UNL     1      10.018   5.750  41.352  1.00  0.00     0.045 A 
HETATM   20  C11 UNL     1      11.003   5.392  40.477  1.00  0.00     0.027 A 
HETATM   21  C12 UNL     1      12.184   5.369  41.225  1.00  0.00     0.143 A 
HETATM   22  O6  UNL     1      11.888   5.695  42.456  1.00  0.00    -0.317 OA
ENDBRANCH  16  18
ENDBRANCH  15  16
ENDBRANCH   2  15
TORSDOF 5
ENDMDL
MODEL 2
REMARK VINA RESULT: -7.494371686      1.131      1.469
REMARK  5 active torsions:
REMARK  status: ('A' for Active; 'I' for Inactive)
REMARK       I    between atoms: C1_2  and  N1_3 
REMARK    1  A    between atoms: C1_2  and  O4_15 
REMARK    2  A    between atoms: N1_3  and  C2_5 
REMARK    3  A    between atoms: C5_8  and  N2_9 
REMARK    4  A    between atoms: O4_15  and  C8_16 
REMARK    5  A    between atoms: C8_16  and  C9_18 
ROOT
HETATM    1  O1  UNL     1       9.196   7.314  46.104  1.00  0.00    -0.238 OA
HETATM    2  C1  UNL     1       8.936   7.224  44.892  1.00  0.00     0.373 C 
HETATM    3  N1  UNL     1       8.251   8.117  44.070  1.00  0.00    -0.302 N 
ATOM      4  H1  UNL     1       8.143   7.854  43.091  1.00  0.00     0.171 HD
ENDROOT
BRANCH   3   5
HETATM    5  C2  UNL     1       7.699   9.342  44.460  1.00  0.00     0.040 A 
HETATM    6  C3  UNL     1       6.642   9.329  45.390  1.00  0.00     0.032 A 
HETATM    7  C4  UNL     1       6.060  10.505  45.797  1.00  0.00     0.041 A 
HETATM    8  C5  UNL     1       6.500  11.716  45.303  1.00  0.00     0.141 A 
HETATM    9  C6  UNL     1       7.526  11.779  44.397  1.00  0.00     0.151 A 
HETATM   10  F1  UNL     1       7.979  12.952  43.899  1.00  0.00    -0.203 F 
HETATM   11  C7  UNL     1       8.105  10.562  43.995  1.00  0.00     0.074 A 
BRANCH   8  12
HETATM   12  N2  UNL     1       5.864  12.900  45.758  1.00  0.00    -0.113 N 
HETATM   13  O2  UNL     1       6.168  13.429  46.845  1.00  0.00    -0.532 OA
HETATM   14  O3  UNL     1       4.889  13.487  44.985  1.00  0.00    -0.532 OA
ENDBRANCH   8  12
ENDBRANCH   3   5
BRANCH   2  15
HETATM   15  O4  UNL     1       9.417   6.038  44.297  1.00  0.00    -0.221 OA
BRANCH  15  16
HETATM   16  C8  UNL     1      10.493   6.038  43.420  1.00  0.00     0.326 C 
HETATM   17  O5  UNL     1      11.642   5.940  43.891  1.00  0.00    -0.256 OA
BRANCH  16  18
HETATM   18  C9  UNL     1      10.240   6.151  41.989  1.00  0.00     0.150 A 
HETATM   19  C10 UNL     1      10.671   5.303  40.994  1.00  0.00     0.045 A 
HETATM   20  C11 UNL     1      10.203   5.793  39.808  1.00  0.00     0.027 A 
HETATM   21  C12 UNL     1       9.485   6.948  40.132  1.00  0.00     0.143 A 
HETATM   22  O6  UNL     1       9.542   7.107  41.429  1.00  0.00    -0.317 OA
ENDBRANCH  16  18
ENDBRANCH  15  16
ENDBRANCH   2  15
TORSDOF 5
ENDMDL
MODEL 3
REMARK VINA RESULT: -7.469246021      2.791      8.167
REMARK  5 active torsions:
REMARK  status: ('A' for Active; 'I' for Inactive)
REMARK       I    between atoms: C1_2  and  N1_3 
REMARK    1  A    between atoms: C1_2  and  O4_15 
REMARK    2  A    between atoms: N1_3  and  C2_5 
REMARK    3  A    between atoms: C5_8  and  N2_9 
REMARK    4  A    between atoms: O4_15  and  C8_16 
REMARK    5  A    between atoms: C8_16  and  C9_18 
ROOT
HETATM    1  O1  UNL     1       6.907  10.170  47.261  1.00  0.00    -0.238 OA
HETATM    2  C1  UNL     1       6.343  10.666  46.270  1.00  0.00     0.373 C 
HETATM    3  N1  UNL     1       6.298  10.198  44.958  1.00  0.00    -0.302 N 
ATOM      4  H1  UNL     1       5.775  10.759  44.285  1.00  0.00     0.171 HD
ENDROOT
BRANCH   3   5
HETATM    5  C2  UNL     1       6.901   9.032  44.474  1.00  0.00     0.040 A 
HETATM    6  C3  UNL     1       6.179   7.827  44.556  1.00  0.00     0.032 A 
HETATM    7  C4  UNL     1       6.731   6.653  44.102  1.00  0.00     0.041 A 
HETATM    8  C5  UNL     1       8.000   6.636  43.560  1.00  0.00     0.141 A 
HETATM    9  C6  UNL     1       8.741   7.784  43.459  1.00  0.00     0.151 A 
HETATM   10  F1  UNL     1       9.986   7.796  42.930  1.00  0.00    -0.203 F 
HETATM   11  C7  UNL     1       8.154   8.972  43.931  1.00  0.00     0.074 A 
BRANCH   8  12
HETATM   12  N2  UNL     1       8.522   5.397  43.106  1.00  0.00    -0.113 N 
HETATM   13  O2  UNL     1       9.475   4.840  43.684  1.00  0.00    -0.532 OA
HETATM   14  O3  UNL     1       7.969   4.789  42.003  1.00  0.00    -0.532 OA
ENDBRANCH   8  12
ENDBRANCH   3   5
BRANCH   2  15
HETATM   15  O4  UNL     1       5.662  11.870  46.550  1.00  0.00    -0.221 OA
BRANCH  15  16
HETATM   16  C8  UNL     1       5.892  13.032  45.828  1.00  0.00     0.326 C 
HETATM   17  O5  UNL     1       6.993  13.170  45.263  1.00  0.00    -0.256 OA
BRANCH  16  18
HETATM   18  C9  UNL     1       4.843  14.042  45.759  1.00  0.00     0.150 A 
HETATM   19  C10 UNL     1       3.836  14.139  44.824  1.00  0.00     0.045 A 
HETATM   20  C11 UNL     1       3.086  15.234  45.145  1.00  0.00     0.027 A 
HETATM   21  C12 UNL     1       3.676  15.776  46.291  1.00  0.00     0.143 A 
HETATM   22  O6  UNL     1       4.705  15.032  46.604  1.00  0.00    -0.317 OA
ENDBRANCH  16  18
ENDBRANCH  15  16
ENDBRANCH   2  15
TORSDOF 5
ENDMDL
MODEL 4
REMARK VINA RESULT: -7.443385908      3.367      4.776
REMARK  5 active torsions:
REMARK  status: ('A' for Active; 'I' for Inactive)
REMARK       I    between atoms: C1_2  and  N1_3 
REMARK    1  A    between atoms: C1_2  and  O4_15 
REMARK    2  A    between atoms: N1_3  and  C2_5 
REMARK    3  A    between atoms: C5_8  and  N2_9 
REMARK    4  A    between atoms: O4_15  and  C8_16 
REMARK    5  A    between atoms: C8_16  and  C9_18 
ROOT
HETATM    1  O1  UNL     1       6.396  12.085  46.288  1.00  0.00    -0.238 OA
HETATM    2  C1  UNL     1       6.164  11.001  45.724  1.00  0.00     0.373 C 
HETATM    3  N1  UNL     1       5.621  10.764  44.463  1.00  0.00    -0.302 N 
ATOM      4  H1  UNL     1       5.511   9.789  44.184  1.00  0.00     0.171 HD
ENDROOT
BRANCH   3   5
HETATM    5  C2  UNL     1       5.211  11.735  43.543  1.00  0.00     0.040 A 
HETATM    6  C3  UNL     1       5.523  11.537  42.185  1.00  0.00     0.032 A 
HETATM    7  C4  UNL     1       5.150  12.466  41.243  1.00  0.00     0.041 A 
HETATM    8  C5  UNL     1       4.465  13.606  41.613  1.00  0.00     0.141 A 
HETATM    9  C6  UNL     1       4.139  13.842  42.922  1.00  0.00     0.151 A 
HETATM   10  F1  UNL     1       3.466  14.949  43.312  1.00  0.00    -0.203 F 
HETATM   11  C7  UNL     1       4.532  12.876  43.867  1.00  0.00     0.074 A 
BRANCH   8  12
HETATM   12  N2  UNL     1       4.104  14.533  40.601  1.00  0.00    -0.113 N 
HETATM   13  O2  UNL     1       4.495  15.716  40.628  1.00  0.00    -0.532 OA
HETATM   14  O3  UNL     1       3.304  14.124  39.559  1.00  0.00    -0.532 OA
ENDBRANCH   8  12
ENDBRANCH   3   5
BRANCH   2  15
HETATM   15  O4  UNL     1       6.515   9.874  46.499  1.00  0.00    -0.221 OA
BRANCH  15  16
HETATM   16  C8  UNL     1       7.641   9.112  46.223  1.00  0.00     0.326 C 
HETATM   17  O5  UNL     1       8.542   9.055  47.081  1.00  0.00    -0.256 OA
BRANCH  16  18
HETATM   18  C9  UNL     1       7.726   8.411  44.948  1.00  0.00     0.150 A 
HETATM   19  C10 UNL     1       6.872   7.444  44.467  1.00  0.00     0.045 A 
HETATM   20  C11 UNL     1       7.333   7.068  43.237  1.00  0.00     0.027 A 
HETATM   21  C12 UNL     1       8.477   7.838  43.009  1.00  0.00     0.143 A 
HETATM   22  O6  UNL     1       8.657   8.609  44.049  1.00  0.00    -0.317 OA
ENDBRANCH  16  18
ENDBRANCH  15  16
ENDBRANCH   2  15
TORSDOF 5
ENDMDL
MODEL 5
REMARK VINA RESULT: -7.431469444      2.847      8.513
REMARK  5 active torsions:
REMARK  status: ('A' for Active; 'I' for Inactive)
REMARK       I    between atoms: C1_2  and  N1_3 
REMARK    1  A    between atoms: C1_2  and  O4_15 
REMARK    2  A    between atoms: N1_3  and  C2_5 
REMARK    3  A    between atoms: C5_8  and  N2_9 
REMARK    4  A    between atoms: O4_15  and  C8_16 
REMARK    5  A    between atoms: C8_16  and  C9_18 
ROOT
HETATM    1  O1  UNL     1       7.636  12.722  44.574  1.00  0.00    -0.238 OA
HETATM    2  C1  UNL     1       6.526  12.180  44.712  1.00  0.00     0.373 C 
HETATM    3  N1  UNL     1       6.198  10.826  44.687  1.00  0.00    -0.302 N 
ATOM      4  H1  UNL     1       5.215  10.586  44.822  1.00  0.00     0.171 HD
ENDROOT
BRANCH   3   5
HETATM    5  C2  UNL     1       7.087   9.763  44.495  1.00  0.00     0.040 A 
HETATM    6  C3  UNL     1       7.306   8.877  45.567  1.00  0.00     0.032 A 
HETATM    7  C4  UNL     1       8.176   7.823  45.431  1.00  0.00     0.041 A 
HETATM    8  C5  UNL     1       8.849   7.614  44.244  1.00  0.00     0.141 A 
HETATM    9  C6  UNL     1       8.668   8.449  43.173  1.00  0.00     0.151 A 
HETATM   10  F1  UNL     1       9.312   8.267  41.998  1.00  0.00    -0.203 F 
HETATM   11  C7  UNL     1       7.772   9.521  43.338  1.00  0.00     0.074 A 
BRANCH   8  12
HETATM   12  N2  UNL     1       9.736   6.510  44.157  1.00  0.00    -0.113 N 
HETATM   13  O2  UNL     1       9.319   5.350  43.979  1.00  0.00    -0.532 OA
HETATM   14  O3  UNL     1      11.091   6.717  44.270  1.00  0.00    -0.532 OA
ENDBRANCH   8  12
ENDBRANCH   3   5
BRANCH   2  15
HETATM   15  O4  UNL     1       5.472  13.096  44.923  1.00  0.00    -0.221 OA
BRANCH  15  16
HETATM   16  C8  UNL     1       5.153  13.574  46.186  1.00  0.00     0.326 C 
HETATM   17  O5  UNL     1       5.288  12.809  47.160  1.00  0.00    -0.256 OA
BRANCH  16  18
HETATM   18  C9  UNL     1       4.674  14.943  46.324  1.00  0.00     0.150 A 
HETATM   19  C10 UNL     1       3.648  15.544  45.629  1.00  0.00     0.045 A 
HETATM   20  C11 UNL     1       3.546  16.829  46.081  1.00  0.00     0.027 A 
HETATM   21  C12 UNL     1       4.536  16.966  47.058  1.00  0.00     0.143 A 
HETATM   22  O6  UNL     1       5.166  15.825  47.157  1.00  0.00    -0.317 OA
ENDBRANCH  16  18
ENDBRANCH  15  16
ENDBRANCH   2  15
TORSDOF 5
ENDMDL
