MODEL 1
REMARK VINA RESULT: -8.076678201      0.000      0.000
REMARK  4 active torsions:
REMARK  status: ('A' for Active; 'I' for Inactive)
REMARK    1  A    between atoms: N1_1  and  N2_4 
REMARK    2  A    between atoms: C2_6  and  N3_7 
REMARK    3  A    between atoms: N4_9  and  C3_11 
REMARK    4  A    between atoms: N5_20  and  C10_21 
ROOT
HETATM    1  N2  UNL     1       8.337   7.053  44.658  1.00  0.00    -0.202 N 
HETATM    2  C1  UNL     1       7.632   8.044  45.245  1.00  0.00     0.173 A 
HETATM    3  C2  UNL     1       7.601   9.153  44.421  1.00  0.00     0.137 A 
HETATM    4  C9  UNL     1       8.324   8.783  43.301  1.00  0.00     0.298 A 
HETATM    5  O1  UNL     1       8.514   9.547  42.321  1.00  0.00    -0.264 OA
HETATM    6  N5  UNL     1       8.741   7.527  43.490  1.00  0.00    -0.198 N 
ENDROOT
BRANCH   3   7
HETATM    7  N3  UNL     1       6.959  10.417  44.667  1.00  0.00    -0.294 N 
HETATM    8  N4  UNL     1       6.037  10.746  43.890  1.00  0.00    -0.300 N 
ATOM      9  H4  UNL     1       5.813  10.091  43.142  1.00  0.00     0.187 HD
ATOM     10  H3  UNL     1       7.244  11.018  45.441  1.00  0.00     0.187 HD
BRANCH   8  11
HETATM   11  C3  UNL     1       5.282  11.918  43.940  1.00  0.00     0.048 A 
HETATM   12  C4  UNL     1       4.985  12.621  42.793  1.00  0.00     0.034 A 
HETATM   13  C5  UNL     1       4.236  13.785  42.827  1.00  0.00     0.044 A 
HETATM   14  C6  UNL     1       3.769  14.269  44.018  1.00  0.00     0.116 A 
HETATM   15  F1  UNL     1       3.036  15.410  44.054  1.00  0.00    -0.206 F 
HETATM   16  C7  UNL     1       4.064  13.569  45.169  1.00  0.00     0.044 A 
HETATM   17  C8  UNL     1       4.816  12.398  45.143  1.00  0.00     0.034 A 
ENDBRANCH   8  11
ENDBRANCH   3   7
BRANCH   1  18
HETATM   18  N1  UNL     1       8.577   5.782  45.203  1.00  0.00    -0.324 N 
ATOM     19  H12 UNL     1       8.034   5.292  45.913  1.00  0.00     0.178 HD
ATOM     20  H11 UNL     1       9.348   5.162  44.954  1.00  0.00     0.178 HD
ENDBRANCH   1  18
BRANCH   6  21
HETATM   21  C10 UNL     1       9.526   6.764  42.564  1.00  0.00     0.062 A 
HETATM   22  C11 UNL     1       8.931   5.927  41.658  1.00  0.00     0.032 A 
HETATM   23  C12 UNL     1       9.679   5.176  40.749  1.00  0.00     0.002 A 
HETATM   24  C13 UNL     1      11.035   5.283  40.767  1.00  0.00     0.000 A 
HETATM   25  C14 UNL     1      11.675   6.112  41.661  1.00  0.00     0.002 A 
HETATM   26  C15 UNL     1      10.911   6.847  42.553  1.00  0.00     0.032 A 
ENDBRANCH   6  21
TORSDOF 4
ENDMDL
MODEL 2
REMARK VINA RESULT: -8.075911282      0.056      1.009
REMARK  4 active torsions:
REMARK  status: ('A' for Active; 'I' for Inactive)
REMARK    1  A    between atoms: N1_1  and  N2_4 
REMARK    2  A    between atoms: C2_6  and  N3_7 
REMARK    3  A    between atoms: N4_9  and  C3_11 
REMARK    4  A    between atoms: N5_20  and  C10_21 
ROOT
HETATM    1  N2  UNL     1       8.368   7.112  44.677  1.00  0.00    -0.202 N 
HETATM    2  C1  UNL     1       7.665   8.115  45.247  1.00  0.00     0.173 A 
HETATM    3  C2  UNL     1       7.634   9.208  44.402  1.00  0.00     0.137 A 
HETATM    4  C9  UNL     1       8.354   8.816  43.288  1.00  0.00     0.298 A 
HETATM    5  O1  UNL     1       8.541   9.560  42.293  1.00  0.00    -0.264 OA
HETATM    6  N5  UNL     1       8.770   7.563  43.500  1.00  0.00    -0.198 N 
ENDROOT
BRANCH   3   7
HETATM    7  N3  UNL     1       6.993  10.477  44.626  1.00  0.00    -0.294 N 
HETATM    8  N4  UNL     1       6.049  10.778  43.865  1.00  0.00    -0.300 N 
ATOM      9  H4  UNL     1       5.808  10.098  43.144  1.00  0.00     0.187 HD
ATOM     10  H3  UNL     1       7.297  11.103  45.373  1.00  0.00     0.187 HD
BRANCH   8  11
HETATM   11  C3  UNL     1       5.291  11.949  43.899  1.00  0.00     0.048 A 
HETATM   12  C4  UNL     1       4.820  12.456  45.090  1.00  0.00     0.034 A 
HETATM   13  C5  UNL     1       4.067  13.617  45.138  1.00  0.00     0.044 A 
HETATM   14  C6  UNL     1       3.770  14.294  43.988  1.00  0.00     0.116 A 
HETATM   15  F1  UNL     1       3.032  15.431  44.033  1.00  0.00    -0.206 F 
HETATM   16  C7  UNL     1       4.239  13.790  42.793  1.00  0.00     0.044 A 
HETATM   17  C8  UNL     1       4.997  12.624  42.736  1.00  0.00     0.034 A 
ENDBRANCH   8  11
ENDBRANCH   3   7
BRANCH   1  18
HETATM   18  N1  UNL     1       8.609   5.851  45.246  1.00  0.00    -0.324 N 
ATOM     19  H12 UNL     1       8.122   5.413  46.027  1.00  0.00     0.178 HD
ATOM     20  H11 UNL     1       9.322   5.187  44.944  1.00  0.00     0.178 HD
ENDBRANCH   1  18
BRANCH   6  21
HETATM   21  C10 UNL     1       9.552   6.782  42.586  1.00  0.00     0.062 A 
HETATM   22  C11 UNL     1       8.952   5.934  41.692  1.00  0.00     0.032 A 
HETATM   23  C12 UNL     1       9.697   5.166  40.796  1.00  0.00     0.002 A 
HETATM   24  C13 UNL     1      11.054   5.265  40.814  1.00  0.00     0.000 A 
HETATM   25  C14 UNL     1      11.697   6.104  41.695  1.00  0.00     0.002 A 
HETATM   26  C15 UNL     1      10.937   6.856  42.576  1.00  0.00     0.032 A 
ENDBRANCH   6  21
TORSDOF 4
ENDMDL
MODEL 3
REMARK VINA RESULT: -8.071558301      0.056      1.429
REMARK  4 active torsions:
REMARK  status: ('A' for Active; 'I' for Inactive)
REMARK    1  A    between atoms: N1_1  and  N2_4 
REMARK    2  A    between atoms: C2_6  and  N3_7 
REMARK    3  A    between atoms: N4_9  and  C3_11 
REMARK    4  A    between atoms: N5_20  and  C10_21 
ROOT
HETATM    1  N2  UNL     1       8.387   7.120  44.674  1.00  0.00    -0.202 N 
HETATM    2  C1  UNL     1       7.690   8.125  45.250  1.00  0.00     0.173 A 
HETATM    3  C2  UNL     1       7.650   9.216  44.403  1.00  0.00     0.137 A 
HETATM    4  C9  UNL     1       8.358   8.822  43.282  1.00  0.00     0.298 A 
HETATM    5  O1  UNL     1       8.535   9.565  42.284  1.00  0.00    -0.264 OA
HETATM    6  N5  UNL     1       8.777   7.569  43.492  1.00  0.00    -0.198 N 
ENDROOT
BRANCH   3   7
HETATM    7  N3  UNL     1       7.012  10.486  44.631  1.00  0.00    -0.294 N 
HETATM    8  N4  UNL     1       6.055  10.782  43.884  1.00  0.00    -0.300 N 
ATOM      9  H4  UNL     1       5.802  10.098  43.171  1.00  0.00     0.187 HD
ATOM     10  H3  UNL     1       7.327  11.116  45.369  1.00  0.00     0.187 HD
BRANCH   8  11
HETATM   11  C3  UNL     1       5.296  11.952  43.925  1.00  0.00     0.048 A 
HETATM   12  C4  UNL     1       4.825  12.452  45.119  1.00  0.00     0.034 A 
HETATM   13  C5  UNL     1       4.071  13.612  45.174  1.00  0.00     0.044 A 
HETATM   14  C6  UNL     1       3.773  14.295  44.027  1.00  0.00     0.116 A 
HETATM   15  F1  UNL     1       3.034  15.432  44.079  1.00  0.00    -0.206 F 
HETATM   16  C7  UNL     1       4.243  13.798  42.830  1.00  0.00     0.044 A 
HETATM   17  C8  UNL     1       5.001  12.633  42.766  1.00  0.00     0.034 A 
ENDBRANCH   8  11
ENDBRANCH   3   7
BRANCH   1  18
HETATM   18  N1  UNL     1       8.634   5.861  45.243  1.00  0.00    -0.324 N 
ATOM     19  H12 UNL     1       8.278   5.491  46.124  1.00  0.00     0.178 HD
ATOM     20  H11 UNL     1       9.216   5.128  44.839  1.00  0.00     0.178 HD
ENDBRANCH   1  18
BRANCH   6  21
HETATM   21  C10 UNL     1       9.549   6.787  42.572  1.00  0.00     0.062 A 
HETATM   22  C11 UNL     1      10.916   6.871  42.550  1.00  0.00     0.032 A 
HETATM   23  C12 UNL     1      11.684   6.117  41.661  1.00  0.00     0.002 A 
HETATM   24  C13 UNL     1      11.054   5.279  40.794  1.00  0.00     0.000 A 
HETATM   25  C14 UNL     1       9.682   5.164  40.782  1.00  0.00     0.002 A 
HETATM   26  C15 UNL     1       8.941   5.922  41.673  1.00  0.00     0.032 A 
ENDBRANCH   6  21
TORSDOF 4
ENDMDL
MODEL 4
REMARK VINA RESULT: -8.063346472      0.047      1.013
REMARK  4 active torsions:
REMARK  status: ('A' for Active; 'I' for Inactive)
REMARK    1  A    between atoms: N1_1  and  N2_4 
REMARK    2  A    between atoms: C2_6  and  N3_7 
REMARK    3  A    between atoms: N4_9  and  C3_11 
REMARK    4  A    between atoms: N5_20  and  C10_21 
ROOT
HETATM    1  N2  UNL     1       8.386   7.108  44.678  1.00  0.00    -0.202 N 
HETATM    2  C1  UNL     1       7.690   8.111  45.257  1.00  0.00     0.173 A 
HETATM    3  C2  UNL     1       7.651   9.206  44.414  1.00  0.00     0.137 A 
HETATM    4  C9  UNL     1       8.359   8.815  43.292  1.00  0.00     0.298 A 
HETATM    5  O1  UNL     1       8.537   9.561  42.296  1.00  0.00    -0.264 OA
HETATM    6  N5  UNL     1       8.776   7.561  43.497  1.00  0.00    -0.198 N 
ENDROOT
BRANCH   3   7
HETATM    7  N3  UNL     1       7.014  10.475  44.647  1.00  0.00    -0.294 N 
HETATM    8  N4  UNL     1       6.052  10.772  43.906  1.00  0.00    -0.300 N 
ATOM      9  H4  UNL     1       5.795  10.089  43.194  1.00  0.00     0.187 HD
ATOM     10  H3  UNL     1       7.334  11.105  45.383  1.00  0.00     0.187 HD
BRANCH   8  11
HETATM   11  C3  UNL     1       5.293  11.942  43.952  1.00  0.00     0.048 A 
HETATM   12  C4  UNL     1       4.996  12.641  42.802  1.00  0.00     0.034 A 
HETATM   13  C5  UNL     1       4.244  13.803  42.833  1.00  0.00     0.044 A 
HETATM   14  C6  UNL     1       3.774  14.288  44.021  1.00  0.00     0.116 A 
HETATM   15  F1  UNL     1       3.037  15.426  44.053  1.00  0.00    -0.206 F 
HETATM   16  C7  UNL     1       4.069  13.591  45.174  1.00  0.00     0.044 A 
HETATM   17  C8  UNL     1       4.824  12.422  45.153  1.00  0.00     0.034 A 
ENDBRANCH   8  11
ENDBRANCH   3   7
BRANCH   1  18
HETATM   18  N1  UNL     1       8.631   5.847  45.241  1.00  0.00    -0.324 N 
ATOM     19  H12 UNL     1       8.229   4.950  44.970  1.00  0.00     0.178 HD
ATOM     20  H11 UNL     1       9.264   5.653  46.018  1.00  0.00     0.178 HD
ENDBRANCH   1  18
BRANCH   6  21
HETATM   21  C10 UNL     1       9.548   6.781  42.573  1.00  0.00     0.062 A 
HETATM   22  C11 UNL     1      10.915   6.864  42.552  1.00  0.00     0.032 A 
HETATM   23  C12 UNL     1      11.682   6.113  41.660  1.00  0.00     0.002 A 
HETATM   24  C13 UNL     1      11.051   5.278  40.791  1.00  0.00     0.000 A 
HETATM   25  C14 UNL     1       9.679   5.164  40.778  1.00  0.00     0.002 A 
HETATM   26  C15 UNL     1       8.938   5.920  41.672  1.00  0.00     0.032 A 
ENDBRANCH   6  21
TORSDOF 4
ENDMDL
MODEL 5
REMARK VINA RESULT: -7.959458669      1.077      1.226
REMARK  4 active torsions:
REMARK  status: ('A' for Active; 'I' for Inactive)
REMARK    1  A    between atoms: N1_1  and  N2_4 
REMARK    2  A    between atoms: C2_6  and  N3_7 
REMARK    3  A    between atoms: N4_9  and  C3_11 
REMARK    4  A    between atoms: N5_20  and  C10_21 
ROOT
HETATM    1  N2  UNL     1       8.191   7.418  44.664  1.00  0.00    -0.202 N 
HETATM    2  C1  UNL     1       7.598   8.330  45.466  1.00  0.00     0.173 A 
HETATM    3  C2  UNL     1       7.641   9.578  44.874  1.00  0.00     0.137 A 
HETATM    4  C9  UNL     1       8.290   9.377  43.669  1.00  0.00     0.298 A 
HETATM    5  O1  UNL     1       8.515  10.300  42.847  1.00  0.00    -0.264 OA
HETATM    6  N5  UNL     1       8.597   8.078  43.591  1.00  0.00    -0.198 N 
ENDROOT
BRANCH   3   7
HETATM    7  N3  UNL     1       7.125  10.817  45.392  1.00  0.00    -0.294 N 
HETATM    8  N4  UNL     1       6.141  11.313  44.803  1.00  0.00    -0.300 N 
ATOM      9  H4  UNL     1       5.782  10.798  43.999  1.00  0.00     0.187 HD
ATOM     10  H3  UNL     1       7.544  11.271  46.204  1.00  0.00     0.187 HD
BRANCH   8  11
HETATM   11  C3  UNL     1       5.483  12.499  45.129  1.00  0.00     0.048 A 
HETATM   12  C4  UNL     1       4.495  13.010  44.315  1.00  0.00     0.034 A 
HETATM   13  C5  UNL     1       3.834  14.186  44.627  1.00  0.00     0.044 A 
HETATM   14  C6  UNL     1       4.151  14.874  45.765  1.00  0.00     0.116 A 
HETATM   15  F1  UNL     1       3.504  16.026  46.072  1.00  0.00    -0.206 F 
HETATM   16  C7  UNL     1       5.138  14.365  46.583  1.00  0.00     0.044 A 
HETATM   17  C8  UNL     1       5.808  13.184  46.277  1.00  0.00     0.034 A 
ENDBRANCH   8  11
ENDBRANCH   3   7
BRANCH   1  18
HETATM   18  N1  UNL     1       8.333   6.050  44.940  1.00  0.00    -0.324 N 
ATOM     19  H12 UNL     1       7.645   5.419  45.351  1.00  0.00     0.178 HD
ATOM     20  H11 UNL     1       9.165   5.488  44.761  1.00  0.00     0.178 HD
ENDBRANCH   1  18
BRANCH   6  21
HETATM   21  C10 UNL     1       9.278   7.450  42.496  1.00  0.00     0.062 A 
HETATM   22  C11 UNL     1       8.586   6.989  41.407  1.00  0.00     0.032 A 
HETATM   23  C12 UNL     1       9.232   6.375  40.332  1.00  0.00     0.002 A 
HETATM   24  C13 UNL     1      10.584   6.233  40.372  1.00  0.00     0.000 A 
HETATM   25  C14 UNL     1      11.319   6.682  41.446  1.00  0.00     0.002 A 
HETATM   26  C15 UNL     1      10.656   7.288  42.501  1.00  0.00     0.032 A 
ENDBRANCH   6  21
TORSDOF 4
ENDMDL
