MODEL 1
REMARK VINA RESULT: -7.915487325      0.000      0.000
REMARK  5 active torsions:
REMARK  status: ('A' for Active; 'I' for Inactive)
REMARK    1  A    between atoms: C1_2  and  C2_3 
REMARK    2  A    between atoms: C1_2  and  C8_17 
REMARK    3  A    between atoms: C4_5  and  N1_6 
REMARK    4  A    between atoms: C6_10  and  N2_11 
REMARK    5  A    between atoms: C7_14  and  O6_15 
ROOT
HETATM    1  C2  UNL     1       6.108  11.154  44.546  1.00  0.00     0.048 A 
HETATM    2  C3  UNL     1       5.597  11.886  43.515  1.00  0.00     0.054 A 
HETATM    3  C4  UNL     1       4.739  12.981  43.670  1.00  0.00     0.106 A 
HETATM    4  C5  UNL     1       4.415  13.308  44.960  1.00  0.00     0.075 A 
HETATM    5  C6  UNL     1       4.894  12.612  46.078  1.00  0.00     0.139 A 
HETATM    6  C7  UNL     1       5.728  11.553  45.847  1.00  0.00     0.112 A 
ENDROOT
BRANCH   1   7
HETATM    7  C1  UNL     1       7.004  10.015  44.368  1.00  0.00     0.166 C 
HETATM    8  O1  UNL     1       8.235  10.213  44.689  1.00  0.00    -0.292 OA
BRANCH   7   9
HETATM    9  C8  UNL     1       6.671   8.695  43.877  1.00  0.00     0.061 C 
HETATM   10  C9  UNL     1       7.728   7.971  43.116  1.00  0.00     0.012 C 
HETATM   11  C10 UNL     1       7.590   6.504  43.532  1.00  0.00     0.001 C 
HETATM   12  C11 UNL     1       6.168   6.419  44.106  1.00  0.00     0.001 C 
HETATM   13  C12 UNL     1       6.113   7.727  44.881  1.00  0.00     0.012 C 
ENDBRANCH   7   9
ENDBRANCH   1   7
BRANCH   6  14
HETATM   14  O6  UNL     1       6.252  10.801  46.867  1.00  0.00    -0.357 OA
ATOM     15  H6  UNL     1       5.682  10.681  47.617  1.00  0.00     0.217 HD
ENDBRANCH   6  14
BRANCH   3  16
HETATM   16  N1  UNL     1       4.247  13.693  42.549  1.00  0.00    -0.116 N 
HETATM   17  O2  UNL     1       4.547  13.315  41.412  1.00  0.00    -0.532 OA
HETATM   18  O3  UNL     1       3.456  14.778  42.724  1.00  0.00    -0.532 OA
ENDBRANCH   3  16
BRANCH   5  19
HETATM   19  N2  UNL     1       4.484  13.043  47.356  1.00  0.00    -0.113 N 
HETATM   20  O4  UNL     1       3.465  13.806  47.382  1.00  0.00    -0.532 OA
HETATM   21  O5  UNL     1       5.036  12.746  48.557  1.00  0.00    -0.532 OA
ENDBRANCH   5  19
TORSDOF 5
ENDMDL
MODEL 2
REMARK VINA RESULT: -7.606685028      0.589      1.007
REMARK  5 active torsions:
REMARK  status: ('A' for Active; 'I' for Inactive)
REMARK    1  A    between atoms: C1_2  and  C2_3 
REMARK    2  A    between atoms: C1_2  and  C8_17 
REMARK    3  A    between atoms: C4_5  and  N1_6 
REMARK    4  A    between atoms: C6_10  and  N2_11 
REMARK    5  A    between atoms: C7_14  and  O6_15 
ROOT
HETATM    1  C2  UNL     1       6.459  11.326  44.524  1.00  0.00     0.048 A 
HETATM    2  C3  UNL     1       5.919  11.985  43.460  1.00  0.00     0.054 A 
HETATM    3  C4  UNL     1       4.866  12.902  43.546  1.00  0.00     0.106 A 
HETATM    4  C5  UNL     1       4.373  13.128  44.804  1.00  0.00     0.075 A 
HETATM    5  C6  UNL     1       4.868  12.497  45.954  1.00  0.00     0.139 A 
HETATM    6  C7  UNL     1       5.897  11.613  45.789  1.00  0.00     0.112 A 
ENDROOT
BRANCH   1   7
HETATM    7  C1  UNL     1       7.560  10.372  44.418  1.00  0.00     0.166 C 
HETATM    8  O1  UNL     1       8.740  10.854  44.598  1.00  0.00    -0.292 OA
BRANCH   7   9
HETATM    9  C8  UNL     1       7.479   8.955  44.136  1.00  0.00     0.061 C 
HETATM   10  C9  UNL     1       6.699   8.120  45.092  1.00  0.00     0.012 C 
HETATM   11  C10 UNL     1       5.984   7.079  44.228  1.00  0.00     0.001 C 
HETATM   12  C11 UNL     1       6.785   7.079  42.917  1.00  0.00     0.001 C 
HETATM   13  C12 UNL     1       7.032   8.571  42.754  1.00  0.00     0.012 C 
ENDBRANCH   7   9
ENDBRANCH   1   7
BRANCH   6  14
HETATM   14  O6  UNL     1       6.455  10.937  46.844  1.00  0.00    -0.357 OA
ATOM     15  H6  UNL     1       5.947  10.203  47.170  1.00  0.00     0.217 HD
ENDBRANCH   6  14
BRANCH   3  16
HETATM   16  N1  UNL     1       4.356  13.547  42.393  1.00  0.00    -0.116 N 
HETATM   17  O2  UNL     1       4.635  13.099  41.276  1.00  0.00    -0.532 OA
HETATM   18  O3  UNL     1       3.572  14.643  42.515  1.00  0.00    -0.532 OA
ENDBRANCH   3  16
BRANCH   5  19
HETATM   19  N2  UNL     1       4.272  12.810  47.192  1.00  0.00    -0.113 N 
HETATM   20  O4  UNL     1       3.027  13.073  47.157  1.00  0.00    -0.532 OA
HETATM   21  O5  UNL     1       4.858  12.863  48.413  1.00  0.00    -0.532 OA
ENDBRANCH   5  19
TORSDOF 5
ENDMDL
MODEL 3
REMARK VINA RESULT: -7.390694664      1.016      3.584
REMARK  5 active torsions:
REMARK  status: ('A' for Active; 'I' for Inactive)
REMARK    1  A    between atoms: C1_2  and  C2_3 
REMARK    2  A    between atoms: C1_2  and  C8_17 
REMARK    3  A    between atoms: C4_5  and  N1_6 
REMARK    4  A    between atoms: C6_10  and  N2_11 
REMARK    5  A    between atoms: C7_14  and  O6_15 
ROOT
HETATM    1  C2  UNL     1       5.895  11.346  44.078  1.00  0.00     0.048 A 
HETATM    2  C3  UNL     1       5.632  11.804  45.335  1.00  0.00     0.054 A 
HETATM    3  C4  UNL     1       4.876  12.946  45.621  1.00  0.00     0.106 A 
HETATM    4  C5  UNL     1       4.383  13.623  44.537  1.00  0.00     0.075 A 
HETATM    5  C6  UNL     1       4.603  13.224  43.211  1.00  0.00     0.139 A 
HETATM    6  C7  UNL     1       5.352  12.097  43.011  1.00  0.00     0.112 A 
ENDROOT
BRANCH   1   7
HETATM    7  C1  UNL     1       6.685  10.150  43.796  1.00  0.00     0.166 C 
HETATM    8  O1  UNL     1       7.942  10.342  43.593  1.00  0.00    -0.292 OA
BRANCH   7   9
HETATM    9  C8  UNL     1       6.221   8.782  43.719  1.00  0.00     0.061 C 
HETATM   10  C9  UNL     1       6.897   7.894  42.731  1.00  0.00     0.012 C 
HETATM   11  C10 UNL     1       6.987   6.527  43.412  1.00  0.00     0.001 C 
HETATM   12  C11 UNL     1       5.926   6.601  44.522  1.00  0.00     0.001 C 
HETATM   13  C12 UNL     1       6.151   8.023  45.014  1.00  0.00     0.012 C 
ENDBRANCH   7   9
ENDBRANCH   1   7
BRANCH   6  14
HETATM   14  O6  UNL     1       5.632  11.619  41.757  1.00  0.00    -0.357 OA
ATOM     15  H6  UNL     1       5.053  11.924  41.068  1.00  0.00     0.217 HD
ENDBRANCH   6  14
BRANCH   3  16
HETATM   16  N1  UNL     1       4.646  13.361  46.955  1.00  0.00    -0.116 N 
HETATM   17  O2  UNL     1       3.530  13.193  47.457  1.00  0.00    -0.532 OA
HETATM   18  O3  UNL     1       5.640  13.936  47.672  1.00  0.00    -0.532 OA
ENDBRANCH   3  16
BRANCH   5  19
HETATM   19  N2  UNL     1       4.046  14.007  42.179  1.00  0.00    -0.113 N 
HETATM   20  O4  UNL     1       3.331  14.990  42.557  1.00  0.00    -0.532 OA
HETATM   21  O5  UNL     1       4.178  13.845  40.841  1.00  0.00    -0.532 OA
ENDBRANCH   5  19
TORSDOF 5
ENDMDL
MODEL 4
REMARK VINA RESULT: -7.337206714      1.411      1.989
REMARK  5 active torsions:
REMARK  status: ('A' for Active; 'I' for Inactive)
REMARK    1  A    between atoms: C1_2  and  C2_3 
REMARK    2  A    between atoms: C1_2  and  C8_17 
REMARK    3  A    between atoms: C4_5  and  N1_6 
REMARK    4  A    between atoms: C6_10  and  N2_11 
REMARK    5  A    between atoms: C7_14  and  O6_15 
ROOT
HETATM    1  C2  UNL     1       5.886  11.066  44.373  1.00  0.00     0.048 A 
HETATM    2  C3  UNL     1       5.350  11.812  43.366  1.00  0.00     0.054 A 
HETATM    3  C4  UNL     1       4.711  13.044  43.546  1.00  0.00     0.106 A 
HETATM    4  C5  UNL     1       4.642  13.498  44.837  1.00  0.00     0.075 A 
HETATM    5  C6  UNL     1       5.166  12.798  45.932  1.00  0.00     0.139 A 
HETATM    6  C7  UNL     1       5.775  11.601  45.677  1.00  0.00     0.112 A 
ENDROOT
BRANCH   1   7
HETATM    7  C1  UNL     1       6.551   9.782  44.169  1.00  0.00     0.166 C 
HETATM    8  O1  UNL     1       6.104   8.800  44.870  1.00  0.00    -0.292 OA
BRANCH   7   9
HETATM    9  C8  UNL     1       7.650   9.487  43.274  1.00  0.00     0.061 C 
HETATM   10  C9  UNL     1       7.300   8.990  41.915  1.00  0.00     0.012 C 
HETATM   11  C10 UNL     1       8.323   9.631  40.975  1.00  0.00     0.001 C 
HETATM   12  C11 UNL     1       9.472  10.041  41.909  1.00  0.00     0.001 C 
HETATM   13  C12 UNL     1       8.677  10.569  43.094  1.00  0.00     0.012 C 
ENDBRANCH   7   9
ENDBRANCH   1   7
BRANCH   6  14
HETATM   14  O6  UNL     1       6.320  10.832  46.673  1.00  0.00    -0.357 OA
ATOM     15  H6  UNL     1       5.702  10.293  47.153  1.00  0.00     0.217 HD
ENDBRANCH   6  14
BRANCH   3  16
HETATM   16  N1  UNL     1       4.176  13.763  42.449  1.00  0.00    -0.116 N 
HETATM   17  O2  UNL     1       4.432  13.390  41.299  1.00  0.00    -0.532 OA
HETATM   18  O3  UNL     1       3.392  14.845  42.660  1.00  0.00    -0.532 OA
ENDBRANCH   3  16
BRANCH   5  19
HETATM   19  N2  UNL     1       5.028  13.368  47.214  1.00  0.00    -0.113 N 
HETATM   20  O4  UNL     1       4.993  14.640  47.253  1.00  0.00    -0.532 OA
HETATM   21  O5  UNL     1       4.924  12.732  48.406  1.00  0.00    -0.532 OA
ENDBRANCH   5  19
TORSDOF 5
ENDMDL
MODEL 5
REMARK VINA RESULT: -7.311534416      2.405      5.736
REMARK  5 active torsions:
REMARK  status: ('A' for Active; 'I' for Inactive)
REMARK    1  A    between atoms: C1_2  and  C2_3 
REMARK    2  A    between atoms: C1_2  and  C8_17 
REMARK    3  A    between atoms: C4_5  and  N1_6 
REMARK    4  A    between atoms: C6_10  and  N2_11 
REMARK    5  A    between atoms: C7_14  and  O6_15 
ROOT
HETATM    1  C2  UNL     1       4.994  12.246  44.977  1.00  0.00     0.048 A 
HETATM    2  C3  UNL     1       5.037  12.089  43.624  1.00  0.00     0.054 A 
HETATM    3  C4  UNL     1       5.860  11.174  42.957  1.00  0.00     0.106 A 
HETATM    4  C5  UNL     1       6.662  10.401  43.754  1.00  0.00     0.075 A 
HETATM    5  C6  UNL     1       6.683  10.495  45.153  1.00  0.00     0.139 A 
HETATM    6  C7  UNL     1       5.851  11.412  45.732  1.00  0.00     0.112 A 
ENDROOT
BRANCH   1   7
HETATM    7  C1  UNL     1       4.128  13.204  45.659  1.00  0.00     0.166 C 
HETATM    8  O1  UNL     1       3.201  12.699  46.395  1.00  0.00    -0.292 OA
BRANCH   7   9
HETATM    9  C8  UNL     1       4.191  14.649  45.603  1.00  0.00     0.061 C 
HETATM   10  C9  UNL     1       2.896  15.377  45.489  1.00  0.00     0.012 C 
HETATM   11  C10 UNL     1       3.063  16.633  46.348  1.00  0.00     0.001 C 
HETATM   12  C11 UNL     1       4.587  16.783  46.484  1.00  0.00     0.001 C 
HETATM   13  C12 UNL     1       4.982  15.328  46.684  1.00  0.00     0.012 C 
ENDBRANCH   7   9
ENDBRANCH   1   7
BRANCH   6  14
HETATM   14  O6  UNL     1       5.792  11.589  47.091  1.00  0.00    -0.357 OA
ATOM     15  H6  UNL     1       5.185  12.257  47.387  1.00  0.00     0.217 HD
ENDBRANCH   6  14
BRANCH   3  16
HETATM   16  N1  UNL     1       5.850  11.069  41.545  1.00  0.00    -0.116 N 
HETATM   17  O2  UNL     1       6.571  10.229  40.995  1.00  0.00    -0.532 OA
HETATM   18  O3  UNL     1       5.058  11.881  40.806  1.00  0.00    -0.532 OA
ENDBRANCH   3  16
BRANCH   5  19
HETATM   19  N2  UNL     1       7.556   9.646  45.863  1.00  0.00    -0.113 N 
HETATM   20  O4  UNL     1       8.303   8.900  45.152  1.00  0.00    -0.532 OA
HETATM   21  O5  UNL     1       7.701   9.528  47.205  1.00  0.00    -0.532 OA
ENDBRANCH   5  19
TORSDOF 5
ENDMDL
