MODEL 1
REMARK VINA RESULT: -7.655526978      0.000      0.000
REMARK  10 active torsions:
REMARK  status: ('A' for Active; 'I' for Inactive)
REMARK    1  A    between atoms: O1_2  and  C2_3 
REMARK    2  A    between atoms: C2_3  and  C3_5 
REMARK    3  A    between atoms: C7_11  and  S2_12 
REMARK    4  A    between atoms: S2_12  and  O5_15 
REMARK    5  A    between atoms: O5_15  and  C8_16 
REMARK    6  A    between atoms: C8_16  and  C9_17 
REMARK    7  A    between atoms: C10_18  and  C12_20 
REMARK    8  A    between atoms: C12_20  and  C13_21 
REMARK    9  A    between atoms: C13_21  and  C14_22 
REMARK   10  A    between atoms: C14_22  and  O6_24 
ROOT
HETATM    1  S2  UNL     1       7.452   9.017  45.842  1.00  0.00     0.300 S 
HETATM    2  O3  UNL     1       8.194   8.161  46.906  1.00  0.00    -0.193 OA
HETATM    3  O4  UNL     1       6.123   8.395  45.745  1.00  0.00    -0.193 OA
ENDROOT
BRANCH   1   4
HETATM    4  C7  UNL     1       8.412   8.949  44.335  1.00  0.00     0.117 A 
HETATM    5  C3  UNL     1       9.404   8.080  44.056  1.00  0.00     0.095 A 
HETATM    6  C4  UNL     1      10.002   8.207  42.800  1.00  0.00     0.105 A 
HETATM    7  N1  UNL     1      11.074   7.429  42.232  1.00  0.00    -0.093 NA
HETATM    8  S1  UNL     1       9.174   9.496  42.087  1.00  0.00    -0.078 SA
HETATM    9  C5  UNL     1       8.103   9.872  43.328  1.00  0.00     0.005 A 
HETATM   10  C6  UNL     1       7.033  10.941  43.390  1.00  0.00     0.058 C 
BRANCH   5  11
HETATM   11  C2  UNL     1       9.937   6.993  44.928  1.00  0.00     0.297 C 
HETATM   12  O2  UNL     1      10.950   7.050  45.619  1.00  0.00    -0.259 OA
BRANCH  11  13
HETATM   13  O1  UNL     1       9.267   5.748  45.021  1.00  0.00    -0.322 OA
HETATM   14  C1  UNL     1       8.332   5.352  44.035  1.00  0.00     0.213 C 
ENDBRANCH  11  13
ENDBRANCH   5  11
ENDBRANCH   1   4
BRANCH   1  15
HETATM   15  O5  UNL     1       7.381  10.539  46.453  1.00  0.00    -0.268 OA
BRANCH  15  16
HETATM   16  C8  UNL     1       6.258  10.873  47.196  1.00  0.00     0.218 C 
BRANCH  16  17
HETATM   17  C9  UNL     1       5.479  11.832  46.430  1.00  0.00     0.007 C 
HETATM   18  C10 UNL     1       4.554  12.716  46.851  1.00  0.00    -0.064 C 
HETATM   19  C11 UNL     1       4.273  12.738  48.286  1.00  0.00     0.048 C 
BRANCH  18  20
HETATM   20  C12 UNL     1       3.951  13.555  45.839  1.00  0.00     0.009 C 
BRANCH  20  21
HETATM   21  C13 UNL     1       4.293  14.123  44.756  1.00  0.00     0.032 C 
BRANCH  21  22
HETATM   22  C14 UNL     1       3.952  14.190  43.383  1.00  0.00     0.039 C 
HETATM   23  C15 UNL     1       4.361  13.327  42.253  1.00  0.00     0.076 C 
BRANCH  22  24
HETATM   24  O6  UNL     1       3.134  15.190  43.065  1.00  0.00    -0.365 OA
ATOM     25  H6  UNL     1       2.943  15.265  42.138  1.00  0.00     0.217 HD
ENDBRANCH  22  24
ENDBRANCH  21  22
ENDBRANCH  20  21
ENDBRANCH  18  20
ENDBRANCH  16  17
ENDBRANCH  15  16
ENDBRANCH   1  15
TORSDOF 10
ENDMDL
MODEL 2
REMARK VINA RESULT: -7.601297637      2.375      3.362
REMARK  10 active torsions:
REMARK  status: ('A' for Active; 'I' for Inactive)
REMARK    1  A    between atoms: O1_2  and  C2_3 
REMARK    2  A    between atoms: C2_3  and  C3_5 
REMARK    3  A    between atoms: C7_11  and  S2_12 
REMARK    4  A    between atoms: S2_12  and  O5_15 
REMARK    5  A    between atoms: O5_15  and  C8_16 
REMARK    6  A    between atoms: C8_16  and  C9_17 
REMARK    7  A    between atoms: C10_18  and  C12_20 
REMARK    8  A    between atoms: C12_20  and  C13_21 
REMARK    9  A    between atoms: C13_21  and  C14_22 
REMARK   10  A    between atoms: C14_22  and  O6_24 
ROOT
HETATM    1  S2  UNL     1       8.033   9.408  44.285  1.00  0.00     0.300 S 
HETATM    2  O3  UNL     1       9.004  10.517  43.790  1.00  0.00    -0.193 OA
HETATM    3  O4  UNL     1       8.172   9.438  45.749  1.00  0.00    -0.193 OA
ENDROOT
BRANCH   1   4
HETATM    4  C7  UNL     1       8.541   7.872  43.524  1.00  0.00     0.117 A 
HETATM    5  C3  UNL     1       9.557   7.707  42.654  1.00  0.00     0.095 A 
HETATM    6  C4  UNL     1       9.779   6.404  42.204  1.00  0.00     0.105 A 
HETATM    7  N1  UNL     1      10.779   5.930  41.280  1.00  0.00    -0.093 NA
HETATM    8  S1  UNL     1       8.593   5.495  42.994  1.00  0.00    -0.078 SA
HETATM    9  C5  UNL     1       7.834   6.713  43.870  1.00  0.00     0.005 A 
HETATM   10  C6  UNL     1       6.663   6.630  44.826  1.00  0.00     0.058 C 
BRANCH   5  11
HETATM   11  C2  UNL     1      10.478   8.751  42.117  1.00  0.00     0.297 C 
HETATM   12  O2  UNL     1      10.262   9.480  41.154  1.00  0.00    -0.259 OA
BRANCH  11  13
HETATM   13  O1  UNL     1      11.737   8.983  42.722  1.00  0.00    -0.322 OA
HETATM   14  C1  UNL     1      12.443  10.188  42.489  1.00  0.00     0.213 C 
ENDBRANCH  11  13
ENDBRANCH   5  11
ENDBRANCH   1   4
BRANCH   1  15
HETATM   15  O5  UNL     1       6.534   9.866  43.796  1.00  0.00    -0.268 OA
BRANCH  15  16
HETATM   16  C8  UNL     1       5.600  10.139  44.785  1.00  0.00     0.218 C 
BRANCH  16  17
HETATM   17  C9  UNL     1       5.031  11.450  44.518  1.00  0.00     0.007 C 
HETATM   18  C10 UNL     1       5.412  12.659  44.974  1.00  0.00    -0.064 C 
HETATM   19  C11 UNL     1       6.567  12.687  45.870  1.00  0.00     0.048 C 
BRANCH  18  20
HETATM   20  C12 UNL     1       4.644  13.796  44.516  1.00  0.00     0.009 C 
BRANCH  20  21
HETATM   21  C13 UNL     1       3.781  14.602  44.982  1.00  0.00     0.032 C 
BRANCH  21  22
HETATM   22  C14 UNL     1       3.018  14.858  46.147  1.00  0.00     0.039 C 
HETATM   23  C15 UNL     1       2.922  14.096  47.412  1.00  0.00     0.076 C 
BRANCH  22  24
HETATM   24  O6  UNL     1       2.272  15.958  46.089  1.00  0.00    -0.365 OA
ATOM     25  H6  UNL     1       1.589  15.937  45.429  1.00  0.00     0.217 HD
ENDBRANCH  22  24
ENDBRANCH  21  22
ENDBRANCH  20  21
ENDBRANCH  18  20
ENDBRANCH  16  17
ENDBRANCH  15  16
ENDBRANCH   1  15
TORSDOF 10
ENDMDL
MODEL 3
REMARK VINA RESULT: -7.582222109      1.775      2.416
REMARK  10 active torsions:
REMARK  status: ('A' for Active; 'I' for Inactive)
REMARK    1  A    between atoms: O1_2  and  C2_3 
REMARK    2  A    between atoms: C2_3  and  C3_5 
REMARK    3  A    between atoms: C7_11  and  S2_12 
REMARK    4  A    between atoms: S2_12  and  O5_15 
REMARK    5  A    between atoms: O5_15  and  C8_16 
REMARK    6  A    between atoms: C8_16  and  C9_17 
REMARK    7  A    between atoms: C10_18  and  C12_20 
REMARK    8  A    between atoms: C12_20  and  C13_21 
REMARK    9  A    between atoms: C13_21  and  C14_22 
REMARK   10  A    between atoms: C14_22  and  O6_24 
ROOT
HETATM    1  S2  UNL     1       8.133   9.484  44.040  1.00  0.00     0.300 S 
HETATM    2  O3  UNL     1       8.762  10.905  44.000  1.00  0.00    -0.193 OA
HETATM    3  O4  UNL     1       8.384   9.021  45.413  1.00  0.00    -0.193 OA
ENDROOT
BRANCH   1   4
HETATM    4  C7  UNL     1       8.932   8.508  42.773  1.00  0.00     0.117 A 
HETATM    5  C3  UNL     1       9.793   7.491  42.970  1.00  0.00     0.095 A 
HETATM    6  C4  UNL     1      10.280   6.861  41.822  1.00  0.00     0.105 A 
HETATM    7  N1  UNL     1      11.204   5.760  41.724  1.00  0.00    -0.093 NA
HETATM    8  S1  UNL     1       9.532   7.696  40.556  1.00  0.00    -0.078 SA
HETATM    9  C5  UNL     1       8.630   8.808  41.438  1.00  0.00     0.005 A 
HETATM   10  C6  UNL     1       7.693   9.893  40.953  1.00  0.00     0.058 C 
BRANCH   5  11
HETATM   11  C2  UNL     1      10.287   6.952  44.271  1.00  0.00     0.297 C 
HETATM   12  O2  UNL     1      11.267   7.348  44.894  1.00  0.00    -0.259 OA
BRANCH  11  13
HETATM   13  O1  UNL     1       9.613   5.882  44.911  1.00  0.00    -0.322 OA
HETATM   14  C1  UNL     1       8.334   5.464  44.471  1.00  0.00     0.213 C 
ENDBRANCH  11  13
ENDBRANCH   5  11
ENDBRANCH   1   4
BRANCH   1  15
HETATM   15  O5  UNL     1       6.532   9.687  43.737  1.00  0.00    -0.268 OA
BRANCH  15  16
HETATM   16  C8  UNL     1       5.724  10.045  44.807  1.00  0.00     0.218 C 
BRANCH  16  17
HETATM   17  C9  UNL     1       5.141  11.345  44.517  1.00  0.00     0.007 C 
HETATM   18  C10 UNL     1       5.435  12.552  45.038  1.00  0.00    -0.064 C 
HETATM   19  C11 UNL     1       6.495  12.591  46.046  1.00  0.00     0.048 C 
BRANCH  18  20
HETATM   20  C12 UNL     1       4.680  13.677  44.534  1.00  0.00     0.009 C 
BRANCH  20  21
HETATM   21  C13 UNL     1       3.823  14.509  44.966  1.00  0.00     0.032 C 
BRANCH  21  22
HETATM   22  C14 UNL     1       3.058  14.816  46.117  1.00  0.00     0.039 C 
HETATM   23  C15 UNL     1       2.921  14.084  47.396  1.00  0.00     0.076 C 
BRANCH  22  24
HETATM   24  O6  UNL     1       2.354  15.942  46.029  1.00  0.00    -0.365 OA
ATOM     25  H6  UNL     1       2.071  16.297  46.863  1.00  0.00     0.217 HD
ENDBRANCH  22  24
ENDBRANCH  21  22
ENDBRANCH  20  21
ENDBRANCH  18  20
ENDBRANCH  16  17
ENDBRANCH  15  16
ENDBRANCH   1  15
TORSDOF 10
ENDMDL
MODEL 4
REMARK VINA RESULT: -7.498806796      1.226      1.829
REMARK  10 active torsions:
REMARK  status: ('A' for Active; 'I' for Inactive)
REMARK    1  A    between atoms: O1_2  and  C2_3 
REMARK    2  A    between atoms: C2_3  and  C3_5 
REMARK    3  A    between atoms: C7_11  and  S2_12 
REMARK    4  A    between atoms: S2_12  and  O5_15 
REMARK    5  A    between atoms: O5_15  and  C8_16 
REMARK    6  A    between atoms: C8_16  and  C9_17 
REMARK    7  A    between atoms: C10_18  and  C12_20 
REMARK    8  A    between atoms: C12_20  and  C13_21 
REMARK    9  A    between atoms: C13_21  and  C14_22 
REMARK   10  A    between atoms: C14_22  and  O6_24 
ROOT
HETATM    1  S2  UNL     1       7.782   8.884  45.397  1.00  0.00     0.300 S 
HETATM    2  O3  UNL     1       8.280   8.026  46.594  1.00  0.00    -0.193 OA
HETATM    3  O4  UNL     1       6.459   8.323  45.080  1.00  0.00    -0.193 OA
ENDROOT
BRANCH   1   4
HETATM    4  C7  UNL     1       8.986   8.725  44.085  1.00  0.00     0.117 A 
HETATM    5  C3  UNL     1       9.996   7.834  44.029  1.00  0.00     0.095 A 
HETATM    6  C4  UNL     1      10.804   7.886  42.891  1.00  0.00     0.105 A 
HETATM    7  N1  UNL     1      11.946   7.071  42.561  1.00  0.00    -0.093 NA
HETATM    8  S1  UNL     1      10.135   9.141  41.977  1.00  0.00    -0.078 SA
HETATM    9  C5  UNL     1       8.872   9.593  42.992  1.00  0.00     0.005 A 
HETATM   10  C6  UNL     1       7.826  10.672  42.811  1.00  0.00     0.058 C 
BRANCH   5  11
HETATM   11  C2  UNL     1      10.352   6.793  45.037  1.00  0.00     0.297 C 
HETATM   12  O2  UNL     1      11.219   6.888  45.901  1.00  0.00    -0.259 OA
BRANCH  11  13
HETATM   13  O1  UNL     1       9.670   5.552  45.066  1.00  0.00    -0.322 OA
HETATM   14  C1  UNL     1       8.562   5.314  44.216  1.00  0.00     0.213 C 
ENDBRANCH  11  13
ENDBRANCH   5  11
ENDBRANCH   1   4
BRANCH   1  15
HETATM   15  O5  UNL     1       7.684  10.426  45.953  1.00  0.00    -0.268 OA
BRANCH  15  16
HETATM   16  C8  UNL     1       6.534  10.779  46.644  1.00  0.00     0.218 C 
BRANCH  16  17
HETATM   17  C9  UNL     1       6.021  12.011  46.066  1.00  0.00     0.007 C 
HETATM   18  C10 UNL     1       5.169  12.186  45.038  1.00  0.00    -0.064 C 
HETATM   19  C11 UNL     1       4.667  10.976  44.389  1.00  0.00     0.048 C 
BRANCH  18  20
HETATM   20  C12 UNL     1       4.835  13.552  44.699  1.00  0.00     0.009 C 
BRANCH  20  21
HETATM   21  C13 UNL     1       4.010  14.443  45.070  1.00  0.00     0.032 C 
BRANCH  21  22
HETATM   22  C14 UNL     1       3.125  14.762  46.128  1.00  0.00     0.039 C 
HETATM   23  C15 UNL     1       2.892  14.076  47.418  1.00  0.00     0.076 C 
BRANCH  22  24
HETATM   24  O6  UNL     1       2.388  15.851  45.923  1.00  0.00    -0.365 OA
ATOM     25  H6  UNL     1       2.824  16.668  46.135  1.00  0.00     0.217 HD
ENDBRANCH  22  24
ENDBRANCH  21  22
ENDBRANCH  20  21
ENDBRANCH  18  20
ENDBRANCH  16  17
ENDBRANCH  15  16
ENDBRANCH   1  15
TORSDOF 10
ENDMDL
MODEL 5
REMARK VINA RESULT: -7.479336959      1.183      1.376
REMARK  10 active torsions:
REMARK  status: ('A' for Active; 'I' for Inactive)
REMARK    1  A    between atoms: O1_2  and  C2_3 
REMARK    2  A    between atoms: C2_3  and  C3_5 
REMARK    3  A    between atoms: C7_11  and  S2_12 
REMARK    4  A    between atoms: S2_12  and  O5_15 
REMARK    5  A    between atoms: O5_15  and  C8_16 
REMARK    6  A    between atoms: C8_16  and  C9_17 
REMARK    7  A    between atoms: C10_18  and  C12_20 
REMARK    8  A    between atoms: C12_20  and  C13_21 
REMARK    9  A    between atoms: C13_21  and  C14_22 
REMARK   10  A    between atoms: C14_22  and  O6_24 
ROOT
HETATM    1  S2  UNL     1       7.436   8.837  44.798  1.00  0.00     0.300 S 
HETATM    2  O3  UNL     1       7.993   8.594  46.228  1.00  0.00    -0.193 OA
HETATM    3  O4  UNL     1       6.356   7.847  44.662  1.00  0.00    -0.193 OA
ENDROOT
BRANCH   1   4
HETATM    4  C7  UNL     1       8.789   8.615  43.650  1.00  0.00     0.117 A 
HETATM    5  C3  UNL     1       9.850   7.799  43.812  1.00  0.00     0.095 A 
HETATM    6  C4  UNL     1      10.778   7.779  42.768  1.00  0.00     0.105 A 
HETATM    7  N1  UNL     1      11.996   7.015  42.663  1.00  0.00    -0.093 NA
HETATM    8  S1  UNL     1      10.144   8.869  41.642  1.00  0.00    -0.078 SA
HETATM    9  C5  UNL     1       8.750   9.342  42.454  1.00  0.00     0.005 A 
HETATM   10  C6  UNL     1       7.670  10.316  42.032  1.00  0.00     0.058 C 
BRANCH   5  11
HETATM   11  C2  UNL     1      10.149   6.908  44.971  1.00  0.00     0.297 C 
HETATM   12  O2  UNL     1      11.050   7.064  45.790  1.00  0.00    -0.259 OA
BRANCH  11  13
HETATM   13  O1  UNL     1       9.363   5.756  45.217  1.00  0.00    -0.322 OA
HETATM   14  C1  UNL     1       8.596   5.166  44.183  1.00  0.00     0.213 C 
ENDBRANCH  11  13
ENDBRANCH   5  11
ENDBRANCH   1   4
BRANCH   1  15
HETATM   15  O5  UNL     1       6.869  10.377  44.785  1.00  0.00    -0.268 OA
BRANCH  15  16
HETATM   16  C8  UNL     1       5.504  10.553  44.958  1.00  0.00     0.218 C 
BRANCH  16  17
HETATM   17  C9  UNL     1       5.148  11.862  44.435  1.00  0.00     0.007 C 
HETATM   18  C10 UNL     1       4.638  12.932  45.076  1.00  0.00    -0.064 C 
HETATM   19  C11 UNL     1       4.399  12.784  46.511  1.00  0.00     0.048 C 
BRANCH  18  20
HETATM   20  C12 UNL     1       4.397  14.112  44.276  1.00  0.00     0.009 C 
BRANCH  20  21
HETATM   21  C13 UNL     1       3.705  14.441  43.263  1.00  0.00     0.032 C 
BRANCH  21  22
HETATM   22  C14 UNL     1       3.811  14.641  41.866  1.00  0.00     0.039 C 
HETATM   23  C15 UNL     1       4.029  13.665  40.775  1.00  0.00     0.076 C 
BRANCH  22  24
HETATM   24  O6  UNL     1       3.697  15.909  41.478  1.00  0.00    -0.365 OA
ATOM     25  H6  UNL     1       4.417  16.225  40.945  1.00  0.00     0.217 HD
ENDBRANCH  22  24
ENDBRANCH  21  22
ENDBRANCH  20  21
ENDBRANCH  18  20
ENDBRANCH  16  17
ENDBRANCH  15  16
ENDBRANCH   1  15
TORSDOF 10
ENDMDL
