MODEL 1
REMARK VINA RESULT: -8.602457282      0.000      0.000
REMARK  10 active torsions:
REMARK  status: ('A' for Active; 'I' for Inactive)
REMARK    1  A    between atoms: C3_3  and  C4_4 
REMARK    2  A    between atoms: C3_3  and  C11_18 
REMARK    3  A    between atoms: C4_4  and  O1_5 
REMARK    4  A    between atoms: O1_5  and  N1_6 
REMARK    5  A    between atoms: C5_8  and  C7_10 
REMARK    6  A    between atoms: C10_13  and  N2_14 
REMARK    7  A    between atoms: C11_18  and  O5_20 
REMARK    8  A    between atoms: O5_20  and  C13_21 
REMARK    9  A    between atoms: C13_21  and  O7_23 
REMARK   10  A    between atoms: O7_23  and  C14_24 
ROOT
HETATM    1  C1  UNL     1       6.790   9.771  47.833  1.00  0.00     0.012 C 
HETATM    2  C2  UNL     1       7.068   9.494  46.691  1.00  0.00    -0.108 C 
HETATM    3  C3  UNL     1       7.393   9.139  45.304  1.00  0.00     0.119 C 
ENDROOT
BRANCH   3   4
HETATM    4  C4  UNL     1       8.132  10.332  44.730  1.00  0.00     0.220 C 
BRANCH   4   5
HETATM    5  O1  UNL     1       7.298  11.117  43.910  1.00  0.00    -0.279 OA
BRANCH   5   6
HETATM    6  N1  UNL     1       6.481  12.029  44.516  1.00  0.00    -0.269 N 
HETATM    7  C5  UNL     1       5.356  12.343  44.026  1.00  0.00     0.062 C 
HETATM    8  C6  UNL     1       4.866  11.743  42.775  1.00  0.00     0.073 C 
ATOM      9  H1  UNL     1       6.784  12.467  45.385  1.00  0.00     0.194 HD
BRANCH   7  10
HETATM   10  C7  UNL     1       4.525  13.338  44.738  1.00  0.00     0.102 A 
HETATM   11  C8  UNL     1       3.918  14.439  44.171  1.00  0.00     0.044 A 
HETATM   12  C9  UNL     1       3.252  15.082  45.185  1.00  0.00     0.066 A 
HETATM   13  C10 UNL     1       3.478  14.341  46.348  1.00  0.00     0.215 A 
HETATM   14  O4  UNL     1       4.232  13.336  46.005  1.00  0.00    -0.287 OA
BRANCH  13  15
HETATM   15  N2  UNL     1       2.973  14.643  47.655  1.00  0.00    -0.090 N 
HETATM   16  O2  UNL     1       2.602  15.809  47.872  1.00  0.00    -0.530 OA
HETATM   17  O3  UNL     1       2.913  13.660  48.609  1.00  0.00    -0.530 OA
ENDBRANCH  13  15
ENDBRANCH   7  10
ENDBRANCH   5   6
ENDBRANCH   4   5
ENDBRANCH   3   4
BRANCH   3  18
HETATM   18  C11 UNL     1       8.260   7.956  45.286  1.00  0.00     0.148 C 
HETATM   19  C12 UNL     1       7.437   6.807  44.666  1.00  0.00     0.041 C 
BRANCH  18  20
HETATM   20  O5  UNL     1       9.455   7.955  44.657  1.00  0.00    -0.292 OA
BRANCH  20  21
HETATM   21  C13 UNL     1      10.358   6.936  44.706  1.00  0.00     0.408 C 
HETATM   22  O6  UNL     1      10.985   6.909  45.783  1.00  0.00    -0.229 OA
BRANCH  21  23
HETATM   23  O7  UNL     1      10.632   5.994  43.758  1.00  0.00    -0.272 OA
BRANCH  23  24
HETATM   24  C14 UNL     1      11.240   6.391  42.542  1.00  0.00     0.153 C 
HETATM   25  C15 UNL     1      12.629   5.756  42.523  1.00  0.00     0.063 C 
HETATM   26  C16 UNL     1      11.378   7.885  42.423  1.00  0.00     0.063 C 
HETATM   27  C17 UNL     1      10.530   5.852  41.380  1.00  0.00     0.097 C 
HETATM   28  N3  UNL     1       9.970   5.440  40.450  1.00  0.00    -0.194 NA
ENDBRANCH  23  24
ENDBRANCH  21  23
ENDBRANCH  20  21
ENDBRANCH  18  20
ENDBRANCH   3  18
TORSDOF 10
ENDMDL
MODEL 2
REMARK VINA RESULT: -8.537891181      2.221      3.204
REMARK  10 active torsions:
REMARK  status: ('A' for Active; 'I' for Inactive)
REMARK    1  A    between atoms: C3_3  and  C4_4 
REMARK    2  A    between atoms: C3_3  and  C11_18 
REMARK    3  A    between atoms: C4_4  and  O1_5 
REMARK    4  A    between atoms: O1_5  and  N1_6 
REMARK    5  A    between atoms: C5_8  and  C7_10 
REMARK    6  A    between atoms: C10_13  and  N2_14 
REMARK    7  A    between atoms: C11_18  and  O5_20 
REMARK    8  A    between atoms: O5_20  and  C13_21 
REMARK    9  A    between atoms: C13_21  and  O7_23 
REMARK   10  A    between atoms: O7_23  and  C14_24 
ROOT
HETATM    1  C1  UNL     1       5.416   7.149  45.875  1.00  0.00     0.012 C 
HETATM    2  C2  UNL     1       6.119   8.087  45.583  1.00  0.00    -0.108 C 
HETATM    3  C3  UNL     1       6.967   9.224  45.205  1.00  0.00     0.119 C 
ENDROOT
BRANCH   3   4
HETATM    4  C4  UNL     1       7.377   9.888  46.505  1.00  0.00     0.220 C 
BRANCH   4   5
HETATM    5  O1  UNL     1       6.374  10.752  46.988  1.00  0.00    -0.279 OA
BRANCH   5   6
HETATM    6  N1  UNL     1       5.825  11.646  46.114  1.00  0.00    -0.269 N 
HETATM    7  C5  UNL     1       4.957  12.491  46.483  1.00  0.00     0.062 C 
HETATM    8  C6  UNL     1       4.490  12.556  47.876  1.00  0.00     0.073 C 
ATOM      9  H1  UNL     1       6.123  11.633  45.138  1.00  0.00     0.194 HD
BRANCH   7  10
HETATM   10  C7  UNL     1       4.407  13.429  45.479  1.00  0.00     0.102 A 
HETATM   11  C8  UNL     1       3.616  14.526  45.746  1.00  0.00     0.044 A 
HETATM   12  C9  UNL     1       3.335  15.108  44.534  1.00  0.00     0.066 A 
HETATM   13  C10 UNL     1       3.975  14.337  43.561  1.00  0.00     0.215 A 
HETATM   14  O4  UNL     1       4.581  13.373  44.192  1.00  0.00    -0.287 OA
BRANCH  13  15
HETATM   15  N2  UNL     1       3.957  14.574  42.147  1.00  0.00    -0.090 N 
HETATM   16  O2  UNL     1       4.031  13.584  41.399  1.00  0.00    -0.530 OA
HETATM   17  O3  UNL     1       3.859  15.855  41.668  1.00  0.00    -0.530 OA
ENDBRANCH  13  15
ENDBRANCH   7  10
ENDBRANCH   5   6
ENDBRANCH   4   5
ENDBRANCH   3   4
BRANCH   3  18
HETATM   18  C11 UNL     1       8.155   8.740  44.493  1.00  0.00     0.148 C 
HETATM   19  C12 UNL     1       8.685   9.921  43.652  1.00  0.00     0.041 C 
BRANCH  18  20
HETATM   20  O5  UNL     1       9.219   8.225  45.145  1.00  0.00    -0.292 OA
BRANCH  20  21
HETATM   21  C13 UNL     1       9.989   7.199  44.686  1.00  0.00     0.408 C 
HETATM   22  O6  UNL     1      10.879   6.875  45.497  1.00  0.00    -0.229 OA
BRANCH  21  23
HETATM   23  O7  UNL     1       9.895   6.525  43.504  1.00  0.00    -0.272 OA
BRANCH  23  24
HETATM   24  C14 UNL     1      10.880   6.732  42.508  1.00  0.00     0.153 C 
HETATM   25  C15 UNL     1      10.136   6.851  41.179  1.00  0.00     0.063 C 
HETATM   26  C16 UNL     1      11.866   5.598  42.422  1.00  0.00     0.063 C 
HETATM   27  C17 UNL     1      11.582   8.003  42.696  1.00  0.00     0.097 C 
HETATM   28  N3  UNL     1      12.155   9.003  42.841  1.00  0.00    -0.194 NA
ENDBRANCH  23  24
ENDBRANCH  21  23
ENDBRANCH  20  21
ENDBRANCH  18  20
ENDBRANCH   3  18
TORSDOF 10
ENDMDL
MODEL 3
REMARK VINA RESULT: -8.506406043      1.372      1.858
REMARK  10 active torsions:
REMARK  status: ('A' for Active; 'I' for Inactive)
REMARK    1  A    between atoms: C3_3  and  C4_4 
REMARK    2  A    between atoms: C3_3  and  C11_18 
REMARK    3  A    between atoms: C4_4  and  O1_5 
REMARK    4  A    between atoms: O1_5  and  N1_6 
REMARK    5  A    between atoms: C5_8  and  C7_10 
REMARK    6  A    between atoms: C10_13  and  N2_14 
REMARK    7  A    between atoms: C11_18  and  O5_20 
REMARK    8  A    between atoms: O5_20  and  C13_21 
REMARK    9  A    between atoms: C13_21  and  O7_23 
REMARK   10  A    between atoms: O7_23  and  C14_24 
ROOT
HETATM    1  C1  UNL     1       5.119   6.524  45.896  1.00  0.00     0.012 C 
HETATM    2  C2  UNL     1       5.941   7.382  45.681  1.00  0.00    -0.108 C 
HETATM    3  C3  UNL     1       6.932   8.429  45.399  1.00  0.00     0.119 C 
ENDROOT
BRANCH   3   4
HETATM    4  C4  UNL     1       7.551   8.788  46.735  1.00  0.00     0.220 C 
BRANCH   4   5
HETATM    5  O1  UNL     1       7.793  10.172  46.843  1.00  0.00    -0.279 OA
BRANCH   5   6
HETATM    6  N1  UNL     1       6.741  11.021  46.646  1.00  0.00    -0.269 N 
HETATM    7  C5  UNL     1       6.780  11.939  45.776  1.00  0.00     0.062 C 
HETATM    8  C6  UNL     1       7.963  12.144  44.925  1.00  0.00     0.073 C 
ATOM      9  H1  UNL     1       5.902  10.912  47.216  1.00  0.00     0.194 HD
BRANCH   7  10
HETATM   10  C7  UNL     1       5.602  12.821  45.620  1.00  0.00     0.102 A 
HETATM   11  C8  UNL     1       5.124  13.328  44.430  1.00  0.00     0.044 A 
HETATM   12  C9  UNL     1       4.026  14.090  44.745  1.00  0.00     0.066 A 
HETATM   13  C10 UNL     1       3.871  14.019  46.132  1.00  0.00     0.215 A 
HETATM   14  O4  UNL     1       4.833  13.258  46.572  1.00  0.00    -0.287 OA
BRANCH  13  15
HETATM   15  N2  UNL     1       2.850  14.663  46.904  1.00  0.00    -0.090 N 
HETATM   16  O2  UNL     1       2.823  14.433  48.125  1.00  0.00    -0.530 OA
HETATM   17  O3  UNL     1       1.951  15.497  46.291  1.00  0.00    -0.530 OA
ENDBRANCH  13  15
ENDBRANCH   7  10
ENDBRANCH   5   6
ENDBRANCH   4   5
ENDBRANCH   3   4
BRANCH   3  18
HETATM   18  C11 UNL     1       7.961   7.904  44.494  1.00  0.00     0.148 C 
HETATM   19  C12 UNL     1       7.764   8.609  43.135  1.00  0.00     0.041 C 
BRANCH  18  20
HETATM   20  O5  UNL     1       9.278   7.988  44.783  1.00  0.00    -0.292 OA
BRANCH  20  21
HETATM   21  C13 UNL     1      10.171   6.969  44.641  1.00  0.00     0.408 C 
HETATM   22  O6  UNL     1      10.969   6.902  45.596  1.00  0.00    -0.229 OA
BRANCH  21  23
HETATM   23  O7  UNL     1      10.278   6.066  43.625  1.00  0.00    -0.272 OA
BRANCH  23  24
HETATM   24  C14 UNL     1      11.036   6.401  42.477  1.00  0.00     0.153 C 
HETATM   25  C15 UNL     1      12.390   5.713  42.634  1.00  0.00     0.063 C 
HETATM   26  C16 UNL     1      11.249   7.884  42.334  1.00  0.00     0.063 C 
HETATM   27  C17 UNL     1      10.441   5.853  41.256  1.00  0.00     0.097 C 
HETATM   28  N3  UNL     1       9.973   5.434  40.279  1.00  0.00    -0.194 NA
ENDBRANCH  23  24
ENDBRANCH  21  23
ENDBRANCH  20  21
ENDBRANCH  18  20
ENDBRANCH   3  18
TORSDOF 10
ENDMDL
MODEL 4
REMARK VINA RESULT: -8.493451329      0.969      1.296
REMARK  10 active torsions:
REMARK  status: ('A' for Active; 'I' for Inactive)
REMARK    1  A    between atoms: C3_3  and  C4_4 
REMARK    2  A    between atoms: C3_3  and  C11_18 
REMARK    3  A    between atoms: C4_4  and  O1_5 
REMARK    4  A    between atoms: O1_5  and  N1_6 
REMARK    5  A    between atoms: C5_8  and  C7_10 
REMARK    6  A    between atoms: C10_13  and  N2_14 
REMARK    7  A    between atoms: C11_18  and  O5_20 
REMARK    8  A    between atoms: O5_20  and  C13_21 
REMARK    9  A    between atoms: C13_21  and  O7_23 
REMARK   10  A    between atoms: O7_23  and  C14_24 
ROOT
HETATM    1  C1  UNL     1       6.916   9.853  48.011  1.00  0.00     0.012 C 
HETATM    2  C2  UNL     1       7.077   9.598  46.842  1.00  0.00    -0.108 C 
HETATM    3  C3  UNL     1       7.257   9.270  45.421  1.00  0.00     0.119 C 
ENDROOT
BRANCH   3   4
HETATM    4  C4  UNL     1       8.127  10.369  44.847  1.00  0.00     0.220 C 
BRANCH   4   5
HETATM    5  O1  UNL     1       7.395  11.227  44.003  1.00  0.00    -0.279 OA
BRANCH   5   6
HETATM    6  N1  UNL     1       6.548  12.127  44.585  1.00  0.00    -0.269 N 
HETATM    7  C5  UNL     1       5.416  12.394  44.087  1.00  0.00     0.062 C 
HETATM    8  C6  UNL     1       4.947  11.749  42.850  1.00  0.00     0.073 C 
ATOM      9  H1  UNL     1       6.836  12.596  45.444  1.00  0.00     0.194 HD
BRANCH   7  10
HETATM   10  C7  UNL     1       4.552  13.380  44.774  1.00  0.00     0.102 A 
HETATM   11  C8  UNL     1       3.925  14.456  44.182  1.00  0.00     0.044 A 
HETATM   12  C9  UNL     1       3.232  15.099  45.179  1.00  0.00     0.066 A 
HETATM   13  C10 UNL     1       3.462  14.382  46.355  1.00  0.00     0.215 A 
HETATM   14  O4  UNL     1       4.244  13.390  46.037  1.00  0.00    -0.287 OA
BRANCH  13  15
HETATM   15  N2  UNL     1       2.934  14.690  47.652  1.00  0.00    -0.090 N 
HETATM   16  O2  UNL     1       2.564  15.860  47.857  1.00  0.00    -0.530 OA
HETATM   17  O3  UNL     1       2.852  13.712  48.609  1.00  0.00    -0.530 OA
ENDBRANCH  13  15
ENDBRANCH   7  10
ENDBRANCH   5   6
ENDBRANCH   4   5
ENDBRANCH   3   4
BRANCH   3  18
HETATM   18  C11 UNL     1       7.934   7.975  45.295  1.00  0.00     0.148 C 
HETATM   19  C12 UNL     1       6.842   6.925  44.999  1.00  0.00     0.041 C 
BRANCH  18  20
HETATM   20  O5  UNL     1       8.919   7.769  44.393  1.00  0.00    -0.292 OA
BRANCH  20  21
HETATM   21  C13 UNL     1       9.976   6.928  44.575  1.00  0.00     0.408 C 
HETATM   22  O6  UNL     1      10.483   7.043  45.708  1.00  0.00    -0.229 OA
BRANCH  21  23
HETATM   23  O7  UNL     1      10.505   6.024  43.701  1.00  0.00    -0.272 OA
BRANCH  23  24
HETATM   24  C14 UNL     1      11.288   6.487  42.617  1.00  0.00     0.153 C 
HETATM   25  C15 UNL     1      10.383   6.462  41.386  1.00  0.00     0.063 C 
HETATM   26  C16 UNL     1      12.494   5.624  42.360  1.00  0.00     0.063 C 
HETATM   27  C17 UNL     1      11.691   7.884  42.796  1.00  0.00     0.097 C 
HETATM   28  N3  UNL     1      12.027   8.987  42.931  1.00  0.00    -0.194 NA
ENDBRANCH  23  24
ENDBRANCH  21  23
ENDBRANCH  20  21
ENDBRANCH  18  20
ENDBRANCH   3  18
TORSDOF 10
ENDMDL
MODEL 5
REMARK VINA RESULT: -8.422738312      3.268      4.582
REMARK  10 active torsions:
REMARK  status: ('A' for Active; 'I' for Inactive)
REMARK    1  A    between atoms: C3_3  and  C4_4 
REMARK    2  A    between atoms: C3_3  and  C11_18 
REMARK    3  A    between atoms: C4_4  and  O1_5 
REMARK    4  A    between atoms: O1_5  and  N1_6 
REMARK    5  A    between atoms: C5_8  and  C7_10 
REMARK    6  A    between atoms: C10_13  and  N2_14 
REMARK    7  A    between atoms: C11_18  and  O5_20 
REMARK    8  A    between atoms: O5_20  and  C13_21 
REMARK    9  A    between atoms: C13_21  and  O7_23 
REMARK   10  A    between atoms: O7_23  and  C14_24 
ROOT
HETATM    1  C1  UNL     1       7.041   9.589  47.831  1.00  0.00     0.012 C 
HETATM    2  C2  UNL     1       6.831  10.301  46.879  1.00  0.00    -0.108 C 
HETATM    3  C3  UNL     1       6.572  11.148  45.707  1.00  0.00     0.119 C 
ENDROOT
BRANCH   3   4
HETATM    4  C4  UNL     1       6.386  12.554  46.241  1.00  0.00     0.220 C 
BRANCH   4   5
HETATM    5  O1  UNL     1       5.146  13.099  45.854  1.00  0.00    -0.279 OA
BRANCH   5   6
HETATM    6  N1  UNL     1       4.883  13.204  44.518  1.00  0.00    -0.269 N 
HETATM    7  C5  UNL     1       4.134  14.114  44.056  1.00  0.00     0.062 C 
HETATM    8  C6  UNL     1       3.503  15.111  44.935  1.00  0.00     0.073 C 
ATOM      9  H1  UNL     1       5.302  12.531  43.876  1.00  0.00     0.194 HD
BRANCH   7  10
HETATM   10  C7  UNL     1       3.894  14.165  42.597  1.00  0.00     0.102 A 
HETATM   11  C8  UNL     1       4.366  13.261  41.668  1.00  0.00     0.044 A 
HETATM   12  C9  UNL     1       3.910  13.687  40.445  1.00  0.00     0.066 A 
HETATM   13  C10 UNL     1       3.167  14.847  40.674  1.00  0.00     0.215 A 
HETATM   14  O4  UNL     1       3.204  15.062  41.959  1.00  0.00    -0.287 OA
BRANCH  13  15
HETATM   15  N2  UNL     1       2.500  15.636  39.680  1.00  0.00    -0.090 N 
HETATM   16  O2  UNL     1       1.508  15.135  39.121  1.00  0.00    -0.530 OA
HETATM   17  O3  UNL     1       2.961  16.892  39.379  1.00  0.00    -0.530 OA
ENDBRANCH  13  15
ENDBRANCH   7  10
ENDBRANCH   5   6
ENDBRANCH   4   5
ENDBRANCH   3   4
BRANCH   3  18
HETATM   18  C11 UNL     1       7.725  11.103  44.801  1.00  0.00     0.148 C 
HETATM   19  C12 UNL     1       8.553  12.379  45.066  1.00  0.00     0.041 C 
BRANCH  18  20
HETATM   20  O5  UNL     1       8.597  10.072  44.804  1.00  0.00    -0.292 OA
BRANCH  20  21
HETATM   21  C13 UNL     1       8.889   9.298  43.721  1.00  0.00     0.408 C 
HETATM   22  O6  UNL     1       9.790   9.793  43.015  1.00  0.00    -0.229 OA
BRANCH  21  23
HETATM   23  O7  UNL     1       8.335   8.108  43.350  1.00  0.00    -0.272 OA
BRANCH  23  24
HETATM   24  C14 UNL     1       8.415   7.003  44.231  1.00  0.00     0.153 C 
HETATM   25  C15 UNL     1       8.333   5.749  43.362  1.00  0.00     0.063 C 
HETATM   26  C16 UNL     1       7.297   6.980  45.238  1.00  0.00     0.063 C 
HETATM   27  C17 UNL     1       9.711   6.943  44.909  1.00  0.00     0.097 C 
HETATM   28  N3  UNL     1      10.731   6.891  45.463  1.00  0.00    -0.194 NA
ENDBRANCH  23  24
ENDBRANCH  21  23
ENDBRANCH  20  21
ENDBRANCH  18  20
ENDBRANCH   3  18
TORSDOF 10
ENDMDL
