MODEL 1
REMARK VINA RESULT: -8.468655837      0.000      0.000
REMARK  14 active torsions:
REMARK  status: ('A' for Active; 'I' for Inactive)
REMARK    1  A    between atoms: C2_2  and  O1_3 
REMARK    2  A    between atoms: O1_3  and  C3_4 
REMARK    3  A    between atoms: C3_4  and  C4_6 
REMARK    4  A    between atoms: C4_6  and  C5_7 
REMARK    5  A    between atoms: C6_9  and  N1_10 
REMARK    6  A    between atoms: N1_10  and  C7_12 
REMARK    7  A    between atoms: C7_12  and  N2_13 
REMARK    8  A    between atoms: C7_12  and  C9_17 
REMARK    9  A    between atoms: N2_13  and  C8_15 
REMARK   10  A    between atoms: C9_17  and  O4_18 
REMARK   11  A    between atoms: C9_17  and  O5_20 
REMARK   12  A    between atoms: O5_20  and  N3_21 
REMARK   13  A    between atoms: C18_31  and  C20_33 
REMARK   14  A    between atoms: C22_40  and  O9_41 
ROOT
HETATM    1  C7  UNL     1       9.296 -19.110 -49.683  1.00  0.00     0.243 C 
ENDROOT
BRANCH   1   2
HETATM    2  N1  UNL     1       9.363 -18.164 -48.608  1.00  0.00    -0.345 N 
ATOM      3  H1  UNL     1      10.170 -18.204 -47.985  1.00  0.00     0.163 HD
BRANCH   2   4
HETATM    4  C6  UNL     1       8.460 -17.260 -48.380  1.00  0.00     0.148 A 
HETATM    5  S1  UNL     1       7.001 -17.421 -47.508  1.00  0.00    -0.054 SA
HETATM    6  C5  UNL     1       6.434 -15.811 -47.667  1.00  0.00     0.046 A 
HETATM    7  C22 UNL     1       7.435 -15.242 -48.403  1.00  0.00     0.155 A 
HETATM    8  N4  UNL     1       8.446 -15.981 -48.753  1.00  0.00    -0.317 N 
ATOM      9  H4  UNL     1       9.212 -15.589 -49.302  1.00  0.00     0.170 HD
BRANCH   6  10
HETATM   10  C4  UNL     1       5.172 -15.192 -47.120  1.00  0.00     0.161 C 
BRANCH  10  11
HETATM   11  C3  UNL     1       5.549 -14.448 -45.887  1.00  0.00     0.263 C 
HETATM   12  O2  UNL     1       5.935 -13.254 -45.936  1.00  0.00    -0.265 OA
BRANCH  11  13
HETATM   13  O1  UNL     1       5.486 -15.061 -44.640  1.00  0.00    -0.322 OA
BRANCH  13  14
HETATM   14  C2  UNL     1       6.652 -15.096 -43.820  1.00  0.00     0.174 C 
HETATM   15  C1  UNL     1       7.130 -16.534 -43.832  1.00  0.00     0.034 C 
ENDBRANCH  13  14
ENDBRANCH  11  13
ENDBRANCH  10  11
ENDBRANCH   6  10
BRANCH   7  16
HETATM   16  O9  UNL     1       7.338 -13.864 -48.758  1.00  0.00    -0.345 OA
ATOM     17  H9  UNL     1       7.814 -13.220 -48.248  1.00  0.00     0.219 HD
ENDBRANCH   7  16
ENDBRANCH   2   4
ENDBRANCH   1   2
BRANCH   1  18
HETATM   18  N2  UNL     1       8.158 -19.011 -50.543  1.00  0.00    -0.343 N 
ATOM     19  H2  UNL     1       7.292 -19.481 -50.279  1.00  0.00     0.164 HD
BRANCH  18  20
HETATM   20  C8  UNL     1       8.206 -18.262 -51.774  1.00  0.00     0.350 C 
HETATM   21  O3  UNL     1       7.921 -17.032 -51.720  1.00  0.00    -0.284 OA
ENDBRANCH  18  20
ENDBRANCH   1  18
BRANCH   1  22
HETATM   22  C9  UNL     1       9.307 -20.532 -49.091  1.00  0.00     0.328 C 
BRANCH  22  23
HETATM   23  O4  UNL     1       8.421 -20.651 -48.028  1.00  0.00    -0.366 OA
ATOM     24  H4  UNL     1       8.104 -21.541 -47.934  1.00  0.00     0.212 HD
ENDBRANCH  22  23
BRANCH  22  25
HETATM   25  O5  UNL     1      10.598 -20.916 -48.702  1.00  0.00    -0.244 OA
BRANCH  25  26
HETATM   26  N3  UNL     1      10.809 -21.051 -47.342  1.00  0.00    -0.272 N 
HETATM   27  C10 UNL     1      11.904 -20.902 -46.737  1.00  0.00     0.013 C 
HETATM   28  C11 UNL     1      13.215 -20.554 -47.322  1.00  0.00     0.054 C 
HETATM   29  C21 UNL     1      11.884 -21.080 -45.247  1.00  0.00     0.093 C 
HETATM   30  C12 UNL     1      13.914 -19.433 -46.626  1.00  0.00     0.009 C 
HETATM   31  C13 UNL     1      13.771 -19.445 -45.122  1.00  0.00     0.039 C 
HETATM   32  C14 UNL     1      12.355 -19.749 -44.692  1.00  0.00     0.073 C 
HETATM   33  C15 UNL     1      11.397 -18.665 -45.023  1.00  0.00     0.045 C 
HETATM   34  O8  UNL     1      12.321 -19.859 -43.294  1.00  0.00    -0.343 OA
HETATM   35  C16 UNL     1      10.464 -18.613 -43.842  1.00  0.00     0.068 C 
HETATM   36  C17 UNL     1      10.977 -19.692 -42.924  1.00  0.00     0.060 C 
HETATM   37  C18 UNL     1      10.259 -20.290 -42.009  1.00  0.00     0.044 C 
HETATM   38  C19 UNL     1       8.840 -19.910 -41.829  1.00  0.00     0.058 C 
ATOM     39  H3  UNL     1       9.999 -21.295 -46.773  1.00  0.00     0.193 HD
BRANCH  37  40
HETATM   40  C20 UNL     1      10.858 -21.318 -41.178  1.00  0.00     0.207 C 
HETATM   41  O6  UNL     1      11.083 -21.122 -39.947  1.00  0.00    -0.644 OA
HETATM   42  O7  UNL     1      11.195 -22.533 -41.730  1.00  0.00    -0.644 OA
ENDBRANCH  37  40
ENDBRANCH  25  26
ENDBRANCH  22  25
ENDBRANCH   1  22
TORSDOF 14
ENDMDL
MODEL 2
REMARK VINA RESULT: -8.443033015      2.508      5.914
REMARK  14 active torsions:
REMARK  status: ('A' for Active; 'I' for Inactive)
REMARK    1  A    between atoms: C2_2  and  O1_3 
REMARK    2  A    between atoms: O1_3  and  C3_4 
REMARK    3  A    between atoms: C3_4  and  C4_6 
REMARK    4  A    between atoms: C4_6  and  C5_7 
REMARK    5  A    between atoms: C6_9  and  N1_10 
REMARK    6  A    between atoms: N1_10  and  C7_12 
REMARK    7  A    between atoms: C7_12  and  N2_13 
REMARK    8  A    between atoms: C7_12  and  C9_17 
REMARK    9  A    between atoms: N2_13  and  C8_15 
REMARK   10  A    between atoms: C9_17  and  O4_18 
REMARK   11  A    between atoms: C9_17  and  O5_20 
REMARK   12  A    between atoms: O5_20  and  N3_21 
REMARK   13  A    between atoms: C18_31  and  C20_33 
REMARK   14  A    between atoms: C22_40  and  O9_41 
ROOT
HETATM    1  C7  UNL     1       8.925 -19.510 -43.075  1.00  0.00     0.243 C 
ENDROOT
BRANCH   1   2
HETATM    2  N1  UNL     1       7.921 -18.547 -42.734  1.00  0.00    -0.345 N 
ATOM      3  H1  UNL     1       7.459 -18.636 -41.829  1.00  0.00     0.163 HD
BRANCH   2   4
HETATM    4  C6  UNL     1       7.562 -17.568 -43.507  1.00  0.00     0.148 A 
HETATM    5  S1  UNL     1       7.373 -17.576 -45.204  1.00  0.00    -0.054 SA
HETATM    6  C5  UNL     1       6.880 -15.946 -45.409  1.00  0.00     0.046 A 
HETATM    7  C22 UNL     1       6.897 -15.492 -44.121  1.00  0.00     0.155 A 
HETATM    8  N4  UNL     1       7.240 -16.317 -43.177  1.00  0.00    -0.317 N 
ATOM      9  H4  UNL     1       7.263 -16.013 -42.203  1.00  0.00     0.170 HD
BRANCH   6  10
HETATM   10  C4  UNL     1       6.511 -15.221 -46.680  1.00  0.00     0.161 C 
BRANCH  10  11
HETATM   11  C3  UNL     1       5.180 -14.594 -46.454  1.00  0.00     0.263 C 
HETATM   12  O2  UNL     1       4.133 -15.285 -46.401  1.00  0.00    -0.265 OA
BRANCH  11  13
HETATM   13  O1  UNL     1       5.060 -13.217 -46.299  1.00  0.00    -0.322 OA
BRANCH  13  14
HETATM   14  C2  UNL     1       4.728 -12.414 -47.429  1.00  0.00     0.174 C 
HETATM   15  C1  UNL     1       3.462 -11.668 -47.056  1.00  0.00     0.034 C 
ENDBRANCH  13  14
ENDBRANCH  11  13
ENDBRANCH  10  11
ENDBRANCH   6  10
BRANCH   7  16
HETATM   16  O9  UNL     1       6.537 -14.138 -43.858  1.00  0.00    -0.345 OA
ATOM     17  H9  UNL     1       7.097 -13.441 -44.179  1.00  0.00     0.219 HD
ENDBRANCH   7  16
ENDBRANCH   2   4
ENDBRANCH   1   2
BRANCH   1  18
HETATM   18  N2  UNL     1       8.634 -20.871 -42.745  1.00  0.00    -0.343 N 
ATOM     19  H2  UNL     1       9.024 -21.271 -41.892  1.00  0.00     0.164 HD
BRANCH  18  20
HETATM   20  C8  UNL     1       7.802 -21.690 -43.591  1.00  0.00     0.350 C 
HETATM   21  O3  UNL     1       7.244 -21.132 -44.578  1.00  0.00    -0.284 OA
ENDBRANCH  18  20
ENDBRANCH   1  18
BRANCH   1  22
HETATM   22  C9  UNL     1      10.236 -19.131 -42.361  1.00  0.00     0.328 C 
BRANCH  22  23
HETATM   23  O4  UNL     1      10.045 -18.094 -41.457  1.00  0.00    -0.366 OA
ATOM     24  H4  UNL     1      10.317 -18.338 -40.580  1.00  0.00     0.212 HD
ENDBRANCH  22  23
BRANCH  22  25
HETATM   25  O5  UNL     1      11.245 -18.805 -43.278  1.00  0.00    -0.244 OA
BRANCH  25  26
HETATM   26  N3  UNL     1      10.830 -18.533 -44.569  1.00  0.00    -0.272 N 
HETATM   27  C10 UNL     1      11.522 -18.646 -45.616  1.00  0.00     0.013 C 
HETATM   28  C11 UNL     1      12.927 -19.087 -45.722  1.00  0.00     0.054 C 
HETATM   29  C21 UNL     1      10.845 -18.311 -46.913  1.00  0.00     0.093 C 
HETATM   30  C12 UNL     1      13.157 -20.146 -46.750  1.00  0.00     0.009 C 
HETATM   31  C13 UNL     1      12.353 -19.972 -48.017  1.00  0.00     0.039 C 
HETATM   32  C14 UNL     1      10.920 -19.588 -47.729  1.00  0.00     0.073 C 
HETATM   33  C15 UNL     1      10.140 -20.676 -47.088  1.00  0.00     0.045 C 
HETATM   34  O8  UNL     1      10.268 -19.331 -48.944  1.00  0.00    -0.343 OA
HETATM   35  C16 UNL     1       8.774 -20.579 -47.715  1.00  0.00     0.068 C 
HETATM   36  C17 UNL     1       8.894 -19.424 -48.674  1.00  0.00     0.060 C 
HETATM   37  C18 UNL     1       7.885 -18.714 -49.109  1.00  0.00     0.044 C 
HETATM   38  C19 UNL     1       6.514 -19.037 -48.654  1.00  0.00     0.058 C 
ATOM     39  H3  UNL     1       9.869 -18.210 -44.684  1.00  0.00     0.193 HD
BRANCH  37  40
HETATM   40  C20 UNL     1       8.116 -17.621 -50.034  1.00  0.00     0.207 C 
HETATM   41  O6  UNL     1       8.333 -17.832 -51.264  1.00  0.00    -0.644 OA
HETATM   42  O7  UNL     1       8.104 -16.322 -49.575  1.00  0.00    -0.644 OA
ENDBRANCH  37  40
ENDBRANCH  25  26
ENDBRANCH  22  25
ENDBRANCH   1  22
TORSDOF 14
ENDMDL
MODEL 3
REMARK VINA RESULT: -8.295507173      2.428      3.574
REMARK  14 active torsions:
REMARK  status: ('A' for Active; 'I' for Inactive)
REMARK    1  A    between atoms: C2_2  and  O1_3 
REMARK    2  A    between atoms: O1_3  and  C3_4 
REMARK    3  A    between atoms: C3_4  and  C4_6 
REMARK    4  A    between atoms: C4_6  and  C5_7 
REMARK    5  A    between atoms: C6_9  and  N1_10 
REMARK    6  A    between atoms: N1_10  and  C7_12 
REMARK    7  A    between atoms: C7_12  and  N2_13 
REMARK    8  A    between atoms: C7_12  and  C9_17 
REMARK    9  A    between atoms: N2_13  and  C8_15 
REMARK   10  A    between atoms: C9_17  and  O4_18 
REMARK   11  A    between atoms: C9_17  and  O5_20 
REMARK   12  A    between atoms: O5_20  and  N3_21 
REMARK   13  A    between atoms: C18_31  and  C20_33 
REMARK   14  A    between atoms: C22_40  and  O9_41 
ROOT
HETATM    1  C7  UNL     1       7.650 -17.718 -51.293  1.00  0.00     0.243 C 
ENDROOT
BRANCH   1   2
HETATM    2  N1  UNL     1       6.498 -17.839 -50.449  1.00  0.00    -0.345 N 
ATOM      3  H1  UNL     1       6.156 -18.776 -50.237  1.00  0.00     0.163 HD
BRANCH   2   4
HETATM    4  C6  UNL     1       5.863 -16.828 -49.939  1.00  0.00     0.148 A 
HETATM    5  S1  UNL     1       6.425 -15.232 -49.714  1.00  0.00    -0.054 SA
HETATM    6  C5  UNL     1       5.006 -14.561 -49.024  1.00  0.00     0.046 A 
HETATM    7  C22 UNL     1       4.172 -15.643 -49.012  1.00  0.00     0.155 A 
HETATM    8  N4  UNL     1       4.615 -16.774 -49.475  1.00  0.00    -0.317 N 
ATOM      9  H4  UNL     1       4.019 -17.602 -49.482  1.00  0.00     0.170 HD
BRANCH   6  10
HETATM   10  C4  UNL     1       4.752 -13.145 -48.571  1.00  0.00     0.161 C 
BRANCH  10  11
HETATM   11  C3  UNL     1       4.491 -13.195 -47.106  1.00  0.00     0.263 C 
HETATM   12  O2  UNL     1       3.333 -13.053 -46.643  1.00  0.00    -0.265 OA
BRANCH  11  13
HETATM   13  O1  UNL     1       5.531 -13.400 -46.205  1.00  0.00    -0.322 OA
BRANCH  13  14
HETATM   14  C2  UNL     1       5.712 -14.692 -45.629  1.00  0.00     0.174 C 
HETATM   15  C1  UNL     1       6.701 -14.511 -44.495  1.00  0.00     0.034 C 
ENDBRANCH  13  14
ENDBRANCH  11  13
ENDBRANCH  10  11
ENDBRANCH   6  10
BRANCH   7  16
HETATM   16  O9  UNL     1       2.851 -15.494 -48.497  1.00  0.00    -0.345 OA
ATOM     17  H9  UNL     1       2.179 -16.112 -48.760  1.00  0.00     0.219 HD
ENDBRANCH   7  16
ENDBRANCH   2   4
ENDBRANCH   1   2
BRANCH   1  18
HETATM   18  N2  UNL     1       7.425 -17.867 -52.697  1.00  0.00    -0.343 N 
ATOM     19  H2  UNL     1       8.185 -18.197 -53.292  1.00  0.00     0.164 HD
BRANCH  18  20
HETATM   20  C8  UNL     1       6.147 -17.561 -53.292  1.00  0.00     0.350 C 
HETATM   21  O3  UNL     1       5.176 -18.318 -53.009  1.00  0.00    -0.284 OA
ENDBRANCH  18  20
ENDBRANCH   1  18
BRANCH   1  22
HETATM   22  C9  UNL     1       8.682 -18.783 -50.875  1.00  0.00     0.328 C 
BRANCH  22  23
HETATM   23  O4  UNL     1       8.797 -19.787 -51.827  1.00  0.00    -0.366 OA
ATOM     24  H4  UNL     1       9.704 -19.959 -52.047  1.00  0.00     0.212 HD
ENDBRANCH  22  23
BRANCH  22  25
HETATM   25  O5  UNL     1       8.378 -19.327 -49.619  1.00  0.00    -0.244 OA
BRANCH  25  26
HETATM   26  N3  UNL     1       9.399 -19.315 -48.687  1.00  0.00    -0.272 N 
HETATM   27  C10 UNL     1       9.551 -18.482 -47.754  1.00  0.00     0.013 C 
HETATM   28  C11 UNL     1       8.690 -17.327 -47.432  1.00  0.00     0.054 C 
HETATM   29  C21 UNL     1      10.731 -18.685 -46.850  1.00  0.00     0.093 C 
HETATM   30  C12 UNL     1       8.299 -17.241 -45.993  1.00  0.00     0.009 C 
HETATM   31  C13 UNL     1       9.394 -17.622 -45.024  1.00  0.00     0.039 C 
HETATM   32  C14 UNL     1      10.132 -18.864 -45.467  1.00  0.00     0.073 C 
HETATM   33  C15 UNL     1       9.304 -20.093 -45.400  1.00  0.00     0.045 C 
HETATM   34  O8  UNL     1      11.203 -19.091 -44.589  1.00  0.00    -0.343 OA
HETATM   35  C16 UNL     1      10.252 -21.161 -44.921  1.00  0.00     0.068 C 
HETATM   36  C17 UNL     1      11.562 -20.438 -44.755  1.00  0.00     0.060 C 
HETATM   37  C18 UNL     1      12.736 -21.015 -44.775  1.00  0.00     0.044 C 
HETATM   38  C19 UNL     1      12.826 -22.479 -44.969  1.00  0.00     0.058 C 
ATOM     39  H3  UNL     1      10.099 -20.054 -48.762  1.00  0.00     0.193 HD
BRANCH  37  40
HETATM   40  C20 UNL     1      13.936 -20.219 -44.604  1.00  0.00     0.207 C 
HETATM   41  O6  UNL     1      14.164 -19.204 -45.327  1.00  0.00    -0.644 OA
HETATM   42  O7  UNL     1      14.856 -20.567 -43.639  1.00  0.00    -0.644 OA
ENDBRANCH  37  40
ENDBRANCH  25  26
ENDBRANCH  22  25
ENDBRANCH   1  22
TORSDOF 14
ENDMDL
MODEL 4
REMARK VINA RESULT: -8.223010028      2.669      4.229
REMARK  14 active torsions:
REMARK  status: ('A' for Active; 'I' for Inactive)
REMARK    1  A    between atoms: C2_2  and  O1_3 
REMARK    2  A    between atoms: O1_3  and  C3_4 
REMARK    3  A    between atoms: C3_4  and  C4_6 
REMARK    4  A    between atoms: C4_6  and  C5_7 
REMARK    5  A    between atoms: C6_9  and  N1_10 
REMARK    6  A    between atoms: N1_10  and  C7_12 
REMARK    7  A    between atoms: C7_12  and  N2_13 
REMARK    8  A    between atoms: C7_12  and  C9_17 
REMARK    9  A    between atoms: N2_13  and  C8_15 
REMARK   10  A    between atoms: C9_17  and  O4_18 
REMARK   11  A    between atoms: C9_17  and  O5_20 
REMARK   12  A    between atoms: O5_20  and  N3_21 
REMARK   13  A    between atoms: C18_31  and  C20_33 
REMARK   14  A    between atoms: C22_40  and  O9_41 
ROOT
HETATM    1  C7  UNL     1       6.316 -17.385 -50.788  1.00  0.00     0.243 C 
ENDROOT
BRANCH   1   2
HETATM    2  N1  UNL     1       5.080 -17.136 -50.108  1.00  0.00    -0.345 N 
ATOM      3  H1  UNL     1       4.505 -17.938 -49.850  1.00  0.00     0.163 HD
BRANCH   2   4
HETATM    4  C6  UNL     1       4.648 -15.951 -49.799  1.00  0.00     0.148 A 
HETATM    5  S1  UNL     1       3.894 -15.445 -48.353  1.00  0.00    -0.054 SA
HETATM    6  C5  UNL     1       3.671 -13.793 -48.752  1.00  0.00     0.046 A 
HETATM    7  C22 UNL     1       4.206 -13.741 -50.008  1.00  0.00     0.155 A 
HETATM    8  N4  UNL     1       4.693 -14.831 -50.521  1.00  0.00    -0.317 N 
ATOM      9  H4  UNL     1       5.101 -14.830 -51.456  1.00  0.00     0.170 HD
BRANCH   6  10
HETATM   10  C4  UNL     1       3.059 -12.692 -47.921  1.00  0.00     0.161 C 
BRANCH  10  11
HETATM   11  C3  UNL     1       4.130 -12.175 -47.026  1.00  0.00     0.263 C 
HETATM   12  O2  UNL     1       4.069 -11.022 -46.532  1.00  0.00    -0.265 OA
BRANCH  11  13
HETATM   13  O1  UNL     1       5.236 -12.959 -46.713  1.00  0.00    -0.322 OA
BRANCH  13  14
HETATM   14  C2  UNL     1       6.537 -12.511 -47.086  1.00  0.00     0.174 C 
HETATM   15  C1  UNL     1       7.118 -13.598 -47.969  1.00  0.00     0.034 C 
ENDBRANCH  13  14
ENDBRANCH  11  13
ENDBRANCH  10  11
ENDBRANCH   6  10
BRANCH   7  16
HETATM   16  O9  UNL     1       4.212 -12.499 -50.708  1.00  0.00    -0.345 OA
ATOM     17  H9  UNL     1       3.622 -12.379 -51.443  1.00  0.00     0.219 HD
ENDBRANCH   7  16
ENDBRANCH   2   4
ENDBRANCH   1   2
BRANCH   1  18
HETATM   18  N2  UNL     1       6.252 -18.261 -51.917  1.00  0.00    -0.343 N 
ATOM     19  H2  UNL     1       6.712 -19.170 -51.869  1.00  0.00     0.164 HD
BRANCH  18  20
HETATM   20  C8  UNL     1       5.551 -17.889 -53.121  1.00  0.00     0.350 C 
HETATM   21  O3  UNL     1       5.107 -16.708 -53.196  1.00  0.00    -0.284 OA
ENDBRANCH  18  20
ENDBRANCH   1  18
BRANCH   1  22
HETATM   22  C9  UNL     1       7.317 -17.992 -49.788  1.00  0.00     0.328 C 
BRANCH  22  23
HETATM   23  O4  UNL     1       6.725 -18.971 -49.001  1.00  0.00    -0.366 OA
ATOM     24  H4  UNL     1       6.313 -18.600 -48.230  1.00  0.00     0.212 HD
ENDBRANCH  22  23
BRANCH  22  25
HETATM   25  O5  UNL     1       7.905 -17.004 -48.985  1.00  0.00    -0.244 OA
BRANCH  25  26
HETATM   26  N3  UNL     1       8.940 -17.420 -48.168  1.00  0.00    -0.272 N 
HETATM   27  C10 UNL     1       8.975 -17.348 -46.911  1.00  0.00     0.013 C 
HETATM   28  C11 UNL     1       7.935 -16.808 -46.011  1.00  0.00     0.054 C 
HETATM   29  C21 UNL     1      10.203 -17.885 -46.236  1.00  0.00     0.093 C 
HETATM   30  C12 UNL     1       7.586 -17.710 -44.873  1.00  0.00     0.009 C 
HETATM   31  C13 UNL     1       8.764 -18.436 -44.267  1.00  0.00     0.039 C 
HETATM   32  C14 UNL     1       9.694 -18.986 -45.324  1.00  0.00     0.073 C 
HETATM   33  C15 UNL     1       9.097 -20.094 -46.109  1.00  0.00     0.045 C 
HETATM   34  O8  UNL     1      10.817 -19.541 -44.694  1.00  0.00    -0.343 OA
HETATM   35  C16 UNL     1      10.234 -21.058 -46.324  1.00  0.00     0.068 C 
HETATM   36  C17 UNL     1      11.402 -20.404 -45.633  1.00  0.00     0.060 C 
HETATM   37  C18 UNL     1      12.657 -20.645 -45.910  1.00  0.00     0.044 C 
HETATM   38  C19 UNL     1      12.998 -21.623 -46.967  1.00  0.00     0.058 C 
ATOM     39  H3  UNL     1       9.755 -17.824 -48.628  1.00  0.00     0.193 HD
BRANCH  37  40
HETATM   40  C20 UNL     1      13.704 -19.957 -45.179  1.00  0.00     0.207 C 
HETATM   41  O6  UNL     1      14.121 -18.817 -45.540  1.00  0.00    -0.644 OA
HETATM   42  O7  UNL     1      14.265 -20.549 -44.069  1.00  0.00    -0.644 OA
ENDBRANCH  37  40
ENDBRANCH  25  26
ENDBRANCH  22  25
ENDBRANCH   1  22
TORSDOF 14
ENDMDL
MODEL 5
REMARK VINA RESULT: -8.217298463      2.009      3.353
REMARK  14 active torsions:
REMARK  status: ('A' for Active; 'I' for Inactive)
REMARK    1  A    between atoms: C2_2  and  O1_3 
REMARK    2  A    between atoms: O1_3  and  C3_4 
REMARK    3  A    between atoms: C3_4  and  C4_6 
REMARK    4  A    between atoms: C4_6  and  C5_7 
REMARK    5  A    between atoms: C6_9  and  N1_10 
REMARK    6  A    between atoms: N1_10  and  C7_12 
REMARK    7  A    between atoms: C7_12  and  N2_13 
REMARK    8  A    between atoms: C7_12  and  C9_17 
REMARK    9  A    between atoms: N2_13  and  C8_15 
REMARK   10  A    between atoms: C9_17  and  O4_18 
REMARK   11  A    between atoms: C9_17  and  O5_20 
REMARK   12  A    between atoms: O5_20  and  N3_21 
REMARK   13  A    between atoms: C18_31  and  C20_33 
REMARK   14  A    between atoms: C22_40  and  O9_41 
ROOT
HETATM    1  C7  UNL     1      10.947 -20.203 -48.314  1.00  0.00     0.243 C 
ENDROOT
BRANCH   1   2
HETATM    2  N1  UNL     1       9.963 -20.192 -49.357  1.00  0.00    -0.345 N 
ATOM      3  H1  UNL     1       9.870 -21.026 -49.936  1.00  0.00     0.163 HD
BRANCH   2   4
HETATM    4  C6  UNL     1       9.184 -19.185 -49.609  1.00  0.00     0.148 A 
HETATM    5  S1  UNL     1       8.402 -18.150 -48.499  1.00  0.00    -0.054 SA
HETATM    6  C5  UNL     1       7.617 -17.122 -49.624  1.00  0.00     0.046 A 
HETATM    7  C22 UNL     1       8.021 -17.661 -50.813  1.00  0.00     0.155 A 
HETATM    8  N4  UNL     1       8.807 -18.695 -50.790  1.00  0.00    -0.317 N 
ATOM      9  H4  UNL     1       9.129 -19.124 -51.658  1.00  0.00     0.170 HD
BRANCH   6  10
HETATM   10  C4  UNL     1       6.732 -15.929 -49.360  1.00  0.00     0.161 C 
BRANCH  10  11
HETATM   11  C3  UNL     1       5.709 -16.356 -48.366  1.00  0.00     0.263 C 
HETATM   12  O2  UNL     1       4.734 -17.073 -48.699  1.00  0.00    -0.265 OA
BRANCH  11  13
HETATM   13  O1  UNL     1       5.805 -15.966 -47.035  1.00  0.00    -0.322 OA
BRANCH  13  14
HETATM   14  C2  UNL     1       6.013 -14.590 -46.723  1.00  0.00     0.174 C 
HETATM   15  C1  UNL     1       6.546 -14.557 -45.305  1.00  0.00     0.034 C 
ENDBRANCH  13  14
ENDBRANCH  11  13
ENDBRANCH  10  11
ENDBRANCH   6  10
BRANCH   7  16
HETATM   16  O9  UNL     1       7.568 -17.072 -52.030  1.00  0.00    -0.345 OA
ATOM     17  H9  UNL     1       8.048 -16.338 -52.395  1.00  0.00     0.219 HD
ENDBRANCH   7  16
ENDBRANCH   2   4
ENDBRANCH   1   2
BRANCH   1  18
HETATM   18  N2  UNL     1      11.919 -19.155 -48.351  1.00  0.00    -0.343 N 
ATOM     19  H2  UNL     1      11.654 -18.241 -48.720  1.00  0.00     0.164 HD
BRANCH  18  20
HETATM   20  C8  UNL     1      13.265 -19.359 -47.878  1.00  0.00     0.350 C 
HETATM   21  O3  UNL     1      13.710 -18.548 -47.016  1.00  0.00    -0.284 OA
ENDBRANCH  18  20
ENDBRANCH   1  18
BRANCH   1  22
HETATM   22  C9  UNL     1      11.706 -21.541 -48.366  1.00  0.00     0.328 C 
BRANCH  22  23
HETATM   23  O4  UNL     1      11.777 -22.041 -49.660  1.00  0.00    -0.366 OA
ATOM     24  H4  UNL     1      12.507 -22.639 -49.765  1.00  0.00     0.212 HD
ENDBRANCH  22  23
BRANCH  22  25
HETATM   25  O5  UNL     1      11.137 -22.489 -47.503  1.00  0.00    -0.244 OA
BRANCH  25  26
HETATM   26  N3  UNL     1      10.611 -21.998 -46.322  1.00  0.00    -0.272 N 
HETATM   27  C10 UNL     1      11.208 -21.913 -45.216  1.00  0.00     0.013 C 
HETATM   28  C11 UNL     1      12.596 -22.313 -44.910  1.00  0.00     0.054 C 
HETATM   29  C21 UNL     1      10.434 -21.325 -44.073  1.00  0.00     0.093 C 
HETATM   30  C12 UNL     1      13.387 -21.268 -44.193  1.00  0.00     0.009 C 
HETATM   31  C13 UNL     1      12.607 -20.500 -43.152  1.00  0.00     0.039 C 
HETATM   32  C14 UNL     1      11.235 -20.108 -43.649  1.00  0.00     0.073 C 
HETATM   33  C15 UNL     1      11.272 -19.092 -44.730  1.00  0.00     0.045 C 
HETATM   34  O8  UNL     1      10.528 -19.504 -42.598  1.00  0.00    -0.343 OA
HETATM   35  C16 UNL     1      10.103 -18.189 -44.439  1.00  0.00     0.068 C 
HETATM   36  C17 UNL     1       9.487 -18.779 -43.197  1.00  0.00     0.060 C 
HETATM   37  C18 UNL     1       8.244 -18.603 -42.831  1.00  0.00     0.044 C 
HETATM   38  C19 UNL     1       7.346 -17.773 -43.665  1.00  0.00     0.058 C 
ATOM     39  H3  UNL     1       9.644 -21.674 -46.349  1.00  0.00     0.193 HD
BRANCH  37  40
HETATM   40  C20 UNL     1       7.755 -19.219 -41.611  1.00  0.00     0.207 C 
HETATM   41  O6  UNL     1       6.993 -20.230 -41.642  1.00  0.00    -0.644 OA
HETATM   42  O7  UNL     1       8.120 -18.698 -40.390  1.00  0.00    -0.644 OA
ENDBRANCH  37  40
ENDBRANCH  25  26
ENDBRANCH  22  25
ENDBRANCH   1  22
TORSDOF 14
ENDMDL
