MODEL 1
REMARK VINA RESULT: -8.221475905      0.000      0.000
REMARK  13 active torsions:
REMARK  status: ('A' for Active; 'I' for Inactive)
REMARK    1  A    between atoms: O1_2  and  C2_3 
REMARK    2  A    between atoms: C2_3  and  C3_5 
REMARK    3  A    between atoms: C3_5  and  O3_6 
REMARK    4  A    between atoms: C3_5  and  C24_35 
REMARK    5  A    between atoms: O3_6  and  C4_7 
REMARK    6  A    between atoms: C4_7  and  C5_9 
REMARK    7  A    between atoms: C8_12  and  C9_13 
REMARK    8  A    between atoms: C13_21  and  C14_22 
REMARK    9  A    between atoms: C16_24  and  O7_25 
REMARK   10  A    between atoms: C18_27  and  O8_28 
REMARK   11  A    between atoms: C20_30  and  O9_31 
REMARK   12  A    between atoms: C24_35  and  O10_36 
REMARK   13  A    between atoms: N2_38  and  O11_40 
ROOT
HETATM    1  C5  UNL     1      10.794 -20.929 -43.957  1.00  0.00     0.092 C 
HETATM    2  C6  UNL     1      10.827 -22.384 -43.605  1.00  0.00     0.017 C 
HETATM    3  C7  UNL     1      10.759 -22.678 -42.149  1.00  0.00     0.037 C 
HETATM    4  C8  UNL     1       9.278 -22.468 -41.788  1.00  0.00     0.179 C 
HETATM    5  N1  UNL     1       9.176 -21.145 -41.314  1.00  0.00    -0.404 N 
ATOM      6  H1  UNL     1       9.077 -20.975 -40.313  1.00  0.00     0.154 HD
HETATM    7  C10 UNL     1       9.209 -20.067 -42.192  1.00  0.00     0.083 C 
HETATM    8  C11 UNL     1      10.133 -18.931 -41.744  1.00  0.00     0.026 C 
HETATM    9  C12 UNL     1       9.797 -17.934 -42.844  1.00  0.00     0.012 C 
HETATM   10  C13 UNL     1       9.702 -18.813 -44.107  1.00  0.00     0.025 C 
HETATM   11  C23 UNL     1       9.506 -20.218 -43.618  1.00  0.00     0.030 C 
ENDROOT
BRANCH   1  12
HETATM   12  C4  UNL     1      10.907 -20.912 -45.450  1.00  0.00     0.264 C 
HETATM   13  O4  UNL     1      10.105 -21.625 -46.116  1.00  0.00    -0.265 OA
BRANCH  12  14
HETATM   14  O3  UNL     1      11.815 -20.175 -46.160  1.00  0.00    -0.297 OA
BRANCH  14  15
HETATM   15  C3  UNL     1      13.206 -20.446 -46.171  1.00  0.00     0.307 C 
BRANCH  15  16
HETATM   16  C2  UNL     1      13.985 -19.537 -45.302  1.00  0.00     0.296 C 
HETATM   17  O2  UNL     1      13.987 -18.288 -45.369  1.00  0.00    -0.262 OA
BRANCH  16  18
HETATM   18  O1  UNL     1      14.800 -20.087 -44.311  1.00  0.00    -0.324 OA
HETATM   19  C1  UNL     1      14.323 -21.002 -43.356  1.00  0.00     0.213 C 
ENDBRANCH  16  18
ENDBRANCH  15  16
BRANCH  15  20
HETATM   20  C24 UNL     1      13.740 -20.454 -47.558  1.00  0.00     0.175 C 
HETATM   21  N2  UNL     1      13.426 -21.420 -48.335  1.00  0.00    -0.248 N 
ATOM     22  H2  UNL     1      13.778 -21.450 -49.292  1.00  0.00     0.196 HD
BRANCH  20  23
HETATM   23  O10 UNL     1      14.577 -19.423 -48.016  1.00  0.00    -0.346 OA
ATOM     24  H10 UNL     1      14.242 -18.739 -48.583  1.00  0.00     0.219 HD
ENDBRANCH  20  23
BRANCH  21  25
HETATM   25  O11 UNL     1      12.608 -22.413 -47.866  1.00  0.00    -0.288 OA
ATOM     26  H11 UNL     1      12.468 -23.186 -48.399  1.00  0.00     0.244 HD
ENDBRANCH  21  25
ENDBRANCH  15  20
ENDBRANCH  14  15
ENDBRANCH  12  14
ENDBRANCH   1  12
BRANCH  10  27
HETATM   27  C14 UNL     1       8.656 -18.246 -44.936  1.00  0.00    -0.048 A 
HETATM   28  C15 UNL     1       7.893 -17.219 -44.375  1.00  0.00     0.047 A 
HETATM   29  C16 UNL     1       6.871 -16.579 -45.033  1.00  0.00     0.104 A 
HETATM   30  C18 UNL     1       6.594 -16.984 -46.321  1.00  0.00     0.135 A 
HETATM   31  C20 UNL     1       7.319 -17.999 -46.928  1.00  0.00     0.104 A 
HETATM   32  C22 UNL     1       8.329 -18.597 -46.215  1.00  0.00     0.047 A 
BRANCH  29  33
HETATM   33  O7  UNL     1       6.112 -15.560 -44.477  1.00  0.00    -0.353 OA
HETATM   34  C17 UNL     1       6.690 -14.592 -43.634  1.00  0.00     0.210 C 
ENDBRANCH  29  33
BRANCH  30  35
HETATM   35  O8  UNL     1       5.577 -16.364 -47.007  1.00  0.00    -0.351 OA
HETATM   36  C19 UNL     1       5.831 -15.230 -47.792  1.00  0.00     0.210 C 
ENDBRANCH  30  35
BRANCH  31  37
HETATM   37  O9  UNL     1       7.024 -18.386 -48.214  1.00  0.00    -0.353 OA
HETATM   38  C21 UNL     1       7.827 -18.091 -49.332  1.00  0.00     0.210 C 
ENDBRANCH  31  37
ENDBRANCH  10  27
BRANCH   4  39
HETATM   39  C9  UNL     1       8.998 -23.445 -40.717  1.00  0.00     0.196 C 
HETATM   40  O5  UNL     1       8.671 -23.021 -39.590  1.00  0.00    -0.646 OA
HETATM   41  O6  UNL     1       9.089 -24.802 -40.923  1.00  0.00    -0.646 OA
ENDBRANCH   4  39
TORSDOF 13
ENDMDL
MODEL 2
REMARK VINA RESULT: -8.196834616      2.867      8.226
REMARK  13 active torsions:
REMARK  status: ('A' for Active; 'I' for Inactive)
REMARK    1  A    between atoms: O1_2  and  C2_3 
REMARK    2  A    between atoms: C2_3  and  C3_5 
REMARK    3  A    between atoms: C3_5  and  O3_6 
REMARK    4  A    between atoms: C3_5  and  C24_35 
REMARK    5  A    between atoms: O3_6  and  C4_7 
REMARK    6  A    between atoms: C4_7  and  C5_9 
REMARK    7  A    between atoms: C8_12  and  C9_13 
REMARK    8  A    between atoms: C13_21  and  C14_22 
REMARK    9  A    between atoms: C16_24  and  O7_25 
REMARK   10  A    between atoms: C18_27  and  O8_28 
REMARK   11  A    between atoms: C20_30  and  O9_31 
REMARK   12  A    between atoms: C24_35  and  O10_36 
REMARK   13  A    between atoms: N2_38  and  O11_40 
ROOT
HETATM    1  C5  UNL     1      10.841 -18.672 -44.401  1.00  0.00     0.092 C 
HETATM    2  C6  UNL     1       9.538 -18.365 -45.071  1.00  0.00     0.017 C 
HETATM    3  C7  UNL     1       9.653 -17.906 -46.482  1.00  0.00     0.037 C 
HETATM    4  C8  UNL     1       9.934 -19.192 -47.278  1.00  0.00     0.179 C 
HETATM    5  N1  UNL     1      11.335 -19.272 -47.408  1.00  0.00    -0.404 N 
ATOM      6  H1  UNL     1      11.770 -19.046 -48.303  1.00  0.00     0.154 HD
HETATM    7  C10 UNL     1      12.131 -19.653 -46.335  1.00  0.00     0.083 C 
HETATM    8  C11 UNL     1      13.359 -18.762 -46.127  1.00  0.00     0.026 C 
HETATM    9  C12 UNL     1      14.013 -19.555 -45.003  1.00  0.00     0.012 C 
HETATM   10  C13 UNL     1      12.821 -19.974 -44.120  1.00  0.00     0.025 C 
HETATM   11  C23 UNL     1      11.600 -19.840 -44.983  1.00  0.00     0.030 C 
ENDROOT
BRANCH   1  12
HETATM   12  C4  UNL     1      10.451 -19.072 -43.012  1.00  0.00     0.264 C 
HETATM   13  O4  UNL     1      10.670 -18.255 -42.072  1.00  0.00    -0.265 OA
BRANCH  12  14
HETATM   14  O3  UNL     1       9.868 -20.262 -42.671  1.00  0.00    -0.297 OA
BRANCH  14  15
HETATM   15  C3  UNL     1       9.174 -20.475 -41.454  1.00  0.00     0.307 C 
BRANCH  15  16
HETATM   16  C2  UNL     1       9.319 -21.851 -40.932  1.00  0.00     0.296 C 
HETATM   17  O2  UNL     1       8.395 -22.559 -40.475  1.00  0.00    -0.262 OA
BRANCH  16  18
HETATM   18  O1  UNL     1      10.584 -22.442 -40.933  1.00  0.00    -0.324 OA
HETATM   19  C1  UNL     1      11.564 -22.141 -39.971  1.00  0.00     0.213 C 
ENDBRANCH  16  18
ENDBRANCH  15  16
BRANCH  15  20
HETATM   20  C24 UNL     1       7.743 -20.094 -41.580  1.00  0.00     0.175 C 
HETATM   21  N2  UNL     1       7.333 -19.031 -40.999  1.00  0.00    -0.248 N 
ATOM     22  H2  UNL     1       6.357 -18.747 -41.070  1.00  0.00     0.196 HD
BRANCH  20  23
HETATM   23  O10 UNL     1       6.848 -20.884 -42.321  1.00  0.00    -0.346 OA
ATOM     24  H10 UNL     1       6.530 -20.595 -43.168  1.00  0.00     0.219 HD
ENDBRANCH  20  23
BRANCH  21  25
HETATM   25  O11 UNL     1       8.225 -18.278 -40.282  1.00  0.00    -0.288 OA
ATOM     26  H11 UNL     1       7.953 -17.908 -39.451  1.00  0.00     0.244 HD
ENDBRANCH  21  25
ENDBRANCH  15  20
ENDBRANCH  14  15
ENDBRANCH  12  14
ENDBRANCH   1  12
BRANCH  10  27
HETATM   27  C14 UNL     1      13.126 -21.293 -43.600  1.00  0.00    -0.048 A 
HETATM   28  C15 UNL     1      12.310 -22.344 -44.028  1.00  0.00     0.047 A 
HETATM   29  C16 UNL     1      12.473 -23.648 -43.630  1.00  0.00     0.104 A 
HETATM   30  C18 UNL     1      13.505 -23.921 -42.758  1.00  0.00     0.135 A 
HETATM   31  C20 UNL     1      14.345 -22.917 -42.300  1.00  0.00     0.104 A 
HETATM   32  C22 UNL     1      14.129 -21.633 -42.738  1.00  0.00     0.047 A 
BRANCH  29  33
HETATM   33  O7  UNL     1      11.664 -24.692 -44.053  1.00  0.00    -0.353 OA
HETATM   34  C17 UNL     1      10.342 -24.830 -43.589  1.00  0.00     0.210 C 
ENDBRANCH  29  33
BRANCH  30  35
HETATM   35  O8  UNL     1      13.694 -25.217 -42.340  1.00  0.00    -0.351 OA
HETATM   36  C19 UNL     1      13.092 -25.683 -41.162  1.00  0.00     0.210 C 
ENDBRANCH  30  35
BRANCH  31  37
HETATM   37  O9  UNL     1      15.367 -23.214 -41.431  1.00  0.00    -0.353 OA
HETATM   38  C21 UNL     1      16.704 -23.421 -41.822  1.00  0.00     0.210 C 
ENDBRANCH  31  37
ENDBRANCH  10  27
BRANCH   4  39
HETATM   39  C9  UNL     1       9.283 -18.987 -48.587  1.00  0.00     0.196 C 
HETATM   40  O5  UNL     1       9.478 -19.825 -49.491  1.00  0.00    -0.646 OA
HETATM   41  O6  UNL     1       8.474 -17.903 -48.840  1.00  0.00    -0.646 OA
ENDBRANCH   4  39
TORSDOF 13
ENDMDL
MODEL 3
REMARK VINA RESULT: -8.157066119      2.850      8.203
REMARK  13 active torsions:
REMARK  status: ('A' for Active; 'I' for Inactive)
REMARK    1  A    between atoms: O1_2  and  C2_3 
REMARK    2  A    between atoms: C2_3  and  C3_5 
REMARK    3  A    between atoms: C3_5  and  O3_6 
REMARK    4  A    between atoms: C3_5  and  C24_35 
REMARK    5  A    between atoms: O3_6  and  C4_7 
REMARK    6  A    between atoms: C4_7  and  C5_9 
REMARK    7  A    between atoms: C8_12  and  C9_13 
REMARK    8  A    between atoms: C13_21  and  C14_22 
REMARK    9  A    between atoms: C16_24  and  O7_25 
REMARK   10  A    between atoms: C18_27  and  O8_28 
REMARK   11  A    between atoms: C20_30  and  O9_31 
REMARK   12  A    between atoms: C24_35  and  O10_36 
REMARK   13  A    between atoms: N2_38  and  O11_40 
ROOT
HETATM    1  C5  UNL     1      10.771 -18.596 -44.374  1.00  0.00     0.092 C 
HETATM    2  C6  UNL     1       9.483 -18.189 -45.018  1.00  0.00     0.017 C 
HETATM    3  C7  UNL     1       9.611 -17.678 -46.409  1.00  0.00     0.037 C 
HETATM    4  C8  UNL     1       9.813 -18.944 -47.261  1.00  0.00     0.179 C 
HETATM    5  N1  UNL     1      11.207 -19.095 -47.409  1.00  0.00    -0.404 N 
ATOM      6  H1  UNL     1      11.647 -18.857 -48.298  1.00  0.00     0.154 HD
HETATM    7  C10 UNL     1      11.989 -19.565 -46.361  1.00  0.00     0.083 C 
HETATM    8  C11 UNL     1      13.267 -18.753 -46.129  1.00  0.00     0.026 C 
HETATM    9  C12 UNL     1      13.884 -19.627 -45.046  1.00  0.00     0.012 C 
HETATM   10  C13 UNL     1      12.678 -20.016 -44.168  1.00  0.00     0.025 C 
HETATM   11  C23 UNL     1      11.460 -19.779 -45.013  1.00  0.00     0.030 C 
ENDROOT
BRANCH   1  12
HETATM   12  C4  UNL     1      10.372 -19.031 -42.999  1.00  0.00     0.264 C 
HETATM   13  O4  UNL     1      10.604 -18.248 -42.034  1.00  0.00    -0.265 OA
BRANCH  12  14
HETATM   14  O3  UNL     1       9.766 -20.220 -42.696  1.00  0.00    -0.297 OA
BRANCH  14  15
HETATM   15  C3  UNL     1       9.076 -20.462 -41.483  1.00  0.00     0.307 C 
BRANCH  15  16
HETATM   16  C2  UNL     1       9.268 -21.833 -40.964  1.00  0.00     0.296 C 
HETATM   17  O2  UNL     1       8.776 -22.874 -41.453  1.00  0.00    -0.262 OA
BRANCH  16  18
HETATM   18  O1  UNL     1      10.061 -22.019 -39.830  1.00  0.00    -0.324 OA
HETATM   19  C1  UNL     1      11.447 -22.238 -39.900  1.00  0.00     0.213 C 
ENDBRANCH  16  18
ENDBRANCH  15  16
BRANCH  15  20
HETATM   20  C24 UNL     1       7.632 -20.132 -41.613  1.00  0.00     0.175 C 
HETATM   21  N2  UNL     1       7.180 -19.094 -41.018  1.00  0.00    -0.248 N 
ATOM     22  H2  UNL     1       6.194 -18.845 -41.092  1.00  0.00     0.196 HD
BRANCH  20  23
HETATM   23  O10 UNL     1       6.772 -20.942 -42.373  1.00  0.00    -0.346 OA
ATOM     24  H10 UNL     1       5.901 -20.644 -42.606  1.00  0.00     0.219 HD
ENDBRANCH  20  23
BRANCH  21  25
HETATM   25  O11 UNL     1       8.038 -18.321 -40.283  1.00  0.00    -0.288 OA
ATOM     26  H11 UNL     1       8.254 -17.449 -40.592  1.00  0.00     0.244 HD
ENDBRANCH  21  25
ENDBRANCH  15  20
ENDBRANCH  14  15
ENDBRANCH  12  14
ENDBRANCH   1  12
BRANCH  10  27
HETATM   27  C14 UNL     1      12.913 -21.371 -43.707  1.00  0.00    -0.048 A 
HETATM   28  C15 UNL     1      13.958 -21.555 -42.797  1.00  0.00     0.047 A 
HETATM   29  C16 UNL     1      14.302 -22.775 -42.266  1.00  0.00     0.104 A 
HETATM   30  C18 UNL     1      13.565 -23.869 -42.662  1.00  0.00     0.135 A 
HETATM   31  C20 UNL     1      12.517 -23.745 -43.563  1.00  0.00     0.104 A 
HETATM   32  C22 UNL     1      12.224 -22.497 -44.056  1.00  0.00     0.047 A 
BRANCH  29  33
HETATM   33  O7  UNL     1      15.339 -22.959 -41.364  1.00  0.00    -0.353 OA
HETATM   34  C17 UNL     1      16.679 -23.018 -41.789  1.00  0.00     0.210 C 
ENDBRANCH  29  33
BRANCH  30  35
HETATM   35  O8  UNL     1      13.884 -25.104 -42.149  1.00  0.00    -0.351 OA
HETATM   36  C19 UNL     1      14.707 -25.986 -42.866  1.00  0.00     0.210 C 
ENDBRANCH  30  35
BRANCH  31  37
HETATM   37  O9  UNL     1      11.797 -24.852 -43.943  1.00  0.00    -0.353 OA
HETATM   38  C21 UNL     1      10.551 -25.212 -43.395  1.00  0.00     0.210 C 
ENDBRANCH  31  37
ENDBRANCH  10  27
BRANCH   4  39
HETATM   39  C9  UNL     1       9.165 -18.648 -48.554  1.00  0.00     0.196 C 
HETATM   40  O5  UNL     1       9.340 -19.435 -49.506  1.00  0.00    -0.646 OA
HETATM   41  O6  UNL     1       8.377 -17.535 -48.739  1.00  0.00    -0.646 OA
ENDBRANCH   4  39
TORSDOF 13
ENDMDL
MODEL 4
REMARK VINA RESULT: -8.154396804      1.515      2.482
REMARK  13 active torsions:
REMARK  status: ('A' for Active; 'I' for Inactive)
REMARK    1  A    between atoms: O1_2  and  C2_3 
REMARK    2  A    between atoms: C2_3  and  C3_5 
REMARK    3  A    between atoms: C3_5  and  O3_6 
REMARK    4  A    between atoms: C3_5  and  C24_35 
REMARK    5  A    between atoms: O3_6  and  C4_7 
REMARK    6  A    between atoms: C4_7  and  C5_9 
REMARK    7  A    between atoms: C8_12  and  C9_13 
REMARK    8  A    between atoms: C13_21  and  C14_22 
REMARK    9  A    between atoms: C16_24  and  O7_25 
REMARK   10  A    between atoms: C18_27  and  O8_28 
REMARK   11  A    between atoms: C20_30  and  O9_31 
REMARK   12  A    between atoms: C24_35  and  O10_36 
REMARK   13  A    between atoms: N2_38  and  O11_40 
ROOT
HETATM    1  C5  UNL     1      12.144 -20.066 -43.508  1.00  0.00     0.092 C 
HETATM    2  C6  UNL     1      12.802 -21.383 -43.238  1.00  0.00     0.017 C 
HETATM    3  C7  UNL     1      12.527 -21.957 -41.893  1.00  0.00     0.037 C 
HETATM    4  C8  UNL     1      11.100 -22.520 -42.004  1.00  0.00     0.179 C 
HETATM    5  N1  UNL     1      10.243 -21.510 -41.520  1.00  0.00    -0.404 N 
ATOM      6  H1  UNL     1       9.828 -21.605 -40.593  1.00  0.00     0.154 HD
HETATM    7  C10 UNL     1       9.958 -20.387 -42.288  1.00  0.00     0.083 C 
HETATM    8  C11 UNL     1      10.055 -19.068 -41.516  1.00  0.00     0.026 C 
HETATM    9  C12 UNL     1       9.558 -18.138 -42.614  1.00  0.00     0.012 C 
HETATM   10  C13 UNL     1      10.227 -18.696 -43.886  1.00  0.00     0.025 C 
HETATM   11  C23 UNL     1      10.635 -20.102 -43.555  1.00  0.00     0.030 C 
ENDROOT
BRANCH   1  12
HETATM   12  C4  UNL     1      12.601 -19.706 -44.888  1.00  0.00     0.264 C 
HETATM   13  O4  UNL     1      12.826 -18.489 -45.142  1.00  0.00    -0.265 OA
BRANCH  12  14
HETATM   14  O3  UNL     1      12.799 -20.597 -45.907  1.00  0.00    -0.297 OA
BRANCH  14  15
HETATM   15  C3  UNL     1      12.315 -20.399 -47.225  1.00  0.00     0.307 C 
BRANCH  15  16
HETATM   16  C2  UNL     1      11.989 -21.662 -47.923  1.00  0.00     0.296 C 
HETATM   17  O2  UNL     1      12.203 -21.903 -49.131  1.00  0.00    -0.262 OA
BRANCH  16  18
HETATM   18  O1  UNL     1      11.389 -22.695 -47.200  1.00  0.00    -0.324 OA
HETATM   19  C1  UNL     1      10.099 -22.589 -46.653  1.00  0.00     0.213 C 
ENDBRANCH  16  18
ENDBRANCH  15  16
BRANCH  15  20
HETATM   20  C24 UNL     1      13.256 -19.570 -48.023  1.00  0.00     0.175 C 
HETATM   21  N2  UNL     1      12.956 -18.349 -48.258  1.00  0.00    -0.248 N 
ATOM     22  H2  UNL     1      13.584 -17.758 -48.803  1.00  0.00     0.196 HD
BRANCH  20  23
HETATM   23  O10 UNL     1      14.457 -20.109 -48.513  1.00  0.00    -0.346 OA
ATOM     24  H10 UNL     1      14.544 -20.353 -49.426  1.00  0.00     0.219 HD
ENDBRANCH  20  23
BRANCH  21  25
HETATM   25  O11 UNL     1      11.780 -17.846 -47.769  1.00  0.00    -0.288 OA
ATOM     26  H11 UNL     1      11.502 -16.978 -48.038  1.00  0.00     0.244 HD
ENDBRANCH  21  25
ENDBRANCH  15  20
ENDBRANCH  14  15
ENDBRANCH  12  14
ENDBRANCH   1  12
BRANCH  10  27
HETATM   27  C14 UNL     1       9.282 -18.517 -44.971  1.00  0.00    -0.048 A 
HETATM   28  C15 UNL     1       8.361 -17.474 -44.839  1.00  0.00     0.047 A 
HETATM   29  C16 UNL     1       7.406 -17.175 -45.781  1.00  0.00     0.104 A 
HETATM   30  C18 UNL     1       7.369 -17.955 -46.916  1.00  0.00     0.135 A 
HETATM   31  C20 UNL     1       8.259 -19.003 -47.100  1.00  0.00     0.104 A 
HETATM   32  C22 UNL     1       9.189 -19.250 -46.120  1.00  0.00     0.047 A 
BRANCH  29  33
HETATM   33  O7  UNL     1       6.491 -16.142 -45.652  1.00  0.00    -0.353 OA
HETATM   34  C17 UNL     1       6.142 -15.624 -44.390  1.00  0.00     0.210 C 
ENDBRANCH  29  33
BRANCH  30  35
HETATM   35  O8  UNL     1       6.425 -17.682 -47.878  1.00  0.00    -0.351 OA
HETATM   36  C19 UNL     1       6.714 -16.806 -48.935  1.00  0.00     0.210 C 
ENDBRANCH  30  35
BRANCH  31  37
HETATM   37  O9  UNL     1       8.201 -19.768 -48.240  1.00  0.00    -0.353 OA
HETATM   38  C21 UNL     1       9.132 -19.689 -49.294  1.00  0.00     0.210 C 
ENDBRANCH  31  37
ENDBRANCH  10  27
BRANCH   4  39
HETATM   39  C9  UNL     1      11.081 -23.706 -41.126  1.00  0.00     0.196 C 
HETATM   40  O5  UNL     1      12.163 -24.134 -40.674  1.00  0.00    -0.646 OA
HETATM   41  O6  UNL     1       9.912 -24.352 -40.793  1.00  0.00    -0.646 OA
ENDBRANCH   4  39
TORSDOF 13
ENDMDL
MODEL 5
REMARK VINA RESULT: -8.101403945      2.388      5.986
REMARK  13 active torsions:
REMARK  status: ('A' for Active; 'I' for Inactive)
REMARK    1  A    between atoms: O1_2  and  C2_3 
REMARK    2  A    between atoms: C2_3  and  C3_5 
REMARK    3  A    between atoms: C3_5  and  O3_6 
REMARK    4  A    between atoms: C3_5  and  C24_35 
REMARK    5  A    between atoms: O3_6  and  C4_7 
REMARK    6  A    between atoms: C4_7  and  C5_9 
REMARK    7  A    between atoms: C8_12  and  C9_13 
REMARK    8  A    between atoms: C13_21  and  C14_22 
REMARK    9  A    between atoms: C16_24  and  O7_25 
REMARK   10  A    between atoms: C18_27  and  O8_28 
REMARK   11  A    between atoms: C20_30  and  O9_31 
REMARK   12  A    between atoms: C24_35  and  O10_36 
REMARK   13  A    between atoms: N2_38  and  O11_40 
ROOT
HETATM    1  C5  UNL     1       9.542 -19.669 -45.583  1.00  0.00     0.092 C 
HETATM    2  C6  UNL     1      10.934 -20.061 -45.200  1.00  0.00     0.017 C 
HETATM    3  C7  UNL     1      11.674 -20.834 -46.234  1.00  0.00     0.037 C 
HETATM    4  C8  UNL     1      12.094 -19.777 -47.270  1.00  0.00     0.179 C 
HETATM    5  N1  UNL     1      11.099 -19.793 -48.268  1.00  0.00    -0.404 N 
ATOM      6  H1  UNL     1      11.294 -20.236 -49.166  1.00  0.00     0.154 HD
HETATM    7  C10 UNL     1       9.855 -19.213 -48.046  1.00  0.00     0.083 C 
HETATM    8  C11 UNL     1       8.677 -20.089 -48.482  1.00  0.00     0.026 C 
HETATM    9  C12 UNL     1       7.558 -19.091 -48.216  1.00  0.00     0.012 C 
HETATM   10  C13 UNL     1       7.976 -18.429 -46.889  1.00  0.00     0.025 C 
HETATM   11  C23 UNL     1       9.445 -18.700 -46.737  1.00  0.00     0.030 C 
ENDROOT
BRANCH   1  12
HETATM   12  C4  UNL     1       9.022 -18.946 -44.380  1.00  0.00     0.264 C 
HETATM   13  O4  UNL     1       9.636 -17.912 -43.993  1.00  0.00    -0.265 OA
BRANCH  12  14
HETATM   14  O3  UNL     1       7.920 -19.316 -43.656  1.00  0.00    -0.297 OA
BRANCH  14  15
HETATM   15  C3  UNL     1       7.966 -20.224 -42.569  1.00  0.00     0.307 C 
BRANCH  15  16
HETATM   16  C2  UNL     1       7.474 -21.575 -42.916  1.00  0.00     0.296 C 
HETATM   17  O2  UNL     1       6.312 -21.857 -43.282  1.00  0.00    -0.262 OA
BRANCH  16  18
HETATM   18  O1  UNL     1       8.358 -22.653 -42.837  1.00  0.00    -0.324 OA
HETATM   19  C1  UNL     1       9.733 -22.492 -42.591  1.00  0.00     0.213 C 
ENDBRANCH  16  18
ENDBRANCH  15  16
BRANCH  15  20
HETATM   20  C24 UNL     1       7.252 -19.678 -41.385  1.00  0.00     0.175 C 
HETATM   21  N2  UNL     1       7.831 -18.790 -40.670  1.00  0.00    -0.248 N 
ATOM     22  H2  UNL     1       7.364 -18.400 -39.852  1.00  0.00     0.196 HD
BRANCH  20  23
HETATM   23  O10 UNL     1       5.963 -20.125 -41.050  1.00  0.00    -0.346 OA
ATOM     24  H10 UNL     1       5.415 -19.629 -40.454  1.00  0.00     0.219 HD
ENDBRANCH  20  23
BRANCH  21  25
HETATM   25  O11 UNL     1       9.088 -18.371 -41.017  1.00  0.00    -0.288 OA
ATOM     26  H11 UNL     1       9.217 -17.468 -41.279  1.00  0.00     0.244 HD
ENDBRANCH  21  25
ENDBRANCH  15  20
ENDBRANCH  14  15
ENDBRANCH  12  14
ENDBRANCH   1  12
BRANCH  10  27
HETATM   27  C14 UNL     1       7.561 -17.041 -46.962  1.00  0.00    -0.048 A 
HETATM   28  C15 UNL     1       6.945 -16.506 -45.828  1.00  0.00     0.047 A 
HETATM   29  C16 UNL     1       6.500 -15.209 -45.740  1.00  0.00     0.104 A 
HETATM   30  C18 UNL     1       6.678 -14.401 -46.842  1.00  0.00     0.135 A 
HETATM   31  C20 UNL     1       7.283 -14.880 -47.995  1.00  0.00     0.104 A 
HETATM   32  C22 UNL     1       7.706 -16.186 -48.018  1.00  0.00     0.047 A 
BRANCH  29  33
HETATM   33  O7  UNL     1       5.889 -14.677 -44.615  1.00  0.00    -0.353 OA
HETATM   34  C17 UNL     1       6.547 -14.638 -43.371  1.00  0.00     0.210 C 
ENDBRANCH  29  33
BRANCH  30  35
HETATM   35  O8  UNL     1       6.244 -13.099 -46.786  1.00  0.00    -0.351 OA
HETATM   36  C19 UNL     1       4.968 -12.750 -47.253  1.00  0.00     0.210 C 
ENDBRANCH  30  35
BRANCH  31  37
HETATM   37  O9  UNL     1       7.449 -14.055 -49.082  1.00  0.00    -0.353 OA
HETATM   38  C21 UNL     1       6.975 -14.347 -50.376  1.00  0.00     0.210 C 
ENDBRANCH  31  37
ENDBRANCH  10  27
BRANCH   4  39
HETATM   39  C9  UNL     1      13.391 -20.245 -47.798  1.00  0.00     0.196 C 
HETATM   40  O5  UNL     1      13.459 -21.388 -48.293  1.00  0.00    -0.646 OA
HETATM   41  O6  UNL     1      14.522 -19.461 -47.759  1.00  0.00    -0.646 OA
ENDBRANCH   4  39
TORSDOF 13
ENDMDL
