MODEL 1
REMARK VINA RESULT: -8.202453032      0.000      0.000
REMARK  15 active torsions:
REMARK  status: ('A' for Active; 'I' for Inactive)
REMARK    1  A    between atoms: C5_9  and  C6_10 
REMARK    2  A    between atoms: C6_10  and  N2_11 
REMARK    3  A    between atoms: N2_11  and  C7_12 
REMARK    4  A    between atoms: N2_11  and  S2_16 
REMARK    5  A    between atoms: C7_12  and  C8_13 
REMARK    6  A    between atoms: S2_16  and  C11_19 
REMARK    7  A    between atoms: C11_19  and  C12_20 
REMARK    8  A    between atoms: C12_20  and  N3_21 
REMARK       I    between atoms: N3_21  and  C13_23 
REMARK    9  A    between atoms: C13_23  and  C14_25 
REMARK   10  A    between atoms: C14_25  and  N4_26 
REMARK   11  A    between atoms: N4_26  and  C15_27 
REMARK   12  A    between atoms: N4_26  and  S3_31 
REMARK   13  A    between atoms: C15_27  and  C16_28 
REMARK   14  A    between atoms: S3_31  and  C19_34 
REMARK   15  A    between atoms: C22_37  and  C23_38 
ROOT
HETATM    1  C1  UNL     1       1.092  -3.520 -28.734  1.00  0.00     0.070 C 
HETATM    2  C2  UNL     1       1.116  -2.191 -29.420  1.00  0.00     0.030 A 
HETATM    3  N1  UNL     1       2.278  -1.525 -29.378  1.00  0.00    -0.325 N 
ATOM      4  H1  UNL     1       3.099  -1.903 -28.905  1.00  0.00     0.169 HD
HETATM    5  C3  UNL     1       2.300  -0.327 -29.996  1.00  0.00     0.263 A 
HETATM    6  O1  UNL     1       3.326   0.392 -30.028  1.00  0.00    -0.267 OA
HETATM    7  C4  UNL     1       1.164   0.189 -30.647  1.00  0.00     0.085 A 
HETATM    8  S1  UNL     1       0.814   1.616 -31.513  1.00  0.00    -0.087 SA
HETATM    9  C5  UNL     1      -0.828   1.309 -31.903  1.00  0.00    -0.002 A 
HETATM   10  C28 UNL     1      -1.044   0.083 -31.335  1.00  0.00     0.030 A 
HETATM   11  C29 UNL     1      -0.019  -0.495 -30.686  1.00  0.00     0.010 A 
HETATM   12  C30 UNL     1      -0.022  -1.748 -30.033  1.00  0.00     0.078 A 
HETATM   13  C31 UNL     1      -1.212  -2.574 -30.003  1.00  0.00     0.102 C 
HETATM   14  N5  UNL     1      -2.146  -3.245 -29.985  1.00  0.00    -0.191 NA
ENDROOT
BRANCH   9  15
HETATM   15  C6  UNL     1      -1.778   2.181 -32.690  1.00  0.00     0.153 C 
BRANCH  15  16
HETATM   16  N2  UNL     1      -2.597   3.008 -31.871  1.00  0.00    -0.206 NA
BRANCH  16  17
HETATM   17  C7  UNL     1      -2.079   4.349 -31.700  1.00  0.00     0.111 C 
BRANCH  17  18
HETATM   18  C8  UNL     1      -1.422   4.500 -30.341  1.00  0.00    -0.009 C 
HETATM   19  C9  UNL     1      -2.486   4.871 -29.327  1.00  0.00     0.011 C 
HETATM   20  C10 UNL     1      -0.407   5.617 -30.368  1.00  0.00     0.011 C 
ENDBRANCH  17  18
ENDBRANCH  16  17
BRANCH  16  21
HETATM   21  S2  UNL     1      -4.265   3.001 -32.263  1.00  0.00     0.213 S 
HETATM   22  O2  UNL     1      -4.397   2.957 -33.776  1.00  0.00    -0.211 OA
HETATM   23  O3  UNL     1      -5.030   4.141 -31.675  1.00  0.00    -0.211 OA
BRANCH  21  24
HETATM   24  C11 UNL     1      -5.017   1.487 -31.655  1.00  0.00     0.177 C 
BRANCH  24  25
HETATM   25  C12 UNL     1      -4.616   1.179 -30.249  1.00  0.00     0.139 C 
BRANCH  25  26
HETATM   26  N3  UNL     1      -5.786   1.104 -29.417  1.00  0.00    -0.359 N 
HETATM   27  C13 UNL     1      -6.154   2.156 -28.556  1.00  0.00     0.231 C 
HETATM   28  O4  UNL     1      -5.407   3.189 -28.540  1.00  0.00    -0.272 OA
ATOM     29  H3  UNL     1      -6.366   0.266 -29.452  1.00  0.00     0.162 HD
BRANCH  27  30
HETATM   30  C14 UNL     1      -7.356   2.106 -27.687  1.00  0.00     0.210 C 
BRANCH  30  31
HETATM   31  N4  UNL     1      -7.173   1.110 -26.660  1.00  0.00    -0.197 NA
BRANCH  31  32
HETATM   32  C15 UNL     1      -5.865   1.221 -26.109  1.00  0.00     0.112 C 
BRANCH  32  33
HETATM   33  C16 UNL     1      -5.833   1.207 -24.597  1.00  0.00    -0.009 C 
HETATM   34  C17 UNL     1      -7.167   1.737 -24.117  1.00  0.00     0.011 C 
HETATM   35  C18 UNL     1      -5.651  -0.176 -24.045  1.00  0.00     0.011 C 
ENDBRANCH  32  33
ENDBRANCH  31  32
BRANCH  31  36
HETATM   36  S3  UNL     1      -7.606  -0.468 -27.124  1.00  0.00     0.244 S 
HETATM   37  O5  UNL     1      -6.320  -1.285 -27.151  1.00  0.00    -0.206 OA
HETATM   38  O6  UNL     1      -8.219  -0.496 -28.519  1.00  0.00    -0.206 OA
BRANCH  36  39
HETATM   39  C19 UNL     1      -8.742  -1.250 -26.059  1.00  0.00     0.074 A 
HETATM   40  C20 UNL     1      -8.383  -2.339 -25.267  1.00  0.00     0.025 A 
HETATM   41  C21 UNL     1      -9.298  -2.945 -24.427  1.00  0.00     0.009 A 
HETATM   42  C22 UNL     1     -10.600  -2.499 -24.336  1.00  0.00    -0.055 A 
HETATM   43  C26 UNL     1     -10.966  -1.423 -25.113  1.00  0.00     0.009 A 
HETATM   44  C27 UNL     1     -10.049  -0.819 -25.953  1.00  0.00     0.025 A 
BRANCH  42  45
HETATM   45  C23 UNL     1     -11.586  -3.159 -23.420  1.00  0.00     0.010 C 
HETATM   46  C24 UNL     1     -11.122  -3.118 -21.990  1.00  0.00     0.015 C 
HETATM   47  C25 UNL     1     -11.744  -4.589 -23.847  1.00  0.00     0.015 C 
ENDBRANCH  42  45
ENDBRANCH  36  39
ENDBRANCH  31  36
ENDBRANCH  30  31
ENDBRANCH  27  30
ENDBRANCH  25  26
ENDBRANCH  24  25
ENDBRANCH  21  24
ENDBRANCH  16  21
ENDBRANCH  15  16
ENDBRANCH   9  15
TORSDOF 15
ENDMDL
MODEL 2
REMARK VINA RESULT: -7.759878659      4.543      8.695
REMARK  15 active torsions:
REMARK  status: ('A' for Active; 'I' for Inactive)
REMARK    1  A    between atoms: C5_9  and  C6_10 
REMARK    2  A    between atoms: C6_10  and  N2_11 
REMARK    3  A    between atoms: N2_11  and  C7_12 
REMARK    4  A    between atoms: N2_11  and  S2_16 
REMARK    5  A    between atoms: C7_12  and  C8_13 
REMARK    6  A    between atoms: S2_16  and  C11_19 
REMARK    7  A    between atoms: C11_19  and  C12_20 
REMARK    8  A    between atoms: C12_20  and  N3_21 
REMARK       I    between atoms: N3_21  and  C13_23 
REMARK    9  A    between atoms: C13_23  and  C14_25 
REMARK   10  A    between atoms: C14_25  and  N4_26 
REMARK   11  A    between atoms: N4_26  and  C15_27 
REMARK   12  A    between atoms: N4_26  and  S3_31 
REMARK   13  A    between atoms: C15_27  and  C16_28 
REMARK   14  A    between atoms: S3_31  and  C19_34 
REMARK   15  A    between atoms: C22_37  and  C23_38 
ROOT
HETATM    1  C1  UNL     1     -11.496  -3.198 -23.809  1.00  0.00     0.070 C 
HETATM    2  C2  UNL     1     -10.892  -3.603 -25.117  1.00  0.00     0.030 A 
HETATM    3  N1  UNL     1     -11.020  -4.894 -25.452  1.00  0.00    -0.325 N 
ATOM      4  H1  UNL     1     -11.500  -5.563 -24.850  1.00  0.00     0.169 HD
HETATM    5  C3  UNL     1     -10.476  -5.259 -26.630  1.00  0.00     0.263 A 
HETATM    6  O1  UNL     1     -10.528  -6.437 -27.057  1.00  0.00    -0.267 OA
HETATM    7  C4  UNL     1      -9.814  -4.332 -27.457  1.00  0.00     0.085 A 
HETATM    8  S1  UNL     1      -9.029  -4.411 -28.968  1.00  0.00    -0.087 SA
HETATM    9  C5  UNL     1      -8.557  -2.768 -29.122  1.00  0.00    -0.002 A 
HETATM   10  C28 UNL     1      -9.040  -2.212 -27.969  1.00  0.00     0.030 A 
HETATM   11  C29 UNL     1      -9.688  -3.016 -27.110  1.00  0.00     0.010 A 
HETATM   12  C30 UNL     1     -10.264  -2.654 -25.872  1.00  0.00     0.078 A 
HETATM   13  C31 UNL     1     -10.201  -1.290 -25.388  1.00  0.00     0.102 C 
HETATM   14  N5  UNL     1     -10.170  -0.207 -24.999  1.00  0.00    -0.191 NA
ENDROOT
BRANCH   9  15
HETATM   15  C6  UNL     1      -7.806  -2.116 -30.259  1.00  0.00     0.153 C 
BRANCH  15  16
HETATM   16  N2  UNL     1      -7.222  -0.867 -29.908  1.00  0.00    -0.206 NA
BRANCH  16  17
HETATM   17  C7  UNL     1      -5.851  -0.724 -30.351  1.00  0.00     0.111 C 
BRANCH  17  18
HETATM   18  C8  UNL     1      -4.897  -0.821 -29.176  1.00  0.00    -0.009 C 
HETATM   19  C9  UNL     1      -4.251  -2.192 -29.187  1.00  0.00     0.011 C 
HETATM   20  C10 UNL     1      -5.650  -0.682 -27.873  1.00  0.00     0.011 C 
ENDBRANCH  17  18
ENDBRANCH  16  17
BRANCH  16  21
HETATM   21  S2  UNL     1      -8.170   0.511 -30.278  1.00  0.00     0.213 S 
HETATM   22  O2  UNL     1      -7.254   1.582 -30.846  1.00  0.00    -0.211 OA
HETATM   23  O3  UNL     1      -8.968   1.024 -29.123  1.00  0.00    -0.211 OA
BRANCH  21  24
HETATM   24  C11 UNL     1      -9.332   0.106 -31.586  1.00  0.00     0.177 C 
BRANCH  24  25
HETATM   25  C12 UNL     1      -9.550   1.247 -32.526  1.00  0.00     0.139 C 
BRANCH  25  26
HETATM   26  N3  UNL     1      -9.867   2.435 -31.780  1.00  0.00    -0.359 N 
HETATM   27  C13 UNL     1      -9.679   3.722 -32.320  1.00  0.00     0.231 C 
HETATM   28  O4  UNL     1      -9.215   3.800 -33.504  1.00  0.00    -0.272 OA
ATOM     29  H3  UNL     1     -10.239   2.343 -30.835  1.00  0.00     0.162 HD
BRANCH  27  30
HETATM   30  C14 UNL     1      -9.998   4.965 -31.574  1.00  0.00     0.210 C 
BRANCH  30  31
HETATM   31  N4  UNL     1      -9.970   4.703 -30.156  1.00  0.00    -0.197 NA
BRANCH  31  32
HETATM   32  C15 UNL     1     -11.170   5.174 -29.554  1.00  0.00     0.112 C 
BRANCH  32  33
HETATM   33  C16 UNL     1     -11.986   6.086 -30.444  1.00  0.00    -0.009 C 
HETATM   34  C17 UNL     1     -13.370   5.483 -30.552  1.00  0.00     0.011 C 
HETATM   35  C18 UNL     1     -12.118   7.466 -29.871  1.00  0.00     0.011 C 
ENDBRANCH  32  33
ENDBRANCH  31  32
BRANCH  31  36
HETATM   36  S3  UNL     1      -8.548   5.213 -29.373  1.00  0.00     0.244 S 
HETATM   37  O5  UNL     1      -8.854   6.569 -28.751  1.00  0.00    -0.206 OA
HETATM   38  O6  UNL     1      -7.396   5.386 -30.356  1.00  0.00    -0.206 OA
BRANCH  36  39
HETATM   39  C19 UNL     1      -7.985   4.139 -28.122  1.00  0.00     0.074 A 
HETATM   40  C20 UNL     1      -6.691   3.622 -28.117  1.00  0.00     0.025 A 
HETATM   41  C21 UNL     1      -6.263   2.773 -27.115  1.00  0.00     0.009 A 
HETATM   42  C22 UNL     1      -7.095   2.401 -26.079  1.00  0.00    -0.055 A 
HETATM   43  C26 UNL     1      -8.376   2.906 -26.073  1.00  0.00     0.009 A 
HETATM   44  C27 UNL     1      -8.802   3.755 -27.077  1.00  0.00     0.025 A 
BRANCH  42  45
HETATM   45  C23 UNL     1      -6.623   1.482 -24.994  1.00  0.00     0.010 C 
HETATM   46  C24 UNL     1      -7.412   1.675 -23.728  1.00  0.00     0.015 C 
HETATM   47  C25 UNL     1      -5.176   1.773 -24.723  1.00  0.00     0.015 C 
ENDBRANCH  42  45
ENDBRANCH  36  39
ENDBRANCH  31  36
ENDBRANCH  30  31
ENDBRANCH  27  30
ENDBRANCH  25  26
ENDBRANCH  24  25
ENDBRANCH  21  24
ENDBRANCH  16  21
ENDBRANCH  15  16
ENDBRANCH   9  15
TORSDOF 15
ENDMDL
MODEL 3
REMARK VINA RESULT: -7.757313715      3.919      8.777
REMARK  15 active torsions:
REMARK  status: ('A' for Active; 'I' for Inactive)
REMARK    1  A    between atoms: C5_9  and  C6_10 
REMARK    2  A    between atoms: C6_10  and  N2_11 
REMARK    3  A    between atoms: N2_11  and  C7_12 
REMARK    4  A    between atoms: N2_11  and  S2_16 
REMARK    5  A    between atoms: C7_12  and  C8_13 
REMARK    6  A    between atoms: S2_16  and  C11_19 
REMARK    7  A    between atoms: C11_19  and  C12_20 
REMARK    8  A    between atoms: C12_20  and  N3_21 
REMARK       I    between atoms: N3_21  and  C13_23 
REMARK    9  A    between atoms: C13_23  and  C14_25 
REMARK   10  A    between atoms: C14_25  and  N4_26 
REMARK   11  A    between atoms: N4_26  and  C15_27 
REMARK   12  A    between atoms: N4_26  and  S3_31 
REMARK   13  A    between atoms: C15_27  and  C16_28 
REMARK   14  A    between atoms: S3_31  and  C19_34 
REMARK   15  A    between atoms: C22_37  and  C23_38 
ROOT
HETATM    1  C1  UNL     1     -11.838  -3.053 -24.002  1.00  0.00     0.070 C 
HETATM    2  C2  UNL     1     -11.127  -3.561 -25.216  1.00  0.00     0.030 A 
HETATM    3  N1  UNL     1     -11.348  -4.843 -25.537  1.00  0.00    -0.325 N 
ATOM      4  H1  UNL     1     -11.967  -5.438 -24.986  1.00  0.00     0.169 HD
HETATM    5  C3  UNL     1     -10.708  -5.301 -26.631  1.00  0.00     0.263 A 
HETATM    6  O1  UNL     1     -10.832  -6.482 -27.036  1.00  0.00    -0.267 OA
HETATM    7  C4  UNL     1      -9.855  -4.476 -27.388  1.00  0.00     0.085 A 
HETATM    8  S1  UNL     1      -8.904  -4.686 -28.787  1.00  0.00    -0.087 SA
HETATM    9  C5  UNL     1      -8.246  -3.107 -28.915  1.00  0.00    -0.002 A 
HETATM   10  C28 UNL     1      -8.804  -2.465 -27.843  1.00  0.00     0.030 A 
HETATM   11  C29 UNL     1      -9.633  -3.169 -27.055  1.00  0.00     0.010 A 
HETATM   12  C30 UNL     1     -10.313  -2.707 -25.906  1.00  0.00     0.078 A 
HETATM   13  C31 UNL     1     -10.166  -1.342 -25.447  1.00  0.00     0.102 C 
HETATM   14  N5  UNL     1     -10.067  -0.255 -25.080  1.00  0.00    -0.191 NA
ENDROOT
BRANCH   9  15
HETATM   15  C6  UNL     1      -7.297  -2.574 -29.964  1.00  0.00     0.153 C 
BRANCH  15  16
HETATM   16  N2  UNL     1      -6.023  -3.208 -29.949  1.00  0.00    -0.206 NA
BRANCH  16  17
HETATM   17  C7  UNL     1      -5.660  -3.808 -31.215  1.00  0.00     0.111 C 
BRANCH  17  18
HETATM   18  C8  UNL     1      -5.403  -5.293 -31.048  1.00  0.00    -0.009 C 
HETATM   19  C9  UNL     1      -4.195  -5.673 -31.881  1.00  0.00     0.011 C 
HETATM   20  C10 UNL     1      -6.578  -6.093 -31.558  1.00  0.00     0.011 C 
ENDBRANCH  17  18
ENDBRANCH  16  17
BRANCH  16  21
HETATM   21  S2  UNL     1      -4.751  -2.272 -29.285  1.00  0.00     0.213 S 
HETATM   22  O2  UNL     1      -3.626  -3.213 -28.888  1.00  0.00    -0.211 OA
HETATM   23  O3  UNL     1      -5.170  -1.401 -28.146  1.00  0.00    -0.211 OA
BRANCH  21  24
HETATM   24  C11 UNL     1      -4.074  -1.196 -30.554  1.00  0.00     0.177 C 
BRANCH  24  25
HETATM   25  C12 UNL     1      -4.542   0.217 -30.409  1.00  0.00     0.139 C 
BRANCH  25  26
HETATM   26  N3  UNL     1      -5.836   0.362 -31.019  1.00  0.00    -0.359 N 
HETATM   27  C13 UNL     1      -6.267   1.589 -31.561  1.00  0.00     0.231 C 
HETATM   28  O4  UNL     1      -5.463   2.575 -31.492  1.00  0.00    -0.272 OA
ATOM     29  H3  UNL     1      -6.458  -0.445 -31.061  1.00  0.00     0.162 HD
BRANCH  27  30
HETATM   30  C14 UNL     1      -7.597   1.769 -32.196  1.00  0.00     0.210 C 
BRANCH  30  31
HETATM   31  N4  UNL     1      -8.636   1.510 -31.231  1.00  0.00    -0.197 NA
BRANCH  31  32
HETATM   32  C15 UNL     1      -9.826   1.107 -31.900  1.00  0.00     0.112 C 
BRANCH  32  33
HETATM   33  C16 UNL     1     -10.104  -0.378 -31.818  1.00  0.00    -0.009 C 
HETATM   34  C17 UNL     1     -10.690  -0.647 -30.448  1.00  0.00     0.011 C 
HETATM   35  C18 UNL     1     -11.096  -0.827 -32.850  1.00  0.00     0.011 C 
ENDBRANCH  32  33
ENDBRANCH  31  32
BRANCH  31  36
HETATM   36  S3  UNL     1      -8.861   2.751 -30.089  1.00  0.00     0.244 S 
HETATM   37  O5  UNL     1     -10.363   2.866 -29.858  1.00  0.00    -0.206 OA
HETATM   38  O6  UNL     1      -8.353   4.091 -30.607  1.00  0.00    -0.206 OA
BRANCH  36  39
HETATM   39  C19 UNL     1      -8.081   2.474 -28.556  1.00  0.00     0.074 A 
HETATM   40  C20 UNL     1      -7.799   1.191 -28.091  1.00  0.00     0.025 A 
HETATM   41  C21 UNL     1      -7.179   0.991 -26.873  1.00  0.00     0.009 A 
HETATM   42  C22 UNL     1      -6.812   2.050 -26.067  1.00  0.00    -0.055 A 
HETATM   43  C26 UNL     1      -7.085   3.323 -26.517  1.00  0.00     0.009 A 
HETATM   44  C27 UNL     1      -7.707   3.519 -27.736  1.00  0.00     0.025 A 
BRANCH  42  45
HETATM   45  C23 UNL     1      -6.136   1.826 -24.748  1.00  0.00     0.010 C 
HETATM   46  C24 UNL     1      -5.179   0.668 -24.810  1.00  0.00     0.015 C 
HETATM   47  C25 UNL     1      -7.191   1.541 -23.719  1.00  0.00     0.015 C 
ENDBRANCH  42  45
ENDBRANCH  36  39
ENDBRANCH  31  36
ENDBRANCH  30  31
ENDBRANCH  27  30
ENDBRANCH  25  26
ENDBRANCH  24  25
ENDBRANCH  21  24
ENDBRANCH  16  21
ENDBRANCH  15  16
ENDBRANCH   9  15
TORSDOF 15
ENDMDL
MODEL 4
REMARK VINA RESULT: -7.728600738      1.530      2.491
REMARK  15 active torsions:
REMARK  status: ('A' for Active; 'I' for Inactive)
REMARK    1  A    between atoms: C5_9  and  C6_10 
REMARK    2  A    between atoms: C6_10  and  N2_11 
REMARK    3  A    between atoms: N2_11  and  C7_12 
REMARK    4  A    between atoms: N2_11  and  S2_16 
REMARK    5  A    between atoms: C7_12  and  C8_13 
REMARK    6  A    between atoms: S2_16  and  C11_19 
REMARK    7  A    between atoms: C11_19  and  C12_20 
REMARK    8  A    between atoms: C12_20  and  N3_21 
REMARK       I    between atoms: N3_21  and  C13_23 
REMARK    9  A    between atoms: C13_23  and  C14_25 
REMARK   10  A    between atoms: C14_25  and  N4_26 
REMARK   11  A    between atoms: N4_26  and  C15_27 
REMARK   12  A    between atoms: N4_26  and  S3_31 
REMARK   13  A    between atoms: C15_27  and  C16_28 
REMARK   14  A    between atoms: S3_31  and  C19_34 
REMARK   15  A    between atoms: C22_37  and  C23_38 
ROOT
HETATM    1  C1  UNL     1       0.915  -3.550 -28.618  1.00  0.00     0.070 C 
HETATM    2  C2  UNL     1       0.946  -2.242 -29.343  1.00  0.00     0.030 A 
HETATM    3  N1  UNL     1       2.092  -1.551 -29.268  1.00  0.00    -0.325 N 
ATOM      4  H1  UNL     1       2.897  -1.898 -28.746  1.00  0.00     0.169 HD
HETATM    5  C3  UNL     1       2.120  -0.373 -29.922  1.00  0.00     0.263 A 
HETATM    6  O1  UNL     1       3.133   0.366 -29.928  1.00  0.00    -0.267 OA
HETATM    7  C4  UNL     1       1.007   0.100 -30.641  1.00  0.00     0.085 A 
HETATM    8  S1  UNL     1       0.672   1.492 -31.566  1.00  0.00    -0.087 SA
HETATM    9  C5  UNL     1      -0.944   1.140 -32.024  1.00  0.00    -0.002 A 
HETATM   10  C28 UNL     1      -1.163  -0.073 -31.428  1.00  0.00     0.030 A 
HETATM   11  C29 UNL     1      -0.160  -0.609 -30.714  1.00  0.00     0.010 A 
HETATM   12  C30 UNL     1      -0.169  -1.841 -30.023  1.00  0.00     0.078 A 
HETATM   13  C31 UNL     1      -1.343  -2.691 -30.023  1.00  0.00     0.102 C 
HETATM   14  N5  UNL     1      -2.265  -3.380 -30.027  1.00  0.00    -0.191 NA
ENDROOT
BRANCH   9  15
HETATM   15  C6  UNL     1      -1.872   1.968 -32.881  1.00  0.00     0.153 C 
BRANCH  15  16
HETATM   16  N2  UNL     1      -2.786   2.756 -32.127  1.00  0.00    -0.206 NA
BRANCH  16  17
HETATM   17  C7  UNL     1      -2.320   4.103 -31.877  1.00  0.00     0.111 C 
BRANCH  17  18
HETATM   18  C8  UNL     1      -1.776   4.227 -30.466  1.00  0.00    -0.009 C 
HETATM   19  C9  UNL     1      -2.891   4.705 -29.557  1.00  0.00     0.011 C 
HETATM   20  C10 UNL     1      -0.673   5.257 -30.415  1.00  0.00     0.011 C 
ENDBRANCH  17  18
ENDBRANCH  16  17
BRANCH  16  21
HETATM   21  S2  UNL     1      -4.407   2.722 -32.680  1.00  0.00     0.213 S 
HETATM   22  O2  UNL     1      -4.399   2.903 -34.189  1.00  0.00    -0.211 OA
HETATM   23  O3  UNL     1      -5.297   3.717 -32.010  1.00  0.00    -0.211 OA
BRANCH  21  24
HETATM   24  C11 UNL     1      -5.109   1.096 -32.380  1.00  0.00     0.177 C 
BRANCH  24  25
HETATM   25  C12 UNL     1      -4.734   0.555 -31.038  1.00  0.00     0.139 C 
BRANCH  25  26
HETATM   26  N3  UNL     1      -4.756   1.613 -30.065  1.00  0.00    -0.359 N 
HETATM   27  C13 UNL     1      -5.784   1.720 -29.107  1.00  0.00     0.231 C 
HETATM   28  O4  UNL     1      -6.701   0.836 -29.131  1.00  0.00    -0.272 OA
ATOM     29  H3  UNL     1      -4.008   2.306 -30.068  1.00  0.00     0.162 HD
BRANCH  27  30
HETATM   30  C14 UNL     1      -5.833   2.801 -28.092  1.00  0.00     0.210 C 
BRANCH  30  31
HETATM   31  N4  UNL     1      -7.091   2.752 -27.389  1.00  0.00    -0.197 NA
BRANCH  31  32
HETATM   32  C15 UNL     1      -7.793   3.976 -27.571  1.00  0.00     0.112 C 
BRANCH  32  33
HETATM   33  C16 UNL     1      -9.185   3.807 -28.139  1.00  0.00    -0.009 C 
HETATM   34  C17 UNL     1      -9.969   5.050 -27.776  1.00  0.00     0.011 C 
HETATM   35  C18 UNL     1      -9.176   3.678 -29.634  1.00  0.00     0.011 C 
ENDBRANCH  32  33
ENDBRANCH  31  32
BRANCH  31  36
HETATM   36  S3  UNL     1      -6.973   2.247 -25.769  1.00  0.00     0.244 S 
HETATM   37  O5  UNL     1      -7.618   3.338 -24.923  1.00  0.00    -0.206 OA
HETATM   38  O6  UNL     1      -5.521   2.097 -25.330  1.00  0.00    -0.206 OA
BRANCH  36  39
HETATM   39  C19 UNL     1      -7.763   0.733 -25.423  1.00  0.00     0.074 A 
HETATM   40  C20 UNL     1      -9.120   0.661 -25.115  1.00  0.00     0.025 A 
HETATM   41  C21 UNL     1      -9.729  -0.550 -24.846  1.00  0.00     0.009 A 
HETATM   42  C22 UNL     1      -9.023  -1.735 -24.870  1.00  0.00    -0.055 A 
HETATM   43  C26 UNL     1      -7.681  -1.676 -25.173  1.00  0.00     0.009 A 
HETATM   44  C27 UNL     1      -7.074  -0.463 -25.442  1.00  0.00     0.025 A 
BRANCH  42  45
HETATM   45  C23 UNL     1      -9.691  -3.045 -24.579  1.00  0.00     0.010 C 
HETATM   46  C24 UNL     1     -11.026  -2.846 -23.915  1.00  0.00     0.015 C 
HETATM   47  C25 UNL     1      -8.799  -3.838 -23.669  1.00  0.00     0.015 C 
ENDBRANCH  42  45
ENDBRANCH  36  39
ENDBRANCH  31  36
ENDBRANCH  30  31
ENDBRANCH  27  30
ENDBRANCH  25  26
ENDBRANCH  24  25
ENDBRANCH  21  24
ENDBRANCH  16  21
ENDBRANCH  15  16
ENDBRANCH   9  15
TORSDOF 15
ENDMDL
MODEL 5
REMARK VINA RESULT: -7.516922999      2.999      7.120
REMARK  15 active torsions:
REMARK  status: ('A' for Active; 'I' for Inactive)
REMARK    1  A    between atoms: C5_9  and  C6_10 
REMARK    2  A    between atoms: C6_10  and  N2_11 
REMARK    3  A    between atoms: N2_11  and  C7_12 
REMARK    4  A    between atoms: N2_11  and  S2_16 
REMARK    5  A    between atoms: C7_12  and  C8_13 
REMARK    6  A    between atoms: S2_16  and  C11_19 
REMARK    7  A    between atoms: C11_19  and  C12_20 
REMARK    8  A    between atoms: C12_20  and  N3_21 
REMARK       I    between atoms: N3_21  and  C13_23 
REMARK    9  A    between atoms: C13_23  and  C14_25 
REMARK   10  A    between atoms: C14_25  and  N4_26 
REMARK   11  A    between atoms: N4_26  and  C15_27 
REMARK   12  A    between atoms: N4_26  and  S3_31 
REMARK   13  A    between atoms: C15_27  and  C16_28 
REMARK   14  A    between atoms: S3_31  and  C19_34 
REMARK   15  A    between atoms: C22_37  and  C23_38 
ROOT
HETATM    1  C1  UNL     1       1.597  -2.282 -30.046  1.00  0.00     0.070 C 
HETATM    2  C2  UNL     1       0.179  -2.091 -30.482  1.00  0.00     0.030 A 
HETATM    3  N1  UNL     1       0.000  -1.484 -31.663  1.00  0.00    -0.325 N 
ATOM      4  H1  UNL     1       0.786  -1.170 -32.232  1.00  0.00     0.169 HD
HETATM    5  C3  UNL     1      -1.278  -1.312 -32.056  1.00  0.00     0.263 A 
HETATM    6  O1  UNL     1      -1.577  -0.758 -33.140  1.00  0.00    -0.267 OA
HETATM    7  C4  UNL     1      -2.358  -1.746 -31.266  1.00  0.00     0.085 A 
HETATM    8  S1  UNL     1      -4.056  -1.711 -31.421  1.00  0.00    -0.087 SA
HETATM    9  C5  UNL     1      -4.485  -2.483 -29.950  1.00  0.00    -0.002 A 
HETATM   10  C28 UNL     1      -3.266  -2.745 -29.385  1.00  0.00     0.030 A 
HETATM   11  C29 UNL     1      -2.170  -2.365 -30.062  1.00  0.00     0.010 A 
HETATM   12  C30 UNL     1      -0.824  -2.537 -29.668  1.00  0.00     0.078 A 
HETATM   13  C31 UNL     1      -0.487  -3.180 -28.414  1.00  0.00     0.102 C 
HETATM   14  N5  UNL     1      -0.206  -3.702 -27.427  1.00  0.00    -0.191 NA
ENDROOT
BRANCH   9  15
HETATM   15  C6  UNL     1      -5.869  -2.798 -29.431  1.00  0.00     0.153 C 
BRANCH  15  16
HETATM   16  N2  UNL     1      -6.580  -3.728 -30.241  1.00  0.00    -0.206 NA
BRANCH  16  17
HETATM   17  C7  UNL     1      -6.095  -5.086 -30.124  1.00  0.00     0.111 C 
BRANCH  17  18
HETATM   18  C8  UNL     1      -5.769  -5.657 -31.491  1.00  0.00    -0.009 C 
HETATM   19  C9  UNL     1      -6.157  -7.122 -31.511  1.00  0.00     0.011 C 
HETATM   20  C10 UNL     1      -4.284  -5.575 -31.756  1.00  0.00     0.011 C 
ENDBRANCH  17  18
ENDBRANCH  16  17
BRANCH  16  21
HETATM   21  S2  UNL     1      -8.287  -3.635 -30.129  1.00  0.00     0.213 S 
HETATM   22  O2  UNL     1      -8.881  -4.337 -31.339  1.00  0.00    -0.211 OA
HETATM   23  O3  UNL     1      -8.810  -2.243 -29.987  1.00  0.00    -0.211 OA
BRANCH  21  24
HETATM   24  C11 UNL     1      -8.845  -4.560 -28.695  1.00  0.00     0.177 C 
BRANCH  24  25
HETATM   25  C12 UNL     1      -9.651  -3.722 -27.756  1.00  0.00     0.139 C 
BRANCH  25  26
HETATM   26  N3  UNL     1      -8.823  -2.688 -27.196  1.00  0.00    -0.359 N 
HETATM   27  C13 UNL     1      -9.369  -1.491 -26.693  1.00  0.00     0.231 C 
HETATM   28  O4  UNL     1     -10.634  -1.354 -26.750  1.00  0.00    -0.272 OA
ATOM     29  H3  UNL     1      -7.813  -2.826 -27.162  1.00  0.00     0.162 HD
BRANCH  27  30
HETATM   30  C14 UNL     1      -8.539  -0.408 -26.109  1.00  0.00     0.210 C 
BRANCH  30  31
HETATM   31  N4  UNL     1      -7.483  -0.055 -27.027  1.00  0.00    -0.197 NA
BRANCH  31  32
HETATM   32  C15 UNL     1      -6.243   0.015 -26.332  1.00  0.00     0.112 C 
BRANCH  32  33
HETATM   33  C16 UNL     1      -6.345   0.634 -24.955  1.00  0.00    -0.009 C 
HETATM   34  C17 UNL     1      -5.702  -0.333 -23.983  1.00  0.00     0.011 C 
HETATM   35  C18 UNL     1      -5.618   1.943 -24.867  1.00  0.00     0.011 C 
ENDBRANCH  32  33
ENDBRANCH  31  32
BRANCH  31  36
HETATM   36  S3  UNL     1      -7.819   1.300 -27.998  1.00  0.00     0.244 S 
HETATM   37  O5  UNL     1      -8.471   2.337 -27.092  1.00  0.00    -0.206 OA
HETATM   38  O6  UNL     1      -8.796   0.962 -29.118  1.00  0.00    -0.206 OA
BRANCH  36  39
HETATM   39  C19 UNL     1      -6.419   2.017 -28.749  1.00  0.00     0.074 A 
HETATM   40  C20 UNL     1      -5.932   3.265 -28.366  1.00  0.00     0.025 A 
HETATM   41  C21 UNL     1      -4.820   3.816 -28.972  1.00  0.00     0.009 A 
HETATM   42  C22 UNL     1      -4.145   3.157 -29.979  1.00  0.00    -0.055 A 
HETATM   43  C26 UNL     1      -4.617   1.922 -30.366  1.00  0.00     0.009 A 
HETATM   44  C27 UNL     1      -5.731   1.374 -29.758  1.00  0.00     0.025 A 
BRANCH  42  45
HETATM   45  C23 UNL     1      -2.938   3.759 -30.631  1.00  0.00     0.010 C 
HETATM   46  C24 UNL     1      -1.978   2.699 -31.097  1.00  0.00     0.015 C 
HETATM   47  C25 UNL     1      -2.251   4.642 -29.631  1.00  0.00     0.015 C 
ENDBRANCH  42  45
ENDBRANCH  36  39
ENDBRANCH  31  36
ENDBRANCH  30  31
ENDBRANCH  27  30
ENDBRANCH  25  26
ENDBRANCH  24  25
ENDBRANCH  21  24
ENDBRANCH  16  21
ENDBRANCH  15  16
ENDBRANCH   9  15
TORSDOF 15
ENDMDL
