MODEL 1
REMARK VINA RESULT: -7.348829142      0.000      0.000
REMARK  18 active torsions:
REMARK  status: ('A' for Active; 'I' for Inactive)
REMARK    1  A    between atoms: C5_5  and  S1_6 
REMARK    2  A    between atoms: S1_6  and  N1_9 
REMARK    3  A    between atoms: N1_9  and  C6_10 
REMARK    4  A    between atoms: N1_9  and  C13_17 
REMARK    5  A    between atoms: C6_10  and  C7_11 
REMARK    6  A    between atoms: C13_17  and  C14_18 
REMARK    7  A    between atoms: C14_18  and  C15_19 
REMARK    8  A    between atoms: C14_18  and  O3_26 
REMARK    9  A    between atoms: C15_19  and  C16_20 
REMARK   10  A    between atoms: O3_26  and  C22_27 
REMARK   11  A    between atoms: C22_27  and  C23_28 
REMARK   12  A    between atoms: C24_29  and  C25_30 
REMARK   13  A    between atoms: C25_30  and  N2_31 
REMARK   14  A    between atoms: N3_34  and  C27_35 
REMARK   15  A    between atoms: C27_35  and  C28_36 
REMARK   16  A    between atoms: C31_41  and  C32_42 
REMARK   17  A    between atoms: C33_43  and  C34_44 
REMARK   18  A    between atoms: C34_44  and  O7_45 
ROOT
HETATM    1  C14 UNL     1      -6.325  -0.973 -29.352  1.00  0.00     0.165 C 
ENDROOT
BRANCH   1   2
HETATM    2  C13 UNL     1      -6.382  -1.876 -28.199  1.00  0.00     0.114 C 
BRANCH   2   3
HETATM    3  N1  UNL     1      -7.343  -1.679 -27.220  1.00  0.00    -0.259 N 
BRANCH   3   4
HETATM    4  S1  UNL     1      -8.966  -1.977 -27.666  1.00  0.00     0.268 S 
HETATM    5  O1  UNL     1      -9.537  -0.741 -28.289  1.00  0.00    -0.200 OA
HETATM    6  O2  UNL     1      -9.006  -3.073 -28.679  1.00  0.00    -0.200 OA
BRANCH   4   7
HETATM    7  C5  UNL     1      -9.983  -2.490 -26.336  1.00  0.00     0.080 A 
HETATM    8  C4  UNL     1     -10.027  -3.815 -25.943  1.00  0.00     0.026 A 
HETATM    9  C3  UNL     1     -10.827  -4.222 -24.889  1.00  0.00     0.008 A 
HETATM   10  C2  UNL     1     -11.614  -3.340 -24.182  1.00  0.00    -0.062 A 
HETATM   11  C1  UNL     1     -12.461  -3.817 -23.051  1.00  0.00     0.048 C 
HETATM   12  C39 UNL     1     -11.562  -2.022 -24.583  1.00  0.00     0.008 A 
HETATM   13  C38 UNL     1     -10.771  -1.604 -25.631  1.00  0.00     0.026 A 
ENDBRANCH   4   7
ENDBRANCH   3   4
BRANCH   3  14
HETATM   14  C6  UNL     1      -7.126  -1.482 -25.867  1.00  0.00     0.119 C 
BRANCH  14  15
HETATM   15  C7  UNL     1      -6.807  -0.124 -25.391  1.00  0.00    -0.020 A 
HETATM   16  C8  UNL     1      -5.568   0.345 -25.064  1.00  0.00     0.013 A 
HETATM   17  C9  UNL     1      -5.348   1.626 -24.620  1.00  0.00     0.001 A 
HETATM   18  C10 UNL     1      -6.421   2.514 -24.487  1.00  0.00     0.000 A 
HETATM   19  C11 UNL     1      -7.667   2.060 -24.811  1.00  0.00     0.001 A 
HETATM   20  C12 UNL     1      -7.853   0.789 -25.246  1.00  0.00     0.013 A 
ENDBRANCH  14  15
ENDBRANCH   3  14
ENDBRANCH   2   3
ENDBRANCH   1   2
BRANCH   1  21
HETATM   21  C15 UNL     1      -5.495   0.299 -29.127  1.00  0.00     0.076 C 
BRANCH  21  22
HETATM   22  C16 UNL     1      -6.274   1.483 -28.789  1.00  0.00    -0.055 A 
HETATM   23  C17 UNL     1      -5.745   2.558 -28.148  1.00  0.00     0.007 A 
HETATM   24  C18 UNL     1      -6.455   3.719 -27.824  1.00  0.00     0.001 A 
HETATM   25  C19 UNL     1      -7.778   3.786 -28.174  1.00  0.00     0.000 A 
HETATM   26  C20 UNL     1      -8.329   2.703 -28.823  1.00  0.00     0.001 A 
HETATM   27  C21 UNL     1      -7.628   1.586 -29.130  1.00  0.00     0.007 A 
ENDBRANCH  21  22
ENDBRANCH   1  21
BRANCH   1  28
HETATM   28  O3  UNL     1      -5.589  -1.667 -30.378  1.00  0.00    -0.377 OA
BRANCH  28  29
HETATM   29  C22 UNL     1      -4.668  -0.830 -30.994  1.00  0.00     0.196 C 
BRANCH  29  30
HETATM   30  C23 UNL     1      -3.262  -1.163 -30.782  1.00  0.00    -0.003 C 
HETATM   31  C24 UNL     1      -2.284  -0.556 -31.402  1.00  0.00    -0.009 C 
BRANCH  31  32
HETATM   32  C25 UNL     1      -2.337   0.525 -32.394  1.00  0.00     0.161 C 
BRANCH  32  33
HETATM   33  N2  UNL     1      -2.496   1.833 -31.732  1.00  0.00    -0.294 N 
HETATM   34  C26 UNL     1      -1.597   2.519 -31.028  1.00  0.00     0.330 A 
HETATM   35  O4  UNL     1      -0.411   2.149 -30.811  1.00  0.00    -0.246 OA
HETATM   36  N3  UNL     1      -2.116   3.671 -30.570  1.00  0.00    -0.287 N 
HETATM   37  C29 UNL     1      -3.390   3.718 -30.999  1.00  0.00     0.068 A 
HETATM   38  C30 UNL     1      -4.404   4.641 -30.839  1.00  0.00     0.052 A 
HETATM   39  C37 UNL     1      -3.625   2.558 -31.730  1.00  0.00     0.066 A 
HETATM   40  C31 UNL     1      -5.669   4.462 -31.385  1.00  0.00     0.020 A 
HETATM   41  C35 UNL     1      -5.902   3.303 -32.117  1.00  0.00     0.023 A 
HETATM   42  C36 UNL     1      -4.884   2.401 -32.263  1.00  0.00     0.034 A 
BRANCH  36  43
HETATM   43  C27 UNL     1      -1.475   4.688 -29.766  1.00  0.00     0.247 C 
BRANCH  43  44
HETATM   44  C28 UNL     1      -0.796   5.710 -30.632  1.00  0.00     0.192 C 
HETATM   45  O5  UNL     1       0.427   5.610 -30.803  1.00  0.00    -0.647 OA
HETATM   46  O6  UNL     1      -1.516   6.746 -31.229  1.00  0.00    -0.647 OA
ENDBRANCH  43  44
ENDBRANCH  36  43
BRANCH  40  47
HETATM   47  C32 UNL     1      -6.693   5.438 -31.188  1.00  0.00    -0.065 C 
HETATM   48  C33 UNL     1      -7.544   6.251 -31.000  1.00  0.00    -0.075 C 
BRANCH  48  49
HETATM   49  C34 UNL     1      -8.588   7.265 -30.741  1.00  0.00     0.258 C 
BRANCH  49  50
HETATM   50  O7  UNL     1      -8.086   8.326 -30.033  1.00  0.00    -0.389 OA
ATOM     51  H7  UNL     1      -8.382   8.310 -29.131  1.00  0.00     0.210 HD
ENDBRANCH  49  50
ENDBRANCH  48  49
ENDBRANCH  40  47
ENDBRANCH  32  33
ENDBRANCH  31  32
ENDBRANCH  29  30
ENDBRANCH  28  29
ENDBRANCH   1  28
TORSDOF 18
ENDMDL
MODEL 2
REMARK VINA RESULT: -7.346254709      1.635      2.603
REMARK  18 active torsions:
REMARK  status: ('A' for Active; 'I' for Inactive)
REMARK    1  A    between atoms: C5_5  and  S1_6 
REMARK    2  A    between atoms: S1_6  and  N1_9 
REMARK    3  A    between atoms: N1_9  and  C6_10 
REMARK    4  A    between atoms: N1_9  and  C13_17 
REMARK    5  A    between atoms: C6_10  and  C7_11 
REMARK    6  A    between atoms: C13_17  and  C14_18 
REMARK    7  A    between atoms: C14_18  and  C15_19 
REMARK    8  A    between atoms: C14_18  and  O3_26 
REMARK    9  A    between atoms: C15_19  and  C16_20 
REMARK   10  A    between atoms: O3_26  and  C22_27 
REMARK   11  A    between atoms: C22_27  and  C23_28 
REMARK   12  A    between atoms: C24_29  and  C25_30 
REMARK   13  A    between atoms: C25_30  and  N2_31 
REMARK   14  A    between atoms: N3_34  and  C27_35 
REMARK   15  A    between atoms: C27_35  and  C28_36 
REMARK   16  A    between atoms: C31_41  and  C32_42 
REMARK   17  A    between atoms: C33_43  and  C34_44 
REMARK   18  A    between atoms: C34_44  and  O7_45 
ROOT
HETATM    1  C14 UNL     1      -6.419  -0.728 -29.436  1.00  0.00     0.165 C 
ENDROOT
BRANCH   1   2
HETATM    2  C13 UNL     1      -6.353  -1.682 -28.324  1.00  0.00     0.114 C 
BRANCH   2   3
HETATM    3  N1  UNL     1      -7.312  -1.636 -27.326  1.00  0.00    -0.259 N 
BRANCH   3   4
HETATM    4  S1  UNL     1      -8.905  -2.069 -27.769  1.00  0.00     0.268 S 
HETATM    5  O1  UNL     1      -9.540  -0.920 -28.489  1.00  0.00    -0.200 OA
HETATM    6  O2  UNL     1      -8.859  -3.237 -28.699  1.00  0.00    -0.200 OA
BRANCH   4   7
HETATM    7  C5  UNL     1      -9.912  -2.548 -26.418  1.00  0.00     0.080 A 
HETATM    8  C4  UNL     1      -9.980  -3.867 -26.014  1.00  0.00     0.026 A 
HETATM    9  C3  UNL     1     -10.771  -4.248 -24.943  1.00  0.00     0.008 A 
HETATM   10  C2  UNL     1     -11.526  -3.341 -24.231  1.00  0.00    -0.062 A 
HETATM   11  C1  UNL     1     -12.365  -3.790 -23.082  1.00  0.00     0.048 C 
HETATM   12  C39 UNL     1     -11.450  -2.029 -24.644  1.00  0.00     0.008 A 
HETATM   13  C38 UNL     1     -10.667  -1.637 -25.708  1.00  0.00     0.026 A 
ENDBRANCH   4   7
ENDBRANCH   3   4
BRANCH   3  14
HETATM   14  C6  UNL     1      -7.093  -1.496 -25.966  1.00  0.00     0.119 C 
BRANCH  14  15
HETATM   15  C7  UNL     1      -6.882  -0.144 -25.418  1.00  0.00    -0.020 A 
HETATM   16  C8  UNL     1      -7.855   0.740 -25.054  1.00  0.00     0.013 A 
HETATM   17  C9  UNL     1      -7.580   1.989 -24.554  1.00  0.00     0.001 A 
HETATM   18  C10 UNL     1      -6.253   2.403 -24.399  1.00  0.00     0.000 A 
HETATM   19  C11 UNL     1      -5.267   1.530 -24.757  1.00  0.00     0.001 A 
HETATM   20  C12 UNL     1      -5.570   0.303 -25.248  1.00  0.00     0.013 A 
ENDBRANCH  14  15
ENDBRANCH   3  14
ENDBRANCH   2   3
ENDBRANCH   1   2
BRANCH   1  21
HETATM   21  C15 UNL     1      -5.625   0.567 -29.215  1.00  0.00     0.076 C 
BRANCH  21  22
HETATM   22  C16 UNL     1      -6.413   1.687 -28.716  1.00  0.00    -0.055 A 
HETATM   23  C17 UNL     1      -7.771   1.678 -28.676  1.00  0.00     0.007 A 
HETATM   24  C18 UNL     1      -8.559   2.725 -28.188  1.00  0.00     0.001 A 
HETATM   25  C19 UNL     1      -7.926   3.844 -27.715  1.00  0.00     0.000 A 
HETATM   26  C20 UNL     1      -6.548   3.870 -27.751  1.00  0.00     0.001 A 
HETATM   27  C21 UNL     1      -5.800   2.847 -28.227  1.00  0.00     0.007 A 
ENDBRANCH  21  22
ENDBRANCH   1  21
BRANCH   1  28
HETATM   28  O3  UNL     1      -5.735  -1.346 -30.544  1.00  0.00    -0.377 OA
BRANCH  28  29
HETATM   29  C22 UNL     1      -6.627  -1.984 -31.397  1.00  0.00     0.196 C 
BRANCH  29  30
HETATM   30  C23 UNL     1      -7.923  -1.335 -31.566  1.00  0.00    -0.003 C 
HETATM   31  C24 UNL     1      -8.159  -0.441 -32.491  1.00  0.00    -0.009 C 
BRANCH  31  32
HETATM   32  C25 UNL     1      -7.257   0.104 -33.512  1.00  0.00     0.161 C 
BRANCH  32  33
HETATM   33  N2  UNL     1      -6.583   1.320 -33.020  1.00  0.00    -0.294 N 
HETATM   34  C26 UNL     1      -5.281   1.598 -33.010  1.00  0.00     0.330 A 
HETATM   35  O4  UNL     1      -4.374   0.838 -33.448  1.00  0.00    -0.246 OA
HETATM   36  N3  UNL     1      -5.047   2.805 -32.469  1.00  0.00    -0.287 N 
HETATM   37  C29 UNL     1      -6.244   3.313 -32.123  1.00  0.00     0.068 A 
HETATM   38  C30 UNL     1      -6.629   4.498 -31.529  1.00  0.00     0.052 A 
HETATM   39  C37 UNL     1      -7.209   2.372 -32.472  1.00  0.00     0.066 A 
HETATM   40  C31 UNL     1      -7.958   4.800 -31.260  1.00  0.00     0.020 A 
HETATM   41  C35 UNL     1      -8.922   3.861 -31.610  1.00  0.00     0.023 A 
HETATM   42  C36 UNL     1      -8.519   2.692 -32.197  1.00  0.00     0.034 A 
BRANCH  36  43
HETATM   43  C27 UNL     1      -3.778   3.470 -32.270  1.00  0.00     0.247 C 
BRANCH  43  44
HETATM   44  C28 UNL     1      -3.197   3.130 -30.928  1.00  0.00     0.192 C 
HETATM   45  O5  UNL     1      -2.752   1.985 -30.758  1.00  0.00    -0.647 OA
HETATM   46  O6  UNL     1      -3.155   4.070 -29.898  1.00  0.00    -0.647 OA
ENDBRANCH  43  44
ENDBRANCH  36  43
BRANCH  40  47
HETATM   47  C32 UNL     1      -8.312   6.035 -30.636  1.00  0.00    -0.065 C 
HETATM   48  C33 UNL     1      -8.619   7.053 -30.098  1.00  0.00    -0.075 C 
BRANCH  48  49
HETATM   49  C34 UNL     1      -8.999   8.303 -29.405  1.00  0.00     0.258 C 
BRANCH  49  50
HETATM   50  O7  UNL     1      -8.613   8.279 -28.089  1.00  0.00    -0.389 OA
ATOM     51  H7  UNL     1      -8.195   9.094 -27.838  1.00  0.00     0.210 HD
ENDBRANCH  49  50
ENDBRANCH  48  49
ENDBRANCH  40  47
ENDBRANCH  32  33
ENDBRANCH  31  32
ENDBRANCH  29  30
ENDBRANCH  28  29
ENDBRANCH   1  28
TORSDOF 18
ENDMDL
MODEL 3
REMARK VINA RESULT: -7.204532049      1.995      4.150
REMARK  18 active torsions:
REMARK  status: ('A' for Active; 'I' for Inactive)
REMARK    1  A    between atoms: C5_5  and  S1_6 
REMARK    2  A    between atoms: S1_6  and  N1_9 
REMARK    3  A    between atoms: N1_9  and  C6_10 
REMARK    4  A    between atoms: N1_9  and  C13_17 
REMARK    5  A    between atoms: C6_10  and  C7_11 
REMARK    6  A    between atoms: C13_17  and  C14_18 
REMARK    7  A    between atoms: C14_18  and  C15_19 
REMARK    8  A    between atoms: C14_18  and  O3_26 
REMARK    9  A    between atoms: C15_19  and  C16_20 
REMARK   10  A    between atoms: O3_26  and  C22_27 
REMARK   11  A    between atoms: C22_27  and  C23_28 
REMARK   12  A    between atoms: C24_29  and  C25_30 
REMARK   13  A    between atoms: C25_30  and  N2_31 
REMARK   14  A    between atoms: N3_34  and  C27_35 
REMARK   15  A    between atoms: C27_35  and  C28_36 
REMARK   16  A    between atoms: C31_41  and  C32_42 
REMARK   17  A    between atoms: C33_43  and  C34_44 
REMARK   18  A    between atoms: C34_44  and  O7_45 
ROOT
HETATM    1  C14 UNL     1      -6.467  -0.892 -29.363  1.00  0.00     0.165 C 
ENDROOT
BRANCH   1   2
HETATM    2  C13 UNL     1      -6.508  -1.890 -28.290  1.00  0.00     0.114 C 
BRANCH   2   3
HETATM    3  N1  UNL     1      -7.445  -1.767 -27.276  1.00  0.00    -0.259 N 
BRANCH   3   4
HETATM    4  S1  UNL     1      -9.069  -2.105 -27.684  1.00  0.00     0.268 S 
HETATM    5  O1  UNL     1      -9.666  -0.905 -28.350  1.00  0.00    -0.200 OA
HETATM    6  O2  UNL     1      -9.109  -3.245 -28.648  1.00  0.00    -0.200 OA
BRANCH   4   7
HETATM    7  C5  UNL     1     -10.060  -2.575 -26.318  1.00  0.00     0.080 A 
HETATM    8  C4  UNL     1     -10.156  -3.898 -25.930  1.00  0.00     0.026 A 
HETATM    9  C3  UNL     1     -10.935  -4.271 -24.847  1.00  0.00     0.008 A 
HETATM   10  C2  UNL     1     -11.649  -3.354 -24.107  1.00  0.00    -0.062 A 
HETATM   11  C1  UNL     1     -12.476  -3.796 -22.947  1.00  0.00     0.048 C 
HETATM   12  C39 UNL     1     -11.546  -2.039 -24.504  1.00  0.00     0.008 A 
HETATM   13  C38 UNL     1     -10.774  -1.654 -25.580  1.00  0.00     0.026 A 
ENDBRANCH   4   7
ENDBRANCH   3   4
BRANCH   3  14
HETATM   14  C6  UNL     1      -7.192  -1.616 -25.923  1.00  0.00     0.119 C 
BRANCH  14  15
HETATM   15  C7  UNL     1      -6.919  -0.266 -25.399  1.00  0.00    -0.020 A 
HETATM   16  C8  UNL     1      -7.850   0.670 -25.055  1.00  0.00     0.013 A 
HETATM   17  C9  UNL     1      -7.518   1.914 -24.577  1.00  0.00     0.001 A 
HETATM   18  C10 UNL     1      -6.173   2.267 -24.423  1.00  0.00     0.000 A 
HETATM   19  C11 UNL     1      -5.229   1.342 -24.762  1.00  0.00     0.001 A 
HETATM   20  C12 UNL     1      -5.588   0.121 -25.232  1.00  0.00     0.013 A 
ENDBRANCH  14  15
ENDBRANCH   3  14
ENDBRANCH   2   3
ENDBRANCH   1   2
BRANCH   1  21
HETATM   21  C15 UNL     1      -5.575   0.323 -29.071  1.00  0.00     0.076 C 
BRANCH  21  22
HETATM   22  C16 UNL     1      -6.294   1.521 -28.655  1.00  0.00    -0.055 A 
HETATM   23  C17 UNL     1      -7.649   1.618 -28.681  1.00  0.00     0.007 A 
HETATM   24  C18 UNL     1      -8.373   2.743 -28.274  1.00  0.00     0.001 A 
HETATM   25  C19 UNL     1      -7.676   3.828 -27.814  1.00  0.00     0.000 A 
HETATM   26  C20 UNL     1      -6.300   3.746 -27.783  1.00  0.00     0.001 A 
HETATM   27  C21 UNL     1      -5.614   2.649 -28.182  1.00  0.00     0.007 A 
ENDBRANCH  21  22
ENDBRANCH   1  21
BRANCH   1  28
HETATM   28  O3  UNL     1      -5.807  -1.521 -30.479  1.00  0.00    -0.377 OA
BRANCH  28  29
HETATM   29  C22 UNL     1      -6.575  -1.437 -31.633  1.00  0.00     0.196 C 
BRANCH  29  30
HETATM   30  C23 UNL     1      -8.015  -1.307 -31.434  1.00  0.00    -0.003 C 
HETATM   31  C24 UNL     1      -8.755  -0.463 -32.105  1.00  0.00    -0.009 C 
BRANCH  31  32
HETATM   32  C25 UNL     1      -8.365   0.499 -33.143  1.00  0.00     0.161 C 
BRANCH  32  33
HETATM   33  N2  UNL     1      -8.109   1.827 -32.555  1.00  0.00    -0.294 N 
HETATM   34  C26 UNL     1      -8.990   2.771 -32.229  1.00  0.00     0.330 A 
HETATM   35  O4  UNL     1     -10.241   2.675 -32.368  1.00  0.00    -0.246 OA
HETATM   36  N3  UNL     1      -8.376   3.855 -31.726  1.00  0.00    -0.287 N 
HETATM   37  C29 UNL     1      -7.058   3.590 -31.732  1.00  0.00     0.068 A 
HETATM   38  C30 UNL     1      -5.949   4.317 -31.347  1.00  0.00     0.052 A 
HETATM   39  C37 UNL     1      -6.895   2.311 -32.256  1.00  0.00     0.066 A 
HETATM   40  C31 UNL     1      -4.656   3.820 -31.458  1.00  0.00     0.020 A 
HETATM   41  C35 UNL     1      -4.494   2.541 -31.980  1.00  0.00     0.023 A 
HETATM   42  C36 UNL     1      -5.606   1.838 -32.356  1.00  0.00     0.034 A 
BRANCH  36  43
HETATM   43  C27 UNL     1      -8.970   5.090 -31.262  1.00  0.00     0.247 C 
BRANCH  43  44
HETATM   44  C28 UNL     1      -9.108   6.076 -32.386  1.00  0.00     0.192 C 
HETATM   45  O5  UNL     1      -8.245   6.959 -32.497  1.00  0.00    -0.647 OA
HETATM   46  O6  UNL     1     -10.175   6.007 -33.283  1.00  0.00    -0.647 OA
ENDBRANCH  43  44
ENDBRANCH  36  43
BRANCH  40  47
HETATM   47  C32 UNL     1      -3.536   4.609 -31.055  1.00  0.00    -0.065 C 
HETATM   48  C33 UNL     1      -2.589   5.259 -30.737  1.00  0.00    -0.075 C 
BRANCH  48  49
HETATM   49  C34 UNL     1      -1.406   6.067 -30.371  1.00  0.00     0.258 C 
BRANCH  49  50
HETATM   50  O7  UNL     1      -0.382   5.274 -29.922  1.00  0.00    -0.389 OA
ATOM     51  H7  UNL     1      -0.713   4.486 -29.508  1.00  0.00     0.210 HD
ENDBRANCH  49  50
ENDBRANCH  48  49
ENDBRANCH  40  47
ENDBRANCH  32  33
ENDBRANCH  31  32
ENDBRANCH  29  30
ENDBRANCH  28  29
ENDBRANCH   1  28
TORSDOF 18
ENDMDL
MODEL 4
REMARK VINA RESULT: -7.154323822      2.244      3.861
REMARK  18 active torsions:
REMARK  status: ('A' for Active; 'I' for Inactive)
REMARK    1  A    between atoms: C5_5  and  S1_6 
REMARK    2  A    between atoms: S1_6  and  N1_9 
REMARK    3  A    between atoms: N1_9  and  C6_10 
REMARK    4  A    between atoms: N1_9  and  C13_17 
REMARK    5  A    between atoms: C6_10  and  C7_11 
REMARK    6  A    between atoms: C13_17  and  C14_18 
REMARK    7  A    between atoms: C14_18  and  C15_19 
REMARK    8  A    between atoms: C14_18  and  O3_26 
REMARK    9  A    between atoms: C15_19  and  C16_20 
REMARK   10  A    between atoms: O3_26  and  C22_27 
REMARK   11  A    between atoms: C22_27  and  C23_28 
REMARK   12  A    between atoms: C24_29  and  C25_30 
REMARK   13  A    between atoms: C25_30  and  N2_31 
REMARK   14  A    between atoms: N3_34  and  C27_35 
REMARK   15  A    between atoms: C27_35  and  C28_36 
REMARK   16  A    between atoms: C31_41  and  C32_42 
REMARK   17  A    between atoms: C33_43  and  C34_44 
REMARK   18  A    between atoms: C34_44  and  O7_45 
ROOT
HETATM    1  C14 UNL     1      -6.408  -1.042 -29.178  1.00  0.00     0.165 C 
ENDROOT
BRANCH   1   2
HETATM    2  C13 UNL     1      -6.478  -1.956 -28.034  1.00  0.00     0.114 C 
BRANCH   2   3
HETATM    3  N1  UNL     1      -7.460  -1.776 -27.072  1.00  0.00    -0.259 N 
BRANCH   3   4
HETATM    4  S1  UNL     1      -9.067  -2.123 -27.540  1.00  0.00     0.268 S 
HETATM    5  O1  UNL     1      -9.644  -0.927 -28.231  1.00  0.00    -0.200 OA
HETATM    6  O2  UNL     1      -9.065  -3.265 -28.502  1.00  0.00    -0.200 OA
BRANCH   4   7
HETATM    7  C5  UNL     1     -10.105  -2.594 -26.211  1.00  0.00     0.080 A 
HETATM    8  C4  UNL     1     -10.174  -3.910 -25.792  1.00  0.00     0.026 A 
HETATM    9  C3  UNL     1     -10.990  -4.284 -24.738  1.00  0.00     0.008 A 
HETATM   10  C2  UNL     1     -11.771  -3.376 -24.057  1.00  0.00    -0.062 A 
HETATM   11  C1  UNL     1     -12.638  -3.818 -22.927  1.00  0.00     0.048 C 
HETATM   12  C39 UNL     1     -11.695  -2.067 -24.485  1.00  0.00     0.008 A 
HETATM   13  C38 UNL     1     -10.886  -1.682 -25.532  1.00  0.00     0.026 A 
ENDBRANCH   4   7
ENDBRANCH   3   4
BRANCH   3  14
HETATM   14  C6  UNL     1      -7.270  -1.561 -25.718  1.00  0.00     0.119 C 
BRANCH  14  15
HETATM   15  C7  UNL     1      -6.952  -0.198 -25.255  1.00  0.00    -0.020 A 
HETATM   16  C8  UNL     1      -7.851   0.760 -24.888  1.00  0.00     0.013 A 
HETATM   17  C9  UNL     1      -7.478   2.014 -24.471  1.00  0.00     0.001 A 
HETATM   18  C10 UNL     1      -6.123   2.355 -24.408  1.00  0.00     0.000 A 
HETATM   19  C11 UNL     1      -5.210   1.408 -24.771  1.00  0.00     0.001 A 
HETATM   20  C12 UNL     1      -5.609   0.178 -25.179  1.00  0.00     0.013 A 
ENDBRANCH  14  15
ENDBRANCH   3  14
ENDBRANCH   2   3
ENDBRANCH   1   2
BRANCH   1  21
HETATM   21  C15 UNL     1      -5.510   0.184 -28.962  1.00  0.00     0.076 C 
BRANCH  21  22
HETATM   22  C16 UNL     1      -6.220   1.402 -28.592  1.00  0.00    -0.055 A 
HETATM   23  C17 UNL     1      -7.573   1.469 -28.490  1.00  0.00     0.007 A 
HETATM   24  C18 UNL     1      -8.287   2.614 -28.121  1.00  0.00     0.001 A 
HETATM   25  C19 UNL     1      -7.580   3.753 -27.841  1.00  0.00     0.000 A 
HETATM   26  C20 UNL     1      -6.207   3.702 -27.941  1.00  0.00     0.001 A 
HETATM   27  C21 UNL     1      -5.531   2.586 -28.300  1.00  0.00     0.007 A 
ENDBRANCH  21  22
ENDBRANCH   1  21
BRANCH   1  28
HETATM   28  O3  UNL     1      -5.736  -1.758 -30.231  1.00  0.00    -0.377 OA
BRANCH  28  29
HETATM   29  C22 UNL     1      -4.550  -2.325 -29.782  1.00  0.00     0.196 C 
BRANCH  29  30
HETATM   30  C23 UNL     1      -4.252  -3.663 -30.283  1.00  0.00    -0.003 C 
HETATM   31  C24 UNL     1      -3.767  -3.887 -31.477  1.00  0.00    -0.009 C 
BRANCH  31  32
HETATM   32  C25 UNL     1      -3.428  -2.932 -32.539  1.00  0.00     0.161 C 
BRANCH  32  33
HETATM   33  N2  UNL     1      -2.257  -2.120 -32.158  1.00  0.00    -0.294 N 
HETATM   34  C26 UNL     1      -0.993  -2.511 -32.008  1.00  0.00     0.330 A 
HETATM   35  O4  UNL     1      -0.572  -3.687 -32.184  1.00  0.00    -0.246 OA
HETATM   36  N3  UNL     1      -0.208  -1.484 -31.640  1.00  0.00    -0.287 N 
HETATM   37  C29 UNL     1      -1.003  -0.402 -31.554  1.00  0.00     0.068 A 
HETATM   38  C30 UNL     1      -0.766   0.916 -31.219  1.00  0.00     0.052 A 
HETATM   39  C37 UNL     1      -2.293  -0.808 -31.881  1.00  0.00     0.066 A 
HETATM   40  C31 UNL     1      -1.773   1.872 -31.194  1.00  0.00     0.020 A 
HETATM   41  C35 UNL     1      -3.063   1.466 -31.522  1.00  0.00     0.023 A 
HETATM   42  C36 UNL     1      -3.276   0.155 -31.851  1.00  0.00     0.034 A 
BRANCH  36  43
HETATM   43  C27 UNL     1       1.213  -1.491 -31.372  1.00  0.00     0.247 C 
BRANCH  43  44
HETATM   44  C28 UNL     1       1.483  -1.387 -29.899  1.00  0.00     0.192 C 
HETATM   45  O5  UNL     1       1.239  -2.373 -29.189  1.00  0.00    -0.647 OA
HETATM   46  O6  UNL     1       1.996  -0.216 -29.338  1.00  0.00    -0.647 OA
ENDBRANCH  43  44
ENDBRANCH  36  43
BRANCH  40  47
HETATM   47  C32 UNL     1      -1.487   3.224 -30.834  1.00  0.00    -0.065 C 
HETATM   48  C33 UNL     1      -1.261   4.349 -30.513  1.00  0.00    -0.075 C 
BRANCH  48  49
HETATM   49  C34 UNL     1      -0.984   5.738 -30.088  1.00  0.00     0.258 C 
BRANCH  49  50
HETATM   50  O7  UNL     1       0.361   6.001 -30.092  1.00  0.00    -0.389 OA
ATOM     51  H7  UNL     1       0.867   5.212 -29.937  1.00  0.00     0.210 HD
ENDBRANCH  49  50
ENDBRANCH  48  49
ENDBRANCH  40  47
ENDBRANCH  32  33
ENDBRANCH  31  32
ENDBRANCH  29  30
ENDBRANCH  28  29
ENDBRANCH   1  28
TORSDOF 18
ENDMDL
MODEL 5
REMARK VINA RESULT: -7.138598627      2.089      3.932
REMARK  18 active torsions:
REMARK  status: ('A' for Active; 'I' for Inactive)
REMARK    1  A    between atoms: C5_5  and  S1_6 
REMARK    2  A    between atoms: S1_6  and  N1_9 
REMARK    3  A    between atoms: N1_9  and  C6_10 
REMARK    4  A    between atoms: N1_9  and  C13_17 
REMARK    5  A    between atoms: C6_10  and  C7_11 
REMARK    6  A    between atoms: C13_17  and  C14_18 
REMARK    7  A    between atoms: C14_18  and  C15_19 
REMARK    8  A    between atoms: C14_18  and  O3_26 
REMARK    9  A    between atoms: C15_19  and  C16_20 
REMARK   10  A    between atoms: O3_26  and  C22_27 
REMARK   11  A    between atoms: C22_27  and  C23_28 
REMARK   12  A    between atoms: C24_29  and  C25_30 
REMARK   13  A    between atoms: C25_30  and  N2_31 
REMARK   14  A    between atoms: N3_34  and  C27_35 
REMARK   15  A    between atoms: C27_35  and  C28_36 
REMARK   16  A    between atoms: C31_41  and  C32_42 
REMARK   17  A    between atoms: C33_43  and  C34_44 
REMARK   18  A    between atoms: C34_44  and  O7_45 
ROOT
HETATM    1  C14 UNL     1      -6.510  -1.003 -29.356  1.00  0.00     0.165 C 
ENDROOT
BRANCH   1   2
HETATM    2  C13 UNL     1      -6.511  -1.921 -28.213  1.00  0.00     0.114 C 
BRANCH   2   3
HETATM    3  N1  UNL     1      -7.476  -1.787 -27.227  1.00  0.00    -0.259 N 
BRANCH   3   4
HETATM    4  S1  UNL     1      -9.084  -2.161 -27.668  1.00  0.00     0.268 S 
HETATM    5  O1  UNL     1      -9.684  -0.983 -28.370  1.00  0.00    -0.200 OA
HETATM    6  O2  UNL     1      -9.080  -3.317 -28.614  1.00  0.00    -0.200 OA
BRANCH   4   7
HETATM    7  C5  UNL     1     -10.099  -2.625 -26.319  1.00  0.00     0.080 A 
HETATM    8  C4  UNL     1     -10.269  -3.954 -25.979  1.00  0.00     0.026 A 
HETATM    9  C3  UNL     1     -11.068  -4.322 -24.910  1.00  0.00     0.008 A 
HETATM   10  C2  UNL     1     -11.730  -3.395 -24.135  1.00  0.00    -0.062 A 
HETATM   11  C1  UNL     1     -12.580  -3.832 -22.990  1.00  0.00     0.048 C 
HETATM   12  C39 UNL     1     -11.553  -2.073 -24.484  1.00  0.00     0.008 A 
HETATM   13  C38 UNL     1     -10.761  -1.693 -25.546  1.00  0.00     0.026 A 
ENDBRANCH   4   7
ENDBRANCH   3   4
BRANCH   3  14
HETATM   14  C6  UNL     1      -7.261  -1.598 -25.872  1.00  0.00     0.119 C 
BRANCH  14  15
HETATM   15  C7  UNL     1      -6.945  -0.243 -25.387  1.00  0.00    -0.020 A 
HETATM   16  C8  UNL     1      -7.847   0.720 -25.037  1.00  0.00     0.013 A 
HETATM   17  C9  UNL     1      -7.475   1.966 -24.597  1.00  0.00     0.001 A 
HETATM   18  C10 UNL     1      -6.119   2.295 -24.491  1.00  0.00     0.000 A 
HETATM   19  C11 UNL     1      -5.204   1.343 -24.836  1.00  0.00     0.001 A 
HETATM   20  C12 UNL     1      -5.602   0.120 -25.267  1.00  0.00     0.013 A 
ENDBRANCH  14  15
ENDBRANCH   3  14
ENDBRANCH   2   3
ENDBRANCH   1   2
BRANCH   1  21
HETATM   21  C15 UNL     1      -5.559   0.193 -29.214  1.00  0.00     0.076 C 
BRANCH  21  22
HETATM   22  C16 UNL     1      -6.190   1.423 -28.752  1.00  0.00    -0.055 A 
HETATM   23  C17 UNL     1      -5.485   2.527 -28.392  1.00  0.00     0.007 A 
HETATM   24  C18 UNL     1      -6.055   3.729 -27.961  1.00  0.00     0.001 A 
HETATM   25  C19 UNL     1      -7.421   3.809 -27.895  1.00  0.00     0.000 A 
HETATM   26  C20 UNL     1      -8.151   2.696 -28.255  1.00  0.00     0.001 A 
HETATM   27  C21 UNL     1      -7.582   1.540 -28.670  1.00  0.00     0.007 A 
ENDBRANCH  21  22
ENDBRANCH   1  21
BRANCH   1  28
HETATM   28  O3  UNL     1      -5.953  -1.734 -30.465  1.00  0.00    -0.377 OA
BRANCH  28  29
HETATM   29  C22 UNL     1      -6.903  -1.953 -31.455  1.00  0.00     0.196 C 
BRANCH  29  30
HETATM   30  C23 UNL     1      -6.742  -3.179 -32.232  1.00  0.00    -0.003 C 
HETATM   31  C24 UNL     1      -5.956  -3.265 -33.273  1.00  0.00    -0.009 C 
BRANCH  31  32
HETATM   32  C25 UNL     1      -5.102  -2.239 -33.886  1.00  0.00     0.161 C 
BRANCH  32  33
HETATM   33  N2  UNL     1      -4.039  -1.820 -32.953  1.00  0.00    -0.294 N 
HETATM   34  C26 UNL     1      -3.115  -2.572 -32.359  1.00  0.00     0.330 A 
HETATM   35  O4  UNL     1      -2.988  -3.818 -32.510  1.00  0.00    -0.246 OA
HETATM   36  N3  UNL     1      -2.323  -1.832 -31.567  1.00  0.00    -0.287 N 
HETATM   37  C29 UNL     1      -2.759  -0.562 -31.661  1.00  0.00     0.068 A 
HETATM   38  C30 UNL     1      -2.348   0.620 -31.080  1.00  0.00     0.052 A 
HETATM   39  C37 UNL     1      -3.841  -0.560 -32.536  1.00  0.00     0.066 A 
HETATM   40  C31 UNL     1      -2.976   1.833 -31.334  1.00  0.00     0.020 A 
HETATM   41  C35 UNL     1      -4.057   1.835 -32.210  1.00  0.00     0.023 A 
HETATM   42  C36 UNL     1      -4.448   0.652 -32.774  1.00  0.00     0.034 A 
BRANCH  36  43
HETATM   43  C27 UNL     1      -1.212  -2.266 -30.748  1.00  0.00     0.247 C 
BRANCH  43  44
HETATM   44  C28 UNL     1      -1.694  -2.837 -29.446  1.00  0.00     0.192 C 
HETATM   45  O5  UNL     1      -0.852  -3.308 -28.668  1.00  0.00    -0.647 OA
HETATM   46  O6  UNL     1      -3.049  -2.840 -29.113  1.00  0.00    -0.647 OA
ENDBRANCH  43  44
ENDBRANCH  36  43
BRANCH  40  47
HETATM   47  C32 UNL     1      -2.524   3.033 -30.705  1.00  0.00    -0.065 C 
HETATM   48  C33 UNL     1      -2.158   4.047 -30.197  1.00  0.00    -0.075 C 
BRANCH  48  49
HETATM   49  C34 UNL     1      -1.726   5.319 -29.579  1.00  0.00     0.258 C 
BRANCH  49  50
HETATM   50  O7  UNL     1      -0.413   5.591 -29.867  1.00  0.00    -0.389 OA
ATOM     51  H7  UNL     1       0.169   5.182 -29.239  1.00  0.00     0.210 HD
ENDBRANCH  49  50
ENDBRANCH  48  49
ENDBRANCH  40  47
ENDBRANCH  32  33
ENDBRANCH  31  32
ENDBRANCH  29  30
ENDBRANCH  28  29
ENDBRANCH   1  28
TORSDOF 18
ENDMDL
