MODEL 1
REMARK VINA RESULT: -6.365283675      0.000      0.000
REMARK  7 active torsions:
REMARK  status: ('A' for Active; 'I' for Inactive)
REMARK    1  A    between atoms: C2_2  and  C3_3 
REMARK    2  A    between atoms: C6_7  and  N1_8 
REMARK       I    between atoms: N1_8  and  C7_10 
REMARK    3  A    between atoms: C7_10  and  C8_12 
REMARK    4  A    between atoms: C8_12  and  S2_13 
REMARK    5  A    between atoms: S2_13  and  C9_16 
REMARK    6  A    between atoms: C9_16  and  C10_17 
REMARK    7  A    between atoms: C15_26  and  C16_27 
ROOT
HETATM    1  N1  UNL     1     -16.089  11.986  -4.661  1.00  0.00    -0.344 N 
ATOM      2  H1  UNL     1     -15.144  12.344  -4.800  1.00  0.00     0.163 HD
HETATM    3  C7  UNL     1     -16.655  11.124  -5.648  1.00  0.00     0.232 C 
HETATM    4  O1  UNL     1     -17.816  10.680  -5.446  1.00  0.00    -0.273 OA
ENDROOT
BRANCH   1   5
HETATM    5  C6  UNL     1     -16.814  12.366  -3.473  1.00  0.00     0.210 C 
HETATM    6  C5  UNL     1     -15.867  13.245  -2.643  1.00  0.00     0.182 C 
HETATM    7  S1  UNL     1     -16.446  14.943  -2.466  1.00  0.00    -0.140 SA
HETATM    8  N2  UNL     1     -16.227  12.480  -1.493  1.00  0.00    -0.319 N 
HETATM    9  C4  UNL     1     -17.294  14.967  -0.846  1.00  0.00     0.087 C 
HETATM   10  C3  UNL     1     -16.234  14.370   0.117  1.00  0.00     0.050 C 
HETATM   11  C15 UNL     1     -16.053  12.925  -0.145  1.00  0.00     0.198 C 
HETATM   12  C14 UNL     1     -16.654  11.420  -2.381  1.00  0.00     0.247 C 
HETATM   13  O5  UNL     1     -16.800  10.163  -2.180  1.00  0.00    -0.271 OA
BRANCH  10  14
HETATM   14  C2  UNL     1     -16.618  14.698   1.489  1.00  0.00    -0.029 C 
HETATM   15  C1  UNL     1     -16.015  15.406   2.399  1.00  0.00     0.007 C 
ENDBRANCH  10  14
BRANCH  11  16
HETATM   16  C16 UNL     1     -14.684  12.499   0.257  1.00  0.00     0.197 C 
HETATM   17  O6  UNL     1     -13.833  12.273  -0.633  1.00  0.00    -0.646 OA
HETATM   18  O7  UNL     1     -14.349  12.361   1.571  1.00  0.00    -0.646 OA
ENDBRANCH  11  16
ENDBRANCH   1   5
BRANCH   3  19
HETATM   19  C8  UNL     1     -15.938  10.741  -6.872  1.00  0.00     0.243 C 
BRANCH  19  20
HETATM   20  S2  UNL     1     -15.285  12.166  -7.710  1.00  0.00     0.158 S 
HETATM   21  O2  UNL     1     -15.887  12.129  -9.098  1.00  0.00    -0.227 OA
HETATM   22  O3  UNL     1     -15.613  13.450  -7.045  1.00  0.00    -0.227 OA
BRANCH  20  23
HETATM   23  C9  UNL     1     -13.505  12.044  -7.828  1.00  0.00     0.205 C 
BRANCH  23  24
HETATM   24  C10 UNL     1     -13.144  11.370  -9.088  1.00  0.00     0.068 A 
HETATM   25  C11 UNL     1     -13.315  10.061  -9.458  1.00  0.00     0.037 A 
HETATM   26  C12 UNL     1     -12.810   9.948 -10.717  1.00  0.00     0.048 A 
HETATM   27  C13 UNL     1     -12.340  11.204 -11.091  1.00  0.00     0.121 A 
HETATM   28 BR1  UNL     1     -11.536  11.596 -12.770  1.00  0.00    -0.023 Br
HETATM   29  O4  UNL     1     -12.565  12.002 -10.089  1.00  0.00    -0.307 OA
ENDBRANCH  23  24
ENDBRANCH  20  23
ENDBRANCH  19  20
ENDBRANCH   3  19
TORSDOF 7
ENDMDL
MODEL 2
REMARK VINA RESULT: -6.322749353      3.522      4.200
REMARK  7 active torsions:
REMARK  status: ('A' for Active; 'I' for Inactive)
REMARK    1  A    between atoms: C2_2  and  C3_3 
REMARK    2  A    between atoms: C6_7  and  N1_8 
REMARK       I    between atoms: N1_8  and  C7_10 
REMARK    3  A    between atoms: C7_10  and  C8_12 
REMARK    4  A    between atoms: C8_12  and  S2_13 
REMARK    5  A    between atoms: S2_13  and  C9_16 
REMARK    6  A    between atoms: C9_16  and  C10_17 
REMARK    7  A    between atoms: C15_26  and  C16_27 
ROOT
HETATM    1  N1  UNL     1     -15.100   9.758  -6.518  1.00  0.00    -0.344 N 
ATOM      2  H1  UNL     1     -14.709  10.586  -6.071  1.00  0.00     0.163 HD
HETATM    3  C7  UNL     1     -14.651   9.397  -7.825  1.00  0.00     0.232 C 
HETATM    4  O1  UNL     1     -15.135   8.360  -8.350  1.00  0.00    -0.273 OA
ENDROOT
BRANCH   1   5
HETATM    5  C6  UNL     1     -16.092   8.983  -5.812  1.00  0.00     0.210 C 
HETATM    6  C5  UNL     1     -16.648   9.888  -4.704  1.00  0.00     0.182 C 
HETATM    7  S1  UNL     1     -18.394  10.282  -4.919  1.00  0.00    -0.140 SA
HETATM    8  N2  UNL     1     -16.498   8.800  -3.793  1.00  0.00    -0.319 N 
HETATM    9  C4  UNL     1     -19.266   9.072  -3.860  1.00  0.00     0.087 C 
HETATM   10  C3  UNL     1     -18.564   9.233  -2.486  1.00  0.00     0.050 C 
HETATM   11  C15 UNL     1     -17.186   8.697  -2.544  1.00  0.00     0.198 C 
HETATM   12  C14 UNL     1     -15.537   8.220  -4.706  1.00  0.00     0.247 C 
HETATM   13  O5  UNL     1     -14.600   7.369  -4.511  1.00  0.00    -0.271 OA
BRANCH  10  14
HETATM   14  C2  UNL     1     -19.412   8.629  -1.459  1.00  0.00    -0.029 C 
HETATM   15  C1  UNL     1     -20.322   9.150  -0.688  1.00  0.00     0.007 C 
ENDBRANCH  10  14
BRANCH  11  16
HETATM   16  C16 UNL     1     -16.326   9.385  -1.541  1.00  0.00     0.197 C 
HETATM   17  O6  UNL     1     -16.601  10.560  -1.210  1.00  0.00    -0.646 OA
HETATM   18  O7  UNL     1     -15.258   8.751  -0.979  1.00  0.00    -0.646 OA
ENDBRANCH  11  16
ENDBRANCH   1   5
BRANCH   3  19
HETATM   19  C8  UNL     1     -13.655  10.184  -8.565  1.00  0.00     0.243 C 
BRANCH  19  20
HETATM   20  S2  UNL     1     -14.061  11.914  -8.555  1.00  0.00     0.158 S 
HETATM   21  O2  UNL     1     -15.332  12.036  -9.367  1.00  0.00    -0.227 OA
HETATM   22  O3  UNL     1     -14.269  12.470  -7.196  1.00  0.00    -0.227 OA
BRANCH  20  23
HETATM   23  C9  UNL     1     -12.759  12.853  -9.342  1.00  0.00     0.205 C 
BRANCH  23  24
HETATM   24  C10 UNL     1     -12.332  12.161 -10.571  1.00  0.00     0.068 A 
HETATM   25  C11 UNL     1     -11.522  12.605 -11.585  1.00  0.00     0.037 A 
HETATM   26  C12 UNL     1     -11.443  11.588 -12.487  1.00  0.00     0.048 A 
HETATM   27  C13 UNL     1     -12.212  10.536 -11.995  1.00  0.00     0.121 A 
HETATM   28 BR1  UNL     1     -12.438   8.865 -12.877  1.00  0.00    -0.023 Br
HETATM   29  O4  UNL     1     -12.711  10.934 -10.862  1.00  0.00    -0.307 OA
ENDBRANCH  23  24
ENDBRANCH  20  23
ENDBRANCH  19  20
ENDBRANCH   3  19
TORSDOF 7
ENDMDL
MODEL 3
REMARK VINA RESULT: -6.201701124      2.069      2.777
REMARK  7 active torsions:
REMARK  status: ('A' for Active; 'I' for Inactive)
REMARK    1  A    between atoms: C2_2  and  C3_3 
REMARK    2  A    between atoms: C6_7  and  N1_8 
REMARK       I    between atoms: N1_8  and  C7_10 
REMARK    3  A    between atoms: C7_10  and  C8_12 
REMARK    4  A    between atoms: C8_12  and  S2_13 
REMARK    5  A    between atoms: S2_13  and  C9_16 
REMARK    6  A    between atoms: C9_16  and  C10_17 
REMARK    7  A    between atoms: C15_26  and  C16_27 
ROOT
HETATM    1  N1  UNL     1     -17.273   9.705  -3.077  1.00  0.00    -0.344 N 
ATOM      2  H1  UNL     1     -16.585   9.021  -2.761  1.00  0.00     0.163 HD
HETATM    3  C7  UNL     1     -17.775   9.617  -4.411  1.00  0.00     0.232 C 
HETATM    4  O1  UNL     1     -18.637  10.460  -4.774  1.00  0.00    -0.273 OA
ENDROOT
BRANCH   1   5
HETATM    5  C6  UNL     1     -17.712  10.732  -2.163  1.00  0.00     0.210 C 
HETATM    6  C5  UNL     1     -16.628  11.820  -2.173  1.00  0.00     0.182 C 
HETATM    7  S1  UNL     1     -17.209  13.395  -2.829  1.00  0.00    -0.140 SA
HETATM    8  N2  UNL     1     -16.680  11.831  -0.747  1.00  0.00    -0.319 N 
HETATM    9  C4  UNL     1     -17.652  14.369  -1.346  1.00  0.00     0.087 C 
HETATM   10  C3  UNL     1     -16.375  14.279  -0.469  1.00  0.00     0.050 C 
HETATM   11  C15 UNL     1     -16.210  12.909   0.066  1.00  0.00     0.198 C 
HETATM   12  C14 UNL     1     -17.266  10.509  -0.798  1.00  0.00     0.247 C 
HETATM   13  O5  UNL     1     -17.316   9.577   0.080  1.00  0.00    -0.271 OA
BRANCH  10  14
HETATM   14  C2  UNL     1     -16.437  15.328   0.548  1.00  0.00    -0.029 C 
HETATM   15  C1  UNL     1     -16.814  16.572   0.471  1.00  0.00     0.007 C 
ENDBRANCH  10  14
BRANCH  11  16
HETATM   16  C16 UNL     1     -14.771  12.632   0.328  1.00  0.00     0.197 C 
HETATM   17  O6  UNL     1     -14.343  12.699   1.502  1.00  0.00    -0.646 OA
HETATM   18  O7  UNL     1     -13.924  12.301  -0.688  1.00  0.00    -0.646 OA
ENDBRANCH  11  16
ENDBRANCH   1   5
BRANCH   3  19
HETATM   19  C8  UNL     1     -17.327   8.588  -5.359  1.00  0.00     0.243 C 
BRANCH  19  20
HETATM   20  S2  UNL     1     -15.560   8.611  -5.551  1.00  0.00     0.158 S 
HETATM   21  O2  UNL     1     -15.116   9.966  -5.045  1.00  0.00    -0.227 OA
HETATM   22  O3  UNL     1     -14.866   7.534  -4.804  1.00  0.00    -0.227 OA
BRANCH  20  23
HETATM   23  C9  UNL     1     -15.130   8.449  -7.279  1.00  0.00     0.205 C 
BRANCH  23  24
HETATM   24  C10 UNL     1     -14.960   9.790  -7.868  1.00  0.00     0.068 A 
HETATM   25  C11 UNL     1     -15.836  10.844  -7.904  1.00  0.00     0.037 A 
HETATM   26  C12 UNL     1     -15.200  11.850  -8.565  1.00  0.00     0.048 A 
HETATM   27  C13 UNL     1     -13.937  11.381  -8.918  1.00  0.00     0.121 A 
HETATM   28 BR1  UNL     1     -12.637  12.400  -9.863  1.00  0.00    -0.023 Br
HETATM   29  O4  UNL     1     -13.854  10.160  -8.479  1.00  0.00    -0.307 OA
ENDBRANCH  23  24
ENDBRANCH  20  23
ENDBRANCH  19  20
ENDBRANCH   3  19
TORSDOF 7
ENDMDL
MODEL 4
REMARK VINA RESULT: -6.197993197      2.146      2.493
REMARK  7 active torsions:
REMARK  status: ('A' for Active; 'I' for Inactive)
REMARK    1  A    between atoms: C2_2  and  C3_3 
REMARK    2  A    between atoms: C6_7  and  N1_8 
REMARK       I    between atoms: N1_8  and  C7_10 
REMARK    3  A    between atoms: C7_10  and  C8_12 
REMARK    4  A    between atoms: C8_12  and  S2_13 
REMARK    5  A    between atoms: S2_13  and  C9_16 
REMARK    6  A    between atoms: C9_16  and  C10_17 
REMARK    7  A    between atoms: C15_26  and  C16_27 
ROOT
HETATM    1  N1  UNL     1     -15.755  10.652  -5.863  1.00  0.00    -0.344 N 
ATOM      2  H1  UNL     1     -15.637  11.641  -6.083  1.00  0.00     0.163 HD
HETATM    3  C7  UNL     1     -15.315   9.674  -6.806  1.00  0.00     0.232 C 
HETATM    4  O1  UNL     1     -15.454   8.460  -6.504  1.00  0.00    -0.273 OA
ENDROOT
BRANCH   1   5
HETATM    5  C6  UNL     1     -16.361  10.282  -4.606  1.00  0.00     0.210 C 
HETATM    6  C5  UNL     1     -16.548  11.581  -3.810  1.00  0.00     0.182 C 
HETATM    7  S1  UNL     1     -18.278  11.987  -3.510  1.00  0.00    -0.140 SA
HETATM    8  N2  UNL     1     -15.994  10.918  -2.673  1.00  0.00    -0.319 N 
HETATM    9  C4  UNL     1     -18.611  11.343  -1.831  1.00  0.00     0.087 C 
HETATM   10  C3  UNL     1     -17.475  11.968  -0.980  1.00  0.00     0.050 C 
HETATM   11  C15 UNL     1     -16.173  11.353  -1.323  1.00  0.00     0.198 C 
HETATM   12  C14 UNL     1     -15.386   9.964  -3.576  1.00  0.00     0.247 C 
HETATM   13  O5  UNL     1     -14.378   9.188  -3.424  1.00  0.00    -0.271 OA
BRANCH  10  14
HETATM   14  C2  UNL     1     -17.844  11.868   0.431  1.00  0.00    -0.029 C 
HETATM   15  C1  UNL     1     -18.965  11.527   0.999  1.00  0.00     0.007 C 
ENDBRANCH  10  14
BRANCH  11  16
HETATM   16  C16 UNL     1     -15.066  12.309  -1.046  1.00  0.00     0.197 C 
HETATM   17  O6  UNL     1     -13.917  11.861  -0.833  1.00  0.00    -0.646 OA
HETATM   18  O7  UNL     1     -15.287  13.654  -1.030  1.00  0.00    -0.646 OA
ENDBRANCH  11  16
ENDBRANCH   1   5
BRANCH   3  19
HETATM   19  C8  UNL     1     -14.712  10.034  -8.097  1.00  0.00     0.243 C 
BRANCH  19  20
HETATM   20  S2  UNL     1     -14.401  11.781  -8.200  1.00  0.00     0.158 S 
HETATM   21  O2  UNL     1     -15.258  12.277  -9.344  1.00  0.00    -0.227 OA
HETATM   22  O3  UNL     1     -14.731  12.519  -6.957  1.00  0.00    -0.227 OA
BRANCH  20  23
HETATM   23  C9  UNL     1     -12.678  12.074  -8.575  1.00  0.00     0.205 C 
BRANCH  23  24
HETATM   24  C10 UNL     1     -12.417  11.723  -9.983  1.00  0.00     0.068 A 
HETATM   25  C11 UNL     1     -11.907  12.496 -10.994  1.00  0.00     0.037 A 
HETATM   26  C12 UNL     1     -11.868  11.704 -12.101  1.00  0.00     0.048 A 
HETATM   27  C13 UNL     1     -12.357  10.453 -11.734  1.00  0.00     0.121 A 
HETATM   28 BR1  UNL     1     -12.513   8.970 -12.915  1.00  0.00    -0.023 Br
HETATM   29  O4  UNL     1     -12.664  10.526 -10.472  1.00  0.00    -0.307 OA
ENDBRANCH  23  24
ENDBRANCH  20  23
ENDBRANCH  19  20
ENDBRANCH   3  19
TORSDOF 7
ENDMDL
MODEL 5
REMARK VINA RESULT: -6.068952418      4.002      5.675
REMARK  7 active torsions:
REMARK  status: ('A' for Active; 'I' for Inactive)
REMARK    1  A    between atoms: C2_2  and  C3_3 
REMARK    2  A    between atoms: C6_7  and  N1_8 
REMARK       I    between atoms: N1_8  and  C7_10 
REMARK    3  A    between atoms: C7_10  and  C8_12 
REMARK    4  A    between atoms: C8_12  and  S2_13 
REMARK    5  A    between atoms: S2_13  and  C9_16 
REMARK    6  A    between atoms: C9_16  and  C10_17 
REMARK    7  A    between atoms: C15_26  and  C16_27 
ROOT
HETATM    1  N1  UNL     1     -16.316  10.507  -1.939  1.00  0.00    -0.344 N 
ATOM      2  H1  UNL     1     -17.079   9.830  -1.946  1.00  0.00     0.163 HD
HETATM    3  C7  UNL     1     -15.111  10.187  -1.242  1.00  0.00     0.232 C 
HETATM    4  O1  UNL     1     -14.176  11.030  -1.263  1.00  0.00    -0.273 OA
ENDROOT
BRANCH   1   5
HETATM    5  C6  UNL     1     -16.485  11.760  -2.635  1.00  0.00     0.210 C 
HETATM    6  C5  UNL     1     -17.137  12.730  -1.639  1.00  0.00     0.182 C 
HETATM    7  S1  UNL     1     -16.080  14.127  -1.212  1.00  0.00    -0.140 SA
HETATM    8  N2  UNL     1     -18.056  13.104  -2.665  1.00  0.00    -0.319 N 
HETATM    9  C4  UNL     1     -16.635  15.471  -2.321  1.00  0.00     0.087 C 
HETATM   10  C3  UNL     1     -18.167  15.515  -2.084  1.00  0.00     0.050 C 
HETATM   11  C15 UNL     1     -18.814  14.316  -2.662  1.00  0.00     0.198 C 
HETATM   12  C14 UNL     1     -17.755  11.857  -3.334  1.00  0.00     0.247 C 
HETATM   13  O5  UNL     1     -18.422  11.183  -4.196  1.00  0.00    -0.271 OA
BRANCH  10  14
HETATM   14  C2  UNL     1     -18.678  16.788  -2.591  1.00  0.00    -0.029 C 
HETATM   15  C1  UNL     1     -19.108  17.127  -3.772  1.00  0.00     0.007 C 
ENDBRANCH  10  14
BRANCH  11  16
HETATM   16  C16 UNL     1     -20.075  14.012  -1.930  1.00  0.00     0.197 C 
HETATM   17  O6  UNL     1     -21.041  13.528  -2.561  1.00  0.00    -0.646 OA
HETATM   18  O7  UNL     1     -20.184  14.247  -0.592  1.00  0.00    -0.646 OA
ENDBRANCH  11  16
ENDBRANCH   1   5
BRANCH   3  19
HETATM   19  C8  UNL     1     -14.929   8.923  -0.514  1.00  0.00     0.243 C 
BRANCH  19  20
HETATM   20  S2  UNL     1     -15.456   7.534  -1.490  1.00  0.00     0.158 S 
HETATM   21  O2  UNL     1     -15.449   6.352  -0.546  1.00  0.00    -0.227 OA
HETATM   22  O3  UNL     1     -16.802   7.702  -2.088  1.00  0.00    -0.227 OA
BRANCH  20  23
HETATM   23  C9  UNL     1     -14.294   7.245  -2.818  1.00  0.00     0.205 C 
BRANCH  23  24
HETATM   24  C10 UNL     1     -14.869   7.733  -4.085  1.00  0.00     0.068 A 
HETATM   25  C11 UNL     1     -15.438   7.028  -5.114  1.00  0.00     0.037 A 
HETATM   26  C12 UNL     1     -15.808   7.944  -6.050  1.00  0.00     0.048 A 
HETATM   27  C13 UNL     1     -15.456   9.200  -5.564  1.00  0.00     0.121 A 
HETATM   28 BR1  UNL     1     -15.758  10.836  -6.489  1.00  0.00    -0.023 Br
HETATM   29  O4  UNL     1     -14.907   9.011  -4.400  1.00  0.00    -0.307 OA
ENDBRANCH  23  24
ENDBRANCH  20  23
ENDBRANCH  19  20
ENDBRANCH   3  19
TORSDOF 7
ENDMDL
