MODEL 1
REMARK VINA RESULT: -7.935340217      0.000      0.000
REMARK  10 active torsions:
REMARK  status: ('A' for Active; 'I' for Inactive)
REMARK    1  A    between atoms: O1_2  and  C2_3 
REMARK    2  A    between atoms: C5_6  and  C6_7 
REMARK    3  A    between atoms: C6_7  and  C7_8 
REMARK    4  A    between atoms: C7_8  and  S1_9 
REMARK    5  A    between atoms: S1_9  and  N1_12 
REMARK    6  A    between atoms: N1_12  and  C8_14 
REMARK    7  A    between atoms: C10_22  and  N5_23 
REMARK    8  A    between atoms: N5_23  and  S2_25 
REMARK    9  A    between atoms: S2_25  and  C11_28 
REMARK   10  A    between atoms: C17_35  and  O6_36 
ROOT
HETATM    1  C8  UNL     1     -16.065  14.069  -2.296  1.00  0.00     0.175 A 
HETATM    2  N2  UNL     1     -15.985  15.402  -2.423  1.00  0.00    -0.281 N 
ATOM      3  H2  UNL     1     -15.613  15.811  -3.280  1.00  0.00     0.188 HD
HETATM    4  N3  UNL     1     -16.394  16.199  -1.421  1.00  0.00    -0.294 N 
ATOM      5  H3  UNL     1     -16.322  17.209  -1.544  1.00  0.00     0.187 HD
HETATM    6  C9  UNL     1     -16.886  15.737  -0.280  1.00  0.00     0.199 A 
HETATM    7  N4  UNL     1     -16.966  14.385  -0.155  1.00  0.00    -0.334 N 
ATOM      8  H4  UNL     1     -17.343  14.003   0.713  1.00  0.00     0.168 HD
HETATM    9  C10 UNL     1     -16.578  13.526  -1.109  1.00  0.00     0.163 A 
ENDROOT
BRANCH   1  10
HETATM   10  N1  UNL     1     -15.700  13.255  -3.192  1.00  0.00    -0.262 N 
ATOM     11  H1  UNL     1     -14.724  12.961  -3.144  1.00  0.00     0.180 HD
BRANCH  10  12
HETATM   12  S1  UNL     1     -16.599  12.581  -4.462  1.00  0.00     0.254 S 
HETATM   13  O2  UNL     1     -17.878  11.995  -3.894  1.00  0.00    -0.201 OA
HETATM   14  O3  UNL     1     -17.083  13.708  -5.375  1.00  0.00    -0.201 OA
BRANCH  12  15
HETATM   15  C7  UNL     1     -15.728  11.403  -5.399  1.00  0.00     0.132 C 
BRANCH  15  16
HETATM   16  C6  UNL     1     -15.929  11.266  -6.690  1.00  0.00     0.027 C 
BRANCH  16  17
HETATM   17  C5  UNL     1     -15.014  11.711  -7.725  1.00  0.00    -0.002 A 
HETATM   18  C4  UNL     1     -14.891  13.028  -8.104  1.00  0.00     0.017 A 
HETATM   19  C3  UNL     1     -14.000  13.410  -9.104  1.00  0.00     0.038 A 
HETATM   20  C2  UNL     1     -13.209  12.489  -9.751  1.00  0.00     0.070 A 
HETATM   21  C19 UNL     1     -13.340  11.171  -9.367  1.00  0.00     0.074 A 
HETATM   22  C17 UNL     1     -14.215  10.772  -8.381  1.00  0.00     0.081 A 
BRANCH  20  23
HETATM   23  O1  UNL     1     -12.309  12.862 -10.759  1.00  0.00    -0.356 OA
HETATM   24  C1  UNL     1     -11.768  11.834 -11.565  1.00  0.00     0.210 C 
ENDBRANCH  20  23
BRANCH  22  25
HETATM   25  O6  UNL     1     -14.327   9.427  -8.011  1.00  0.00    -0.355 OA
HETATM   26  C18 UNL     1     -15.073   8.576  -8.839  1.00  0.00     0.210 C 
ENDBRANCH  22  25
ENDBRANCH  16  17
ENDBRANCH  15  16
ENDBRANCH  12  15
ENDBRANCH  10  12
ENDBRANCH   1  10
BRANCH   9  27
HETATM   27  N5  UNL     1     -16.666  12.248  -0.960  1.00  0.00    -0.263 N 
ATOM     28  H5  UNL     1     -17.583  11.814  -1.061  1.00  0.00     0.180 HD
BRANCH  27  29
HETATM   29  S2  UNL     1     -15.337  11.243  -0.605  1.00  0.00     0.264 S 
HETATM   30  O4  UNL     1     -15.395  10.728   0.824  1.00  0.00    -0.200 OA
HETATM   31  O5  UNL     1     -14.074  12.045  -0.747  1.00  0.00    -0.200 OA
BRANCH  29  32
HETATM   32  C11 UNL     1     -15.226   9.888  -1.708  1.00  0.00     0.080 A 
HETATM   33  C12 UNL     1     -13.995   9.316  -1.907  1.00  0.00     0.028 A 
HETATM   34  C13 UNL     1     -13.788   8.242  -2.755  1.00  0.00     0.044 A 
HETATM   35  C14 UNL     1     -14.885   7.739  -3.420  1.00  0.00     0.116 A 
HETATM   36  F1  UNL     1     -14.747   6.678  -4.272  1.00  0.00    -0.206 F 
HETATM   37  C15 UNL     1     -16.135   8.319  -3.218  1.00  0.00     0.044 A 
HETATM   38  C16 UNL     1     -16.322   9.388  -2.371  1.00  0.00     0.028 A 
ENDBRANCH  29  32
ENDBRANCH  27  29
ENDBRANCH   9  27
TORSDOF 10
ENDMDL
MODEL 2
REMARK VINA RESULT: -7.835178355      1.598      2.068
REMARK  10 active torsions:
REMARK  status: ('A' for Active; 'I' for Inactive)
REMARK    1  A    between atoms: O1_2  and  C2_3 
REMARK    2  A    between atoms: C5_6  and  C6_7 
REMARK    3  A    between atoms: C6_7  and  C7_8 
REMARK    4  A    between atoms: C7_8  and  S1_9 
REMARK    5  A    between atoms: S1_9  and  N1_12 
REMARK    6  A    between atoms: N1_12  and  C8_14 
REMARK    7  A    between atoms: C10_22  and  N5_23 
REMARK    8  A    between atoms: N5_23  and  S2_25 
REMARK    9  A    between atoms: S2_25  and  C11_28 
REMARK   10  A    between atoms: C17_35  and  O6_36 
ROOT
HETATM    1  C8  UNL     1     -15.630  12.520  -1.837  1.00  0.00     0.175 A 
HETATM    2  N2  UNL     1     -16.065  13.716  -1.413  1.00  0.00    -0.281 N 
ATOM      3  H2  UNL     1     -16.586  14.323  -2.046  1.00  0.00     0.188 HD
HETATM    4  N3  UNL     1     -15.815  14.116  -0.154  1.00  0.00    -0.294 N 
ATOM      5  H3  UNL     1     -16.158  15.030   0.142  1.00  0.00     0.187 HD
HETATM    6  C9  UNL     1     -15.145  13.380   0.721  1.00  0.00     0.199 A 
HETATM    7  N4  UNL     1     -14.706  12.167   0.289  1.00  0.00    -0.334 N 
ATOM      8  H4  UNL     1     -14.188  11.580   0.943  1.00  0.00     0.168 HD
HETATM    9  C10 UNL     1     -14.916  11.700  -0.951  1.00  0.00     0.163 A 
ENDROOT
BRANCH   1  10
HETATM   10  N1  UNL     1     -15.825  12.075  -3.005  1.00  0.00    -0.262 N 
ATOM     11  H1  UNL     1     -15.047  11.554  -3.409  1.00  0.00     0.180 HD
BRANCH  10  12
HETATM   12  S1  UNL     1     -17.194  12.222  -3.995  1.00  0.00     0.254 S 
HETATM   13  O2  UNL     1     -18.434  12.044  -3.139  1.00  0.00    -0.201 OA
HETATM   14  O3  UNL     1     -17.292  13.664  -4.491  1.00  0.00    -0.201 OA
BRANCH  12  15
HETATM   15  C7  UNL     1     -17.204  11.134  -5.352  1.00  0.00     0.132 C 
BRANCH  15  16
HETATM   16  C6  UNL     1     -16.089  10.673  -5.870  1.00  0.00     0.027 C 
BRANCH  16  17
HETATM   17  C5  UNL     1     -15.376  11.277  -6.981  1.00  0.00    -0.002 A 
HETATM   18  C4  UNL     1     -15.364  12.632  -7.219  1.00  0.00     0.017 A 
HETATM   19  C3  UNL     1     -14.667  13.169  -8.298  1.00  0.00     0.038 A 
HETATM   20  C2  UNL     1     -13.963  12.368  -9.168  1.00  0.00     0.070 A 
HETATM   21  C19 UNL     1     -13.981  11.011  -8.923  1.00  0.00     0.074 A 
HETATM   22  C17 UNL     1     -14.664  10.460  -7.863  1.00  0.00     0.081 A 
BRANCH  20  23
HETATM   23  O1  UNL     1     -13.257  12.897 -10.257  1.00  0.00    -0.356 OA
HETATM   24  C1  UNL     1     -12.033  12.281 -10.604  1.00  0.00     0.210 C 
ENDBRANCH  20  23
BRANCH  22  25
HETATM   25  O6  UNL     1     -14.664   9.078  -7.638  1.00  0.00    -0.355 OA
HETATM   26  C18 UNL     1     -15.278   8.256  -8.594  1.00  0.00     0.210 C 
ENDBRANCH  22  25
ENDBRANCH  16  17
ENDBRANCH  15  16
ENDBRANCH  12  15
ENDBRANCH  10  12
ENDBRANCH   1  10
BRANCH   9  27
HETATM   27  N5  UNL     1     -14.486  10.546  -1.333  1.00  0.00    -0.263 N 
ATOM     28  H5  UNL     1     -13.572  10.498  -1.783  1.00  0.00     0.180 HD
BRANCH  27  29
HETATM   29  S2  UNL     1     -15.356   9.097  -1.127  1.00  0.00     0.264 S 
HETATM   30  O4  UNL     1     -16.679   9.337  -0.419  1.00  0.00    -0.200 OA
HETATM   31  O5  UNL     1     -14.547   8.164  -0.271  1.00  0.00    -0.200 OA
BRANCH  29  32
HETATM   32  C11 UNL     1     -15.651   8.287  -2.651  1.00  0.00     0.080 A 
HETATM   33  C12 UNL     1     -16.953   8.064  -3.024  1.00  0.00     0.028 A 
HETATM   34  C13 UNL     1     -17.304   7.434  -4.205  1.00  0.00     0.044 A 
HETATM   35  C14 UNL     1     -16.282   7.021  -5.031  1.00  0.00     0.116 A 
HETATM   36  F1  UNL     1     -16.564   6.392  -6.213  1.00  0.00    -0.206 F 
HETATM   37  C15 UNL     1     -14.961   7.247  -4.655  1.00  0.00     0.044 A 
HETATM   38  C16 UNL     1     -14.629   7.875  -3.475  1.00  0.00     0.028 A 
ENDBRANCH  29  32
ENDBRANCH  27  29
ENDBRANCH   9  27
TORSDOF 10
ENDMDL
MODEL 3
REMARK VINA RESULT: -7.784832376      3.148      5.150
REMARK  10 active torsions:
REMARK  status: ('A' for Active; 'I' for Inactive)
REMARK    1  A    between atoms: O1_2  and  C2_3 
REMARK    2  A    between atoms: C5_6  and  C6_7 
REMARK    3  A    between atoms: C6_7  and  C7_8 
REMARK    4  A    between atoms: C7_8  and  S1_9 
REMARK    5  A    between atoms: S1_9  and  N1_12 
REMARK    6  A    between atoms: N1_12  and  C8_14 
REMARK    7  A    between atoms: C10_22  and  N5_23 
REMARK    8  A    between atoms: N5_23  and  S2_25 
REMARK    9  A    between atoms: S2_25  and  C11_28 
REMARK   10  A    between atoms: C17_35  and  O6_36 
ROOT
HETATM    1  C8  UNL     1     -14.491   8.292  -3.076  1.00  0.00     0.175 A 
HETATM    2  N2  UNL     1     -14.065   7.070  -2.718  1.00  0.00    -0.281 N 
ATOM      3  H2  UNL     1     -13.796   6.394  -3.432  1.00  0.00     0.188 HD
HETATM    4  N3  UNL     1     -13.992   6.737  -1.417  1.00  0.00    -0.294 N 
ATOM      5  H3  UNL     1     -13.665   5.802  -1.173  1.00  0.00     0.187 HD
HETATM    6  C9  UNL     1     -14.325   7.565  -0.437  1.00  0.00     0.199 A 
HETATM    7  N4  UNL     1     -14.756   8.802  -0.803  1.00  0.00    -0.334 N 
ATOM      8  H4  UNL     1     -15.017   9.459  -0.067  1.00  0.00     0.168 HD
HETATM    9  C10 UNL     1     -14.856   9.206  -2.077  1.00  0.00     0.163 A 
ENDROOT
BRANCH   1  10
HETATM   10  N1  UNL     1     -14.587   8.678  -4.276  1.00  0.00    -0.262 N 
ATOM     11  H1  UNL     1     -13.967   9.444  -4.540  1.00  0.00     0.180 HD
BRANCH  10  12
HETATM   12  S1  UNL     1     -15.598   8.104  -5.511  1.00  0.00     0.254 S 
HETATM   13  O2  UNL     1     -15.576   6.587  -5.492  1.00  0.00    -0.201 OA
HETATM   14  O3  UNL     1     -17.046   8.456  -5.166  1.00  0.00    -0.201 OA
BRANCH  12  15
HETATM   15  C7  UNL     1     -15.206   8.720  -7.089  1.00  0.00     0.132 C 
BRANCH  15  16
HETATM   16  C6  UNL     1     -15.037  10.006  -7.302  1.00  0.00     0.027 C 
BRANCH  16  17
HETATM   17  C5  UNL     1     -14.210  10.574  -8.350  1.00  0.00    -0.002 A 
HETATM   18  C4  UNL     1     -13.649   9.820  -9.356  1.00  0.00     0.017 A 
HETATM   19  C3  UNL     1     -12.860  10.407 -10.342  1.00  0.00     0.038 A 
HETATM   20  C2  UNL     1     -12.612  11.760 -10.352  1.00  0.00     0.070 A 
HETATM   21  C19 UNL     1     -13.177  12.508  -9.340  1.00  0.00     0.074 A 
HETATM   22  C17 UNL     1     -13.959  11.948  -8.356  1.00  0.00     0.081 A 
BRANCH  20  23
HETATM   23  O1  UNL     1     -11.820  12.362 -11.340  1.00  0.00    -0.356 OA
HETATM   24  C1  UNL     1     -11.581  11.626 -12.523  1.00  0.00     0.210 C 
ENDBRANCH  20  23
BRANCH  22  25
HETATM   25  O6  UNL     1     -14.520  12.731  -7.341  1.00  0.00    -0.355 OA
HETATM   26  C18 UNL     1     -15.733  13.383  -7.607  1.00  0.00     0.210 C 
ENDBRANCH  22  25
ENDBRANCH  16  17
ENDBRANCH  15  16
ENDBRANCH  12  15
ENDBRANCH  10  12
ENDBRANCH   1  10
BRANCH   9  27
HETATM   27  N5  UNL     1     -15.269  10.387  -2.394  1.00  0.00    -0.263 N 
ATOM     28  H5  UNL     1     -15.619  10.536  -3.340  1.00  0.00     0.180 HD
BRANCH  27  29
HETATM   29  S2  UNL     1     -15.263  11.710  -1.322  1.00  0.00     0.264 S 
HETATM   30  O4  UNL     1     -13.851  12.071  -0.890  1.00  0.00    -0.200 OA
HETATM   31  O5  UNL     1     -16.033  11.335  -0.087  1.00  0.00    -0.200 OA
BRANCH  29  32
HETATM   32  C11 UNL     1     -16.038  13.119  -2.015  1.00  0.00     0.080 A 
HETATM   33  C12 UNL     1     -16.736  12.962  -3.186  1.00  0.00     0.028 A 
HETATM   34  C13 UNL     1     -17.388  14.003  -3.823  1.00  0.00     0.044 A 
HETATM   35  C14 UNL     1     -17.319  15.248  -3.236  1.00  0.00     0.116 A 
HETATM   36  F1  UNL     1     -17.942  16.319  -3.817  1.00  0.00    -0.206 F 
HETATM   37  C15 UNL     1     -16.611  15.408  -2.048  1.00  0.00     0.044 A 
HETATM   38  C16 UNL     1     -15.968  14.360  -1.427  1.00  0.00     0.028 A 
ENDBRANCH  29  32
ENDBRANCH  27  29
ENDBRANCH   9  27
TORSDOF 10
ENDMDL
MODEL 4
REMARK VINA RESULT: -7.549037568      1.059      1.201
REMARK  10 active torsions:
REMARK  status: ('A' for Active; 'I' for Inactive)
REMARK    1  A    between atoms: O1_2  and  C2_3 
REMARK    2  A    between atoms: C5_6  and  C6_7 
REMARK    3  A    between atoms: C6_7  and  C7_8 
REMARK    4  A    between atoms: C7_8  and  S1_9 
REMARK    5  A    between atoms: S1_9  and  N1_12 
REMARK    6  A    between atoms: N1_12  and  C8_14 
REMARK    7  A    between atoms: C10_22  and  N5_23 
REMARK    8  A    between atoms: N5_23  and  S2_25 
REMARK    9  A    between atoms: S2_25  and  C11_28 
REMARK   10  A    between atoms: C17_35  and  O6_36 
ROOT
HETATM    1  C8  UNL     1     -15.867  14.392  -1.658  1.00  0.00     0.175 A 
HETATM    2  N2  UNL     1     -16.374  15.629  -1.543  1.00  0.00    -0.281 N 
ATOM      3  H2  UNL     1     -16.578  16.176  -2.379  1.00  0.00     0.188 HD
HETATM    4  N3  UNL     1     -16.613  16.147  -0.326  1.00  0.00    -0.294 N 
ATOM      5  H3  UNL     1     -17.000  17.090  -0.268  1.00  0.00     0.187 HD
HETATM    6  C9  UNL     1     -16.371  15.494   0.802  1.00  0.00     0.199 A 
HETATM    7  N4  UNL     1     -15.858  14.240   0.681  1.00  0.00    -0.334 N 
ATOM      8  H4  UNL     1     -15.663  13.715   1.534  1.00  0.00     0.168 HD
HETATM    9  C10 UNL     1     -15.592  13.656  -0.496  1.00  0.00     0.163 A 
ENDROOT
BRANCH   1  10
HETATM   10  N1  UNL     1     -15.614  13.837  -2.766  1.00  0.00    -0.262 N 
ATOM     11  H1  UNL     1     -14.644  13.902  -3.077  1.00  0.00     0.180 HD
BRANCH  10  12
HETATM   12  S1  UNL     1     -16.656  13.000  -3.811  1.00  0.00     0.254 S 
HETATM   13  O2  UNL     1     -17.879  12.561  -3.028  1.00  0.00    -0.201 OA
HETATM   14  O3  UNL     1     -17.212  13.982  -4.843  1.00  0.00    -0.201 OA
BRANCH  12  15
HETATM   15  C7  UNL     1     -15.911  11.655  -4.623  1.00  0.00     0.132 C 
BRANCH  15  16
HETATM   16  C6  UNL     1     -16.241  11.327  -5.852  1.00  0.00     0.027 C 
BRANCH  16  17
HETATM   17  C5  UNL     1     -15.333  11.327  -6.985  1.00  0.00    -0.002 A 
HETATM   18  C4  UNL     1     -14.885  12.480  -7.588  1.00  0.00     0.017 A 
HETATM   19  C3  UNL     1     -14.013  12.434  -8.674  1.00  0.00     0.038 A 
HETATM   20  C2  UNL     1     -13.566  11.237  -9.185  1.00  0.00     0.070 A 
HETATM   21  C19 UNL     1     -14.022  10.087  -8.575  1.00  0.00     0.074 A 
HETATM   22  C17 UNL     1     -14.883  10.111  -7.502  1.00  0.00     0.081 A 
BRANCH  20  23
HETATM   23  O1  UNL     1     -12.690  11.178 -10.277  1.00  0.00    -0.356 OA
HETATM   24  C1  UNL     1     -12.022  12.370 -10.643  1.00  0.00     0.210 C 
ENDBRANCH  20  23
BRANCH  22  25
HETATM   25  O6  UNL     1     -15.328   8.927  -6.902  1.00  0.00    -0.355 OA
HETATM   26  C18 UNL     1     -15.427   7.780  -7.702  1.00  0.00     0.210 C 
ENDBRANCH  22  25
ENDBRANCH  16  17
ENDBRANCH  15  16
ENDBRANCH  12  15
ENDBRANCH  10  12
ENDBRANCH   1  10
BRANCH   9  27
HETATM   27  N5  UNL     1     -15.103  12.465  -0.578  1.00  0.00    -0.263 N 
ATOM     28  H5  UNL     1     -14.128  12.364  -0.857  1.00  0.00     0.180 HD
BRANCH  27  29
HETATM   29  S2  UNL     1     -15.995  11.052  -0.248  1.00  0.00     0.264 S 
HETATM   30  O4  UNL     1     -17.475  11.353  -0.084  1.00  0.00    -0.200 OA
HETATM   31  O5  UNL     1     -15.505  10.463   1.045  1.00  0.00    -0.200 OA
BRANCH  29  32
HETATM   32  C11 UNL     1     -15.782   9.838  -1.491  1.00  0.00     0.080 A 
HETATM   33  C12 UNL     1     -14.502   9.529  -1.882  1.00  0.00     0.028 A 
HETATM   34  C13 UNL     1     -14.215   8.587  -2.853  1.00  0.00     0.044 A 
HETATM   35  C14 UNL     1     -15.278   7.939  -3.443  1.00  0.00     0.116 A 
HETATM   36  F1  UNL     1     -15.060   6.997  -4.410  1.00  0.00    -0.206 F 
HETATM   37  C15 UNL     1     -16.577   8.251  -3.048  1.00  0.00     0.044 A 
HETATM   38  C16 UNL     1     -16.845   9.192  -2.079  1.00  0.00     0.028 A 
ENDBRANCH  29  32
ENDBRANCH  27  29
ENDBRANCH   9  27
TORSDOF 10
ENDMDL
MODEL 5
REMARK VINA RESULT: -7.490439064      3.033      4.548
REMARK  10 active torsions:
REMARK  status: ('A' for Active; 'I' for Inactive)
REMARK    1  A    between atoms: O1_2  and  C2_3 
REMARK    2  A    between atoms: C5_6  and  C6_7 
REMARK    3  A    between atoms: C6_7  and  C7_8 
REMARK    4  A    between atoms: C7_8  and  S1_9 
REMARK    5  A    between atoms: S1_9  and  N1_12 
REMARK    6  A    between atoms: N1_12  and  C8_14 
REMARK    7  A    between atoms: C10_22  and  N5_23 
REMARK    8  A    between atoms: N5_23  and  S2_25 
REMARK    9  A    between atoms: S2_25  and  C11_28 
REMARK   10  A    between atoms: C17_35  and  O6_36 
ROOT
HETATM    1  C8  UNL     1     -15.435   9.387  -4.683  1.00  0.00     0.175 A 
HETATM    2  N2  UNL     1     -16.027   8.958  -5.808  1.00  0.00    -0.281 N 
ATOM      3  H2  UNL     1     -16.443   9.629  -6.453  1.00  0.00     0.188 HD
HETATM    4  N3  UNL     1     -16.073   7.644  -6.085  1.00  0.00    -0.294 N 
ATOM      5  H3  UNL     1     -16.529   7.345  -6.948  1.00  0.00     0.187 HD
HETATM    6  C9  UNL     1     -15.554   6.716  -5.293  1.00  0.00     0.199 A 
HETATM    7  N4  UNL     1     -14.954   7.154  -4.154  1.00  0.00    -0.334 N 
ATOM      8  H4  UNL     1     -14.546   6.461  -3.526  1.00  0.00     0.168 HD
HETATM    9  C10 UNL     1     -14.870   8.447  -3.808  1.00  0.00     0.163 A 
ENDROOT
BRANCH   1  10
HETATM   10  N1  UNL     1     -15.354  10.605  -4.353  1.00  0.00    -0.262 N 
ATOM     11  H1  UNL     1     -14.605  10.831  -3.698  1.00  0.00     0.180 HD
BRANCH  10  12
HETATM   12  S1  UNL     1     -16.310  11.917  -4.843  1.00  0.00     0.254 S 
HETATM   13  O2  UNL     1     -17.750  11.453  -4.958  1.00  0.00    -0.201 OA
HETATM   14  O3  UNL     1     -16.344  12.950  -3.717  1.00  0.00    -0.201 OA
BRANCH  12  15
HETATM   15  C7  UNL     1     -15.773  12.672  -6.315  1.00  0.00     0.132 C 
BRANCH  15  16
HETATM   16  C6  UNL     1     -15.695  12.002  -7.442  1.00  0.00     0.027 C 
BRANCH  16  17
HETATM   17  C5  UNL     1     -14.581  12.061  -8.370  1.00  0.00    -0.002 A 
HETATM   18  C4  UNL     1     -14.070  13.243  -8.855  1.00  0.00     0.017 A 
HETATM   19  C3  UNL     1     -12.998  13.253  -9.746  1.00  0.00     0.038 A 
HETATM   20  C2  UNL     1     -12.410  12.086 -10.174  1.00  0.00     0.070 A 
HETATM   21  C19 UNL     1     -12.930  10.906  -9.684  1.00  0.00     0.074 A 
HETATM   22  C17 UNL     1     -13.987  10.874  -8.804  1.00  0.00     0.081 A 
BRANCH  20  23
HETATM   23  O1  UNL     1     -11.332  12.084 -11.070  1.00  0.00    -0.356 OA
HETATM   24  C1  UNL     1     -11.560  11.565 -12.365  1.00  0.00     0.210 C 
ENDBRANCH  20  23
BRANCH  22  25
HETATM   25  O6  UNL     1     -14.494   9.661  -8.322  1.00  0.00    -0.355 OA
HETATM   26  C18 UNL     1     -15.131   8.805  -9.233  1.00  0.00     0.210 C 
ENDBRANCH  22  25
ENDBRANCH  16  17
ENDBRANCH  15  16
ENDBRANCH  12  15
ENDBRANCH  10  12
ENDBRANCH   1  10
BRANCH   9  27
HETATM   27  N5  UNL     1     -14.295   8.832  -2.720  1.00  0.00    -0.263 N 
ATOM     28  H5  UNL     1     -13.347   9.203  -2.782  1.00  0.00     0.180 HD
BRANCH  27  29
HETATM   29  S2  UNL     1     -15.028   8.757  -1.185  1.00  0.00     0.264 S 
HETATM   30  O4  UNL     1     -14.298   7.793  -0.265  1.00  0.00    -0.200 OA
HETATM   31  O5  UNL     1     -16.435   8.253  -1.346  1.00  0.00    -0.200 OA
BRANCH  29  32
HETATM   32  C11 UNL     1     -15.119  10.331  -0.423  1.00  0.00     0.080 A 
HETATM   33  C12 UNL     1     -14.577  11.403  -1.088  1.00  0.00     0.028 A 
HETATM   34  C13 UNL     1     -14.591  12.691  -0.583  1.00  0.00     0.044 A 
HETATM   35  C14 UNL     1     -15.183  12.884   0.646  1.00  0.00     0.116 A 
HETATM   36  F1  UNL     1     -15.229  14.134   1.199  1.00  0.00    -0.206 F 
HETATM   37  C15 UNL     1     -15.734  11.798   1.321  1.00  0.00     0.044 A 
HETATM   38  C16 UNL     1     -15.711  10.522   0.803  1.00  0.00     0.028 A 
ENDBRANCH  29  32
ENDBRANCH  27  29
ENDBRANCH   9  27
TORSDOF 10
ENDMDL
