MODEL 1
REMARK VINA RESULT: -7.072400204      0.000      0.000
REMARK  9 active torsions:
REMARK  status: ('A' for Active; 'I' for Inactive)
REMARK    1  A    between atoms: O1_2  and  C2_3 
REMARK    2  A    between atoms: C5_6  and  S1_7 
REMARK    3  A    between atoms: S1_7  and  N1_10 
REMARK    4  A    between atoms: N1_10  and  C6_12 
REMARK    5  A    between atoms: N2_15  and  C9_16 
REMARK    6  A    between atoms: C15_23  and  N3_24 
REMARK    7  A    between atoms: N3_24  and  S2_26 
REMARK    8  A    between atoms: S2_26  and  N4_27 
REMARK    9  A    between atoms: C17_34  and  O6_35 
ROOT
HETATM    1  C6  UNL     1     -16.424   5.614  -7.747  1.00  0.00     0.088 A 
HETATM    2  C7  UNL     1     -16.151   6.257  -8.936  1.00  0.00     0.055 A 
HETATM    3  C8  UNL     1     -15.672   7.527  -9.054  1.00  0.00     0.102 A 
HETATM    4  N2  UNL     1     -15.370   8.401  -8.113  1.00  0.00    -0.302 N 
HETATM    5  C15 UNL     1     -15.506   8.129  -6.803  1.00  0.00     0.168 A 
HETATM    6  S3  UNL     1     -16.097   6.585  -6.383  1.00  0.00    -0.034 SA
ENDROOT
BRANCH   1   7
HETATM    7  N1  UNL     1     -16.918   4.299  -7.772  1.00  0.00    -0.274 N 
ATOM      8  H1  UNL     1     -16.380   3.576  -7.294  1.00  0.00     0.179 HD
BRANCH   7   9
HETATM    9  S1  UNL     1     -18.373   3.833  -8.558  1.00  0.00     0.263 S 
HETATM   10  O2  UNL     1     -19.466   3.533  -7.564  1.00  0.00    -0.200 OA
HETATM   11  O3  UNL     1     -18.824   4.905  -9.506  1.00  0.00    -0.200 OA
BRANCH   9  12
HETATM   12  C5  UNL     1     -18.002   2.405  -9.517  1.00  0.00     0.082 A 
HETATM   13  C4  UNL     1     -18.701   2.207 -10.682  1.00  0.00     0.028 A 
HETATM   14  C3  UNL     1     -18.445   1.087 -11.479  1.00  0.00     0.041 A 
HETATM   15  C2  UNL     1     -17.487   0.186 -11.091  1.00  0.00     0.101 A 
HETATM   16  C17 UNL     1     -16.779   0.371  -9.927  1.00  0.00     0.102 A 
HETATM   17  C16 UNL     1     -17.054   1.496  -9.148  1.00  0.00     0.065 A 
BRANCH  15  18
HETATM   18  O1  UNL     1     -17.239  -0.912 -11.879  1.00  0.00    -0.353 OA
HETATM   19  C1  UNL     1     -16.823  -0.839 -13.222  1.00  0.00     0.210 C 
ENDBRANCH  15  18
BRANCH  16  20
HETATM   20  O6  UNL     1     -15.825  -0.539  -9.553  1.00  0.00    -0.353 OA
HETATM   21  C18 UNL     1     -14.448  -0.342  -9.596  1.00  0.00     0.210 C 
ENDBRANCH  16  20
ENDBRANCH   9  12
ENDBRANCH   7   9
ENDBRANCH   1   7
BRANCH   5  22
HETATM   22  N3  UNL     1     -15.189   9.040  -5.908  1.00  0.00    -0.247 N 
ATOM     23  H3  UNL     1     -14.232   9.392  -5.883  1.00  0.00     0.182 HD
BRANCH  22  24
HETATM   24  S2  UNL     1     -16.321   9.651  -4.790  1.00  0.00     0.318 S 
HETATM   25  O4  UNL     1     -17.665   9.719  -5.431  1.00  0.00    -0.183 OA
HETATM   26  O5  UNL     1     -16.371   8.834  -3.524  1.00  0.00    -0.183 OA
BRANCH  24  27
HETATM   27  N4  UNL     1     -15.776  11.239  -4.312  1.00  0.00    -0.311 N 
ATOM     28  H42 UNL     1     -14.817  11.581  -4.376  1.00  0.00     0.170 HD
ATOM     29  H41 UNL     1     -16.588  11.748  -3.964  1.00  0.00     0.170 HD
ENDBRANCH  24  27
ENDBRANCH  22  24
ENDBRANCH   5  22
BRANCH   4  30
HETATM   30  C9  UNL     1     -14.864   9.724  -8.440  1.00  0.00     0.041 A 
HETATM   31  C10 UNL     1     -13.540   9.926  -8.771  1.00  0.00     0.033 A 
HETATM   32  C11 UNL     1     -13.028  11.165  -9.085  1.00  0.00     0.044 A 
HETATM   33  C12 UNL     1     -13.868  12.259  -9.070  1.00  0.00     0.116 A 
HETATM   34  F1  UNL     1     -13.361  13.483  -9.380  1.00  0.00    -0.206 F 
HETATM   35  C13 UNL     1     -15.206  12.089  -8.740  1.00  0.00     0.044 A 
HETATM   36  C14 UNL     1     -15.682  10.832  -8.431  1.00  0.00     0.033 A 
ENDBRANCH   4  30
TORSDOF 9
ENDMDL
MODEL 2
REMARK VINA RESULT: -6.837159646      5.773     11.752
REMARK  9 active torsions:
REMARK  status: ('A' for Active; 'I' for Inactive)
REMARK    1  A    between atoms: O1_2  and  C2_3 
REMARK    2  A    between atoms: C5_6  and  S1_7 
REMARK    3  A    between atoms: S1_7  and  N1_10 
REMARK    4  A    between atoms: N1_10  and  C6_12 
REMARK    5  A    between atoms: N2_15  and  C9_16 
REMARK    6  A    between atoms: C15_23  and  N3_24 
REMARK    7  A    between atoms: N3_24  and  S2_26 
REMARK    8  A    between atoms: S2_26  and  N4_27 
REMARK    9  A    between atoms: C17_34  and  O6_35 
ROOT
HETATM    1  C6  UNL     1     -17.118  12.492  -3.576  1.00  0.00     0.088 A 
HETATM    2  C7  UNL     1     -16.879  13.089  -4.795  1.00  0.00     0.055 A 
HETATM    3  C8  UNL     1     -16.202  12.520  -5.832  1.00  0.00     0.102 A 
HETATM    4  N2  UNL     1     -15.642  11.330  -5.917  1.00  0.00    -0.302 N 
HETATM    5  C15 UNL     1     -15.668  10.445  -4.905  1.00  0.00     0.168 A 
HETATM    6  S3  UNL     1     -16.467  10.919  -3.473  1.00  0.00    -0.034 SA
ENDROOT
BRANCH   1   7
HETATM    7  N1  UNL     1     -17.832  13.196  -2.592  1.00  0.00    -0.274 N 
ATOM      8  H1  UNL     1     -18.756  12.851  -2.331  1.00  0.00     0.179 HD
BRANCH   7   9
HETATM    9  S1  UNL     1     -17.245  14.604  -1.800  1.00  0.00     0.263 S 
HETATM   10  O2  UNL     1     -17.691  14.655  -0.361  1.00  0.00    -0.200 OA
HETATM   11  O3  UNL     1     -15.747  14.661  -1.873  1.00  0.00    -0.200 OA
BRANCH   9  12
HETATM   12  C5  UNL     1     -17.869  15.989  -2.689  1.00  0.00     0.082 A 
HETATM   13  C4  UNL     1     -17.041  17.069  -2.870  1.00  0.00     0.028 A 
HETATM   14  C3  UNL     1     -17.489  18.194  -3.568  1.00  0.00     0.041 A 
HETATM   15  C2  UNL     1     -18.763  18.213  -4.075  1.00  0.00     0.101 A 
HETATM   16  C17 UNL     1     -19.604  17.138  -3.901  1.00  0.00     0.102 A 
HETATM   17  C16 UNL     1     -19.133  16.027  -3.200  1.00  0.00     0.065 A 
BRANCH  15  18
HETATM   18  O1  UNL     1     -19.197  19.321  -4.761  1.00  0.00    -0.353 OA
HETATM   19  C1  UNL     1     -18.345  20.205  -5.448  1.00  0.00     0.210 C 
ENDBRANCH  15  18
BRANCH  16  20
HETATM   20  O6  UNL     1     -20.875  17.172  -4.413  1.00  0.00    -0.353 OA
HETATM   21  C18 UNL     1     -21.841  16.181  -4.265  1.00  0.00     0.210 C 
ENDBRANCH  16  20
ENDBRANCH   9  12
ENDBRANCH   7   9
ENDBRANCH   1   7
BRANCH   5  22
HETATM   22  N3  UNL     1     -15.093   9.270  -5.045  1.00  0.00    -0.247 N 
ATOM     23  H3  UNL     1     -14.134   9.230  -5.390  1.00  0.00     0.182 HD
BRANCH  22  24
HETATM   24  S2  UNL     1     -15.894   7.814  -4.670  1.00  0.00     0.318 S 
HETATM   25  O4  UNL     1     -17.368   8.032  -4.712  1.00  0.00    -0.183 OA
HETATM   26  O5  UNL     1     -15.493   6.687  -5.589  1.00  0.00    -0.183 OA
BRANCH  24  27
HETATM   27  N4  UNL     1     -15.379   7.332  -3.073  1.00  0.00    -0.311 N 
ATOM     28  H42 UNL     1     -14.480   7.556  -2.647  1.00  0.00     0.170 HD
ATOM     29  H41 UNL     1     -16.139   6.793  -2.658  1.00  0.00     0.170 HD
ENDBRANCH  24  27
ENDBRANCH  22  24
ENDBRANCH   5  22
BRANCH   4  30
HETATM   30  C9  UNL     1     -14.955  10.897  -7.123  1.00  0.00     0.041 A 
HETATM   31  C10 UNL     1     -15.222   9.672  -7.702  1.00  0.00     0.033 A 
HETATM   32  C11 UNL     1     -14.590   9.232  -8.843  1.00  0.00     0.044 A 
HETATM   33  C12 UNL     1     -13.647  10.041  -9.441  1.00  0.00     0.116 A 
HETATM   34  F1  UNL     1     -13.023   9.604 -10.568  1.00  0.00    -0.206 F 
HETATM   35  C13 UNL     1     -13.356  11.279  -8.882  1.00  0.00     0.044 A 
HETATM   36  C14 UNL     1     -14.010  11.686  -7.738  1.00  0.00     0.033 A 
ENDBRANCH   4  30
TORSDOF 9
ENDMDL
MODEL 3
REMARK VINA RESULT: -6.810026915      0.971      1.839
REMARK  9 active torsions:
REMARK  status: ('A' for Active; 'I' for Inactive)
REMARK    1  A    between atoms: O1_2  and  C2_3 
REMARK    2  A    between atoms: C5_6  and  S1_7 
REMARK    3  A    between atoms: S1_7  and  N1_10 
REMARK    4  A    between atoms: N1_10  and  C6_12 
REMARK    5  A    between atoms: N2_15  and  C9_16 
REMARK    6  A    between atoms: C15_23  and  N3_24 
REMARK    7  A    between atoms: N3_24  and  S2_26 
REMARK    8  A    between atoms: S2_26  and  N4_27 
REMARK    9  A    between atoms: C17_34  and  O6_35 
ROOT
HETATM    1  C6  UNL     1     -16.411   5.674  -7.676  1.00  0.00     0.088 A 
HETATM    2  C7  UNL     1     -16.139   6.296  -8.875  1.00  0.00     0.055 A 
HETATM    3  C8  UNL     1     -15.652   7.561  -9.016  1.00  0.00     0.102 A 
HETATM    4  N2  UNL     1     -15.340   8.448  -8.091  1.00  0.00    -0.302 N 
HETATM    5  C15 UNL     1     -15.473   8.199  -6.777  1.00  0.00     0.168 A 
HETATM    6  S3  UNL     1     -16.072   6.665  -6.329  1.00  0.00    -0.034 SA
ENDROOT
BRANCH   1   7
HETATM    7  N1  UNL     1     -16.913   4.362  -7.677  1.00  0.00    -0.274 N 
ATOM      8  H1  UNL     1     -16.435   3.666  -7.105  1.00  0.00     0.179 HD
BRANCH   7   9
HETATM    9  S1  UNL     1     -18.283   3.858  -8.583  1.00  0.00     0.263 S 
HETATM   10  O2  UNL     1     -19.477   3.622  -7.693  1.00  0.00    -0.200 OA
HETATM   11  O3  UNL     1     -18.622   4.875  -9.633  1.00  0.00    -0.200 OA
BRANCH   9  12
HETATM   12  C5  UNL     1     -17.830   2.375  -9.414  1.00  0.00     0.082 A 
HETATM   13  C4  UNL     1     -16.854   1.589  -8.852  1.00  0.00     0.028 A 
HETATM   14  C3  UNL     1     -16.457   0.401  -9.473  1.00  0.00     0.041 A 
HETATM   15  C2  UNL     1     -17.052   0.023 -10.650  1.00  0.00     0.101 A 
HETATM   16  C17 UNL     1     -18.030   0.800 -11.224  1.00  0.00     0.102 A 
HETATM   17  C16 UNL     1     -18.408   1.981 -10.585  1.00  0.00     0.065 A 
BRANCH  15  18
HETATM   18  O1  UNL     1     -16.658  -1.146 -11.256  1.00  0.00    -0.353 OA
HETATM   19  C1  UNL     1     -15.316  -1.540 -11.409  1.00  0.00     0.210 C 
ENDBRANCH  15  18
BRANCH  16  20
HETATM   20  O6  UNL     1     -18.614   0.408 -12.401  1.00  0.00    -0.353 OA
HETATM   21  C18 UNL     1     -19.894   0.748 -12.830  1.00  0.00     0.210 C 
ENDBRANCH  16  20
ENDBRANCH   9  12
ENDBRANCH   7   9
ENDBRANCH   1   7
BRANCH   5  22
HETATM   22  N3  UNL     1     -15.147   9.122  -5.898  1.00  0.00    -0.247 N 
ATOM     23  H3  UNL     1     -14.172   9.417  -5.833  1.00  0.00     0.182 HD
BRANCH  22  24
HETATM   24  S2  UNL     1     -16.294   9.842  -4.864  1.00  0.00     0.318 S 
HETATM   25  O4  UNL     1     -15.873  11.237  -4.549  1.00  0.00    -0.183 OA
HETATM   26  O5  UNL     1     -17.684   9.820  -5.449  1.00  0.00    -0.183 OA
BRANCH  24  27
HETATM   27  N4  UNL     1     -16.372   8.871  -3.415  1.00  0.00    -0.311 N 
ATOM     28  H42 UNL     1     -15.569   8.523  -2.890  1.00  0.00     0.170 HD
ATOM     29  H41 UNL     1     -17.358   8.724  -3.199  1.00  0.00     0.170 HD
ENDBRANCH  24  27
ENDBRANCH  22  24
ENDBRANCH   5  22
BRANCH   4  30
HETATM   30  C9  UNL     1     -14.828   9.763  -8.441  1.00  0.00     0.041 A 
HETATM   31  C10 UNL     1     -13.498   9.955  -8.758  1.00  0.00     0.033 A 
HETATM   32  C11 UNL     1     -12.980  11.186  -9.094  1.00  0.00     0.044 A 
HETATM   33  C12 UNL     1     -13.818  12.281  -9.116  1.00  0.00     0.116 A 
HETATM   34  F1  UNL     1     -13.304  13.497  -9.447  1.00  0.00    -0.206 F 
HETATM   35  C13 UNL     1     -15.161  12.120  -8.801  1.00  0.00     0.044 A 
HETATM   36  C14 UNL     1     -15.643  10.871  -8.470  1.00  0.00     0.033 A 
ENDBRANCH   4  30
TORSDOF 9
ENDMDL
MODEL 4
REMARK VINA RESULT: -6.804217129      5.890     11.746
REMARK  9 active torsions:
REMARK  status: ('A' for Active; 'I' for Inactive)
REMARK    1  A    between atoms: O1_2  and  C2_3 
REMARK    2  A    between atoms: C5_6  and  S1_7 
REMARK    3  A    between atoms: S1_7  and  N1_10 
REMARK    4  A    between atoms: N1_10  and  C6_12 
REMARK    5  A    between atoms: N2_15  and  C9_16 
REMARK    6  A    between atoms: C15_23  and  N3_24 
REMARK    7  A    between atoms: N3_24  and  S2_26 
REMARK    8  A    between atoms: S2_26  and  N4_27 
REMARK    9  A    between atoms: C17_34  and  O6_35 
ROOT
HETATM    1  C6  UNL     1     -17.096  12.455  -3.831  1.00  0.00     0.088 A 
HETATM    2  C7  UNL     1     -16.787  13.075  -5.022  1.00  0.00     0.055 A 
HETATM    3  C8  UNL     1     -16.097  12.508  -6.051  1.00  0.00     0.102 A 
HETATM    4  N2  UNL     1     -15.584  11.298  -6.151  1.00  0.00    -0.302 N 
HETATM    5  C15 UNL     1     -15.684  10.386  -5.168  1.00  0.00     0.168 A 
HETATM    6  S3  UNL     1     -16.514  10.853  -3.752  1.00  0.00    -0.034 SA
ENDROOT
BRANCH   1   7
HETATM    7  N1  UNL     1     -17.816  13.161  -2.852  1.00  0.00    -0.274 N 
ATOM      8  H1  UNL     1     -18.769  12.860  -2.649  1.00  0.00     0.179 HD
BRANCH   7   9
HETATM    9  S1  UNL     1     -17.189  14.499  -1.976  1.00  0.00     0.263 S 
HETATM   10  O2  UNL     1     -17.612  14.460  -0.529  1.00  0.00    -0.200 OA
HETATM   11  O3  UNL     1     -15.692  14.535  -2.071  1.00  0.00    -0.200 OA
BRANCH   9  12
HETATM   12  C5  UNL     1     -17.800  15.953  -2.757  1.00  0.00     0.082 A 
HETATM   13  C4  UNL     1     -16.972  17.045  -2.833  1.00  0.00     0.028 A 
HETATM   14  C3  UNL     1     -17.409  18.224  -3.443  1.00  0.00     0.041 A 
HETATM   15  C2  UNL     1     -18.675  18.285  -3.968  1.00  0.00     0.101 A 
HETATM   16  C17 UNL     1     -19.516  17.199  -3.899  1.00  0.00     0.102 A 
HETATM   17  C16 UNL     1     -19.055  16.033  -3.285  1.00  0.00     0.065 A 
BRANCH  15  18
HETATM   18  O1  UNL     1     -19.099  19.446  -4.567  1.00  0.00    -0.353 OA
HETATM   19  C1  UNL     1     -18.312  20.209  -5.450  1.00  0.00     0.210 C 
ENDBRANCH  15  18
BRANCH  16  20
HETATM   20  O6  UNL     1     -20.778  17.275  -4.429  1.00  0.00    -0.353 OA
HETATM   21  C18 UNL     1     -21.763  16.296  -4.334  1.00  0.00     0.210 C 
ENDBRANCH  16  20
ENDBRANCH   9  12
ENDBRANCH   7   9
ENDBRANCH   1   7
BRANCH   5  22
HETATM   22  N3  UNL     1     -15.153   9.193  -5.323  1.00  0.00    -0.247 N 
ATOM     23  H3  UNL     1     -14.233   9.116  -5.756  1.00  0.00     0.182 HD
BRANCH  22  24
HETATM   24  S2  UNL     1     -15.949   7.771  -4.824  1.00  0.00     0.318 S 
HETATM   25  O4  UNL     1     -15.291   7.237  -3.597  1.00  0.00    -0.183 OA
HETATM   26  O5  UNL     1     -17.422   7.992  -4.591  1.00  0.00    -0.183 OA
BRANCH  24  27
HETATM   27  N4  UNL     1     -15.841   6.625  -6.138  1.00  0.00    -0.311 N 
ATOM     28  H42 UNL     1     -15.446   5.687  -6.075  1.00  0.00     0.170 HD
ATOM     29  H41 UNL     1     -16.242   7.069  -6.963  1.00  0.00     0.170 HD
ENDBRANCH  24  27
ENDBRANCH  22  24
ENDBRANCH   5  22
BRANCH   4  30
HETATM   30  C9  UNL     1     -14.871  10.870  -7.345  1.00  0.00     0.041 A 
HETATM   31  C10 UNL     1     -13.887  11.653  -7.913  1.00  0.00     0.033 A 
HETATM   32  C11 UNL     1     -13.193  11.278  -9.042  1.00  0.00     0.044 A 
HETATM   33  C12 UNL     1     -13.488  10.071  -9.639  1.00  0.00     0.116 A 
HETATM   34  F1  UNL     1     -12.803   9.703 -10.755  1.00  0.00    -0.206 F 
HETATM   35  C13 UNL     1     -14.475   9.260  -9.091  1.00  0.00     0.044 A 
HETATM   36  C14 UNL     1     -15.148   9.670  -7.959  1.00  0.00     0.033 A 
ENDBRANCH   4  30
TORSDOF 9
ENDMDL
MODEL 5
REMARK VINA RESULT: -6.671274336      6.560     11.952
REMARK  9 active torsions:
REMARK  status: ('A' for Active; 'I' for Inactive)
REMARK    1  A    between atoms: O1_2  and  C2_3 
REMARK    2  A    between atoms: C5_6  and  S1_7 
REMARK    3  A    between atoms: S1_7  and  N1_10 
REMARK    4  A    between atoms: N1_10  and  C6_12 
REMARK    5  A    between atoms: N2_15  and  C9_16 
REMARK    6  A    between atoms: C15_23  and  N3_24 
REMARK    7  A    between atoms: N3_24  and  S2_26 
REMARK    8  A    between atoms: S2_26  and  N4_27 
REMARK    9  A    between atoms: C17_34  and  O6_35 
ROOT
HETATM    1  C6  UNL     1     -17.395  12.689  -2.922  1.00  0.00     0.088 A 
HETATM    2  C7  UNL     1     -17.229  13.240  -4.174  1.00  0.00     0.055 A 
HETATM    3  C8  UNL     1     -16.563  12.657  -5.211  1.00  0.00     0.102 A 
HETATM    4  N2  UNL     1     -15.950  11.491  -5.265  1.00  0.00    -0.302 N 
HETATM    5  C15 UNL     1     -15.897  10.652  -4.215  1.00  0.00     0.168 A 
HETATM    6  S3  UNL     1     -16.665  11.153  -2.776  1.00  0.00    -0.034 SA
ENDROOT
BRANCH   1   7
HETATM    7  N1  UNL     1     -18.106  13.403  -1.943  1.00  0.00    -0.274 N 
ATOM      8  H1  UNL     1     -18.991  13.015  -1.615  1.00  0.00     0.179 HD
BRANCH   7   9
HETATM    9  S1  UNL     1     -17.576  14.889  -1.263  1.00  0.00     0.263 S 
HETATM   10  O2  UNL     1     -18.150  15.103   0.115  1.00  0.00    -0.200 OA
HETATM   11  O3  UNL     1     -16.078  14.936  -1.206  1.00  0.00    -0.200 OA
BRANCH   9  12
HETATM   12  C5  UNL     1     -18.101  16.166  -2.354  1.00  0.00     0.082 A 
HETATM   13  C4  UNL     1     -17.214  17.173  -2.648  1.00  0.00     0.028 A 
HETATM   14  C3  UNL     1     -17.583  18.211  -3.509  1.00  0.00     0.041 A 
HETATM   15  C2  UNL     1     -18.838  18.218  -4.061  1.00  0.00     0.101 A 
HETATM   16  C17 UNL     1     -19.737  17.217  -3.775  1.00  0.00     0.102 A 
HETATM   17  C16 UNL     1     -19.345  16.192  -2.913  1.00  0.00     0.065 A 
BRANCH  15  18
HETATM   18  O1  UNL     1     -19.194  19.241  -4.907  1.00  0.00    -0.353 OA
HETATM   19  C1  UNL     1     -18.295  20.207  -5.395  1.00  0.00     0.210 C 
ENDBRANCH  15  18
BRANCH  16  20
HETATM   20  O6  UNL     1     -20.988  17.240  -4.334  1.00  0.00    -0.353 OA
HETATM   21  C18 UNL     1     -21.910  16.197  -4.312  1.00  0.00     0.210 C 
ENDBRANCH  16  20
ENDBRANCH   9  12
ENDBRANCH   7   9
ENDBRANCH   1   7
BRANCH   5  22
HETATM   22  N3  UNL     1     -15.272   9.500  -4.326  1.00  0.00    -0.247 N 
ATOM     23  H3  UNL     1     -15.088   9.128  -5.257  1.00  0.00     0.182 HD
BRANCH  22  24
HETATM   24  S2  UNL     1     -14.758   8.609  -2.967  1.00  0.00     0.318 S 
HETATM   25  O4  UNL     1     -13.841   9.446  -2.141  1.00  0.00    -0.183 OA
HETATM   26  O5  UNL     1     -15.916   8.106  -2.142  1.00  0.00    -0.183 OA
BRANCH  24  27
HETATM   27  N4  UNL     1     -13.940   7.184  -3.558  1.00  0.00    -0.311 N 
ATOM     28  H42 UNL     1     -13.031   6.848  -3.241  1.00  0.00     0.170 HD
ATOM     29  H41 UNL     1     -14.538   6.761  -4.268  1.00  0.00     0.170 HD
ENDBRANCH  24  27
ENDBRANCH  22  24
ENDBRANCH   5  22
BRANCH   4  30
HETATM   30  C9  UNL     1     -15.287  11.036  -6.476  1.00  0.00     0.041 A 
HETATM   31  C10 UNL     1     -14.589  11.909  -7.285  1.00  0.00     0.033 A 
HETATM   32  C11 UNL     1     -13.951  11.512  -8.439  1.00  0.00     0.044 A 
HETATM   33  C12 UNL     1     -14.005  10.185  -8.810  1.00  0.00     0.116 A 
HETATM   34  F1  UNL     1     -13.374   9.794  -9.951  1.00  0.00    -0.206 F 
HETATM   35  C13 UNL     1     -14.700   9.281  -8.017  1.00  0.00     0.044 A 
HETATM   36  C14 UNL     1     -15.327   9.717  -6.869  1.00  0.00     0.033 A 
ENDBRANCH   4  30
TORSDOF 9
ENDMDL
