MODEL 1
REMARK VINA RESULT: -6.709922327      0.000      0.000
REMARK  9 active torsions:
REMARK  status: ('A' for Active; 'I' for Inactive)
REMARK    1  A    between atoms: C2_2  and  S1_4 
REMARK    2  A    between atoms: S1_4  and  N1_7 
REMARK    3  A    between atoms: N1_7  and  C4_8 
REMARK    4  A    between atoms: N1_7  and  C9_18 
REMARK    5  A    between atoms: C4_8  and  C5_9 
REMARK    6  A    between atoms: C5_9  and  O3_10 
REMARK    7  A    between atoms: C12_21  and  N2_22 
REMARK    8  A    between atoms: N2_22  and  S3_24 
REMARK    9  A    between atoms: S3_24  and  C13_27 
ROOT
HETATM    1  N1  UNL     1     -15.211   9.141  -4.200  1.00  0.00    -0.273 N 
ENDROOT
BRANCH   1   2
HETATM    2  S1  UNL     1     -14.601   8.357  -2.808  1.00  0.00     0.236 S 
HETATM    3  O1  UNL     1     -13.786   7.146  -3.268  1.00  0.00    -0.205 OA
HETATM    4  O2  UNL     1     -13.610   9.212  -2.061  1.00  0.00    -0.205 OA
BRANCH   2   5
HETATM    5  C2  UNL     1     -15.779   7.779  -1.662  1.00  0.00     0.121 C 
HETATM    6  C1  UNL     1     -15.283   6.369  -1.239  1.00  0.00     0.027 C 
HETATM    7  C3  UNL     1     -15.841   8.561  -0.390  1.00  0.00     0.027 C 
ENDBRANCH   2   5
ENDBRANCH   1   2
BRANCH   1   8
HETATM    8  C4  UNL     1     -15.356  10.545  -4.295  1.00  0.00     0.180 C 
BRANCH   8   9
HETATM    9  C5  UNL     1     -16.365  11.246  -3.444  1.00  0.00     0.088 C 
HETATM   10  C6  UNL     1     -16.909  12.365  -4.312  1.00  0.00     0.055 C 
HETATM   11  C7  UNL     1     -17.701  13.285  -3.475  1.00  0.00     0.143 C 
HETATM   12  S2  UNL     1     -16.729  13.381  -1.991  1.00  0.00     0.147 S 
HETATM   13  O4  UNL     1     -15.744  14.506  -2.107  1.00  0.00    -0.228 OA
HETATM   14  O5  UNL     1     -17.569  13.476  -0.770  1.00  0.00    -0.228 OA
HETATM   15  C8  UNL     1     -15.928  11.800  -2.162  1.00  0.00     0.179 C 
BRANCH   9  16
HETATM   16  O3  UNL     1     -17.488  10.412  -3.220  1.00  0.00    -0.387 OA
ATOM     17  H3  UNL     1     -18.038  10.773  -2.535  1.00  0.00     0.210 HD
ENDBRANCH   9  16
ENDBRANCH   8   9
ENDBRANCH   1   8
BRANCH   1  18
HETATM   18  C9  UNL     1     -15.499   8.323  -5.315  1.00  0.00     0.048 A 
HETATM   19  C10 UNL     1     -16.044   7.081  -5.096  1.00  0.00     0.032 A 
HETATM   20  C11 UNL     1     -16.346   6.208  -6.143  1.00  0.00     0.035 A 
HETATM   21  C12 UNL     1     -16.107   6.564  -7.433  1.00  0.00     0.081 A 
HETATM   22  C17 UNL     1     -15.551   7.832  -7.665  1.00  0.00     0.145 A 
HETATM   23  F1  UNL     1     -15.314   8.185  -8.943  1.00  0.00    -0.204 F 
HETATM   24  C18 UNL     1     -15.260   8.682  -6.605  1.00  0.00     0.074 A 
BRANCH  21  25
HETATM   25  N2  UNL     1     -16.364   5.743  -8.566  1.00  0.00    -0.281 N 
ATOM     26  H2  UNL     1     -16.034   6.061  -9.477  1.00  0.00     0.178 HD
BRANCH  25  27
HETATM   27  S3  UNL     1     -17.188   4.267  -8.481  1.00  0.00     0.238 S 
HETATM   28  O6  UNL     1     -16.271   3.087  -8.612  1.00  0.00    -0.205 OA
HETATM   29  O7  UNL     1     -17.949   4.157  -7.193  1.00  0.00    -0.205 OA
BRANCH  27  30
HETATM   30  C13 UNL     1     -18.406   4.119  -9.780  1.00  0.00     0.072 C 
HETATM   31  C14 UNL     1     -18.288   2.732 -10.375  1.00  0.00     0.033 C 
HETATM   32  C15 UNL     1     -18.150   5.115 -10.884  1.00  0.00     0.033 C 
HETATM   33  C16 UNL     1     -19.802   4.281  -9.245  1.00  0.00     0.033 C 
ENDBRANCH  27  30
ENDBRANCH  25  27
ENDBRANCH  21  25
ENDBRANCH   1  18
TORSDOF 9
ENDMDL
MODEL 2
REMARK VINA RESULT: -6.676907028      1.736      4.122
REMARK  9 active torsions:
REMARK  status: ('A' for Active; 'I' for Inactive)
REMARK    1  A    between atoms: C2_2  and  S1_4 
REMARK    2  A    between atoms: S1_4  and  N1_7 
REMARK    3  A    between atoms: N1_7  and  C4_8 
REMARK    4  A    between atoms: N1_7  and  C9_18 
REMARK    5  A    between atoms: C4_8  and  C5_9 
REMARK    6  A    between atoms: C5_9  and  O3_10 
REMARK    7  A    between atoms: C12_21  and  N2_22 
REMARK    8  A    between atoms: N2_22  and  S3_24 
REMARK    9  A    between atoms: S3_24  and  C13_27 
ROOT
HETATM    1  N1  UNL     1     -15.707   9.240  -4.320  1.00  0.00    -0.273 N 
ENDROOT
BRANCH   1   2
HETATM    2  S1  UNL     1     -16.775  10.576  -4.294  1.00  0.00     0.236 S 
HETATM    3  O1  UNL     1     -17.831  10.356  -5.379  1.00  0.00    -0.205 OA
HETATM    4  O2  UNL     1     -17.564  10.649  -3.013  1.00  0.00    -0.205 OA
BRANCH   2   5
HETATM    5  C2  UNL     1     -16.066  12.142  -4.576  1.00  0.00     0.121 C 
HETATM    6  C1  UNL     1     -15.741  12.178  -6.095  1.00  0.00     0.027 C 
HETATM    7  C3  UNL     1     -16.997  13.291  -4.358  1.00  0.00     0.027 C 
ENDBRANCH   2   5
ENDBRANCH   1   2
BRANCH   1   8
HETATM    8  C4  UNL     1     -14.788   8.965  -3.280  1.00  0.00     0.180 C 
BRANCH   8   9
HETATM    9  C5  UNL     1     -15.229   8.178  -2.088  1.00  0.00     0.088 C 
HETATM   10  C6  UNL     1     -14.929   9.063  -0.894  1.00  0.00     0.055 C 
HETATM   11  C7  UNL     1     -15.064   8.270   0.342  1.00  0.00     0.143 C 
HETATM   12  S2  UNL     1     -14.337   6.717  -0.122  1.00  0.00     0.147 S 
HETATM   13  O4  UNL     1     -12.868   6.739   0.182  1.00  0.00    -0.228 OA
HETATM   14  O5  UNL     1     -15.034   5.560   0.495  1.00  0.00    -0.228 OA
HETATM   15  C8  UNL     1     -14.638   6.857  -1.871  1.00  0.00     0.179 C 
BRANCH   9  16
HETATM   16  O3  UNL     1     -16.640   8.053  -2.074  1.00  0.00    -0.387 OA
ATOM     17  H3  UNL     1     -16.899   7.278  -1.589  1.00  0.00     0.210 HD
ENDBRANCH   9  16
ENDBRANCH   8   9
ENDBRANCH   1   8
BRANCH   1  18
HETATM   18  C9  UNL     1     -15.831   8.349  -5.409  1.00  0.00     0.048 A 
HETATM   19  C10 UNL     1     -16.350   7.098  -5.180  1.00  0.00     0.032 A 
HETATM   20  C11 UNL     1     -16.493   6.156  -6.200  1.00  0.00     0.035 A 
HETATM   21  C12 UNL     1     -16.118   6.451  -7.473  1.00  0.00     0.081 A 
HETATM   22  C17 UNL     1     -15.587   7.727  -7.716  1.00  0.00     0.145 A 
HETATM   23  F1  UNL     1     -15.214   8.019  -8.977  1.00  0.00    -0.204 F 
HETATM   24  C18 UNL     1     -15.455   8.646  -6.682  1.00  0.00     0.074 A 
BRANCH  21  25
HETATM   25  N2  UNL     1     -16.209   5.557  -8.577  1.00  0.00    -0.281 N 
ATOM     26  H2  UNL     1     -15.677   5.775  -9.419  1.00  0.00     0.178 HD
BRANCH  25  27
HETATM   27  S3  UNL     1     -17.153   4.153  -8.566  1.00  0.00     0.238 S 
HETATM   28  O6  UNL     1     -16.332   2.906  -8.723  1.00  0.00    -0.205 OA
HETATM   29  O7  UNL     1     -17.950   4.059  -7.299  1.00  0.00    -0.205 OA
BRANCH  27  30
HETATM   30  C13 UNL     1     -18.347   4.153  -9.894  1.00  0.00     0.072 C 
HETATM   31  C14 UNL     1     -19.710   4.434  -9.297  1.00  0.00     0.033 C 
HETATM   32  C15 UNL     1     -18.412   2.805 -10.569  1.00  0.00     0.033 C 
HETATM   33  C16 UNL     1     -18.048   5.227 -10.903  1.00  0.00     0.033 C 
ENDBRANCH  27  30
ENDBRANCH  25  27
ENDBRANCH  21  25
ENDBRANCH   1  18
TORSDOF 9
ENDMDL
MODEL 3
REMARK VINA RESULT: -6.606942421      4.308      9.106
REMARK  9 active torsions:
REMARK  status: ('A' for Active; 'I' for Inactive)
REMARK    1  A    between atoms: C2_2  and  S1_4 
REMARK    2  A    between atoms: S1_4  and  N1_7 
REMARK    3  A    between atoms: N1_7  and  C4_8 
REMARK    4  A    between atoms: N1_7  and  C9_18 
REMARK    5  A    between atoms: C4_8  and  C5_9 
REMARK    6  A    between atoms: C5_9  and  O3_10 
REMARK    7  A    between atoms: C12_21  and  N2_22 
REMARK    8  A    between atoms: N2_22  and  S3_24 
REMARK    9  A    between atoms: S3_24  and  C13_27 
ROOT
HETATM    1  N1  UNL     1     -16.289  10.317  -3.942  1.00  0.00    -0.273 N 
ENDROOT
BRANCH   1   2
HETATM    2  S1  UNL     1     -17.579   9.286  -3.495  1.00  0.00     0.236 S 
HETATM    3  O1  UNL     1     -18.268   9.897  -2.272  1.00  0.00    -0.205 OA
HETATM    4  O2  UNL     1     -18.657   9.236  -4.545  1.00  0.00    -0.205 OA
BRANCH   2   5
HETATM    5  C2  UNL     1     -17.156   7.647  -3.083  1.00  0.00     0.121 C 
HETATM    6  C1  UNL     1     -16.964   6.919  -4.442  1.00  0.00     0.027 C 
HETATM    7  C3  UNL     1     -15.842   7.505  -2.384  1.00  0.00     0.027 C 
ENDBRANCH   2   5
ENDBRANCH   1   2
BRANCH   1   8
HETATM    8  C4  UNL     1     -15.354   9.991  -4.953  1.00  0.00     0.180 C 
BRANCH   8   9
HETATM    9  C5  UNL     1     -15.593  10.441  -6.358  1.00  0.00     0.088 C 
HETATM   10  C6  UNL     1     -15.125   9.291  -7.229  1.00  0.00     0.055 C 
HETATM   11  C7  UNL     1     -15.055   9.744  -8.631  1.00  0.00     0.143 C 
HETATM   12  S2  UNL     1     -14.384  11.381  -8.469  1.00  0.00     0.147 S 
HETATM   13  O4  UNL     1     -12.886  11.319  -8.528  1.00  0.00    -0.228 OA
HETATM   14  O5  UNL     1     -14.959  12.327  -9.458  1.00  0.00    -0.228 OA
HETATM   15  C8  UNL     1     -14.955  11.678  -6.809  1.00  0.00     0.179 C 
BRANCH   9  16
HETATM   16  O3  UNL     1     -16.983  10.524  -6.621  1.00  0.00    -0.387 OA
ATOM     17  H3  UNL     1     -17.157  11.189  -7.277  1.00  0.00     0.210 HD
ENDBRANCH   9  16
ENDBRANCH   8   9
ENDBRANCH   1   8
BRANCH   1  18
HETATM   18  C9  UNL     1     -16.232  11.577  -3.305  1.00  0.00     0.048 A 
HETATM   19  C10 UNL     1     -16.930  12.624  -3.856  1.00  0.00     0.032 A 
HETATM   20  C11 UNL     1     -16.914  13.902  -3.294  1.00  0.00     0.035 A 
HETATM   21  C12 UNL     1     -16.199  14.155  -2.166  1.00  0.00     0.081 A 
HETATM   22  C17 UNL     1     -15.484  13.090  -1.597  1.00  0.00     0.145 A 
HETATM   23  F1  UNL     1     -14.774  13.340  -0.480  1.00  0.00    -0.204 F 
HETATM   24  C18 UNL     1     -15.516  11.827  -2.177  1.00  0.00     0.074 A 
BRANCH  21  25
HETATM   25  N2  UNL     1     -16.106  15.422  -1.527  1.00  0.00    -0.281 N 
ATOM     26  H2  UNL     1     -15.192  15.731  -1.196  1.00  0.00     0.178 HD
BRANCH  25  27
HETATM   27  S3  UNL     1     -17.433  16.445  -1.285  1.00  0.00     0.238 S 
HETATM   28  O6  UNL     1     -18.720  15.690  -1.118  1.00  0.00    -0.205 OA
HETATM   29  O7  UNL     1     -17.219  17.318  -0.084  1.00  0.00    -0.205 OA
BRANCH  27  30
HETATM   30  C13 UNL     1     -17.665  17.559  -2.661  1.00  0.00     0.072 C 
HETATM   31  C14 UNL     1     -18.077  18.907  -2.108  1.00  0.00     0.033 C 
HETATM   32  C15 UNL     1     -18.769  17.080  -3.571  1.00  0.00     0.033 C 
HETATM   33  C16 UNL     1     -16.391  17.743  -3.440  1.00  0.00     0.033 C 
ENDBRANCH  27  30
ENDBRANCH  25  27
ENDBRANCH  21  25
ENDBRANCH   1  18
TORSDOF 9
ENDMDL
MODEL 4
REMARK VINA RESULT: -6.589996475      4.357      9.208
REMARK  9 active torsions:
REMARK  status: ('A' for Active; 'I' for Inactive)
REMARK    1  A    between atoms: C2_2  and  S1_4 
REMARK    2  A    between atoms: S1_4  and  N1_7 
REMARK    3  A    between atoms: N1_7  and  C4_8 
REMARK    4  A    between atoms: N1_7  and  C9_18 
REMARK    5  A    between atoms: C4_8  and  C5_9 
REMARK    6  A    between atoms: C5_9  and  O3_10 
REMARK    7  A    between atoms: C12_21  and  N2_22 
REMARK    8  A    between atoms: N2_22  and  S3_24 
REMARK    9  A    between atoms: S3_24  and  C13_27 
ROOT
HETATM    1  N1  UNL     1     -16.763  10.641  -4.233  1.00  0.00    -0.273 N 
ENDROOT
BRANCH   1   2
HETATM    2  S1  UNL     1     -16.288   9.386  -3.171  1.00  0.00     0.236 S 
HETATM    3  O1  UNL     1     -16.521   9.869  -1.738  1.00  0.00    -0.205 OA
HETATM    4  O2  UNL     1     -17.163   8.167  -3.302  1.00  0.00    -0.205 OA
BRANCH   2   5
HETATM    5  C2  UNL     1     -14.628   8.867  -3.276  1.00  0.00     0.121 C 
HETATM    6  C1  UNL     1     -14.065   9.002  -1.834  1.00  0.00     0.027 C 
HETATM    7  C3  UNL     1     -14.452   7.424  -3.622  1.00  0.00     0.027 C 
ENDBRANCH   2   5
ENDBRANCH   1   2
BRANCH   1   8
HETATM    8  C4  UNL     1     -16.933  10.452  -5.625  1.00  0.00     0.180 C 
BRANCH   8   9
HETATM    9  C5  UNL     1     -15.760  10.591  -6.541  1.00  0.00     0.088 C 
HETATM   10  C6  UNL     1     -16.299  11.296  -7.771  1.00  0.00     0.055 C 
HETATM   11  C7  UNL     1     -15.292  11.229  -8.847  1.00  0.00     0.143 C 
HETATM   12  S2  UNL     1     -14.667   9.575  -8.679  1.00  0.00     0.147 S 
HETATM   13  O4  UNL     1     -15.478   8.642  -9.529  1.00  0.00    -0.228 OA
HETATM   14  O5  UNL     1     -13.211   9.490  -8.962  1.00  0.00    -0.228 OA
HETATM   15  C8  UNL     1     -15.052   9.379  -6.953  1.00  0.00     0.179 C 
BRANCH   9  16
HETATM   16  O3  UNL     1     -14.821  11.507  -6.006  1.00  0.00    -0.387 OA
ATOM     17  H3  UNL     1     -14.666  12.218  -6.617  1.00  0.00     0.210 HD
ENDBRANCH   9  16
ENDBRANCH   8   9
ENDBRANCH   1   8
BRANCH   1  18
HETATM   18  C9  UNL     1     -17.066  11.889  -3.646  1.00  0.00     0.048 A 
HETATM   19  C10 UNL     1     -18.384  12.220  -3.448  1.00  0.00     0.032 A 
HETATM   20  C11 UNL     1     -18.766  13.440  -2.886  1.00  0.00     0.035 A 
HETATM   21  C12 UNL     1     -17.832  14.352  -2.509  1.00  0.00     0.081 A 
HETATM   22  C17 UNL     1     -16.483  14.021  -2.708  1.00  0.00     0.145 A 
HETATM   23  F1  UNL     1     -15.556  14.926  -2.336  1.00  0.00    -0.204 F 
HETATM   24  C18 UNL     1     -16.129  12.800  -3.270  1.00  0.00     0.074 A 
BRANCH  21  25
HETATM   25  N2  UNL     1     -18.118  15.626  -1.943  1.00  0.00    -0.281 N 
ATOM     26  H2  UNL     1     -17.853  15.794  -0.973  1.00  0.00     0.178 HD
BRANCH  25  27
HETATM   27  S3  UNL     1     -18.876  16.876  -2.795  1.00  0.00     0.238 S 
HETATM   28  O6  UNL     1     -19.377  16.437  -4.140  1.00  0.00    -0.205 OA
HETATM   29  O7  UNL     1     -20.022  17.438  -2.006  1.00  0.00    -0.205 OA
BRANCH  27  30
HETATM   30  C13 UNL     1     -17.765  18.245  -3.081  1.00  0.00     0.072 C 
HETATM   31  C14 UNL     1     -18.339  19.088  -4.201  1.00  0.00     0.033 C 
HETATM   32  C15 UNL     1     -16.406  17.761  -3.523  1.00  0.00     0.033 C 
HETATM   33  C16 UNL     1     -17.637  19.114  -1.861  1.00  0.00     0.033 C 
ENDBRANCH  27  30
ENDBRANCH  25  27
ENDBRANCH  21  25
ENDBRANCH   1  18
TORSDOF 9
ENDMDL
MODEL 5
REMARK VINA RESULT: -6.583938498      4.650      9.252
REMARK  9 active torsions:
REMARK  status: ('A' for Active; 'I' for Inactive)
REMARK    1  A    between atoms: C2_2  and  S1_4 
REMARK    2  A    between atoms: S1_4  and  N1_7 
REMARK    3  A    between atoms: N1_7  and  C4_8 
REMARK    4  A    between atoms: N1_7  and  C9_18 
REMARK    5  A    between atoms: C4_8  and  C5_9 
REMARK    6  A    between atoms: C5_9  and  O3_10 
REMARK    7  A    between atoms: C12_21  and  N2_22 
REMARK    8  A    between atoms: N2_22  and  S3_24 
REMARK    9  A    between atoms: S3_24  and  C13_27 
ROOT
HETATM    1  N1  UNL     1     -16.246  10.541  -3.501  1.00  0.00    -0.273 N 
ENDROOT
BRANCH   1   2
HETATM    2  S1  UNL     1     -17.410   9.437  -2.907  1.00  0.00     0.236 S 
HETATM    3  O1  UNL     1     -17.710   8.427  -4.017  1.00  0.00    -0.205 OA
HETATM    4  O2  UNL     1     -16.876   8.601  -1.775  1.00  0.00    -0.205 OA
BRANCH   2   5
HETATM    5  C2  UNL     1     -18.934  10.113  -2.402  1.00  0.00     0.121 C 
HETATM    6  C1  UNL     1     -19.716  10.389  -3.716  1.00  0.00     0.027 C 
HETATM    7  C3  UNL     1     -19.802   9.172  -1.630  1.00  0.00     0.027 C 
ENDBRANCH   2   5
ENDBRANCH   1   2
BRANCH   1   8
HETATM    8  C4  UNL     1     -15.365  10.237  -4.566  1.00  0.00     0.180 C 
BRANCH   8   9
HETATM    9  C5  UNL     1     -15.745  10.588  -5.968  1.00  0.00     0.088 C 
HETATM   10  C6  UNL     1     -15.195   9.462  -6.822  1.00  0.00     0.055 C 
HETATM   11  C7  UNL     1     -15.270   9.852  -8.243  1.00  0.00     0.143 C 
HETATM   12  S2  UNL     1     -14.797  11.564  -8.192  1.00  0.00     0.147 S 
HETATM   13  O4  UNL     1     -13.309  11.680  -8.350  1.00  0.00    -0.228 OA
HETATM   14  O5  UNL     1     -15.545  12.387  -9.175  1.00  0.00    -0.228 OA
HETATM   15  C8  UNL     1     -15.294  11.869  -6.510  1.00  0.00     0.179 C 
BRANCH   9  16
HETATM   16  O3  UNL     1     -17.149  10.491  -6.138  1.00  0.00    -0.387 OA
ATOM     17  H3  UNL     1     -17.451   9.620  -5.907  1.00  0.00     0.210 HD
ENDBRANCH   9  16
ENDBRANCH   8   9
ENDBRANCH   1   8
BRANCH   1  18
HETATM   18  C9  UNL     1     -16.246  11.833  -2.930  1.00  0.00     0.048 A 
HETATM   19  C10 UNL     1     -16.892  12.846  -3.595  1.00  0.00     0.032 A 
HETATM   20  C11 UNL     1     -16.927  14.153  -3.103  1.00  0.00     0.035 A 
HETATM   21  C12 UNL     1     -16.314  14.469  -1.932  1.00  0.00     0.081 A 
HETATM   22  C17 UNL     1     -15.651  13.439  -1.246  1.00  0.00     0.145 A 
HETATM   23  F1  UNL     1     -15.042  13.751  -0.085  1.00  0.00    -0.204 F 
HETATM   24  C18 UNL     1     -15.632  12.147  -1.758  1.00  0.00     0.074 A 
BRANCH  21  25
HETATM   25  N2  UNL     1     -16.278  15.769  -1.356  1.00  0.00    -0.281 N 
ATOM     26  H2  UNL     1     -15.398  16.096  -0.957  1.00  0.00     0.178 HD
BRANCH  25  27
HETATM   27  S3  UNL     1     -17.618  16.801  -1.297  1.00  0.00     0.238 S 
HETATM   28  O6  UNL     1     -18.915  16.054  -1.186  1.00  0.00    -0.205 OA
HETATM   29  O7  UNL     1     -17.503  17.756  -0.145  1.00  0.00    -0.205 OA
BRANCH  27  30
HETATM   30  C13 UNL     1     -17.731  17.816  -2.762  1.00  0.00     0.072 C 
HETATM   31  C14 UNL     1     -18.100  19.220  -2.331  1.00  0.00     0.033 C 
HETATM   32  C15 UNL     1     -18.816  17.321  -3.686  1.00  0.00     0.033 C 
HETATM   33  C16 UNL     1     -16.417  17.881  -3.489  1.00  0.00     0.033 C 
ENDBRANCH  27  30
ENDBRANCH  25  27
ENDBRANCH  21  25
ENDBRANCH   1  18
TORSDOF 9
ENDMDL
