MODEL 1
REMARK VINA RESULT: -6.585154748      0.000      0.000
REMARK  8 active torsions:
REMARK  status: ('A' for Active; 'I' for Inactive)
REMARK    1  A    between atoms: C2_2  and  N1_3 
REMARK    2  A    between atoms: N1_3  and  C3_5 
REMARK    3  A    between atoms: C6_11  and  N3_12 
REMARK    4  A    between atoms: N3_12  and  C7_13 
REMARK    5  A    between atoms: C12_18  and  O1_19 
REMARK    6  A    between atoms: N4_25  and  S1_27 
REMARK    7  A    between atoms: C18_31  and  C19_32 
REMARK       I    between atoms: C19_32  and  N5_34 
REMARK    8  A    between atoms: N5_34  and  C20_36 
ROOT
HETATM    1  C7  UNL     1     -15.188   9.502  -6.775  1.00  0.00     0.143 A 
HETATM    2  C8  UNL     1     -15.420   9.911  -5.437  1.00  0.00     0.058 A 
HETATM    3  C9  UNL     1     -15.959   9.102  -4.482  1.00  0.00    -0.003 A 
HETATM    4  C10 UNL     1     -16.287   7.823  -4.867  1.00  0.00     0.080 A 
HETATM    5  C11 UNL     1     -16.076   7.391  -6.157  1.00  0.00     0.077 A 
HETATM    6  C12 UNL     1     -15.536   8.184  -7.131  1.00  0.00     0.111 A 
HETATM    7  O2  UNL     1     -16.839   6.973  -3.917  1.00  0.00    -0.340 OA
HETATM    8  C14 UNL     1     -17.668   7.540  -2.876  1.00  0.00     0.172 C 
HETATM    9  C15 UNL     1     -19.048   7.814  -3.451  1.00  0.00     0.046 C 
HETATM   10  C16 UNL     1     -17.024   8.717  -2.292  1.00  0.00     0.044 C 
HETATM   11  N4  UNL     1     -17.142   9.014  -1.083  1.00  0.00    -0.289 N 
ATOM     12  H4  UNL     1     -16.655   9.854  -0.772  1.00  0.00     0.178 HD
HETATM   13  C18 UNL     1     -16.156   9.642  -3.108  1.00  0.00     0.162 C 
ENDROOT
BRANCH   1  14
HETATM   14  N3  UNL     1     -14.661  10.321  -7.674  1.00  0.00    -0.381 NA
BRANCH  14  15
HETATM   15  C6  UNL     1     -14.160  11.072  -8.446  1.00  0.00     0.234 A 
HETATM   16  C5  UNL     1     -14.469  12.449  -8.396  1.00  0.00     0.190 A 
HETATM   17  C4  UNL     1     -13.906  13.323  -9.270  1.00  0.00     0.153 A 
HETATM   18  F1  UNL     1     -15.337  12.935  -7.475  1.00  0.00    -0.199 F 
HETATM   19  N2  UNL     1     -13.043  12.873 -10.194  1.00  0.00    -0.199 N 
HETATM   20  C3  UNL     1     -12.714  11.567 -10.284  1.00  0.00     0.680 A 
ATOM     21  H2  UNL     1     -12.624  13.536 -10.847  1.00  0.00     0.183 HD
HETATM   22  N6  UNL     1     -13.275  10.725  -9.420  1.00  0.00    -0.161 N 
ATOM     23  H6  UNL     1     -13.021   9.740  -9.494  1.00  0.00     0.187 HD
BRANCH  20  24
HETATM   24  N1  UNL     1     -11.882  11.214 -11.194  1.00  0.00    -0.226 N 
ATOM     25  H1  UNL     1     -10.896  11.159 -10.941  1.00  0.00     0.177 HD
BRANCH  24  26
HETATM   26  C2  UNL     1     -12.244  10.890 -12.543  1.00  0.00     0.133 C 
HETATM   27  C1  UNL     1     -12.188   9.403 -12.813  1.00  0.00     0.027 C 
ENDBRANCH  24  26
ENDBRANCH  20  24
ENDBRANCH  14  15
ENDBRANCH   1  14
BRANCH   6  28
HETATM   28  O1  UNL     1     -15.338   7.714  -8.421  1.00  0.00    -0.352 OA
HETATM   29  C13 UNL     1     -16.047   6.624  -8.914  1.00  0.00     0.210 C 
ENDBRANCH   6  28
BRANCH  13  30
HETATM   30  C19 UNL     1     -16.606  11.039  -3.076  1.00  0.00     0.232 C 
HETATM   31  O5  UNL     1     -17.822  11.368  -3.316  1.00  0.00    -0.272 OA
HETATM   32  N5  UNL     1     -15.724  12.115  -2.780  1.00  0.00    -0.361 N 
ATOM     33  H5  UNL     1     -14.746  11.906  -2.581  1.00  0.00     0.162 HD
BRANCH  32  34
HETATM   34  C20 UNL     1     -16.161  13.492  -2.749  1.00  0.00     0.118 C 
HETATM   35  C21 UNL     1     -15.694  14.200  -1.502  1.00  0.00     0.026 C 
ENDBRANCH  32  34
ENDBRANCH  13  30
BRANCH  11  36
HETATM   36  S1  UNL     1     -18.018   8.178   0.093  1.00  0.00     0.226 S 
HETATM   37  C17 UNL     1     -19.763   8.449   0.024  1.00  0.00     0.186 C 
HETATM   38  O3  UNL     1     -17.754   6.697   0.108  1.00  0.00    -0.206 OA
HETATM   39  O4  UNL     1     -17.528   8.675   1.455  1.00  0.00    -0.206 OA
ENDBRANCH  11  36
TORSDOF 8
ENDMDL
MODEL 2
REMARK VINA RESULT: -6.517640297      1.025      1.047
REMARK  8 active torsions:
REMARK  status: ('A' for Active; 'I' for Inactive)
REMARK    1  A    between atoms: C2_2  and  N1_3 
REMARK    2  A    between atoms: N1_3  and  C3_5 
REMARK    3  A    between atoms: C6_11  and  N3_12 
REMARK    4  A    between atoms: N3_12  and  C7_13 
REMARK    5  A    between atoms: C12_18  and  O1_19 
REMARK    6  A    between atoms: N4_25  and  S1_27 
REMARK    7  A    between atoms: C18_31  and  C19_32 
REMARK       I    between atoms: C19_32  and  N5_34 
REMARK    8  A    between atoms: N5_34  and  C20_36 
ROOT
HETATM    1  C7  UNL     1     -15.335   9.059  -6.320  1.00  0.00     0.143 A 
HETATM    2  C8  UNL     1     -15.395   9.381  -4.940  1.00  0.00     0.058 A 
HETATM    3  C9  UNL     1     -15.825   8.513  -3.981  1.00  0.00    -0.003 A 
HETATM    4  C10 UNL     1     -16.216   7.266  -4.404  1.00  0.00     0.080 A 
HETATM    5  C11 UNL     1     -16.172   6.919  -5.736  1.00  0.00     0.077 A 
HETATM    6  C12 UNL     1     -15.744   7.770  -6.715  1.00  0.00     0.111 A 
HETATM    7  O2  UNL     1     -16.660   6.359  -3.450  1.00  0.00    -0.340 OA
HETATM    8  C14 UNL     1     -17.346   6.861  -2.280  1.00  0.00     0.172 C 
HETATM    9  C15 UNL     1     -18.782   7.182  -2.661  1.00  0.00     0.046 C 
HETATM   10  C16 UNL     1     -16.618   7.992  -1.705  1.00  0.00     0.044 C 
HETATM   11  N4  UNL     1     -16.582   8.209  -0.474  1.00  0.00    -0.289 N 
ATOM     12  H4  UNL     1     -16.047   9.024  -0.172  1.00  0.00     0.178 HD
HETATM   13  C18 UNL     1     -15.843   8.963  -2.560  1.00  0.00     0.162 C 
ENDROOT
BRANCH   1  14
HETATM   14  N3  UNL     1     -14.910   9.932  -7.222  1.00  0.00    -0.381 NA
BRANCH  14  15
HETATM   15  C6  UNL     1     -14.505  10.736  -7.997  1.00  0.00     0.234 A 
HETATM   16  C5  UNL     1     -14.952  12.074  -7.927  1.00  0.00     0.190 A 
HETATM   17  C4  UNL     1     -14.499  13.008  -8.804  1.00  0.00     0.153 A 
HETATM   18  F1  UNL     1     -15.846  12.462  -6.984  1.00  0.00    -0.199 F 
HETATM   19  N2  UNL     1     -13.614  12.656  -9.750  1.00  0.00    -0.199 N 
HETATM   20  C3  UNL     1     -13.156  11.391  -9.859  1.00  0.00     0.680 A 
ATOM     21  H2  UNL     1     -13.279  13.363 -10.404  1.00  0.00     0.183 HD
HETATM   22  N6  UNL     1     -13.610  10.489  -8.992  1.00  0.00    -0.161 N 
ATOM     23  H6  UNL     1     -13.259   9.536  -9.081  1.00  0.00     0.187 HD
BRANCH  20  24
HETATM   24  N1  UNL     1     -12.312  11.131 -10.789  1.00  0.00    -0.226 N 
ATOM     25  H1  UNL     1     -12.166  10.154 -11.038  1.00  0.00     0.177 HD
BRANCH  24  26
HETATM   26  C2  UNL     1     -11.560  12.122 -11.502  1.00  0.00     0.133 C 
HETATM   27  C1  UNL     1     -11.544  11.871 -12.993  1.00  0.00     0.027 C 
ENDBRANCH  24  26
ENDBRANCH  20  24
ENDBRANCH  14  15
ENDBRANCH   1  14
BRANCH   6  28
HETATM   28  O1  UNL     1     -15.714   7.385  -8.048  1.00  0.00    -0.352 OA
HETATM   29  C13 UNL     1     -16.111   6.114  -8.446  1.00  0.00     0.210 C 
ENDBRANCH   6  28
BRANCH  13  30
HETATM   30  C19 UNL     1     -16.264  10.358  -2.383  1.00  0.00     0.232 C 
HETATM   31  O5  UNL     1     -17.500  10.700  -2.377  1.00  0.00    -0.272 OA
HETATM   32  N5  UNL     1     -15.331  11.417  -2.207  1.00  0.00    -0.361 N 
ATOM     33  H5  UNL     1     -14.335  11.198  -2.203  1.00  0.00     0.162 HD
BRANCH  32  34
HETATM   34  C20 UNL     1     -15.741  12.792  -2.033  1.00  0.00     0.118 C 
HETATM   35  C21 UNL     1     -15.339  13.329  -0.683  1.00  0.00     0.026 C 
ENDBRANCH  32  34
ENDBRANCH  13  30
BRANCH  11  36
HETATM   36  S1  UNL     1     -17.319   7.303   0.744  1.00  0.00     0.226 S 
HETATM   37  C17 UNL     1     -19.051   7.606   0.924  1.00  0.00     0.186 C 
HETATM   38  O3  UNL     1     -17.093   5.822   0.621  1.00  0.00    -0.206 OA
HETATM   39  O4  UNL     1     -16.645   7.692   2.063  1.00  0.00    -0.206 OA
ENDBRANCH  11  36
TORSDOF 8
ENDMDL
MODEL 3
REMARK VINA RESULT: -6.317805542      3.333      5.341
REMARK  8 active torsions:
REMARK  status: ('A' for Active; 'I' for Inactive)
REMARK    1  A    between atoms: C2_2  and  N1_3 
REMARK    2  A    between atoms: N1_3  and  C3_5 
REMARK    3  A    between atoms: C6_11  and  N3_12 
REMARK    4  A    between atoms: N3_12  and  C7_13 
REMARK    5  A    between atoms: C12_18  and  O1_19 
REMARK    6  A    between atoms: N4_25  and  S1_27 
REMARK    7  A    between atoms: C18_31  and  C19_32 
REMARK       I    between atoms: C19_32  and  N5_34 
REMARK    8  A    between atoms: N5_34  and  C20_36 
ROOT
HETATM    1  C7  UNL     1     -15.563  10.813  -3.369  1.00  0.00     0.143 A 
HETATM    2  C8  UNL     1     -15.637  12.105  -2.789  1.00  0.00     0.058 A 
HETATM    3  C9  UNL     1     -15.661  12.329  -1.445  1.00  0.00    -0.003 A 
HETATM    4  C10 UNL     1     -15.611  11.222  -0.631  1.00  0.00     0.080 A 
HETATM    5  C11 UNL     1     -15.539   9.953  -1.159  1.00  0.00     0.077 A 
HETATM    6  C12 UNL     1     -15.512   9.704  -2.502  1.00  0.00     0.111 A 
HETATM    7  O2  UNL     1     -15.635  11.417   0.744  1.00  0.00    -0.340 OA
HETATM    8  C14 UNL     1     -16.371  12.544   1.274  1.00  0.00     0.172 C 
HETATM    9  C15 UNL     1     -17.850  12.194   1.285  1.00  0.00     0.046 C 
HETATM   10  C16 UNL     1     -16.055  13.760   0.525  1.00  0.00     0.044 C 
HETATM   11  N4  UNL     1     -16.013  14.887   1.065  1.00  0.00    -0.289 N 
ATOM     12  H4  UNL     1     -15.784  15.673   0.457  1.00  0.00     0.178 HD
HETATM   13  C18 UNL     1     -15.739  13.732  -0.950  1.00  0.00     0.162 C 
ENDROOT
BRANCH   1  14
HETATM   14  N3  UNL     1     -15.541  10.639  -4.683  1.00  0.00    -0.381 NA
BRANCH  14  15
HETATM   15  C6  UNL     1     -15.482  10.456  -5.855  1.00  0.00     0.234 A 
HETATM   16  C5  UNL     1     -15.484  11.555  -6.742  1.00  0.00     0.190 A 
HETATM   17  C4  UNL     1     -15.416  11.366  -8.086  1.00  0.00     0.153 A 
HETATM   18  F1  UNL     1     -15.553  12.827  -6.277  1.00  0.00    -0.199 F 
HETATM   19  N2  UNL     1     -15.347  10.120  -8.579  1.00  0.00    -0.199 N 
HETATM   20  C3  UNL     1     -15.343   9.037  -7.773  1.00  0.00     0.680 A 
ATOM     21  H2  UNL     1     -15.296   9.987  -9.589  1.00  0.00     0.183 HD
HETATM   22  N6  UNL     1     -15.409   9.239  -6.460  1.00  0.00    -0.161 N 
ATOM     23  H6  UNL     1     -15.405   8.416  -5.858  1.00  0.00     0.187 HD
BRANCH  20  24
HETATM   24  N1  UNL     1     -15.275   7.878  -8.318  1.00  0.00    -0.226 N 
ATOM     25  H1  UNL     1     -14.723   7.785  -9.170  1.00  0.00     0.177 HD
BRANCH  24  26
HETATM   26  C2  UNL     1     -15.922   6.704  -7.811  1.00  0.00     0.133 C 
HETATM   27  C1  UNL     1     -16.378   5.775  -8.914  1.00  0.00     0.027 C 
ENDBRANCH  24  26
ENDBRANCH  20  24
ENDBRANCH  14  15
ENDBRANCH   1  14
BRANCH   6  28
HETATM   28  O1  UNL     1     -15.441   8.410  -2.999  1.00  0.00    -0.352 OA
HETATM   29  C13 UNL     1     -14.232   7.727  -3.073  1.00  0.00     0.210 C 
ENDBRANCH   6  28
BRANCH  13  30
HETATM   30  C19 UNL     1     -16.616  14.598  -1.749  1.00  0.00     0.232 C 
HETATM   31  O5  UNL     1     -17.892  14.473  -1.734  1.00  0.00    -0.272 OA
HETATM   32  N5  UNL     1     -16.108  15.626  -2.589  1.00  0.00    -0.361 N 
ATOM     33  H5  UNL     1     -15.099  15.767  -2.637  1.00  0.00     0.162 HD
BRANCH  32  34
HETATM   34  C20 UNL     1     -16.967  16.479  -3.378  1.00  0.00     0.118 C 
HETATM   35  C21 UNL     1     -16.415  17.878  -3.493  1.00  0.00     0.026 C 
ENDBRANCH  32  34
ENDBRANCH  13  30
BRANCH  11  36
HETATM   36  S1  UNL     1     -16.292  15.252   2.689  1.00  0.00     0.226 S 
HETATM   37  C17 UNL     1     -17.997  15.228   3.153  1.00  0.00     0.186 C 
HETATM   38  O3  UNL     1     -15.513  14.392   3.646  1.00  0.00    -0.206 OA
HETATM   39  O4  UNL     1     -15.770  16.671   2.926  1.00  0.00    -0.206 OA
ENDBRANCH  11  36
TORSDOF 8
ENDMDL
MODEL 4
REMARK VINA RESULT: -6.298698584      3.460      5.434
REMARK  8 active torsions:
REMARK  status: ('A' for Active; 'I' for Inactive)
REMARK    1  A    between atoms: C2_2  and  N1_3 
REMARK    2  A    between atoms: N1_3  and  C3_5 
REMARK    3  A    between atoms: C6_11  and  N3_12 
REMARK    4  A    between atoms: N3_12  and  C7_13 
REMARK    5  A    between atoms: C12_18  and  O1_19 
REMARK    6  A    between atoms: N4_25  and  S1_27 
REMARK    7  A    between atoms: C18_31  and  C19_32 
REMARK       I    between atoms: C19_32  and  N5_34 
REMARK    8  A    between atoms: N5_34  and  C20_36 
ROOT
HETATM    1  C7  UNL     1     -15.082   9.668  -3.468  1.00  0.00     0.143 A 
HETATM    2  C8  UNL     1     -15.597  10.962  -3.199  1.00  0.00     0.058 A 
HETATM    3  C9  UNL     1     -15.452  11.600  -2.003  1.00  0.00    -0.003 A 
HETATM    4  C10 UNL     1     -14.764  10.926  -1.022  1.00  0.00     0.080 A 
HETATM    5  C11 UNL     1     -14.250   9.669  -1.247  1.00  0.00     0.077 A 
HETATM    6  C12 UNL     1     -14.382   9.011  -2.437  1.00  0.00     0.111 A 
HETATM    7  O2  UNL     1     -14.600  11.549   0.209  1.00  0.00    -0.340 OA
HETATM    8  C14 UNL     1     -15.634  12.444   0.678  1.00  0.00     0.172 C 
HETATM    9  C15 UNL     1     -16.777  11.613   1.238  1.00  0.00     0.046 C 
HETATM   10  C16 UNL     1     -16.036  13.366  -0.385  1.00  0.00     0.044 C 
HETATM   11  N4  UNL     1     -16.385  14.544  -0.153  1.00  0.00    -0.289 N 
ATOM     12  H4  UNL     1     -16.648  15.107  -0.962  1.00  0.00     0.178 HD
HETATM   13  C18 UNL     1     -16.036  12.960  -1.837  1.00  0.00     0.162 C 
ENDROOT
BRANCH   1  14
HETATM   14  N3  UNL     1     -15.245   9.083  -4.646  1.00  0.00    -0.381 NA
BRANCH  14  15
HETATM   15  C6  UNL     1     -15.347   8.571  -5.712  1.00  0.00     0.234 A 
HETATM   16  C5  UNL     1     -15.908   7.281  -5.827  1.00  0.00     0.190 A 
HETATM   17  C4  UNL     1     -16.034   6.679  -7.039  1.00  0.00     0.153 A 
HETATM   18  F1  UNL     1     -16.337   6.607  -4.731  1.00  0.00    -0.199 F 
HETATM   19  N2  UNL     1     -15.619   7.319  -8.144  1.00  0.00    -0.199 N 
HETATM   20  C3  UNL     1     -15.076   8.553  -8.087  1.00  0.00     0.680 A 
ATOM     21  H2  UNL     1     -15.717   6.861  -9.049  1.00  0.00     0.183 HD
HETATM   22  N6  UNL     1     -14.961   9.128  -6.893  1.00  0.00    -0.161 N 
ATOM     23  H6  UNL     1     -14.549  10.060  -6.859  1.00  0.00     0.187 HD
BRANCH  20  24
HETATM   24  N1  UNL     1     -14.703   9.100  -9.186  1.00  0.00    -0.226 N 
ATOM     25  H1  UNL     1     -15.354   9.082  -9.971  1.00  0.00     0.177 HD
BRANCH  24  26
HETATM   26  C2  UNL     1     -13.433   9.735  -9.386  1.00  0.00     0.133 C 
HETATM   27  C1  UNL     1     -13.497  11.231  -9.173  1.00  0.00     0.027 C 
ENDBRANCH  24  26
ENDBRANCH  20  24
ENDBRANCH  14  15
ENDBRANCH   1  14
BRANCH   6  28
HETATM   28  O1  UNL     1     -13.851   7.743  -2.627  1.00  0.00    -0.352 OA
HETATM   29  C13 UNL     1     -14.184   6.684  -1.791  1.00  0.00     0.210 C 
ENDBRANCH   6  28
BRANCH  13  30
HETATM   30  C19 UNL     1     -17.342  13.131  -2.488  1.00  0.00     0.232 C 
HETATM   31  O5  UNL     1     -17.483  13.821  -3.559  1.00  0.00    -0.272 OA
HETATM   32  N5  UNL     1     -18.530  12.543  -1.972  1.00  0.00    -0.361 N 
ATOM     33  H5  UNL     1     -18.472  11.983  -1.122  1.00  0.00     0.162 HD
BRANCH  32  34
HETATM   34  C20 UNL     1     -19.817  12.709  -2.609  1.00  0.00     0.118 C 
HETATM   35  C21 UNL     1     -20.508  11.387  -2.829  1.00  0.00     0.026 C 
ENDBRANCH  32  34
ENDBRANCH  13  30
BRANCH  11  36
HETATM   36  S1  UNL     1     -16.470  15.306   1.350  1.00  0.00     0.226 S 
HETATM   37  C17 UNL     1     -17.935  14.937   2.267  1.00  0.00     0.186 C 
HETATM   38  O3  UNL     1     -15.272  15.060   2.225  1.00  0.00    -0.206 OA
HETATM   39  O4  UNL     1     -16.459  16.815   1.089  1.00  0.00    -0.206 OA
ENDBRANCH  11  36
TORSDOF 8
ENDMDL
MODEL 5
REMARK VINA RESULT: -6.182677791      3.609      5.864
REMARK  8 active torsions:
REMARK  status: ('A' for Active; 'I' for Inactive)
REMARK    1  A    between atoms: C2_2  and  N1_3 
REMARK    2  A    between atoms: N1_3  and  C3_5 
REMARK    3  A    between atoms: C6_11  and  N3_12 
REMARK    4  A    between atoms: N3_12  and  C7_13 
REMARK    5  A    between atoms: C12_18  and  O1_19 
REMARK    6  A    between atoms: N4_25  and  S1_27 
REMARK    7  A    between atoms: C18_31  and  C19_32 
REMARK       I    between atoms: C19_32  and  N5_34 
REMARK    8  A    between atoms: N5_34  and  C20_36 
ROOT
HETATM    1  C7  UNL     1     -15.731  11.548  -3.679  1.00  0.00     0.143 A 
HETATM    2  C8  UNL     1     -15.879  12.906  -3.300  1.00  0.00     0.058 A 
HETATM    3  C9  UNL     1     -15.970  13.324  -2.006  1.00  0.00    -0.003 A 
HETATM    4  C10 UNL     1     -15.914  12.352  -1.036  1.00  0.00     0.080 A 
HETATM    5  C11 UNL     1     -15.771  11.023  -1.367  1.00  0.00     0.077 A 
HETATM    6  C12 UNL     1     -15.676  10.581  -2.656  1.00  0.00     0.111 A 
HETATM    7  O2  UNL     1     -16.005  12.745   0.294  1.00  0.00    -0.340 OA
HETATM    8  C14 UNL     1     -16.806  13.904   0.622  1.00  0.00     0.172 C 
HETATM    9  C15 UNL     1     -18.270  13.495   0.630  1.00  0.00     0.046 C 
HETATM   10  C16 UNL     1     -16.503  15.010  -0.287  1.00  0.00     0.044 C 
HETATM   11  N4  UNL     1     -16.527  16.204   0.082  1.00  0.00    -0.289 N 
ATOM     12  H4  UNL     1     -16.302  16.903  -0.627  1.00  0.00     0.178 HD
HETATM   13  C18 UNL     1     -16.122  14.780  -1.728  1.00  0.00     0.162 C 
ENDROOT
BRANCH   1  14
HETATM   14  N3  UNL     1     -15.646  11.183  -4.950  1.00  0.00    -0.381 NA
BRANCH  14  15
HETATM   15  C6  UNL     1     -15.535  10.826  -6.077  1.00  0.00     0.234 A 
HETATM   16  C5  UNL     1     -15.490  11.777  -7.120  1.00  0.00     0.190 A 
HETATM   17  C4  UNL     1     -15.363  11.388  -8.415  1.00  0.00     0.153 A 
HETATM   18  F1  UNL     1     -15.574  13.105  -6.856  1.00  0.00    -0.199 F 
HETATM   19  N2  UNL     1     -15.278  10.082  -8.710  1.00  0.00    -0.199 N 
HETATM   20  C3  UNL     1     -15.316   9.133  -7.751  1.00  0.00     0.680 A 
ATOM     21  H2  UNL     1     -15.183   9.798  -9.685  1.00  0.00     0.183 HD
HETATM   22  N6  UNL     1     -15.441   9.532  -6.488  1.00  0.00    -0.161 N 
ATOM     23  H6  UNL     1     -15.468   8.809  -5.769  1.00  0.00     0.187 HD
BRANCH  20  24
HETATM   24  N1  UNL     1     -15.230   7.905  -8.111  1.00  0.00    -0.226 N 
ATOM     25  H1  UNL     1     -14.621   7.683  -8.898  1.00  0.00     0.177 HD
BRANCH  24  26
HETATM   26  C2  UNL     1     -15.931   6.824  -7.482  1.00  0.00     0.133 C 
HETATM   27  C1  UNL     1     -16.300   5.731  -8.460  1.00  0.00     0.027 C 
ENDBRANCH  24  26
ENDBRANCH  20  24
ENDBRANCH  14  15
ENDBRANCH   1  14
BRANCH   6  28
HETATM   28  O1  UNL     1     -15.534   9.232  -2.951  1.00  0.00    -0.352 OA
HETATM   29  C13 UNL     1     -14.310   8.586  -2.821  1.00  0.00     0.210 C 
ENDBRANCH   6  28
BRANCH  13  30
HETATM   30  C19 UNL     1     -16.996  15.479  -2.679  1.00  0.00     0.232 C 
HETATM   31  O5  UNL     1     -16.599  16.501  -3.342  1.00  0.00    -0.272 OA
HETATM   32  N5  UNL     1     -18.336  15.069  -2.923  1.00  0.00    -0.361 N 
ATOM     33  H5  UNL     1     -18.701  14.260  -2.420  1.00  0.00     0.162 HD
BRANCH  32  34
HETATM   34  C20 UNL     1     -19.200  15.755  -3.857  1.00  0.00     0.118 C 
HETATM   35  C21 UNL     1     -20.154  16.687  -3.155  1.00  0.00     0.026 C 
ENDBRANCH  32  34
ENDBRANCH  13  30
BRANCH  11  36
HETATM   36  S1  UNL     1     -16.890  16.791   1.622  1.00  0.00     0.226 S 
HETATM   37  C17 UNL     1     -18.617  16.820   1.996  1.00  0.00     0.186 C 
HETATM   38  O3  UNL     1     -16.163  16.080   2.729  1.00  0.00    -0.206 OA
HETATM   39  O4  UNL     1     -16.382  18.234   1.684  1.00  0.00    -0.206 OA
ENDBRANCH  11  36
TORSDOF 8
ENDMDL
