MODEL 1
REMARK VINA RESULT: -7.436794068      0.000      0.000
REMARK  7 active torsions:
REMARK  status: ('A' for Active; 'I' for Inactive)
REMARK    1  A    between atoms: O1_2  and  C2_3 
REMARK    2  A    between atoms: C4_5  and  C5_6 
REMARK    3  A    between atoms: C5_6  and  N1_7 
REMARK    4  A    between atoms: N2_10  and  C7_11 
REMARK    5  A    between atoms: C12_19  and  C13_20 
REMARK    6  A    between atoms: C13_20  and  C14_21 
REMARK    7  A    between atoms: C19_30  and  O6_31 
ROOT
HETATM    1  N1  UNL     1     -16.866  11.033  -5.541  1.00  0.00    -0.311 N 
HETATM    2  C6  UNL     1     -16.997   9.775  -4.917  1.00  0.00     0.327 C 
HETATM    3  O2  UNL     1     -17.721   9.567  -3.907  1.00  0.00    -0.247 OA
HETATM    4  N2  UNL     1     -16.224   8.776  -5.556  1.00  0.00    -0.282 N 
HETATM    5  C10 UNL     1     -15.584   9.444  -6.622  1.00  0.00     0.121 C 
HETATM    6  N3  UNL     1     -14.670   9.144  -7.479  1.00  0.00    -0.314 N 
ATOM      7  H3  UNL     1     -14.253   8.213  -7.450  1.00  0.00     0.170 HD
HETATM    8  C11 UNL     1     -14.221  10.069  -8.467  1.00  0.00     0.234 C 
HETATM    9  O3  UNL     1     -13.977   9.649  -9.611  1.00  0.00    -0.272 OA
HETATM   10  C12 UNL     1     -14.068  11.487  -8.072  1.00  0.00     0.158 C 
HETATM   11  C15 UNL     1     -14.941  11.710  -6.894  1.00  0.00     0.170 C 
HETATM   12  O5  UNL     1     -14.677  12.561  -6.098  1.00  0.00    -0.294 OA
HETATM   13  C16 UNL     1     -16.127  10.843  -6.757  1.00  0.00     0.227 C 
ENDROOT
BRANCH   1  14
HETATM   14  C5  UNL     1     -17.422  12.289  -5.006  1.00  0.00     0.167 C 
BRANCH  14  15
HETATM   15  C4  UNL     1     -16.762  12.556  -3.686  1.00  0.00    -0.036 A 
HETATM   16  C3  UNL     1     -15.851  11.638  -3.202  1.00  0.00     0.048 A 
HETATM   17  C2  UNL     1     -15.214  11.827  -1.990  1.00  0.00     0.103 A 
HETATM   18  C19 UNL     1     -15.526  12.971  -1.281  1.00  0.00     0.118 A 
HETATM   19  C18 UNL     1     -16.430  13.911  -1.731  1.00  0.00     0.047 A 
HETATM   20  C17 UNL     1     -17.053  13.703  -2.941  1.00  0.00     0.031 A 
HETATM   21 BR1  UNL     1     -16.835  15.489  -0.711  1.00  0.00    -0.048 Br
BRANCH  17  22
HETATM   22  O1  UNL     1     -14.297  10.957  -1.447  1.00  0.00    -0.353 OA
HETATM   23  C1  UNL     1     -14.350   9.559  -1.541  1.00  0.00     0.210 C 
ENDBRANCH  17  22
BRANCH  18  24
HETATM   24  O6  UNL     1     -14.918  13.222  -0.048  1.00  0.00    -0.352 OA
HETATM   25  C20 UNL     1     -15.492  12.580   1.074  1.00  0.00     0.210 C 
ENDBRANCH  18  24
ENDBRANCH  14  15
ENDBRANCH   1  14
BRANCH   4  26
HETATM   26  C7  UNL     1     -16.102   7.357  -5.199  1.00  0.00     0.088 C 
HETATM   27  C8  UNL     1     -14.855   7.157  -4.401  1.00  0.00     0.032 C 
HETATM   28  C9  UNL     1     -16.176   6.510  -6.433  1.00  0.00     0.032 C 
ENDBRANCH   4  26
BRANCH  10  29
HETATM   29  C13 UNL     1     -14.470  12.343  -9.253  1.00  0.00     0.121 C 
BRANCH  29  30
HETATM   30  C14 UNL     1     -13.325  13.161  -9.715  1.00  0.00     0.232 C 
HETATM   31  N4  UNL     1     -12.368  12.607 -10.600  1.00  0.00    -0.062 NA
HETATM   32  O4  UNL     1     -13.248  14.343  -9.291  1.00  0.00    -0.277 OA
ENDBRANCH  29  30
ENDBRANCH  10  29
TORSDOF 7
ENDMDL
MODEL 2
REMARK VINA RESULT: -7.282843359      1.303      2.118
REMARK  7 active torsions:
REMARK  status: ('A' for Active; 'I' for Inactive)
REMARK    1  A    between atoms: O1_2  and  C2_3 
REMARK    2  A    between atoms: C4_5  and  C5_6 
REMARK    3  A    between atoms: C5_6  and  N1_7 
REMARK    4  A    between atoms: N2_10  and  C7_11 
REMARK    5  A    between atoms: C12_19  and  C13_20 
REMARK    6  A    between atoms: C13_20  and  C14_21 
REMARK    7  A    between atoms: C19_30  and  O6_31 
ROOT
HETATM    1  N1  UNL     1     -17.065  10.821  -5.621  1.00  0.00    -0.311 N 
HETATM    2  C6  UNL     1     -17.153   9.566  -4.984  1.00  0.00     0.327 C 
HETATM    3  O2  UNL     1     -17.920   9.327  -4.013  1.00  0.00    -0.247 OA
HETATM    4  N2  UNL     1     -16.283   8.610  -5.560  1.00  0.00    -0.282 N 
HETATM    5  C10 UNL     1     -15.625   9.302  -6.599  1.00  0.00     0.121 C 
HETATM    6  N3  UNL     1     -14.646   9.049  -7.397  1.00  0.00    -0.314 N 
ATOM      7  H3  UNL     1     -14.174   8.147  -7.328  1.00  0.00     0.170 HD
HETATM    8  C11 UNL     1     -14.200   9.986  -8.374  1.00  0.00     0.234 C 
HETATM    9  O3  UNL     1     -13.864   9.567  -9.494  1.00  0.00    -0.272 OA
HETATM   10  C12 UNL     1     -14.160  11.416  -7.996  1.00  0.00     0.158 C 
HETATM   11  C15 UNL     1     -15.112  11.600  -6.874  1.00  0.00     0.170 C 
HETATM   12  O5  UNL     1     -14.949  12.477  -6.080  1.00  0.00    -0.294 OA
HETATM   13  C16 UNL     1     -16.247  10.662  -6.790  1.00  0.00     0.227 C 
ENDROOT
BRANCH   1  14
HETATM   14  C5  UNL     1     -17.730  12.046  -5.141  1.00  0.00     0.167 C 
BRANCH  14  15
HETATM   15  C4  UNL     1     -17.025  12.491  -3.895  1.00  0.00    -0.036 A 
HETATM   16  C3  UNL     1     -17.095  13.822  -3.531  1.00  0.00     0.048 A 
HETATM   17  C2  UNL     1     -16.462  14.292  -2.396  1.00  0.00     0.103 A 
HETATM   18  C19 UNL     1     -15.755  13.377  -1.639  1.00  0.00     0.118 A 
HETATM   19  C18 UNL     1     -15.661  12.041  -1.969  1.00  0.00     0.047 A 
HETATM   20  C17 UNL     1     -16.300  11.594  -3.104  1.00  0.00     0.031 A 
HETATM   21 BR1  UNL     1     -14.666  10.803  -0.887  1.00  0.00    -0.048 Br
BRANCH  17  22
HETATM   22  O1  UNL     1     -16.489  15.601  -1.973  1.00  0.00    -0.353 OA
HETATM   23  C1  UNL     1     -16.813  16.705  -2.773  1.00  0.00     0.210 C 
ENDBRANCH  17  22
BRANCH  18  24
HETATM   24  O6  UNL     1     -15.092  13.787  -0.479  1.00  0.00    -0.352 OA
HETATM   25  C20 UNL     1     -15.857  13.788   0.711  1.00  0.00     0.210 C 
ENDBRANCH  18  24
ENDBRANCH  14  15
ENDBRANCH   1  14
BRANCH   4  26
HETATM   26  C7  UNL     1     -16.093   7.206  -5.171  1.00  0.00     0.088 C 
HETATM   27  C8  UNL     1     -14.842   7.086  -4.364  1.00  0.00     0.032 C 
HETATM   28  C9  UNL     1     -16.119   6.330  -6.386  1.00  0.00     0.032 C 
ENDBRANCH   4  26
BRANCH  10  29
HETATM   29  C13 UNL     1     -14.545  12.229  -9.213  1.00  0.00     0.121 C 
BRANCH  29  30
HETATM   30  C14 UNL     1     -13.393  13.026  -9.692  1.00  0.00     0.232 C 
HETATM   31  N4  UNL     1     -12.514  12.490 -10.665  1.00  0.00    -0.062 NA
HETATM   32  O4  UNL     1     -13.240  14.174  -9.202  1.00  0.00    -0.277 OA
ENDBRANCH  29  30
ENDBRANCH  10  29
TORSDOF 7
ENDMDL
MODEL 3
REMARK VINA RESULT: -7.129347786      3.463      7.810
REMARK  7 active torsions:
REMARK  status: ('A' for Active; 'I' for Inactive)
REMARK    1  A    between atoms: O1_2  and  C2_3 
REMARK    2  A    between atoms: C4_5  and  C5_6 
REMARK    3  A    between atoms: C5_6  and  N1_7 
REMARK    4  A    between atoms: N2_10  and  C7_11 
REMARK    5  A    between atoms: C12_19  and  C13_20 
REMARK    6  A    between atoms: C13_20  and  C14_21 
REMARK    7  A    between atoms: C19_30  and  O6_31 
ROOT
HETATM    1  N1  UNL     1     -16.866  12.378  -2.758  1.00  0.00    -0.311 N 
HETATM    2  C6  UNL     1     -16.711  13.738  -2.418  1.00  0.00     0.327 C 
HETATM    3  O2  UNL     1     -15.595  14.318  -2.346  1.00  0.00    -0.247 OA
HETATM    4  N2  UNL     1     -17.951  14.373  -2.169  1.00  0.00    -0.282 N 
HETATM    5  C10 UNL     1     -18.918  13.363  -2.361  1.00  0.00     0.121 C 
HETATM    6  N3  UNL     1     -20.187  13.255  -2.168  1.00  0.00    -0.314 N 
ATOM      7  H3  UNL     1     -20.697  14.051  -1.784  1.00  0.00     0.170 HD
HETATM    8  C11 UNL     1     -20.904  12.061  -2.473  1.00  0.00     0.234 C 
HETATM    9  O3  UNL     1     -22.036  12.156  -2.976  1.00  0.00    -0.272 OA
HETATM   10  C12 UNL     1     -20.256  10.766  -2.168  1.00  0.00     0.158 C 
HETATM   11  C15 UNL     1     -18.793  11.006  -2.126  1.00  0.00     0.170 C 
HETATM   12  O5  UNL     1     -18.084  10.312  -1.461  1.00  0.00    -0.294 OA
HETATM   13  C16 UNL     1     -18.269  12.127  -2.930  1.00  0.00     0.227 C 
ENDROOT
BRANCH   1  14
HETATM   14  C5  UNL     1     -15.750  11.427  -2.913  1.00  0.00     0.167 C 
BRANCH  14  15
HETATM   15  C4  UNL     1     -15.661  11.060  -4.364  1.00  0.00    -0.036 A 
HETATM   16  C3  UNL     1     -15.661   9.722  -4.712  1.00  0.00     0.048 A 
HETATM   17  C2  UNL     1     -15.576   9.322  -6.032  1.00  0.00     0.103 A 
HETATM   18  C19 UNL     1     -15.490  10.313  -6.991  1.00  0.00     0.118 A 
HETATM   19  C18 UNL     1     -15.486  11.658  -6.683  1.00  0.00     0.047 A 
HETATM   20  C17 UNL     1     -15.572  12.034  -5.362  1.00  0.00     0.031 A 
HETATM   21 BR1  UNL     1     -15.363  13.004  -8.051  1.00  0.00    -0.048 Br
BRANCH  17  22
HETATM   22  O1  UNL     1     -15.572   8.011  -6.451  1.00  0.00    -0.353 OA
HETATM   23  C1  UNL     1     -16.020   6.917  -5.697  1.00  0.00     0.210 C 
ENDBRANCH  17  22
BRANCH  18  24
HETATM   24  O6  UNL     1     -15.401   9.976  -8.345  1.00  0.00    -0.352 OA
HETATM   25  C20 UNL     1     -14.107   9.674  -8.829  1.00  0.00     0.210 C 
ENDBRANCH  18  24
ENDBRANCH  14  15
ENDBRANCH   1  14
BRANCH   4  26
HETATM   26  C7  UNL     1     -18.194  15.771  -1.791  1.00  0.00     0.088 C 
HETATM   27  C8  UNL     1     -18.785  15.812  -0.419  1.00  0.00     0.032 C 
HETATM   28  C9  UNL     1     -19.031  16.446  -2.834  1.00  0.00     0.032 C 
ENDBRANCH   4  26
BRANCH  10  29
HETATM   29  C13 UNL     1     -20.643   9.786  -3.254  1.00  0.00     0.121 C 
BRANCH  29  30
HETATM   30  C14 UNL     1     -21.427   8.664  -2.687  1.00  0.00     0.232 C 
HETATM   31  N4  UNL     1     -22.061   7.735  -3.547  1.00  0.00    -0.062 NA
HETATM   32  O4  UNL     1     -21.499   8.583  -1.434  1.00  0.00    -0.277 OA
ENDBRANCH  29  30
ENDBRANCH  10  29
TORSDOF 7
ENDMDL
MODEL 4
REMARK VINA RESULT: -7.077101978      3.462      7.123
REMARK  7 active torsions:
REMARK  status: ('A' for Active; 'I' for Inactive)
REMARK    1  A    between atoms: O1_2  and  C2_3 
REMARK    2  A    between atoms: C4_5  and  C5_6 
REMARK    3  A    between atoms: C5_6  and  N1_7 
REMARK    4  A    between atoms: N2_10  and  C7_11 
REMARK    5  A    between atoms: C12_19  and  C13_20 
REMARK    6  A    between atoms: C13_20  and  C14_21 
REMARK    7  A    between atoms: C19_30  and  O6_31 
ROOT
HETATM    1  N1  UNL     1     -17.755  11.475  -2.545  1.00  0.00    -0.311 N 
HETATM    2  C6  UNL     1     -17.195  10.828  -1.423  1.00  0.00     0.327 C 
HETATM    3  O2  UNL     1     -17.079   9.578  -1.323  1.00  0.00    -0.247 OA
HETATM    4  N2  UNL     1     -16.782  11.744  -0.427  1.00  0.00    -0.282 N 
HETATM    5  C10 UNL     1     -17.100  13.015  -0.952  1.00  0.00     0.121 C 
HETATM    6  N3  UNL     1     -17.100  14.223  -0.503  1.00  0.00    -0.314 N 
ATOM      7  H3  UNL     1     -16.813  14.390   0.462  1.00  0.00     0.170 HD
HETATM    8  C11 UNL     1     -17.488  15.333  -1.308  1.00  0.00     0.234 C 
HETATM    9  O3  UNL     1     -16.853  16.396  -1.205  1.00  0.00    -0.272 OA
HETATM   10  C12 UNL     1     -18.635  15.158  -2.226  1.00  0.00     0.158 C 
HETATM   11  C15 UNL     1     -18.765  13.704  -2.493  1.00  0.00     0.170 C 
HETATM   12  O5  UNL     1     -19.825  13.234  -2.779  1.00  0.00    -0.294 OA
HETATM   13  C16 UNL     1     -17.542  12.886  -2.388  1.00  0.00     0.227 C 
ENDROOT
BRANCH   1  14
HETATM   14  C5  UNL     1     -18.415  10.779  -3.664  1.00  0.00     0.167 C 
BRANCH  14  15
HETATM   15  C4  UNL     1     -17.375  10.498  -4.706  1.00  0.00    -0.036 A 
HETATM   16  C3  UNL     1     -16.918   9.202  -4.856  1.00  0.00     0.048 A 
HETATM   17  C2  UNL     1     -15.957   8.883  -5.796  1.00  0.00     0.103 A 
HETATM   18  C19 UNL     1     -15.470   9.911  -6.580  1.00  0.00     0.118 A 
HETATM   19  C18 UNL     1     -15.900  11.216  -6.460  1.00  0.00     0.047 A 
HETATM   20  C17 UNL     1     -16.858  11.512  -5.517  1.00  0.00     0.031 A 
HETATM   21 BR1  UNL     1     -15.193  12.616  -7.572  1.00  0.00    -0.048 Br
BRANCH  17  22
HETATM   22  O1  UNL     1     -15.456   7.617  -6.001  1.00  0.00    -0.353 OA
HETATM   23  C1  UNL     1     -16.199   6.514  -6.444  1.00  0.00     0.210 C 
ENDBRANCH  17  22
BRANCH  18  24
HETATM   24  O6  UNL     1     -14.495   9.655  -7.550  1.00  0.00    -0.352 OA
HETATM   25  C20 UNL     1     -14.969   9.240  -8.817  1.00  0.00     0.210 C 
ENDBRANCH  18  24
ENDBRANCH  14  15
ENDBRANCH   1  14
BRANCH   4  26
HETATM   26  C7  UNL     1     -16.162  11.452   0.872  1.00  0.00     0.088 C 
HETATM   27  C8  UNL     1     -17.153  11.712   1.958  1.00  0.00     0.032 C 
HETATM   28  C9  UNL     1     -14.886  12.225   1.016  1.00  0.00     0.032 C 
ENDBRANCH   4  26
BRANCH  10  29
HETATM   29  C13 UNL     1     -18.348  15.947  -3.484  1.00  0.00     0.121 C 
BRANCH  29  30
HETATM   30  C14 UNL     1     -19.413  16.947  -3.726  1.00  0.00     0.232 C 
HETATM   31  N4  UNL     1     -20.627  16.556  -4.342  1.00  0.00    -0.062 NA
HETATM   32  O4  UNL     1     -19.189  18.131  -3.365  1.00  0.00    -0.277 OA
ENDBRANCH  29  30
ENDBRANCH  10  29
TORSDOF 7
ENDMDL
MODEL 5
REMARK VINA RESULT: -7.056515852      1.599      4.738
REMARK  7 active torsions:
REMARK  status: ('A' for Active; 'I' for Inactive)
REMARK    1  A    between atoms: O1_2  and  C2_3 
REMARK    2  A    between atoms: C4_5  and  C5_6 
REMARK    3  A    between atoms: C5_6  and  N1_7 
REMARK    4  A    between atoms: N2_10  and  C7_11 
REMARK    5  A    between atoms: C12_19  and  C13_20 
REMARK    6  A    between atoms: C13_20  and  C14_21 
REMARK    7  A    between atoms: C19_30  and  O6_31 
ROOT
HETATM    1  N1  UNL     1     -16.204  11.821  -5.556  1.00  0.00    -0.311 N 
HETATM    2  C6  UNL     1     -15.497  12.146  -6.733  1.00  0.00     0.327 C 
HETATM    3  O2  UNL     1     -15.315  13.325  -7.136  1.00  0.00    -0.247 OA
HETATM    4  N2  UNL     1     -15.018  10.996  -7.405  1.00  0.00    -0.282 N 
HETATM    5  C10 UNL     1     -15.447   9.911  -6.612  1.00  0.00     0.121 C 
HETATM    6  N3  UNL     1     -15.452   8.627  -6.732  1.00  0.00    -0.314 N 
ATOM      7  H3  UNL     1     -15.069   8.211  -7.581  1.00  0.00     0.170 HD
HETATM    8  C11 UNL     1     -15.974   7.771  -5.720  1.00  0.00     0.234 C 
HETATM    9  O3  UNL     1     -15.380   6.709  -5.471  1.00  0.00    -0.272 OA
HETATM   10  C12 UNL     1     -17.206   8.196  -5.018  1.00  0.00     0.158 C 
HETATM   11  C15 UNL     1     -17.300   9.670  -5.151  1.00  0.00     0.170 C 
HETATM   12  O5  UNL     1     -18.363  10.214  -5.122  1.00  0.00    -0.294 OA
HETATM   13  C16 UNL     1     -16.038  10.415  -5.320  1.00  0.00     0.227 C 
ENDROOT
BRANCH   1  14
HETATM   14  C5  UNL     1     -16.951  12.795  -4.739  1.00  0.00     0.167 C 
BRANCH  14  15
HETATM   15  C4  UNL     1     -16.354  12.792  -3.364  1.00  0.00    -0.036 A 
HETATM   16  C3  UNL     1     -15.530  11.743  -3.000  1.00  0.00     0.048 A 
HETATM   17  C2  UNL     1     -14.955  11.683  -1.745  1.00  0.00     0.103 A 
HETATM   18  C19 UNL     1     -15.236  12.713  -0.867  1.00  0.00     0.118 A 
HETATM   19  C18 UNL     1     -16.052  13.776  -1.193  1.00  0.00     0.047 A 
HETATM   20  C17 UNL     1     -16.616  13.816  -2.449  1.00  0.00     0.031 A 
HETATM   21 BR1  UNL     1     -16.417  15.188   0.059  1.00  0.00    -0.048 Br
BRANCH  17  22
HETATM   22  O1  UNL     1     -14.126  10.672  -1.314  1.00  0.00    -0.353 OA
HETATM   23  C1  UNL     1     -14.219   9.328  -1.700  1.00  0.00     0.210 C 
ENDBRANCH  17  22
BRANCH  18  24
HETATM   24  O6  UNL     1     -14.686  12.713   0.418  1.00  0.00    -0.352 OA
HETATM   25  C20 UNL     1     -15.347  11.913   1.380  1.00  0.00     0.210 C 
ENDBRANCH  18  24
ENDBRANCH  14  15
ENDBRANCH   1  14
BRANCH   4  26
HETATM   26  C7  UNL     1     -14.247  10.931  -8.653  1.00  0.00     0.088 C 
HETATM   27  C8  UNL     1     -13.653   9.567  -8.792  1.00  0.00     0.032 C 
HETATM   28  C9  UNL     1     -13.241  12.040  -8.693  1.00  0.00     0.032 C 
ENDBRANCH   4  26
BRANCH  10  29
HETATM   29  C13 UNL     1     -17.093   7.757  -3.575  1.00  0.00     0.121 C 
BRANCH  29  30
HETATM   30  C14 UNL     1     -18.204   6.844  -3.221  1.00  0.00     0.232 C 
HETATM   31  N4  UNL     1     -17.982   5.447  -3.156  1.00  0.00    -0.062 NA
HETATM   32  O4  UNL     1     -19.327   7.361  -2.987  1.00  0.00    -0.277 OA
ENDBRANCH  29  30
ENDBRANCH  10  29
TORSDOF 7
ENDMDL
