MODEL 1
REMARK VINA RESULT: -6.604797858      0.000      0.000
REMARK  7 active torsions:
REMARK  status: ('A' for Active; 'I' for Inactive)
REMARK    1  A    between atoms: C8_10  and  C9_11 
REMARK    2  A    between atoms: C9_11  and  C10_13 
REMARK    3  A    between atoms: C11_14  and  C12_15 
REMARK    4  A    between atoms: C14_21  and  C15_22 
REMARK    5  A    between atoms: C15_22  and  C16_23 
REMARK    6  A    between atoms: C16_23  and  C17_24 
REMARK       I    between atoms: N1_27  and  C18_28 
REMARK    7  A    between atoms: C18_28  and  C19_30 
ROOT
HETATM    1  C1  UNL     1     -15.007   7.064   0.638  1.00  0.00     0.018 C 
HETATM    2  C2  UNL     1     -15.662   7.497  -0.430  1.00  0.00    -0.047 C 
HETATM    3  C3  UNL     1     -16.294   8.840  -0.289  1.00  0.00     0.213 C 
HETATM    4  O1  UNL     1     -15.410   9.810   0.232  1.00  0.00    -0.317 OA
HETATM    5  C4  UNL     1     -14.891  10.866  -0.447  1.00  0.00     0.262 C 
HETATM    6  O2  UNL     1     -14.515  11.900   0.142  1.00  0.00    -0.265 OA
HETATM    7  C5  UNL     1     -14.752  10.827  -1.919  1.00  0.00     0.138 C 
HETATM    8  C6  UNL     1     -15.565  11.901  -2.529  1.00  0.00    -0.020 C 
HETATM    9  C7  UNL     1     -16.188  11.772  -3.688  1.00  0.00    -0.008 C 
HETATM   10  C8  UNL     1     -16.160  10.548  -4.529  1.00  0.00     0.181 C 
HETATM   11  C13 UNL     1     -17.462   9.843  -4.520  1.00  0.00     0.276 C 
HETATM   12  O6  UNL     1     -18.410  10.449  -5.090  1.00  0.00    -0.264 OA
HETATM   13  O7  UNL     1     -17.562   8.640  -3.928  1.00  0.00    -0.294 OA
HETATM   14  C14 UNL     1     -16.694   7.591  -3.733  1.00  0.00     0.236 C 
HETATM   15  N1  UNL     1     -16.861   6.882  -2.486  1.00  0.00    -0.320 N 
HETATM   16  C18 UNL     1     -18.119   6.382  -2.069  1.00  0.00     0.232 C 
HETATM   17  O10 UNL     1     -19.162   6.548  -2.793  1.00  0.00    -0.272 OA
HETATM   18  C20 UNL     1     -15.726   6.668  -1.637  1.00  0.00     0.164 C 
ENDROOT
BRANCH  10  19
HETATM   19  C9  UNL     1     -15.964  11.058  -5.954  1.00  0.00     0.166 C 
HETATM   20  O3  UNL     1     -16.052  12.284  -6.170  1.00  0.00    -0.292 OA
BRANCH  19  21
HETATM   21  C10 UNL     1     -15.685  10.131  -7.008  1.00  0.00     0.058 C 
HETATM   22  C11 UNL     1     -14.999  10.259  -8.092  1.00  0.00     0.088 C 
BRANCH  22  23
HETATM   23  C12 UNL     1     -14.263  11.327  -8.676  1.00  0.00     0.198 C 
HETATM   24  O4  UNL     1     -14.745  12.352  -9.152  1.00  0.00    -0.645 OA
HETATM   25  O5  UNL     1     -12.858  11.240  -8.732  1.00  0.00    -0.645 OA
ENDBRANCH  22  23
ENDBRANCH  19  21
ENDBRANCH  10  19
BRANCH  14  26
HETATM   26  C15 UNL     1     -16.855   6.642  -4.923  1.00  0.00     0.065 C 
BRANCH  26  27
HETATM   27  C16 UNL     1     -15.730   6.798  -5.907  1.00  0.00     0.117 C 
BRANCH  27  28
HETATM   28  C17 UNL     1     -16.168   6.207  -7.193  1.00  0.00     0.172 C 
HETATM   29  O8  UNL     1     -16.847   5.155  -7.246  1.00  0.00    -0.648 OA
HETATM   30  O9  UNL     1     -15.831   6.814  -8.391  1.00  0.00    -0.648 OA
ENDBRANCH  27  28
ENDBRANCH  26  27
ENDBRANCH  14  26
BRANCH  16  31
HETATM   31  C19 UNL     1     -18.288   5.649  -0.789  1.00  0.00     0.188 C 
HETATM   32 BR1  UNL     1     -18.038   3.758  -1.033  1.00  0.00    -0.087 Br
ENDBRANCH  16  31
TORSDOF 7
ENDMDL
MODEL 2
REMARK VINA RESULT: -6.361650742      3.051      5.835
REMARK  7 active torsions:
REMARK  status: ('A' for Active; 'I' for Inactive)
REMARK    1  A    between atoms: C8_10  and  C9_11 
REMARK    2  A    between atoms: C9_11  and  C10_13 
REMARK    3  A    between atoms: C11_14  and  C12_15 
REMARK    4  A    between atoms: C14_21  and  C15_22 
REMARK    5  A    between atoms: C15_22  and  C16_23 
REMARK    6  A    between atoms: C16_23  and  C17_24 
REMARK       I    between atoms: N1_27  and  C18_28 
REMARK    7  A    between atoms: C18_28  and  C19_30 
ROOT
HETATM    1  C1  UNL     1     -20.321  11.708  -1.503  1.00  0.00     0.018 C 
HETATM    2  C2  UNL     1     -19.210  11.197  -2.014  1.00  0.00    -0.047 C 
HETATM    3  C3  UNL     1     -18.816   9.863  -1.476  1.00  0.00     0.213 C 
HETATM    4  O1  UNL     1     -19.883   8.938  -1.468  1.00  0.00    -0.317 OA
HETATM    5  C4  UNL     1     -19.995   7.840  -2.260  1.00  0.00     0.262 C 
HETATM    6  O2  UNL     1     -20.675   6.852  -1.914  1.00  0.00    -0.265 OA
HETATM    7  C5  UNL     1     -19.309   7.775  -3.568  1.00  0.00     0.138 C 
HETATM    8  C6  UNL     1     -18.343   6.655  -3.575  1.00  0.00    -0.020 C 
HETATM    9  C7  UNL     1     -17.185   6.698  -4.211  1.00  0.00    -0.008 C 
HETATM   10  C8  UNL     1     -16.697   7.860  -4.999  1.00  0.00     0.181 C 
HETATM   11  C13 UNL     1     -15.580   8.556  -4.320  1.00  0.00     0.276 C 
HETATM   12  O6  UNL     1     -14.503   7.905  -4.246  1.00  0.00    -0.264 OA
HETATM   13  O7  UNL     1     -15.766   9.797  -3.838  1.00  0.00    -0.294 OA
HETATM   14  C14 UNL     1     -16.554  10.863  -4.208  1.00  0.00     0.236 C 
HETATM   15  N1  UNL     1     -17.061  11.658  -3.114  1.00  0.00    -0.320 N 
HETATM   16  C18 UNL     1     -16.211  12.178  -2.107  1.00  0.00     0.232 C 
HETATM   17  O10 UNL     1     -14.951  11.954  -2.135  1.00  0.00    -0.272 OA
HETATM   18  C20 UNL     1     -18.464  11.938  -3.035  1.00  0.00     0.164 C 
ENDROOT
BRANCH  10  19
HETATM   19  C9  UNL     1     -16.110   7.251  -6.269  1.00  0.00     0.166 C 
HETATM   20  O3  UNL     1     -15.549   8.004  -7.092  1.00  0.00    -0.292 OA
BRANCH  19  21
HETATM   21  C10 UNL     1     -16.212   5.841  -6.493  1.00  0.00     0.058 C 
HETATM   22  C11 UNL     1     -16.527   5.170  -7.548  1.00  0.00     0.088 C 
BRANCH  22  23
HETATM   23  C12 UNL     1     -16.890   5.528  -8.876  1.00  0.00     0.198 C 
HETATM   24  O4  UNL     1     -16.171   6.118  -9.679  1.00  0.00    -0.645 OA
HETATM   25  O5  UNL     1     -18.176   5.198  -9.347  1.00  0.00    -0.645 OA
ENDBRANCH  22  23
ENDBRANCH  19  21
ENDBRANCH  10  19
BRANCH  14  26
HETATM   26  C15 UNL     1     -15.730  11.724  -5.169  1.00  0.00     0.065 C 
BRANCH  26  27
HETATM   27  C16 UNL     1     -16.118  11.475  -6.599  1.00  0.00     0.117 C 
BRANCH  27  28
HETATM   28  C17 UNL     1     -14.929  11.739  -7.443  1.00  0.00     0.172 C 
HETATM   29  O8  UNL     1     -14.153  12.699  -7.221  1.00  0.00    -0.648 OA
HETATM   30  O9  UNL     1     -14.639  10.916  -8.519  1.00  0.00    -0.648 OA
ENDBRANCH  27  28
ENDBRANCH  26  27
ENDBRANCH  14  26
BRANCH  16  31
HETATM   31  C19 UNL     1     -16.733  12.999  -0.986  1.00  0.00     0.188 C 
HETATM   32 BR1  UNL     1     -16.432  14.872  -1.297  1.00  0.00    -0.087 Br
ENDBRANCH  16  31
TORSDOF 7
ENDMDL
MODEL 3
REMARK VINA RESULT: -6.278755593      2.659      3.665
REMARK  7 active torsions:
REMARK  status: ('A' for Active; 'I' for Inactive)
REMARK    1  A    between atoms: C8_10  and  C9_11 
REMARK    2  A    between atoms: C9_11  and  C10_13 
REMARK    3  A    between atoms: C11_14  and  C12_15 
REMARK    4  A    between atoms: C14_21  and  C15_22 
REMARK    5  A    between atoms: C15_22  and  C16_23 
REMARK    6  A    between atoms: C16_23  and  C17_24 
REMARK       I    between atoms: N1_27  and  C18_28 
REMARK    7  A    between atoms: C18_28  and  C19_30 
ROOT
HETATM    1  C1  UNL     1     -15.486  11.960   1.750  1.00  0.00     0.018 C 
HETATM    2  C2  UNL     1     -15.891  11.523   0.566  1.00  0.00    -0.047 C 
HETATM    3  C3  UNL     1     -16.968  12.330  -0.076  1.00  0.00     0.213 C 
HETATM    4  O1  UNL     1     -16.691  13.714  -0.077  1.00  0.00    -0.317 OA
HETATM    5  C4  UNL     1     -16.398  14.470  -1.167  1.00  0.00     0.262 C 
HETATM    6  O2  UNL     1     -16.613  15.700  -1.186  1.00  0.00    -0.265 OA
HETATM    7  C5  UNL     1     -15.812  13.858  -2.379  1.00  0.00     0.138 C 
HETATM    8  C6  UNL     1     -16.724  14.045  -3.528  1.00  0.00    -0.020 C 
HETATM    9  C7  UNL     1     -16.874  13.150  -4.489  1.00  0.00    -0.008 C 
HETATM   10  C8  UNL     1     -16.158  11.849  -4.550  1.00  0.00     0.181 C 
HETATM   11  C13 UNL     1     -17.062  10.709  -4.275  1.00  0.00     0.276 C 
HETATM   12  O6  UNL     1     -17.939  10.489  -5.153  1.00  0.00    -0.264 OA
HETATM   13  O7  UNL     1     -16.905   9.995  -3.146  1.00  0.00    -0.294 OA
HETATM   14  C14 UNL     1     -15.825   9.672  -2.357  1.00  0.00     0.236 C 
HETATM   15  N1  UNL     1     -16.103   9.594  -0.942  1.00  0.00    -0.320 N 
HETATM   16  C18 UNL     1     -17.165   8.811  -0.427  1.00  0.00     0.232 C 
HETATM   17  O10 UNL     1     -17.924   8.142  -1.211  1.00  0.00    -0.272 OA
HETATM   18  C20 UNL     1     -15.285  10.325  -0.020  1.00  0.00     0.164 C 
ENDROOT
BRANCH  10  19
HETATM   19  C9  UNL     1     -15.729  11.708  -6.009  1.00  0.00     0.166 C 
HETATM   20  O3  UNL     1     -15.171  10.652  -6.370  1.00  0.00    -0.292 OA
BRANCH  19  21
HETATM   21  C10 UNL     1     -15.971  12.780  -6.926  1.00  0.00     0.058 C 
HETATM   22  C11 UNL     1     -15.359  13.126  -8.006  1.00  0.00     0.088 C 
BRANCH  22  23
HETATM   23  C12 UNL     1     -14.236  12.615  -8.714  1.00  0.00     0.198 C 
HETATM   24  O4  UNL     1     -14.122  11.469  -9.143  1.00  0.00    -0.645 OA
HETATM   25  O5  UNL     1     -13.139  13.464  -8.963  1.00  0.00    -0.645 OA
ENDBRANCH  22  23
ENDBRANCH  19  21
ENDBRANCH  10  19
BRANCH  14  26
HETATM   26  C15 UNL     1     -15.267   8.343  -2.874  1.00  0.00     0.065 C 
BRANCH  26  27
HETATM   27  C16 UNL     1     -13.891   8.077  -2.330  1.00  0.00     0.117 C 
BRANCH  27  28
HETATM   28  C17 UNL     1     -14.010   7.024  -1.295  1.00  0.00     0.172 C 
HETATM   29  O8  UNL     1     -14.940   6.183  -1.302  1.00  0.00    -0.648 OA
HETATM   30  O9  UNL     1     -13.080   6.941  -0.272  1.00  0.00    -0.648 OA
ENDBRANCH  27  28
ENDBRANCH  26  27
ENDBRANCH  14  26
BRANCH  16  31
HETATM   31  C19 UNL     1     -17.447   8.730   1.029  1.00  0.00     0.188 C 
HETATM   32 BR1  UNL     1     -16.450   7.305   1.850  1.00  0.00    -0.087 Br
ENDBRANCH  16  31
TORSDOF 7
ENDMDL
MODEL 4
REMARK VINA RESULT: -6.254020320      3.488      5.444
REMARK  7 active torsions:
REMARK  status: ('A' for Active; 'I' for Inactive)
REMARK    1  A    between atoms: C8_10  and  C9_11 
REMARK    2  A    between atoms: C9_11  and  C10_13 
REMARK    3  A    between atoms: C11_14  and  C12_15 
REMARK    4  A    between atoms: C14_21  and  C15_22 
REMARK    5  A    between atoms: C15_22  and  C16_23 
REMARK    6  A    between atoms: C16_23  and  C17_24 
REMARK       I    between atoms: N1_27  and  C18_28 
REMARK    7  A    between atoms: C18_28  and  C19_30 
ROOT
HETATM    1  C1  UNL     1     -13.784   8.700  -1.739  1.00  0.00     0.018 C 
HETATM    2  C2  UNL     1     -14.803   9.479  -2.076  1.00  0.00    -0.047 C 
HETATM    3  C3  UNL     1     -15.651   9.944  -0.941  1.00  0.00     0.213 C 
HETATM    4  O1  UNL     1     -14.896  10.473   0.128  1.00  0.00    -0.317 OA
HETATM    5  C4  UNL     1     -14.850  11.777   0.505  1.00  0.00     0.262 C 
HETATM    6  O2  UNL     1     -14.562  12.109   1.674  1.00  0.00    -0.265 OA
HETATM    7  C5  UNL     1     -15.142  12.857  -0.462  1.00  0.00     0.138 C 
HETATM    8  C6  UNL     1     -16.318  13.632  -0.010  1.00  0.00    -0.020 C 
HETATM    9  C7  UNL     1     -17.205  14.154  -0.838  1.00  0.00    -0.008 C 
HETATM   10  C8  UNL     1     -17.149  14.039  -2.319  1.00  0.00     0.181 C 
HETATM   11  C13 UNL     1     -18.198  13.133  -2.841  1.00  0.00     0.276 C 
HETATM   12  O6  UNL     1     -19.381  13.551  -2.724  1.00  0.00    -0.264 OA
HETATM   13  O7  UNL     1     -17.846  11.958  -3.393  1.00  0.00    -0.294 OA
HETATM   14  C14 UNL     1     -16.746  11.516  -4.089  1.00  0.00     0.236 C 
HETATM   15  N1  UNL     1     -16.377  10.141  -3.843  1.00  0.00    -0.320 N 
HETATM   16  C18 UNL     1     -17.313   9.083  -3.949  1.00  0.00     0.232 C 
HETATM   17  O10 UNL     1     -18.530   9.315  -4.267  1.00  0.00    -0.272 OA
HETATM   18  C20 UNL     1     -15.027   9.826  -3.482  1.00  0.00     0.164 C 
ENDROOT
BRANCH  10  19
HETATM   19  C9  UNL     1     -17.497  15.433  -2.833  1.00  0.00     0.166 C 
HETATM   20  O3  UNL     1     -17.315  15.690  -4.040  1.00  0.00    -0.292 OA
BRANCH  19  21
HETATM   21  C10 UNL     1     -18.021  16.412  -1.929  1.00  0.00     0.058 C 
HETATM   22  C11 UNL     1     -19.099  17.117  -1.973  1.00  0.00     0.088 C 
BRANCH  22  23
HETATM   23  C12 UNL     1     -20.177  17.217  -2.896  1.00  0.00     0.198 C 
HETATM   24  O4  UNL     1     -21.334  16.858  -2.686  1.00  0.00    -0.645 OA
HETATM   25  O5  UNL     1     -19.939  17.768  -4.171  1.00  0.00    -0.645 OA
ENDBRANCH  22  23
ENDBRANCH  19  21
ENDBRANCH  10  19
BRANCH  14  26
HETATM   26  C15 UNL     1     -17.028  11.743  -5.576  1.00  0.00     0.065 C 
BRANCH  26  27
HETATM   27  C16 UNL     1     -16.129  12.801  -6.151  1.00  0.00     0.117 C 
BRANCH  27  28
HETATM   28  C17 UNL     1     -15.083  12.120  -6.950  1.00  0.00     0.172 C 
HETATM   29  O8  UNL     1     -14.148  12.750  -7.500  1.00  0.00    -0.648 OA
HETATM   30  O9  UNL     1     -15.111  10.745  -7.111  1.00  0.00    -0.648 OA
ENDBRANCH  27  28
ENDBRANCH  26  27
ENDBRANCH  14  26
BRANCH  16  31
HETATM   31  C19 UNL     1     -16.931   7.670  -3.699  1.00  0.00     0.188 C 
HETATM   32 BR1  UNL     1     -16.314   6.822  -5.311  1.00  0.00    -0.087 Br
ENDBRANCH  16  31
TORSDOF 7
ENDMDL
MODEL 5
REMARK VINA RESULT: -6.221476771      2.413      3.569
REMARK  7 active torsions:
REMARK  status: ('A' for Active; 'I' for Inactive)
REMARK    1  A    between atoms: C8_10  and  C9_11 
REMARK    2  A    between atoms: C9_11  and  C10_13 
REMARK    3  A    between atoms: C11_14  and  C12_15 
REMARK    4  A    between atoms: C14_21  and  C15_22 
REMARK    5  A    between atoms: C15_22  and  C16_23 
REMARK    6  A    between atoms: C16_23  and  C17_24 
REMARK       I    between atoms: N1_27  and  C18_28 
REMARK    7  A    between atoms: C18_28  and  C19_30 
ROOT
HETATM    1  C1  UNL     1     -15.392  11.869   1.239  1.00  0.00     0.018 C 
HETATM    2  C2  UNL     1     -15.817  11.254   0.144  1.00  0.00    -0.047 C 
HETATM    3  C3  UNL     1     -16.877  11.974  -0.619  1.00  0.00     0.213 C 
HETATM    4  O1  UNL     1     -16.563  13.331  -0.849  1.00  0.00    -0.317 OA
HETATM    5  C4  UNL     1     -16.258  13.889  -2.049  1.00  0.00     0.262 C 
HETATM    6  O2  UNL     1     -16.441  15.104  -2.269  1.00  0.00    -0.265 OA
HETATM    7  C5  UNL     1     -15.697  13.071  -3.145  1.00  0.00     0.138 C 
HETATM    8  C6  UNL     1     -16.612  13.091  -4.307  1.00  0.00    -0.020 C 
HETATM    9  C7  UNL     1     -16.792  12.054  -5.107  1.00  0.00    -0.008 C 
HETATM   10  C8  UNL     1     -16.112  10.742  -4.956  1.00  0.00     0.181 C 
HETATM   11  C13 UNL     1     -17.043   9.688  -4.494  1.00  0.00     0.276 C 
HETATM   12  O6  UNL     1     -17.932   9.351  -5.322  1.00  0.00    -0.264 OA
HETATM   13  O7  UNL     1     -16.897   9.165  -3.264  1.00  0.00    -0.294 OA
HETATM   14  C14 UNL     1     -15.821   8.946  -2.435  1.00  0.00     0.236 C 
HETATM   15  N1  UNL     1     -16.090   9.110  -1.026  1.00  0.00    -0.320 N 
HETATM   16  C18 UNL     1     -17.170   8.452  -0.386  1.00  0.00     0.232 C 
HETATM   17  O10 UNL     1     -17.951   7.683  -1.047  1.00  0.00    -0.272 OA
HETATM   18  C20 UNL     1     -15.247   9.960  -0.239  1.00  0.00     0.164 C 
ENDROOT
BRANCH  10  19
HETATM   19  C9  UNL     1     -15.697  10.352  -6.372  1.00  0.00     0.166 C 
HETATM   20  O3  UNL     1     -15.092   9.274  -6.545  1.00  0.00    -0.292 OA
BRANCH  19  21
HETATM   21  C10 UNL     1     -16.005  11.221  -7.466  1.00  0.00     0.058 C 
HETATM   22  C11 UNL     1     -15.246  11.781  -8.346  1.00  0.00     0.088 C 
BRANCH  22  23
HETATM   23  C12 UNL     1     -13.845  11.773  -8.591  1.00  0.00     0.198 C 
HETATM   24  O4  UNL     1     -13.077  12.710  -8.385  1.00  0.00    -0.645 OA
HETATM   25  O5  UNL     1     -13.248  10.609  -9.115  1.00  0.00    -0.645 OA
ENDBRANCH  22  23
ENDBRANCH  19  21
ENDBRANCH  10  19
BRANCH  14  26
HETATM   26  C15 UNL     1     -15.302   7.536  -2.728  1.00  0.00     0.065 C 
BRANCH  26  27
HETATM   27  C16 UNL     1     -13.888   7.361  -2.249  1.00  0.00     0.117 C 
BRANCH  27  28
HETATM   28  C17 UNL     1     -13.930   6.570  -0.997  1.00  0.00     0.172 C 
HETATM   29  O8  UNL     1     -13.073   6.709  -0.091  1.00  0.00    -0.648 OA
HETATM   30  O9  UNL     1     -14.934   5.639  -0.792  1.00  0.00    -0.648 OA
ENDBRANCH  27  28
ENDBRANCH  26  27
ENDBRANCH  14  26
BRANCH  16  31
HETATM   31  C19 UNL     1     -17.443   8.618   1.064  1.00  0.00     0.188 C 
HETATM   32 BR1  UNL     1     -16.492   7.310   2.104  1.00  0.00    -0.087 Br
ENDBRANCH  16  31
TORSDOF 7
ENDMDL
