MODEL 1
REMARK VINA RESULT: -5.644090920      0.000      0.000
REMARK  0 active torsions:
REMARK  status: ('A' for Active; 'I' for Inactive)
ROOT
HETATM    1  C1  UNL     1      15.515 -14.891   1.816  1.00  0.00     0.148 C 
HETATM    2  N1  UNL     1      15.408 -15.545   3.066  1.00  0.00    -0.365 N 
HETATM    3  C2  UNL     1      16.197 -14.935   4.082  1.00  0.00     0.111 C 
HETATM    4  C3  UNL     1      15.708 -13.530   4.451  1.00  0.00     0.064 C 
HETATM    5  C4  UNL     1      17.624 -14.768   3.575  1.00  0.00     0.064 C 
HETATM    6  N2  UNL     1      16.178 -15.693   5.318  1.00  0.00    -0.294 N 
ATOM      7  H2  UNL     1      17.024 -15.872   5.860  1.00  0.00     0.184 HD
HETATM    8  N3  UNL     1      15.039 -16.121   5.684  1.00  0.00    -0.247 N 
ATOM      9  H3  UNL     1      14.922 -16.664   6.540  1.00  0.00     0.207 HD
HETATM   10  N4  UNL     1      13.953 -15.813   4.861  1.00  0.00    -0.294 N 
ATOM     11  H4  UNL     1      13.073 -15.468   5.247  1.00  0.00     0.184 HD
HETATM   12  C5  UNL     1      14.127 -16.004   3.441  1.00  0.00     0.111 C 
HETATM   13  C6  UNL     1      13.939 -17.507   3.186  1.00  0.00     0.064 C 
HETATM   14  C7  UNL     1      12.985 -15.348   2.677  1.00  0.00     0.064 C 
ENDROOT
TORSDOF 0
ENDMDL
MODEL 2
REMARK VINA RESULT: -5.427506911      1.388      3.318
REMARK  0 active torsions:
REMARK  status: ('A' for Active; 'I' for Inactive)
ROOT
HETATM    1  C1  UNL     1      15.298 -13.948   5.503  1.00  0.00     0.148 C 
HETATM    2  N1  UNL     1      15.729 -14.959   4.610  1.00  0.00    -0.365 N 
HETATM    3  C2  UNL     1      14.816 -16.046   4.519  1.00  0.00     0.111 C 
HETATM    4  C3  UNL     1      13.481 -15.648   3.877  1.00  0.00     0.064 C 
HETATM    5  C4  UNL     1      14.482 -16.540   5.922  1.00  0.00     0.064 C 
HETATM    6  N2  UNL     1      15.334 -17.129   3.705  1.00  0.00    -0.294 N 
ATOM      7  H2  UNL     1      15.255 -18.106   3.986  1.00  0.00     0.184 HD
HETATM    8  N3  UNL     1      15.892 -16.781   2.617  1.00  0.00    -0.247 N 
ATOM      9  H3  UNL     1      16.287 -17.470   1.976  1.00  0.00     0.207 HD
HETATM   10  N4  UNL     1      15.939 -15.413   2.339  1.00  0.00    -0.294 N 
ATOM     11  H4  UNL     1      15.699 -15.049   1.416  1.00  0.00     0.184 HD
HETATM   12  C5  UNL     1      16.343 -14.536   3.412  1.00  0.00     0.111 C 
HETATM   13  C6  UNL     1      17.875 -14.612   3.471  1.00  0.00     0.064 C 
HETATM   14  C7  UNL     1      16.053 -13.086   3.044  1.00  0.00     0.064 C 
ENDROOT
TORSDOF 0
ENDMDL
MODEL 3
REMARK VINA RESULT: -5.173453875      1.161      3.585
REMARK  0 active torsions:
REMARK  status: ('A' for Active; 'I' for Inactive)
ROOT
HETATM    1  C1  UNL     1      14.774 -16.226   5.431  1.00  0.00     0.148 C 
HETATM    2  N1  UNL     1      15.231 -15.802   4.160  1.00  0.00    -0.365 N 
HETATM    3  C2  UNL     1      14.332 -16.133   3.107  1.00  0.00     0.111 C 
HETATM    4  C3  UNL     1      13.002 -15.375   3.201  1.00  0.00     0.064 C 
HETATM    5  C4  UNL     1      13.982 -17.614   3.194  1.00  0.00     0.064 C 
HETATM    6  N2  UNL     1      14.875 -15.810   1.801  1.00  0.00    -0.294 N 
ATOM      7  H2  UNL     1      14.804 -16.450   1.010  1.00  0.00     0.184 HD
HETATM    8  N3  UNL     1      15.445 -14.678   1.708  1.00  0.00    -0.247 N 
ATOM      9  H3  UNL     1      15.858 -14.360   0.831  1.00  0.00     0.207 HD
HETATM   10  N4  UNL     1      15.480 -13.889   2.860  1.00  0.00    -0.294 N 
ATOM     11  H4  UNL     1      15.249 -12.896   2.832  1.00  0.00     0.184 HD
HETATM   12  C5  UNL     1      15.857 -14.540   4.093  1.00  0.00     0.111 C 
HETATM   13  C6  UNL     1      17.389 -14.638   4.071  1.00  0.00     0.064 C 
HETATM   14  C7  UNL     1      15.555 -13.634   5.279  1.00  0.00     0.064 C 
ENDROOT
TORSDOF 0
ENDMDL
MODEL 4
REMARK VINA RESULT: -5.100536778      1.287      1.402
REMARK  0 active torsions:
REMARK  status: ('A' for Active; 'I' for Inactive)
ROOT
HETATM    1  C1  UNL     1      16.301 -16.446   2.446  1.00  0.00     0.148 C 
HETATM    2  N1  UNL     1      15.838 -15.972   3.697  1.00  0.00    -0.365 N 
HETATM    3  C2  UNL     1      16.094 -14.586   3.895  1.00  0.00     0.111 C 
HETATM    4  C3  UNL     1      15.297 -13.692   2.937  1.00  0.00     0.064 C 
HETATM    5  C4  UNL     1      17.565 -14.302   3.614  1.00  0.00     0.064 C 
HETATM    6  N2  UNL     1      15.733 -14.148   5.230  1.00  0.00    -0.294 N 
ATOM      7  H2  UNL     1      16.335 -13.539   5.784  1.00  0.00     0.184 HD
HETATM    8  N3  UNL     1      14.617 -14.574   5.666  1.00  0.00    -0.247 N 
ATOM      9  H3  UNL     1      14.275 -14.321   6.593  1.00  0.00     0.207 HD
HETATM   10  N4  UNL     1      13.880 -15.403   4.816  1.00  0.00    -0.294 N 
ATOM     11  H4  UNL     1      12.879 -15.264   4.674  1.00  0.00     0.184 HD
HETATM   12  C5  UNL     1      14.595 -16.464   4.148  1.00  0.00     0.111 C 
HETATM   13  C6  UNL     1      14.743 -17.593   5.178  1.00  0.00     0.064 C 
HETATM   14  C7  UNL     1      13.731 -17.069   3.048  1.00  0.00     0.064 C 
ENDROOT
TORSDOF 0
ENDMDL
MODEL 5
REMARK VINA RESULT: -5.006028478      1.507      2.732
REMARK  0 active torsions:
REMARK  status: ('A' for Active; 'I' for Inactive)
ROOT
HETATM    1  C1  UNL     1      15.188 -14.066   5.351  1.00  0.00     0.148 C 
HETATM    2  N1  UNL     1      15.117 -14.499   4.006  1.00  0.00    -0.365 N 
HETATM    3  C2  UNL     1      16.199 -14.026   3.211  1.00  0.00     0.111 C 
HETATM    4  C3  UNL     1      17.549 -14.619   3.632  1.00  0.00     0.064 C 
HETATM    5  C4  UNL     1      16.327 -12.517   3.386  1.00  0.00     0.064 C 
HETATM    6  N2  UNL     1      16.041 -14.368   1.811  1.00  0.00    -0.294 N 
ATOM      7  H2  UNL     1      16.224 -13.699   1.063  1.00  0.00     0.184 HD
HETATM    8  N3  UNL     1      15.659 -15.558   1.575  1.00  0.00    -0.247 N 
ATOM      9  H3  UNL     1      15.519 -15.894   0.622  1.00  0.00     0.207 HD
HETATM   10  N4  UNL     1      15.439 -16.383   2.681  1.00  0.00    -0.294 N 
ATOM     11  H4  UNL     1      15.793 -17.340   2.709  1.00  0.00     0.184 HD
HETATM   12  C5  UNL     1      14.691 -15.825   3.782  1.00  0.00     0.111 C 
HETATM   13  C6  UNL     1      13.211 -15.913   3.379  1.00  0.00     0.064 C 
HETATM   14  C7  UNL     1      14.802 -16.727   5.004  1.00  0.00     0.064 C 
ENDROOT
TORSDOF 0
ENDMDL
