MODEL 1
REMARK VINA RESULT: -6.069609754      0.000      0.000
REMARK  0 active torsions:
REMARK  status: ('A' for Active; 'I' for Inactive)
ROOT
HETATM    1  N1  UNL     1      14.624 -16.432   6.792  1.00  0.00    -0.197 NA
HETATM    2  C1  UNL     1      14.840 -15.675   5.955  1.00  0.00     0.066 C 
HETATM    3  C2  UNL     1      15.111 -14.724   4.945  1.00  0.00     0.132 C 
HETATM    4  C3  UNL     1      16.367 -14.968   4.114  1.00  0.00     0.039 C 
HETATM    5  C4  UNL     1      16.166 -13.691   3.261  1.00  0.00     0.279 C 
HETATM    6  N2  UNL     1      14.894 -14.166   2.659  1.00  0.00     0.095 N 
HETATM    7  C5  UNL     1      15.537 -15.239   1.871  1.00  0.00     0.278 C 
HETATM    8  C6  UNL     1      16.172 -16.008   3.049  1.00  0.00     0.021 C 
HETATM    9  C7  UNL     1      15.082 -17.018   3.385  1.00  0.00     0.009 C 
HETATM   10  C8  UNL     1      13.823 -16.221   3.543  1.00  0.00     0.037 C 
HETATM   11  C9  UNL     1      14.132 -14.738   3.771  1.00  0.00     0.241 C 
ENDROOT
TORSDOF 0
ENDMDL
MODEL 2
REMARK VINA RESULT: -5.947923546      1.487      2.357
REMARK  0 active torsions:
REMARK  status: ('A' for Active; 'I' for Inactive)
ROOT
HETATM    1  N1  UNL     1      13.356 -17.925   2.659  1.00  0.00    -0.197 NA
HETATM    2  C1  UNL     1      13.640 -16.958   3.212  1.00  0.00     0.066 C 
HETATM    3  C2  UNL     1      13.968 -15.773   3.910  1.00  0.00     0.132 C 
HETATM    4  C3  UNL     1      15.253 -15.812   4.732  1.00  0.00     0.039 C 
HETATM    5  C4  UNL     1      15.082 -14.362   5.245  1.00  0.00     0.279 C 
HETATM    6  N2  UNL     1      15.200 -13.756   3.894  1.00  0.00     0.095 N 
HETATM    7  C5  UNL     1      16.628 -14.104   3.741  1.00  0.00     0.278 C 
HETATM    8  C6  UNL     1      16.488 -15.633   3.896  1.00  0.00     0.021 C 
HETATM    9  C7  UNL     1      16.307 -16.078   2.450  1.00  0.00     0.009 C 
HETATM   10  C8  UNL     1      15.201 -15.231   1.899  1.00  0.00     0.037 C 
HETATM   11  C9  UNL     1      14.375 -14.597   3.022  1.00  0.00     0.241 C 
ENDROOT
TORSDOF 0
ENDMDL
MODEL 3
REMARK VINA RESULT: -5.927925514      1.562      2.177
REMARK  0 active torsions:
REMARK  status: ('A' for Active; 'I' for Inactive)
ROOT
HETATM    1  N1  UNL     1      13.655 -18.460   3.386  1.00  0.00    -0.197 NA
HETATM    2  C1  UNL     1      14.340 -17.598   3.716  1.00  0.00     0.066 C 
HETATM    3  C2  UNL     1      15.197 -16.555   4.136  1.00  0.00     0.132 C 
HETATM    4  C3  UNL     1      16.114 -15.968   3.066  1.00  0.00     0.039 C 
HETATM    5  C4  UNL     1      16.778 -14.972   4.047  1.00  0.00     0.279 C 
HETATM    6  N2  UNL     1      15.522 -14.220   4.301  1.00  0.00     0.095 N 
HETATM    7  C5  UNL     1      15.450 -13.659   2.936  1.00  0.00     0.278 C 
HETATM    8  C6  UNL     1      15.411 -14.995   2.164  1.00  0.00     0.021 C 
HETATM    9  C7  UNL     1      13.913 -15.248   2.053  1.00  0.00     0.009 C 
HETATM   10  C8  UNL     1      13.374 -15.119   3.445  1.00  0.00     0.037 C 
HETATM   11  C9  UNL     1      14.491 -15.245   4.485  1.00  0.00     0.241 C 
ENDROOT
TORSDOF 0
ENDMDL
MODEL 4
REMARK VINA RESULT: -5.922200029      1.743      2.628
REMARK  0 active torsions:
REMARK  status: ('A' for Active; 'I' for Inactive)
ROOT
HETATM    1  N1  UNL     1      13.128 -18.219   2.364  1.00  0.00    -0.197 NA
HETATM    2  C1  UNL     1      13.547 -17.562   3.209  1.00  0.00     0.066 C 
HETATM    3  C2  UNL     1      14.057 -16.774   4.266  1.00  0.00     0.132 C 
HETATM    4  C3  UNL     1      15.570 -16.569   4.281  1.00  0.00     0.039 C 
HETATM    5  C4  UNL     1      15.538 -15.721   5.576  1.00  0.00     0.279 C 
HETATM    6  N2  UNL     1      14.745 -14.624   4.964  1.00  0.00     0.095 N 
HETATM    7  C5  UNL     1      15.835 -14.187   4.065  1.00  0.00     0.278 C 
HETATM    8  C6  UNL     1      16.027 -15.519   3.310  1.00  0.00     0.021 C 
HETATM    9  C7  UNL     1      15.087 -15.344   2.124  1.00  0.00     0.009 C 
HETATM   10  C8  UNL     1      13.766 -14.945   2.707  1.00  0.00     0.037 C 
HETATM   11  C9  UNL     1      13.690 -15.292   4.197  1.00  0.00     0.241 C 
ENDROOT
TORSDOF 0
ENDMDL
MODEL 5
REMARK VINA RESULT: -5.688804779      1.057      2.382
REMARK  0 active torsions:
REMARK  status: ('A' for Active; 'I' for Inactive)
ROOT
HETATM    1  N1  UNL     1      14.789 -15.804   7.278  1.00  0.00    -0.197 NA
HETATM    2  C1  UNL     1      14.661 -16.120   6.181  1.00  0.00     0.066 C 
HETATM    3  C2  UNL     1      14.487 -16.531   4.839  1.00  0.00     0.132 C 
HETATM    4  C3  UNL     1      13.639 -15.614   3.962  1.00  0.00     0.039 C 
HETATM    5  C4  UNL     1      13.774 -16.524   2.716  1.00  0.00     0.279 C 
HETATM    6  N2  UNL     1      15.244 -16.339   2.609  1.00  0.00     0.095 N 
HETATM    7  C5  UNL     1      15.149 -14.915   2.222  1.00  0.00     0.278 C 
HETATM    8  C6  UNL     1      14.393 -14.412   3.471  1.00  0.00     0.021 C 
HETATM    9  C7  UNL     1      15.541 -14.004   4.387  1.00  0.00     0.009 C 
HETATM   10  C8  UNL     1      16.460 -15.186   4.438  1.00  0.00     0.037 C 
HETATM   11  C9  UNL     1      15.748 -16.462   3.979  1.00  0.00     0.241 C 
ENDROOT
TORSDOF 0
ENDMDL
