MODEL 1
REMARK VINA RESULT: -4.347091913      0.000      0.000
REMARK  0 active torsions:
REMARK  status: ('A' for Active; 'I' for Inactive)
ROOT
HETATM    1  C1  UNL     1      14.815 -17.564   3.901  1.00  0.00     0.030 C 
HETATM    2  C2  UNL     1      13.445 -17.591   3.207  1.00  0.00     0.084 C 
HETATM    3  S1  UNL     1      13.333 -15.994   2.313  1.00  0.00    -0.094 SA
HETATM    4  C3  UNL     1      14.804 -15.048   2.765  1.00  0.00     0.138 C 
HETATM    5  N1  UNL     1      15.575 -14.225   2.148  1.00  0.00    -0.369 N 
ATOM      6  H1  UNL     1      15.458 -13.942   1.175  1.00  0.00     0.161 HD
HETATM    7  C4  UNL     1      16.618 -13.760   3.007  1.00  0.00     0.141 C 
HETATM    8  C5  UNL     1      16.115 -14.073   4.385  1.00  0.00     0.144 C 
HETATM    9  N2  UNL     1      15.253 -15.214   4.110  1.00  0.00    -0.360 N 
HETATM   10  C6  UNL     1      14.794 -16.376   4.838  1.00  0.00     0.125 C 
ENDROOT
TORSDOF 0
ENDMDL
MODEL 2
REMARK VINA RESULT: -4.332126102      1.735      3.797
REMARK  0 active torsions:
REMARK  status: ('A' for Active; 'I' for Inactive)
ROOT
HETATM    1  C1  UNL     1      16.301 -14.785   2.984  1.00  0.00     0.030 C 
HETATM    2  C2  UNL     1      15.930 -13.643   3.941  1.00  0.00     0.084 C 
HETATM    3  S1  UNL     1      15.003 -14.448   5.304  1.00  0.00    -0.094 SA
HETATM    4  C3  UNL     1      14.812 -16.183   4.840  1.00  0.00     0.138 C 
HETATM    5  N1  UNL     1      14.805 -17.296   5.484  1.00  0.00    -0.369 N 
ATOM      6  H1  UNL     1      14.922 -17.380   6.494  1.00  0.00     0.161 HD
HETATM    7  C4  UNL     1      14.610 -18.398   4.597  1.00  0.00     0.141 C 
HETATM    8  C5  UNL     1      14.048 -17.769   3.358  1.00  0.00     0.144 C 
HETATM    9  N2  UNL     1      14.617 -16.431   3.448  1.00  0.00    -0.360 N 
HETATM   10  C6  UNL     1      14.995 -15.391   2.517  1.00  0.00     0.125 C 
ENDROOT
TORSDOF 0
ENDMDL
MODEL 3
REMARK VINA RESULT: -4.285421507      1.766      3.313
REMARK  0 active torsions:
REMARK  status: ('A' for Active; 'I' for Inactive)
ROOT
HETATM    1  C1  UNL     1      14.602 -14.739   5.855  1.00  0.00     0.030 C 
HETATM    2  C2  UNL     1      15.525 -13.713   5.181  1.00  0.00     0.084 C 
HETATM    3  S1  UNL     1      15.535 -14.177   3.406  1.00  0.00    -0.094 SA
HETATM    4  C3  UNL     1      14.587 -15.708   3.270  1.00  0.00     0.138 C 
HETATM    5  N1  UNL     1      13.789 -16.203   2.392  1.00  0.00    -0.369 N 
ATOM      6  H1  UNL     1      13.535 -15.743   1.517  1.00  0.00     0.161 HD
HETATM    7  C4  UNL     1      13.305 -17.482   2.804  1.00  0.00     0.141 C 
HETATM    8  C5  UNL     1      14.274 -17.909   3.866  1.00  0.00     0.144 C 
HETATM    9  N2  UNL     1      14.721 -16.616   4.364  1.00  0.00    -0.360 N 
HETATM   10  C6  UNL     1      15.226 -16.096   5.616  1.00  0.00     0.125 C 
ENDROOT
TORSDOF 0
ENDMDL
MODEL 4
REMARK VINA RESULT: -4.242269575      1.421      2.435
REMARK  0 active torsions:
REMARK  status: ('A' for Active; 'I' for Inactive)
ROOT
HETATM    1  C1  UNL     1      13.057 -15.997   2.565  1.00  0.00     0.030 C 
HETATM    2  C2  UNL     1      13.323 -17.505   2.685  1.00  0.00     0.084 C 
HETATM    3  S1  UNL     1      14.374 -17.686   4.177  1.00  0.00    -0.094 SA
HETATM    4  C3  UNL     1      14.750 -16.013   4.746  1.00  0.00     0.138 C 
HETATM    5  N1  UNL     1      14.903 -15.463   5.898  1.00  0.00    -0.369 N 
ATOM      6  H1  UNL     1      14.825 -15.955   6.788  1.00  0.00     0.161 HD
HETATM    7  C4  UNL     1      15.196 -14.071   5.764  1.00  0.00     0.141 C 
HETATM    8  C5  UNL     1      15.647 -13.933   4.340  1.00  0.00     0.144 C 
HETATM    9  N2  UNL     1      14.931 -15.039   3.719  1.00  0.00    -0.360 N 
HETATM   10  C6  UNL     1      14.410 -15.338   2.403  1.00  0.00     0.125 C 
ENDROOT
TORSDOF 0
ENDMDL
MODEL 5
REMARK VINA RESULT: -4.221701099      1.620      1.787
REMARK  0 active torsions:
REMARK  status: ('A' for Active; 'I' for Inactive)
ROOT
HETATM    1  C1  UNL     1      15.242 -16.266   6.226  1.00  0.00     0.030 C 
HETATM    2  C2  UNL     1      14.522 -17.456   5.576  1.00  0.00     0.084 C 
HETATM    3  S1  UNL     1      14.839 -17.282   3.779  1.00  0.00    -0.094 SA
HETATM    4  C3  UNL     1      15.721 -15.720   3.562  1.00  0.00     0.138 C 
HETATM    5  N1  UNL     1      16.652 -15.308   2.777  1.00  0.00    -0.369 N 
ATOM      6  H1  UNL     1      17.095 -15.879   2.057  1.00  0.00     0.161 HD
HETATM    7  C4  UNL     1      16.982 -13.945   3.047  1.00  0.00     0.141 C 
HETATM    8  C5  UNL     1      15.803 -13.435   3.820  1.00  0.00     0.144 C 
HETATM    9  N2  UNL     1      15.330 -14.665   4.440  1.00  0.00    -0.360 N 
HETATM   10  C6  UNL     1      14.612 -15.019   5.645  1.00  0.00     0.125 C 
ENDROOT
TORSDOF 0
ENDMDL
