MODEL 1
REMARK VINA RESULT: -6.623616135      0.000      0.000
REMARK  2 active torsions:
REMARK  status: ('A' for Active; 'I' for Inactive)
REMARK    1  A    between atoms: N1_2  and  N2_4 
REMARK    2  A    between atoms: N3_6  and  C2_8 
ROOT
HETATM    1  C2  UNL     1      13.839  29.134  30.136  1.00  0.00     0.194 C 
HETATM    2  C3  UNL     1      14.668  28.558  31.286  1.00  0.00     0.048 C 
HETATM    3  C4  UNL     1      15.856  27.781  30.767  1.00  0.00     0.004 C 
HETATM    4  C5  UNL     1      17.022  28.684  30.436  1.00  0.00     0.000 C 
HETATM    5  C6  UNL     1      17.230  28.800  28.935  1.00  0.00     0.000 C 
HETATM    6  C7  UNL     1      17.329  30.207  28.505  1.00  0.00     0.000 C 
HETATM    7  C8  UNL     1      16.427  30.686  27.457  1.00  0.00     0.002 C 
HETATM    8  C9  UNL     1      15.030  30.193  27.448  1.00  0.00     0.019 C 
HETATM    9  C10 UNL     1      14.152  30.878  28.502  1.00  0.00     0.115 C 
HETATM   10  N4  UNL     1      14.371  30.408  29.811  1.00  0.00    -0.400 N 
ATOM     11  H4  UNL     1      14.890  30.959  30.495  1.00  0.00     0.155 HD
ENDROOT
BRANCH   1  12
HETATM   12  N3  UNL     1      12.465  29.183  30.554  1.00  0.00    -0.299 N 
HETATM   13  N2  UNL     1      12.108  29.470  31.739  1.00  0.00    -0.250 N 
ATOM     14  H2  UNL     1      12.839  29.676  32.419  1.00  0.00     0.207 HD
ATOM     15  H3  UNL     1      11.741  28.975  29.866  1.00  0.00     0.184 HD
BRANCH  13  16
HETATM   16  N1  UNL     1      10.800  29.523  32.166  1.00  0.00    -0.327 N 
HETATM   17  C1  UNL     1      10.293  28.732  33.271  1.00  0.00     0.169 C 
ATOM     18  H1  UNL     1      10.156  30.148  31.681  1.00  0.00     0.181 HD
ENDBRANCH  13  16
ENDBRANCH   1  12
TORSDOF 2
ENDMDL
MODEL 2
REMARK VINA RESULT: -5.963406349      2.258      5.452
REMARK  2 active torsions:
REMARK  status: ('A' for Active; 'I' for Inactive)
REMARK    1  A    between atoms: N1_2  and  N2_4 
REMARK    2  A    between atoms: N3_6  and  C2_8 
ROOT
HETATM    1  C2  UNL     1      15.515  28.838  30.928  1.00  0.00     0.194 C 
HETATM    2  C3  UNL     1      15.658  27.378  30.493  1.00  0.00     0.048 C 
HETATM    3  C4  UNL     1      15.023  26.444  31.496  1.00  0.00     0.004 C 
HETATM    4  C5  UNL     1      13.532  26.316  31.287  1.00  0.00     0.000 C 
HETATM    5  C6  UNL     1      12.751  27.024  32.383  1.00  0.00     0.000 C 
HETATM    6  C7  UNL     1      11.727  27.927  31.828  1.00  0.00     0.000 C 
HETATM    7  C8  UNL     1      11.732  29.331  32.241  1.00  0.00     0.002 C 
HETATM    8  C9  UNL     1      13.037  30.008  32.427  1.00  0.00     0.019 C 
HETATM    9  C10 UNL     1      13.694  30.406  31.101  1.00  0.00     0.115 C 
HETATM   10  N4  UNL     1      14.286  29.327  30.419  1.00  0.00    -0.400 N 
ATOM     11  H4  UNL     1      13.850  28.916  29.593  1.00  0.00     0.155 HD
ENDROOT
BRANCH   1  12
HETATM   12  N3  UNL     1      16.659  29.563  30.446  1.00  0.00    -0.299 N 
HETATM   13  N2  UNL     1      17.232  29.306  29.342  1.00  0.00    -0.250 N 
ATOM     14  H2  UNL     1      16.854  28.546  28.776  1.00  0.00     0.207 HD
ATOM     15  H3  UNL     1      17.030  30.322  31.019  1.00  0.00     0.184 HD
BRANCH  13  16
HETATM   16  N1  UNL     1      18.328  29.983  28.857  1.00  0.00    -0.327 N 
HETATM   17  C1  UNL     1      18.488  30.340  27.460  1.00  0.00     0.169 C 
ATOM     18  H1  UNL     1      19.064  30.248  29.513  1.00  0.00     0.181 HD
ENDBRANCH  13  16
ENDBRANCH   1  12
TORSDOF 2
ENDMDL
MODEL 3
REMARK VINA RESULT: -5.793633740      1.569      2.827
REMARK  2 active torsions:
REMARK  status: ('A' for Active; 'I' for Inactive)
REMARK    1  A    between atoms: N1_2  and  N2_4 
REMARK    2  A    between atoms: N3_6  and  C2_8 
ROOT
HETATM    1  C2  UNL     1      14.529  29.797  31.071  1.00  0.00     0.194 C 
HETATM    2  C3  UNL     1      13.580  29.773  29.871  1.00  0.00     0.048 C 
HETATM    3  C4  UNL     1      14.102  30.635  28.745  1.00  0.00     0.004 C 
HETATM    4  C5  UNL     1      15.120  29.907  27.899  1.00  0.00     0.000 C 
HETATM    5  C6  UNL     1      16.524  30.443  28.129  1.00  0.00     0.000 C 
HETATM    6  C7  UNL     1      17.483  29.359  28.411  1.00  0.00     0.000 C 
HETATM    7  C8  UNL     1      18.282  29.431  29.635  1.00  0.00     0.002 C 
HETATM    8  C9  UNL     1      17.643  29.949  30.867  1.00  0.00     0.019 C 
HETATM    9  C10 UNL     1      16.725  28.922  31.538  1.00  0.00     0.115 C 
HETATM   10  N4  UNL     1      15.485  28.765  30.892  1.00  0.00    -0.400 N 
ATOM     11  H4  UNL     1      15.283  27.946  30.319  1.00  0.00     0.155 HD
ENDROOT
BRANCH   1  12
HETATM   12  N3  UNL     1      13.745  29.643  32.266  1.00  0.00    -0.299 N 
HETATM   13  N2  UNL     1      12.734  30.365  32.533  1.00  0.00    -0.250 N 
ATOM     14  H2  UNL     1      12.475  31.086  31.861  1.00  0.00     0.207 HD
ATOM     15  H3  UNL     1      14.013  28.918  32.932  1.00  0.00     0.184 HD
BRANCH  13  16
HETATM   16  N1  UNL     1      11.967  30.239  33.669  1.00  0.00    -0.327 N 
HETATM   17  C1  UNL     1      11.583  31.367  34.497  1.00  0.00     0.169 C 
ATOM     18  H1  UNL     1      11.653  29.308  33.942  1.00  0.00     0.181 HD
ENDBRANCH  13  16
ENDBRANCH   1  12
TORSDOF 2
ENDMDL
MODEL 4
REMARK VINA RESULT: -5.648281708      2.920      6.232
REMARK  2 active torsions:
REMARK  status: ('A' for Active; 'I' for Inactive)
REMARK    1  A    between atoms: N1_2  and  N2_4 
REMARK    2  A    between atoms: N3_6  and  C2_8 
ROOT
HETATM    1  C2  UNL     1      16.822  29.640  28.351  1.00  0.00     0.194 C 
HETATM    2  C3  UNL     1      15.930  30.710  27.716  1.00  0.00     0.048 C 
HETATM    3  C4  UNL     1      14.480  30.284  27.717  1.00  0.00     0.004 C 
HETATM    4  C5  UNL     1      13.808  30.569  29.040  1.00  0.00     0.000 C 
HETATM    5  C6  UNL     1      13.539  29.290  29.817  1.00  0.00     0.000 C 
HETATM    6  C7  UNL     1      14.032  29.379  31.203  1.00  0.00     0.000 C 
HETATM    7  C8  UNL     1      14.954  28.352  31.688  1.00  0.00     0.002 C 
HETATM    8  C9  UNL     1      15.985  27.833  30.758  1.00  0.00     0.019 C 
HETATM    9  C10 UNL     1      17.165  28.795  30.581  1.00  0.00     0.115 C 
HETATM   10  N4  UNL     1      16.879  29.890  29.745  1.00  0.00    -0.400 N 
ATOM     11  H4  UNL     1      16.720  30.824  30.125  1.00  0.00     0.155 HD
ENDROOT
BRANCH   1  12
HETATM   12  N3  UNL     1      18.108  29.691  27.710  1.00  0.00    -0.299 N 
HETATM   13  N2  UNL     1      18.417  30.561  26.838  1.00  0.00    -0.250 N 
ATOM     14  H2  UNL     1      17.712  31.253  26.587  1.00  0.00     0.207 HD
ATOM     15  H3  UNL     1      18.807  28.994  27.969  1.00  0.00     0.184 HD
BRANCH  13  16
HETATM   16  N1  UNL     1      19.640  30.632  26.210  1.00  0.00    -0.327 N 
HETATM   17  C1  UNL     1      20.398  29.461  25.813  1.00  0.00     0.169 C 
ATOM     18  H1  UNL     1      20.032  31.554  26.015  1.00  0.00     0.181 HD
ENDBRANCH  13  16
ENDBRANCH   1  12
TORSDOF 2
ENDMDL
MODEL 5
REMARK VINA RESULT: -5.628024035      2.058      5.875
REMARK  2 active torsions:
REMARK  status: ('A' for Active; 'I' for Inactive)
REMARK    1  A    between atoms: N1_2  and  N2_4 
REMARK    2  A    between atoms: N3_6  and  C2_8 
ROOT
HETATM    1  C2  UNL     1      12.531  28.975  31.072  1.00  0.00     0.194 C 
HETATM    2  C3  UNL     1      12.064  27.686  30.391  1.00  0.00     0.048 C 
HETATM    3  C4  UNL     1      12.369  26.477  31.244  1.00  0.00     0.004 C 
HETATM    4  C5  UNL     1      11.315  26.249  32.302  1.00  0.00     0.000 C 
HETATM    5  C6  UNL     1      11.835  26.586  33.690  1.00  0.00     0.000 C 
HETATM    6  C7  UNL     1      10.919  27.486  34.414  1.00  0.00     0.000 C 
HETATM    7  C8  UNL     1      11.446  28.741  34.951  1.00  0.00     0.002 C 
HETATM    8  C9  UNL     1      12.448  29.485  34.153  1.00  0.00     0.019 C 
HETATM    9  C10 UNL     1      11.824  30.257  32.985  1.00  0.00     0.115 C 
HETATM   10  N4  UNL     1      11.474  29.443  31.893  1.00  0.00    -0.400 N 
ATOM     11  H4  UNL     1      10.502  29.199  31.700  1.00  0.00     0.155 HD
ENDROOT
BRANCH   1  12
HETATM   12  N3  UNL     1      12.911  29.910  30.047  1.00  0.00    -0.299 N 
HETATM   13  N2  UNL     1      13.581  29.582  29.019  1.00  0.00    -0.250 N 
ATOM     14  H2  UNL     1      13.857  28.605  28.924  1.00  0.00     0.207 HD
ATOM     15  H3  UNL     1      12.629  30.885  30.152  1.00  0.00     0.184 HD
BRANCH  13  16
HETATM   16  N1  UNL     1      13.958  30.456  28.025  1.00  0.00    -0.327 N 
HETATM   17  C1  UNL     1      15.334  30.631  27.602  1.00  0.00     0.169 C 
ATOM     18  H1  UNL     1      13.235  31.008  27.564  1.00  0.00     0.181 HD
ENDBRANCH  13  16
ENDBRANCH   1  12
TORSDOF 2
ENDMDL
