MODEL 1
REMARK VINA RESULT: -6.234264113      0.000      0.000
REMARK  3 active torsions:
REMARK  status: ('A' for Active; 'I' for Inactive)
REMARK    1  A    between atoms: C3_3  and  O1_4 
REMARK    2  A    between atoms: C8_11  and  O3_12 
REMARK    3  A    between atoms: C8_11  and  C9_14 
ROOT
HETATM    1  C1  UNL     1      12.410  29.116  31.247  1.00  0.00     0.022 C 
HETATM    2  C2  UNL     1      13.641  29.018  30.761  1.00  0.00     0.000 C 
HETATM    3  C3  UNL     1      14.391  27.760  31.023  1.00  0.00     0.154 C 
HETATM    4  C4  UNL     1      15.765  28.144  31.535  1.00  0.00     0.074 C 
HETATM    5  C5  UNL     1      16.387  29.114  30.568  1.00  0.00     0.060 C 
HETATM    6  C6  UNL     1      16.900  28.325  29.386  1.00  0.00     0.045 C 
HETATM    7  C7  UNL     1      17.654  29.644  31.266  1.00  0.00     0.045 C 
HETATM    8  O2  UNL     1      15.653  30.206  30.253  1.00  0.00    -0.341 OA
HETATM    9  C8  UNL     1      14.319  30.060  29.987  1.00  0.00     0.189 C 
ENDROOT
BRANCH   9  10
HETATM   10  O3  UNL     1      13.740  31.318  30.286  1.00  0.00    -0.362 OA
ATOM     11  H3  UNL     1      14.406  31.894  30.642  1.00  0.00     0.213 HD
ENDBRANCH   9  10
BRANCH   9  12
HETATM   12  C9  UNL     1      14.163  29.890  28.491  1.00  0.00     0.069 C 
HETATM   13  C10 UNL     1      14.973  30.881  27.692  1.00  0.00     0.011 C 
ENDBRANCH   9  12
BRANCH   3  14
HETATM   14  O1  UNL     1      13.790  26.987  32.013  1.00  0.00    -0.391 OA
ATOM     15  H1  UNL     1      14.410  26.411  32.444  1.00  0.00     0.210 HD
ENDBRANCH   3  14
TORSDOF 3
ENDMDL
MODEL 2
REMARK VINA RESULT: -6.080740728      1.644      3.374
REMARK  3 active torsions:
REMARK  status: ('A' for Active; 'I' for Inactive)
REMARK    1  A    between atoms: C3_3  and  O1_4 
REMARK    2  A    between atoms: C8_11  and  O3_12 
REMARK    3  A    between atoms: C8_11  and  C9_14 
ROOT
HETATM    1  C1  UNL     1      11.533  29.097  31.965  1.00  0.00     0.022 C 
HETATM    2  C2  UNL     1      12.676  29.131  31.292  1.00  0.00     0.000 C 
HETATM    3  C3  UNL     1      13.536  30.336  31.449  1.00  0.00     0.154 C 
HETATM    4  C4  UNL     1      13.934  30.798  30.061  1.00  0.00     0.074 C 
HETATM    5  C5  UNL     1      14.529  29.633  29.317  1.00  0.00     0.060 C 
HETATM    6  C6  UNL     1      15.946  29.445  29.807  1.00  0.00     0.045 C 
HETATM    7  C7  UNL     1      14.678  30.104  27.858  1.00  0.00     0.045 C 
HETATM    8  O2  UNL     1      13.785  28.505  29.268  1.00  0.00    -0.341 OA
HETATM    9  C8  UNL     1      13.155  28.071  30.402  1.00  0.00     0.189 C 
ENDROOT
BRANCH   9  10
HETATM   10  O3  UNL     1      12.051  27.309  29.946  1.00  0.00    -0.362 OA
ATOM     11  H3  UNL     1      12.353  26.451  29.672  1.00  0.00     0.213 HD
ENDBRANCH   9  10
BRANCH   9  12
HETATM   12  C9  UNL     1      14.071  27.082  31.090  1.00  0.00     0.069 C 
HETATM   13  C10 UNL     1      14.563  25.989  30.172  1.00  0.00     0.011 C 
ENDBRANCH   9  12
BRANCH   3  14
HETATM   14  O1  UNL     1      12.855  31.392  32.049  1.00  0.00    -0.391 OA
ATOM     15  H1  UNL     1      12.909  31.360  32.998  1.00  0.00     0.210 HD
ENDBRANCH   3  14
TORSDOF 3
ENDMDL
MODEL 3
REMARK VINA RESULT: -5.974881798      1.546      3.257
REMARK  3 active torsions:
REMARK  status: ('A' for Active; 'I' for Inactive)
REMARK    1  A    between atoms: C3_3  and  O1_4 
REMARK    2  A    between atoms: C8_11  and  O3_12 
REMARK    3  A    between atoms: C8_11  and  C9_14 
ROOT
HETATM    1  C1  UNL     1      14.252  30.550  27.763  1.00  0.00     0.022 C 
HETATM    2  C2  UNL     1      14.740  30.133  28.925  1.00  0.00     0.000 C 
HETATM    3  C3  UNL     1      16.216  29.992  29.045  1.00  0.00     0.154 C 
HETATM    4  C4  UNL     1      16.499  28.630  29.647  1.00  0.00     0.074 C 
HETATM    5  C5  UNL     1      15.699  28.488  30.914  1.00  0.00     0.060 C 
HETATM    6  C6  UNL     1      16.409  29.265  31.999  1.00  0.00     0.045 C 
HETATM    7  C7  UNL     1      15.840  27.012  31.331  1.00  0.00     0.045 C 
HETATM    8  O2  UNL     1      14.371  28.721  30.818  1.00  0.00    -0.341 OA
HETATM    9  C8  UNL     1      13.932  29.799  30.099  1.00  0.00     0.189 C 
ENDROOT
BRANCH   9  10
HETATM   10  O3  UNL     1      12.620  29.460  29.683  1.00  0.00    -0.362 OA
ATOM     11  H3  UNL     1      12.075  30.238  29.700  1.00  0.00     0.213 HD
ENDBRANCH   9  10
BRANCH   9  12
HETATM   12  C9  UNL     1      13.764  30.957  31.058  1.00  0.00     0.069 C 
HETATM   13  C10 UNL     1      12.873  30.632  32.233  1.00  0.00     0.011 C 
ENDBRANCH   9  12
BRANCH   3  14
HETATM   14  O1  UNL     1      16.850  30.028  27.805  1.00  0.00    -0.391 OA
ATOM     15  H1  UNL     1      17.011  30.917  27.510  1.00  0.00     0.210 HD
ENDBRANCH   3  14
TORSDOF 3
ENDMDL
MODEL 4
REMARK VINA RESULT: -5.684408296      1.553      4.125
REMARK  3 active torsions:
REMARK  status: ('A' for Active; 'I' for Inactive)
REMARK    1  A    between atoms: C3_3  and  O1_4 
REMARK    2  A    between atoms: C8_11  and  O3_12 
REMARK    3  A    between atoms: C8_11  and  C9_14 
ROOT
HETATM    1  C1  UNL     1      17.401  29.686  28.723  1.00  0.00     0.022 C 
HETATM    2  C2  UNL     1      16.206  29.453  29.252  1.00  0.00     0.000 C 
HETATM    3  C3  UNL     1      15.014  29.954  28.516  1.00  0.00     0.154 C 
HETATM    4  C4  UNL     1      14.135  30.685  29.511  1.00  0.00     0.074 C 
HETATM    5  C5  UNL     1      13.876  29.779  30.684  1.00  0.00     0.060 C 
HETATM    6  C6  UNL     1      12.815  28.783  30.274  1.00  0.00     0.045 C 
HETATM    7  C7  UNL     1      13.198  30.660  31.750  1.00  0.00     0.045 C 
HETATM    8  O2  UNL     1      14.964  29.243  31.284  1.00  0.00    -0.341 OA
HETATM    9  C8  UNL     1      15.974  28.740  30.510  1.00  0.00     0.189 C 
ENDROOT
BRANCH   9  10
HETATM   10  O3  UNL     1      17.137  28.822  31.316  1.00  0.00    -0.362 OA
ATOM     11  H3  UNL     1      17.158  28.082  31.910  1.00  0.00     0.213 HD
ENDBRANCH   9  10
BRANCH   9  12
HETATM   12  C9  UNL     1      15.718  27.261  30.320  1.00  0.00     0.069 C 
HETATM   13  C10 UNL     1      15.283  26.565  31.586  1.00  0.00     0.011 C 
ENDBRANCH   9  12
BRANCH   3  14
HETATM   14  O1  UNL     1      15.355  30.870  27.524  1.00  0.00    -0.391 OA
ATOM     15  H1  UNL     1      15.189  31.767  27.792  1.00  0.00     0.210 HD
ENDBRANCH   3  14
TORSDOF 3
ENDMDL
MODEL 5
REMARK VINA RESULT: -5.675536520      1.527      3.237
REMARK  3 active torsions:
REMARK  status: ('A' for Active; 'I' for Inactive)
REMARK    1  A    between atoms: C3_3  and  O1_4 
REMARK    2  A    between atoms: C8_11  and  O3_12 
REMARK    3  A    between atoms: C8_11  and  C9_14 
ROOT
HETATM    1  C1  UNL     1      11.693  28.810  31.045  1.00  0.00     0.022 C 
HETATM    2  C2  UNL     1      13.013  28.885  30.936  1.00  0.00     0.000 C 
HETATM    3  C3  UNL     1      13.672  30.150  31.362  1.00  0.00     0.154 C 
HETATM    4  C4  UNL     1      14.621  30.567  30.257  1.00  0.00     0.074 C 
HETATM    5  C5  UNL     1      15.525  29.409  29.933  1.00  0.00     0.060 C 
HETATM    6  C6  UNL     1      16.589  29.339  31.004  1.00  0.00     0.045 C 
HETATM    7  C7  UNL     1      16.281  29.815  28.654  1.00  0.00     0.045 C 
HETATM    8  O2  UNL     1      14.920  28.233  29.648  1.00  0.00    -0.341 OA
HETATM    9  C8  UNL     1      13.873  27.816  30.424  1.00  0.00     0.189 C 
ENDROOT
BRANCH   9  10
HETATM   10  O3  UNL     1      13.109  26.961  29.590  1.00  0.00    -0.362 OA
ATOM     11  H3  UNL     1      13.525  26.900  28.739  1.00  0.00     0.213 HD
ENDBRANCH   9  10
BRANCH   9  12
HETATM   12  C9  UNL     1      14.430  26.925  31.512  1.00  0.00     0.069 C 
HETATM   13  C10 UNL     1      14.864  25.570  31.008  1.00  0.00     0.011 C 
ENDBRANCH   9  12
BRANCH   3  14
HETATM   14  O1  UNL     1      12.758  31.188  31.527  1.00  0.00    -0.391 OA
ATOM     15  H1  UNL     1      13.178  32.040  31.518  1.00  0.00     0.210 HD
ENDBRANCH   3  14
TORSDOF 3
ENDMDL
