MODEL 1
REMARK VINA RESULT: -7.926956387      0.000      0.000
REMARK  3 active torsions:
REMARK  status: ('A' for Active; 'I' for Inactive)
REMARK    1  A    between atoms: C4_6  and  N1_7 
REMARK    2  A    between atoms: N1_7  and  N2_9 
REMARK    3  A    between atoms: N2_9  and  C5_10 
ROOT
HETATM    1  F1  UNL     1      48.678  50.913 -16.785  1.00  0.00    -0.206 F 
HETATM    2  C1  UNL     1      48.746  50.233 -17.948  1.00  0.00     0.119 A 
HETATM    3  C2  UNL     1      49.011  48.887 -17.886  1.00  0.00     0.068 A 
HETATM    4  C3  UNL     1      49.087  48.176 -19.048  1.00  0.00     0.066 A 
HETATM    5 CL1  UNL     1      49.424  46.447 -18.994  1.00  0.00    -0.082 Cl
HETATM    6  C4  UNL     1      48.909  48.742 -20.304  1.00  0.00     0.088 A 
HETATM    7  C11 UNL     1      48.647  50.080 -20.353  1.00  0.00     0.066 A 
HETATM    8 CL2  UNL     1      48.411  50.879 -21.873  1.00  0.00    -0.082 Cl
HETATM    9  C12 UNL     1      48.562  50.843 -19.182  1.00  0.00     0.068 A 
ENDROOT
BRANCH   6  10
HETATM   10  N1  UNL     1      49.001  47.949 -21.461  1.00  0.00    -0.300 N 
ATOM     11  H1  UNL     1      49.920  47.625 -21.762  1.00  0.00     0.182 HD
BRANCH  10  12
HETATM   12  N2  UNL     1      47.895  47.591 -22.204  1.00  0.00    -0.136 NA
BRANCH  12  13
HETATM   13  C5  UNL     1      47.308  46.326 -21.732  1.00  0.00     0.099 C 
HETATM   14  C6  UNL     1      47.290  45.361 -22.875  1.00  0.00     0.023 C 
HETATM   15  C7  UNL     1      46.198  44.332 -22.790  1.00  0.00     0.002 C 
HETATM   16  C8  UNL     1      44.858  44.904 -22.446  1.00  0.00     0.000 C 
HETATM   17  C9  UNL     1      44.907  46.416 -22.263  1.00  0.00     0.002 C 
HETATM   18  C10 UNL     1      45.950  46.655 -21.190  1.00  0.00     0.023 C 
ENDBRANCH  12  13
ENDBRANCH  10  12
ENDBRANCH   6  10
TORSDOF 3
ENDMDL
MODEL 2
REMARK VINA RESULT: -7.886793202      0.053      2.175
REMARK  3 active torsions:
REMARK  status: ('A' for Active; 'I' for Inactive)
REMARK    1  A    between atoms: C4_6  and  N1_7 
REMARK    2  A    between atoms: N1_7  and  N2_9 
REMARK    3  A    between atoms: N2_9  and  C5_10 
ROOT
HETATM    1  F1  UNL     1      48.673  51.001 -16.878  1.00  0.00    -0.206 F 
HETATM    2  C1  UNL     1      48.757  50.229 -17.981  1.00  0.00     0.119 A 
HETATM    3  C2  UNL     1      48.580  50.837 -19.200  1.00  0.00     0.068 A 
HETATM    4  C3  UNL     1      48.659  50.079 -20.331  1.00  0.00     0.066 A 
HETATM    5 CL1  UNL     1      48.435  50.836 -21.908  1.00  0.00    -0.082 Cl
HETATM    6  C4  UNL     1      48.912  48.713 -20.321  1.00  0.00     0.088 A 
HETATM    7  C11 UNL     1      49.087  48.121 -19.105  1.00  0.00     0.066 A 
HETATM    8 CL2  UNL     1      49.407  46.421 -18.988  1.00  0.00    -0.082 Cl
HETATM    9  C12 UNL     1      49.013  48.865 -17.922  1.00  0.00     0.068 A 
ENDROOT
BRANCH   6  10
HETATM   10  N1  UNL     1      48.981  47.994 -21.527  1.00  0.00    -0.300 N 
ATOM     11  H1  UNL     1      49.897  47.732 -21.891  1.00  0.00     0.182 HD
BRANCH  10  12
HETATM   12  N2  UNL     1      47.857  47.628 -22.238  1.00  0.00    -0.136 NA
BRANCH  12  13
HETATM   13  C5  UNL     1      47.298  46.355 -21.754  1.00  0.00     0.099 C 
HETATM   14  C6  UNL     1      47.288  45.383 -22.893  1.00  0.00     0.023 C 
HETATM   15  C7  UNL     1      46.216  44.335 -22.792  1.00  0.00     0.002 C 
HETATM   16  C8  UNL     1      44.869  44.884 -22.440  1.00  0.00     0.000 C 
HETATM   17  C9  UNL     1      44.891  46.397 -22.265  1.00  0.00     0.002 C 
HETATM   18  C10 UNL     1      45.939  46.661 -21.202  1.00  0.00     0.023 C 
ENDBRANCH  12  13
ENDBRANCH  10  12
ENDBRANCH   6  10
TORSDOF 3
ENDMDL
MODEL 3
REMARK VINA RESULT: -7.673067164      3.372      4.896
REMARK  3 active torsions:
REMARK  status: ('A' for Active; 'I' for Inactive)
REMARK    1  A    between atoms: C4_6  and  N1_7 
REMARK    2  A    between atoms: N1_7  and  N2_9 
REMARK    3  A    between atoms: N2_9  and  C5_10 
ROOT
HETATM    1  F1  UNL     1      49.743  52.001 -22.565  1.00  0.00    -0.206 F 
HETATM    2  C1  UNL     1      49.344  51.000 -21.755  1.00  0.00     0.119 A 
HETATM    3  C2  UNL     1      48.402  50.125 -22.237  1.00  0.00     0.068 A 
HETATM    4  C3  UNL     1      47.980  49.103 -21.437  1.00  0.00     0.066 A 
HETATM    5 CL1  UNL     1      46.772  47.967 -22.034  1.00  0.00    -0.082 Cl
HETATM    6  C4  UNL     1      48.455  48.895 -20.148  1.00  0.00     0.088 A 
HETATM    7  C11 UNL     1      49.390  49.771 -19.680  1.00  0.00     0.066 A 
HETATM    8 CL2  UNL     1      50.043  49.595 -18.084  1.00  0.00    -0.082 Cl
HETATM    9  C12 UNL     1      49.847  50.831 -20.471  1.00  0.00     0.068 A 
ENDROOT
BRANCH   6  10
HETATM   10  N1  UNL     1      47.976  47.820 -19.379  1.00  0.00    -0.300 N 
ATOM     11  H1  UNL     1      48.481  46.934 -19.406  1.00  0.00     0.182 HD
BRANCH  10  12
HETATM   12  N2  UNL     1      46.850  47.917 -18.590  1.00  0.00    -0.136 NA
BRANCH  12  13
HETATM   13  C5  UNL     1      47.195  48.055 -17.165  1.00  0.00     0.099 C 
HETATM   14  C6  UNL     1      47.327  46.684 -16.578  1.00  0.00     0.023 C 
HETATM   15  C7  UNL     1      47.027  46.616 -15.107  1.00  0.00     0.002 C 
HETATM   16  C8  UNL     1      45.773  47.334 -14.716  1.00  0.00     0.000 C 
HETATM   17  C9  UNL     1      45.078  47.975 -15.911  1.00  0.00     0.002 C 
HETATM   18  C10 UNL     1      46.116  48.885 -16.537  1.00  0.00     0.023 C 
ENDBRANCH  12  13
ENDBRANCH  10  12
ENDBRANCH   6  10
TORSDOF 3
ENDMDL
MODEL 4
REMARK VINA RESULT: -7.671590236      3.379      4.823
REMARK  3 active torsions:
REMARK  status: ('A' for Active; 'I' for Inactive)
REMARK    1  A    between atoms: C4_6  and  N1_7 
REMARK    2  A    between atoms: N1_7  and  N2_9 
REMARK    3  A    between atoms: N2_9  and  C5_10 
ROOT
HETATM    1  F1  UNL     1      49.858  51.970 -22.559  1.00  0.00    -0.206 F 
HETATM    2  C1  UNL     1      49.373  50.975 -21.788  1.00  0.00     0.119 A 
HETATM    3  C2  UNL     1      49.866  50.859 -20.511  1.00  0.00     0.068 A 
HETATM    4  C3  UNL     1      49.392  49.861 -19.711  1.00  0.00     0.066 A 
HETATM    5 CL1  UNL     1      50.009  49.691 -18.068  1.00  0.00    -0.082 Cl
HETATM    6  C4  UNL     1      48.430  48.946 -20.117  1.00  0.00     0.088 A 
HETATM    7  C11 UNL     1      47.948  49.072 -21.387  1.00  0.00     0.066 A 
HETATM    8 CL2  UNL     1      46.744  47.977 -21.987  1.00  0.00    -0.082 Cl
HETATM    9  C12 UNL     1      48.408  50.083 -22.238  1.00  0.00     0.068 A 
ENDROOT
BRANCH   6  10
HETATM   10  N1  UNL     1      47.987  47.942 -19.238  1.00  0.00    -0.300 N 
ATOM     11  H1  UNL     1      48.523  47.077 -19.172  1.00  0.00     0.182 HD
BRANCH  10  12
HETATM   12  N2  UNL     1      46.855  48.082 -18.463  1.00  0.00    -0.136 NA
BRANCH  12  13
HETATM   13  C5  UNL     1      47.183  48.137 -17.028  1.00  0.00     0.099 C 
HETATM   14  C6  UNL     1      47.356  46.735 -16.532  1.00  0.00     0.023 C 
HETATM   15  C7  UNL     1      47.045  46.561 -15.071  1.00  0.00     0.002 C 
HETATM   16  C8  UNL     1      45.764  47.210 -14.648  1.00  0.00     0.000 C 
HETATM   17  C9  UNL     1      45.059  47.904 -15.807  1.00  0.00     0.002 C 
HETATM   18  C10 UNL     1      46.071  48.887 -16.360  1.00  0.00     0.023 C 
ENDBRANCH  12  13
ENDBRANCH  10  12
ENDBRANCH   6  10
TORSDOF 3
ENDMDL
MODEL 5
REMARK VINA RESULT: -7.532242810      5.020      6.412
REMARK  3 active torsions:
REMARK  status: ('A' for Active; 'I' for Inactive)
REMARK    1  A    between atoms: C4_6  and  N1_7 
REMARK    2  A    between atoms: N1_7  and  N2_9 
REMARK    3  A    between atoms: N2_9  and  C5_10 
ROOT
HETATM    1  F1  UNL     1      41.573  46.781 -14.946  1.00  0.00    -0.206 F 
HETATM    2  C1  UNL     1      42.912  46.889 -15.070  1.00  0.00     0.119 A 
HETATM    3  C2  UNL     1      43.415  48.077 -15.540  1.00  0.00     0.068 A 
HETATM    4  C3  UNL     1      44.766  48.212 -15.677  1.00  0.00     0.066 A 
HETATM    5 CL1  UNL     1      45.436  49.728 -16.278  1.00  0.00    -0.082 Cl
HETATM    6  C4  UNL     1      45.671  47.206 -15.364  1.00  0.00     0.088 A 
HETATM    7  C11 UNL     1      45.159  46.031 -14.898  1.00  0.00     0.066 A 
HETATM    8 CL2  UNL     1      46.208  44.715 -14.480  1.00  0.00    -0.082 Cl
HETATM    9  C12 UNL     1      43.779  45.854 -14.744  1.00  0.00     0.068 A 
ENDROOT
BRANCH   6  10
HETATM   10  N1  UNL     1      47.052  47.415 -15.528  1.00  0.00    -0.300 N 
ATOM     11  H1  UNL     1      47.531  48.051 -14.890  1.00  0.00     0.182 HD
BRANCH  10  12
HETATM   12  N2  UNL     1      47.782  46.794 -16.519  1.00  0.00    -0.136 NA
BRANCH  12  13
HETATM   13  C5  UNL     1      48.076  47.710 -17.633  1.00  0.00     0.099 C 
HETATM   14  C6  UNL     1      47.033  47.515 -18.689  1.00  0.00     0.023 C 
HETATM   15  C7  UNL     1      47.504  47.837 -20.080  1.00  0.00     0.002 C 
HETATM   16  C8  UNL     1      48.838  47.246 -20.416  1.00  0.00     0.000 C 
HETATM   17  C9  UNL     1      49.419  46.441 -19.260  1.00  0.00     0.002 C 
HETATM   18  C10 UNL     1      49.471  47.403 -18.089  1.00  0.00     0.023 C 
ENDBRANCH  12  13
ENDBRANCH  10  12
ENDBRANCH   6  10
TORSDOF 3
ENDMDL
