MODEL 1
REMARK VINA RESULT: -8.071032007      0.000      0.000
REMARK  3 active torsions:
REMARK  status: ('A' for Active; 'I' for Inactive)
REMARK    1  A    between atoms: C8_9  and  C9_10 
REMARK    2  A    between atoms: C9_10  and  C10_11 
REMARK    3  A    between atoms: C10_11  and  C11_12 
ROOT
HETATM    1  C1  UNL     1      43.067  47.962 -15.785  1.00  0.00     0.050 C 
HETATM    2  C2  UNL     1      43.860  46.875 -15.141  1.00  0.00    -0.038 A 
HETATM    3  C3  UNL     1      43.208  46.017 -14.293  1.00  0.00     0.038 A 
HETATM    4  C4  UNL     1      43.910  44.979 -13.662  1.00  0.00     0.044 A 
HETATM    5  C5  UNL     1      45.276  44.784 -13.876  1.00  0.00    -0.000 A 
HETATM    6  C6  UNL     1      45.889  45.664 -14.729  1.00  0.00     0.036 A 
HETATM    7  C7  UNL     1      45.207  46.711 -15.370  1.00  0.00     0.040 A 
HETATM    8 CL1  UNL     1      46.020  47.803 -16.443  1.00  0.00    -0.084 Cl
HETATM    9  C8  UNL     1      45.976  43.638 -13.254  1.00  0.00     0.167 C 
HETATM   10  O1  UNL     1      45.251  43.030 -12.209  1.00  0.00    -0.312 OA
HETATM   11  C12 UNL     1      43.907  43.191 -11.992  1.00  0.00     0.218 C 
HETATM   12  N1  UNL     1      43.255  42.456 -11.132  1.00  0.00    -0.365 N 
ATOM     13  H11 UNL     1      42.255  42.577 -10.970  1.00  0.00     0.159 HD
ATOM     14  H12 UNL     1      43.757  41.741 -10.604  1.00  0.00     0.159 HD
HETATM   15  N2  UNL     1      43.213  44.182 -12.723  1.00  0.00    -0.322 N 
ATOM     16  H2  UNL     1      42.214  44.323 -12.573  1.00  0.00     0.169 HD
ENDROOT
BRANCH   9  17
HETATM   17  C9  UNL     1      46.336  42.536 -14.197  1.00  0.00     0.043 C 
BRANCH  17  18
HETATM   18  C10 UNL     1      45.358  41.484 -14.485  1.00  0.00     0.074 C 
BRANCH  18  19
HETATM   19  C11 UNL     1      44.812  41.483 -15.898  1.00  0.00     0.353 C 
HETATM   20  F1  UNL     1      44.713  42.777 -16.390  1.00  0.00    -0.214 F 
HETATM   21  F2  UNL     1      45.766  40.847 -16.691  1.00  0.00    -0.214 F 
ENDBRANCH  18  19
ENDBRANCH  17  18
ENDBRANCH   9  17
TORSDOF 3
ENDMDL
MODEL 2
REMARK VINA RESULT: -7.813708434      6.943      8.567
REMARK  3 active torsions:
REMARK  status: ('A' for Active; 'I' for Inactive)
REMARK    1  A    between atoms: C8_9  and  C9_10 
REMARK    2  A    between atoms: C9_10  and  C10_11 
REMARK    3  A    between atoms: C10_11  and  C11_12 
ROOT
HETATM    1  C1  UNL     1      46.425  47.115 -23.559  1.00  0.00     0.050 C 
HETATM    2  C2  UNL     1      46.848  47.454 -22.170  1.00  0.00    -0.038 A 
HETATM    3  C3  UNL     1      47.591  48.591 -21.981  1.00  0.00     0.038 A 
HETATM    4  C4  UNL     1      48.014  48.953 -20.694  1.00  0.00     0.044 A 
HETATM    5  C5  UNL     1      47.695  48.180 -19.575  1.00  0.00    -0.000 A 
HETATM    6  C6  UNL     1      46.954  47.051 -19.807  1.00  0.00     0.036 A 
HETATM    7  C7  UNL     1      46.521  46.669 -21.088  1.00  0.00     0.040 A 
HETATM    8 CL1  UNL     1      45.583  45.232 -21.339  1.00  0.00    -0.084 Cl
HETATM    9  C8  UNL     1      48.094  48.623 -18.220  1.00  0.00     0.167 C 
HETATM   10  O1  UNL     1      49.072  49.637 -18.219  1.00  0.00    -0.312 OA
HETATM   11  C12 UNL     1      49.388  50.420 -19.299  1.00  0.00     0.218 C 
HETATM   12  N1  UNL     1      50.161  51.467 -19.189  1.00  0.00    -0.365 N 
ATOM     13  H11 UNL     1      50.396  52.050 -19.993  1.00  0.00     0.159 HD
ATOM     14  H12 UNL     1      50.543  51.712 -18.275  1.00  0.00     0.159 HD
HETATM   15  N2  UNL     1      48.858  50.081 -20.566  1.00  0.00    -0.322 N 
ATOM     16  H2  UNL     1      49.084  50.648 -21.383  1.00  0.00     0.169 HD
ENDROOT
BRANCH   9  17
HETATM   17  C9  UNL     1      46.973  49.135 -17.373  1.00  0.00     0.043 C 
BRANCH  17  18
HETATM   18  C10 UNL     1      46.089  48.184 -16.695  1.00  0.00     0.074 C 
BRANCH  18  19
HETATM   19  C11 UNL     1      44.921  48.805 -15.957  1.00  0.00     0.353 C 
HETATM   20  F1  UNL     1      44.912  50.184 -16.119  1.00  0.00    -0.214 F 
HETATM   21  F2  UNL     1      43.764  48.342 -16.584  1.00  0.00    -0.214 F 
ENDBRANCH  18  19
ENDBRANCH  17  18
ENDBRANCH   9  17
TORSDOF 3
ENDMDL
MODEL 3
REMARK VINA RESULT: -7.715258209      6.907      8.436
REMARK  3 active torsions:
REMARK  status: ('A' for Active; 'I' for Inactive)
REMARK    1  A    between atoms: C8_9  and  C9_10 
REMARK    2  A    between atoms: C9_10  and  C10_11 
REMARK    3  A    between atoms: C10_11  and  C11_12 
ROOT
HETATM    1  C1  UNL     1      45.996  47.249 -23.611  1.00  0.00     0.050 C 
HETATM    2  C2  UNL     1      46.611  47.442 -22.266  1.00  0.00    -0.038 A 
HETATM    3  C3  UNL     1      47.324  48.592 -22.043  1.00  0.00     0.038 A 
HETATM    4  C4  UNL     1      47.922  48.820 -20.795  1.00  0.00     0.044 A 
HETATM    5  C5  UNL     1      47.811  47.899 -19.751  1.00  0.00    -0.000 A 
HETATM    6  C6  UNL     1      47.093  46.763 -20.017  1.00  0.00     0.036 A 
HETATM    7  C7  UNL     1      46.487  46.513 -21.259  1.00  0.00     0.040 A 
HETATM    8 CL1  UNL     1      45.585  45.062 -21.556  1.00  0.00    -0.084 Cl
HETATM    9  C8  UNL     1      48.393  48.197 -18.423  1.00  0.00     0.167 C 
HETATM   10  O1  UNL     1      49.315  49.263 -18.433  1.00  0.00    -0.312 OA
HETATM   11  C12 UNL     1      49.427  50.190 -19.437  1.00  0.00     0.218 C 
HETATM   12  N1  UNL     1      50.162  51.262 -19.305  1.00  0.00    -0.365 N 
ATOM     13  H11 UNL     1      50.246  51.952 -20.053  1.00  0.00     0.159 HD
ATOM     14  H12 UNL     1      50.668  51.417 -18.433  1.00  0.00     0.159 HD
HETATM   15  N2  UNL     1      48.726  49.975 -20.646  1.00  0.00    -0.322 N 
ATOM     16  H2  UNL     1      48.800  50.650 -21.407  1.00  0.00     0.169 HD
ENDROOT
BRANCH   9  17
HETATM   17  C9  UNL     1      47.393  48.532 -17.362  1.00  0.00     0.043 C 
BRANCH  17  18
HETATM   18  C10 UNL     1      47.086  47.545 -16.324  1.00  0.00     0.074 C 
BRANCH  18  19
HETATM   19  C11 UNL     1      45.891  47.877 -15.454  1.00  0.00     0.353 C 
HETATM   20  F1  UNL     1      46.115  47.490 -14.139  1.00  0.00    -0.214 F 
HETATM   21  F2  UNL     1      45.793  49.268 -15.429  1.00  0.00    -0.214 F 
ENDBRANCH  18  19
ENDBRANCH  17  18
ENDBRANCH   9  17
TORSDOF 3
ENDMDL
MODEL 4
REMARK VINA RESULT: -7.692987261      6.782      8.260
REMARK  3 active torsions:
REMARK  status: ('A' for Active; 'I' for Inactive)
REMARK    1  A    between atoms: C8_9  and  C9_10 
REMARK    2  A    between atoms: C9_10  and  C10_11 
REMARK    3  A    between atoms: C10_11  and  C11_12 
ROOT
HETATM    1  C1  UNL     1      45.777  47.635 -23.563  1.00  0.00     0.050 C 
HETATM    2  C2  UNL     1      46.405  47.415 -22.228  1.00  0.00    -0.038 A 
HETATM    3  C3  UNL     1      47.231  48.392 -21.736  1.00  0.00     0.038 A 
HETATM    4  C4  UNL     1      47.846  48.232 -20.485  1.00  0.00     0.044 A 
HETATM    5  C5  UNL     1      47.639  47.090 -19.709  1.00  0.00    -0.000 A 
HETATM    6  C6  UNL     1      46.808  46.138 -20.239  1.00  0.00     0.036 A 
HETATM    7  C7  UNL     1      46.184  46.276 -21.489  1.00  0.00     0.040 A 
HETATM    8 CL1  UNL     1      45.138  45.047 -22.124  1.00  0.00    -0.084 Cl
HETATM    9  C8  UNL     1      48.244  46.979 -18.362  1.00  0.00     0.167 C 
HETATM   10  O1  UNL     1      49.270  47.914 -18.122  1.00  0.00    -0.312 OA
HETATM   11  C12 UNL     1      49.480  49.051 -18.859  1.00  0.00     0.218 C 
HETATM   12  N1  UNL     1      50.321  49.975 -18.476  1.00  0.00    -0.365 N 
ATOM     13  H11 UNL     1      50.477  50.821 -19.024  1.00  0.00     0.159 HD
ATOM     14  H12 UNL     1      50.837  49.850 -17.605  1.00  0.00     0.159 HD
HETATM   15  N2  UNL     1      48.764  49.224 -20.066  1.00  0.00    -0.322 N 
ATOM     16  H2  UNL     1      48.909  50.061 -20.631  1.00  0.00     0.169 HD
ENDROOT
BRANCH   9  17
HETATM   17  C9  UNL     1      47.281  47.128 -17.228  1.00  0.00     0.043 C 
BRANCH  17  18
HETATM   18  C10 UNL     1      46.237  48.154 -17.298  1.00  0.00     0.074 C 
BRANCH  18  19
HETATM   19  C11 UNL     1      46.497  49.394 -16.469  1.00  0.00     0.353 C 
HETATM   20  F1  UNL     1      47.144  50.365 -17.221  1.00  0.00    -0.214 F 
HETATM   21  F2  UNL     1      45.248  49.929 -16.153  1.00  0.00    -0.214 F 
ENDBRANCH  18  19
ENDBRANCH  17  18
ENDBRANCH   9  17
TORSDOF 3
ENDMDL
MODEL 5
REMARK VINA RESULT: -7.588858021      7.118      8.669
REMARK  3 active torsions:
REMARK  status: ('A' for Active; 'I' for Inactive)
REMARK    1  A    between atoms: C8_9  and  C9_10 
REMARK    2  A    between atoms: C9_10  and  C10_11 
REMARK    3  A    between atoms: C10_11  and  C11_12 
ROOT
HETATM    1  C1  UNL     1      45.909  44.962 -22.189  1.00  0.00     0.050 C 
HETATM    2  C2  UNL     1      46.436  46.124 -21.417  1.00  0.00    -0.038 A 
HETATM    3  C3  UNL     1      46.695  45.947 -20.081  1.00  0.00     0.038 A 
HETATM    4  C4  UNL     1      47.192  47.009 -19.312  1.00  0.00     0.044 A 
HETATM    5  C5  UNL     1      47.440  48.265 -19.872  1.00  0.00    -0.000 A 
HETATM    6  C6  UNL     1      47.166  48.400 -21.207  1.00  0.00     0.036 A 
HETATM    7  C7  UNL     1      46.666  47.350 -21.996  1.00  0.00     0.040 A 
HETATM    8 CL1  UNL     1      46.333  47.562 -23.685  1.00  0.00    -0.084 Cl
HETATM    9  C8  UNL     1      48.031  49.347 -19.053  1.00  0.00     0.167 C 
HETATM   10  O1  UNL     1      47.975  49.104 -17.665  1.00  0.00    -0.312 OA
HETATM   11  C12 UNL     1      47.753  47.878 -17.095  1.00  0.00     0.218 C 
HETATM   12  N1  UNL     1      47.903  47.677 -15.813  1.00  0.00    -0.365 N 
ATOM     13  H11 UNL     1      47.738  46.764 -15.388  1.00  0.00     0.159 HD
ATOM     14  H12 UNL     1      48.194  48.452 -15.217  1.00  0.00     0.159 HD
HETATM   15  N2  UNL     1      47.351  46.803 -17.921  1.00  0.00    -0.322 N 
ATOM     16  H2  UNL     1      47.176  45.884 -17.516  1.00  0.00     0.169 HD
ENDROOT
BRANCH   9  17
HETATM   17  C9  UNL     1      49.462  49.654 -19.357  1.00  0.00     0.043 C 
BRANCH  17  18
HETATM   18  C10 UNL     1      49.814  50.950 -19.942  1.00  0.00     0.074 C 
BRANCH  18  19
HETATM   19  C11 UNL     1      49.760  51.009 -21.455  1.00  0.00     0.353 C 
HETATM   20  F1  UNL     1      50.016  49.761 -22.007  1.00  0.00    -0.214 F 
HETATM   21  F2  UNL     1      48.442  51.311 -21.793  1.00  0.00    -0.214 F 
ENDBRANCH  18  19
ENDBRANCH  17  18
ENDBRANCH   9  17
TORSDOF 3
ENDMDL
