MODEL 1
REMARK VINA RESULT: -6.767283059      0.000      0.000
REMARK  4 active torsions:
REMARK  status: ('A' for Active; 'I' for Inactive)
REMARK    1  A    between atoms: C8_10  and  O1_11 
REMARK    2  A    between atoms: C9_13  and  N1_14 
REMARK    3  A    between atoms: N1_14  and  C10_16 
REMARK    4  A    between atoms: C10_16  and  C11_17 
ROOT
HETATM    1  C1  UNL     1      46.839  46.886 -16.966  1.00  0.00     0.018 C 
HETATM    2  C2  UNL     1      47.239  47.539 -17.898  1.00  0.00    -0.075 C 
HETATM    3  C3  UNL     1      47.736  48.316 -19.000  1.00  0.00     0.053 A 
HETATM    4  C4  UNL     1      48.706  49.278 -18.743  1.00  0.00    -0.017 A 
HETATM    5  C5  UNL     1      49.191  49.467 -17.334  1.00  0.00     0.052 C 
HETATM    6  C6  UNL     1      49.190  50.025 -19.779  1.00  0.00     0.066 A 
HETATM    7 CL1  UNL     1      50.414  51.253 -19.502  1.00  0.00    -0.082 Cl
HETATM    8  C7  UNL     1      48.730  49.839 -21.079  1.00  0.00     0.091 A 
HETATM    9 CL2  UNL     1      49.376  50.818 -22.379  1.00  0.00    -0.079 Cl
HETATM   10  C8  UNL     1      47.771  48.889 -21.346  1.00  0.00     0.117 A 
HETATM   11  C9  UNL     1      47.287  48.139 -20.296  1.00  0.00     0.083 A 
ENDROOT
BRANCH  11  12
HETATM   12  N1  UNL     1      46.299  47.146 -20.508  1.00  0.00    -0.385 N 
ATOM     13  H1  UNL     1      45.314  47.354 -20.343  1.00  0.00     0.159 HD
BRANCH  12  14
HETATM   14  C10 UNL     1      46.702  45.836 -20.959  1.00  0.00     0.135 C 
BRANCH  14  15
HETATM   15  C11 UNL     1      45.985  45.400 -22.202  1.00  0.00     0.134 C 
HETATM   16 CL3  UNL     1      46.970  44.341 -23.220  1.00  0.00    -0.129 Cl
ENDBRANCH  14  15
ENDBRANCH  12  14
ENDBRANCH  11  12
BRANCH  10  17
HETATM   17  O1  UNL     1      47.270  48.652 -22.614  1.00  0.00    -0.357 OA
ATOM     18  H1  UNL     1      47.803  48.336 -23.334  1.00  0.00     0.218 HD
ENDBRANCH  10  17
TORSDOF 4
ENDMDL
MODEL 2
REMARK VINA RESULT: -6.638458279      2.265      3.476
REMARK  4 active torsions:
REMARK  status: ('A' for Active; 'I' for Inactive)
REMARK    1  A    between atoms: C8_10  and  O1_11 
REMARK    2  A    between atoms: C9_13  and  N1_14 
REMARK    3  A    between atoms: N1_14  and  C10_16 
REMARK    4  A    between atoms: C10_16  and  C11_17 
ROOT
HETATM    1  C1  UNL     1      48.680  51.251 -22.360  1.00  0.00     0.018 C 
HETATM    2  C2  UNL     1      48.602  50.442 -21.468  1.00  0.00    -0.075 C 
HETATM    3  C3  UNL     1      48.509  49.495 -20.391  1.00  0.00     0.053 A 
HETATM    4  C4  UNL     1      49.287  49.708 -19.258  1.00  0.00    -0.017 A 
HETATM    5  C5  UNL     1      50.187  50.910 -19.206  1.00  0.00     0.052 C 
HETATM    6  C6  UNL     1      49.210  48.818 -18.225  1.00  0.00     0.066 A 
HETATM    7 CL1  UNL     1      50.175  49.046 -16.775  1.00  0.00    -0.082 Cl
HETATM    8  C7  UNL     1      48.372  47.709 -18.288  1.00  0.00     0.091 A 
HETATM    9 CL2  UNL     1      48.304  46.592 -16.942  1.00  0.00    -0.079 Cl
HETATM   10  C8  UNL     1      47.597  47.489 -19.404  1.00  0.00     0.117 A 
HETATM   11  C9  UNL     1      47.679  48.390 -20.442  1.00  0.00     0.083 A 
ENDROOT
BRANCH  11  12
HETATM   12  N1  UNL     1      46.906  48.217 -21.617  1.00  0.00    -0.385 N 
ATOM     13  H1  UNL     1      46.051  48.756 -21.757  1.00  0.00     0.159 HD
BRANCH  12  14
HETATM   14  C10 UNL     1      47.341  47.270 -22.614  1.00  0.00     0.135 C 
BRANCH  14  15
HETATM   15  C11 UNL     1      46.302  46.237 -22.932  1.00  0.00     0.134 C 
HETATM   16 CL3  UNL     1      46.973  44.603 -23.026  1.00  0.00    -0.129 Cl
ENDBRANCH  14  15
ENDBRANCH  12  14
ENDBRANCH  11  12
BRANCH  10  17
HETATM   17  O1  UNL     1      46.743  46.407 -19.532  1.00  0.00    -0.357 OA
ATOM     18  H1  UNL     1      45.846  46.412 -19.218  1.00  0.00     0.218 HD
ENDBRANCH  10  17
TORSDOF 4
ENDMDL
MODEL 3
REMARK VINA RESULT: -6.574903027      2.778      4.972
REMARK  4 active torsions:
REMARK  status: ('A' for Active; 'I' for Inactive)
REMARK    1  A    between atoms: C8_10  and  O1_11 
REMARK    2  A    between atoms: C9_13  and  N1_14 
REMARK    3  A    between atoms: N1_14  and  C10_16 
REMARK    4  A    between atoms: C10_16  and  C11_17 
ROOT
HETATM    1  C1  UNL     1      49.650  51.398 -19.257  1.00  0.00     0.018 C 
HETATM    2  C2  UNL     1      49.007  50.422 -19.557  1.00  0.00    -0.075 C 
HETATM    3  C3  UNL     1      48.254  49.257 -19.932  1.00  0.00     0.053 A 
HETATM    4  C4  UNL     1      47.898  49.104 -21.267  1.00  0.00    -0.017 A 
HETATM    5  C5  UNL     1      48.312  50.156 -22.257  1.00  0.00     0.052 C 
HETATM    6  C6  UNL     1      47.182  48.003 -21.641  1.00  0.00     0.066 A 
HETATM    7 CL1  UNL     1      46.710  47.769 -23.317  1.00  0.00    -0.082 Cl
HETATM    8  C7  UNL     1      46.806  47.038 -20.712  1.00  0.00     0.091 A 
HETATM    9 CL2  UNL     1      45.888  45.641 -21.233  1.00  0.00    -0.079 Cl
HETATM   10  C8  UNL     1      47.152  47.177 -19.388  1.00  0.00     0.117 A 
HETATM   11  C9  UNL     1      47.874  48.291 -19.018  1.00  0.00     0.083 A 
ENDROOT
BRANCH  11  12
HETATM   12  N1  UNL     1      48.261  48.491 -17.669  1.00  0.00    -0.385 N 
ATOM     13  H1  UNL     1      49.055  47.984 -17.279  1.00  0.00     0.159 HD
BRANCH  12  14
HETATM   14  C10 UNL     1      47.517  49.419 -16.853  1.00  0.00     0.135 C 
BRANCH  14  15
HETATM   15  C11 UNL     1      46.383  48.771 -16.116  1.00  0.00     0.134 C 
HETATM   16 CL3  UNL     1      44.914  49.757 -16.124  1.00  0.00    -0.129 Cl
ENDBRANCH  14  15
ENDBRANCH  12  14
ENDBRANCH  11  12
BRANCH  10  17
HETATM   17  O1  UNL     1      46.810  46.256 -18.413  1.00  0.00    -0.357 OA
ATOM     18  H1  UNL     1      46.846  46.445 -17.483  1.00  0.00     0.218 HD
ENDBRANCH  10  17
TORSDOF 4
ENDMDL
MODEL 4
REMARK VINA RESULT: -6.557274607      2.371      3.569
REMARK  4 active torsions:
REMARK  status: ('A' for Active; 'I' for Inactive)
REMARK    1  A    between atoms: C8_10  and  O1_11 
REMARK    2  A    between atoms: C9_13  and  N1_14 
REMARK    3  A    between atoms: N1_14  and  C10_16 
REMARK    4  A    between atoms: C10_16  and  C11_17 
ROOT
HETATM    1  C1  UNL     1      49.478  50.616 -22.475  1.00  0.00     0.018 C 
HETATM    2  C2  UNL     1      49.004  50.012 -21.543  1.00  0.00    -0.075 C 
HETATM    3  C3  UNL     1      48.431  49.311 -20.428  1.00  0.00     0.053 A 
HETATM    4  C4  UNL     1      48.455  49.926 -19.181  1.00  0.00    -0.017 A 
HETATM    5  C5  UNL     1      49.075  51.288 -19.051  1.00  0.00     0.052 C 
HETATM    6  C6  UNL     1      47.915  49.274 -18.109  1.00  0.00     0.066 A 
HETATM    7 CL1  UNL     1      47.923  50.011 -16.515  1.00  0.00    -0.082 Cl
HETATM    8  C7  UNL     1      47.344  48.012 -18.246  1.00  0.00     0.091 A 
HETATM    9 CL2  UNL     1      46.663  47.210 -16.846  1.00  0.00    -0.079 Cl
HETATM   10  C8  UNL     1      47.315  47.393 -19.474  1.00  0.00     0.117 A 
HETATM   11  C9  UNL     1      47.862  48.057 -20.550  1.00  0.00     0.083 A 
ENDROOT
BRANCH  11  12
HETATM   12  N1  UNL     1      47.861  47.471 -21.841  1.00  0.00    -0.385 N 
ATOM     13  H1  UNL     1      48.672  46.950 -22.172  1.00  0.00     0.159 HD
BRANCH  12  14
HETATM   14  C10 UNL     1      46.699  47.621 -22.682  1.00  0.00     0.135 C 
BRANCH  14  15
HETATM   15  C11 UNL     1      45.870  46.374 -22.762  1.00  0.00     0.134 C 
HETATM   16 CL3  UNL     1      46.851  44.920 -22.996  1.00  0.00    -0.129 Cl
ENDBRANCH  14  15
ENDBRANCH  12  14
ENDBRANCH  11  12
BRANCH  10  17
HETATM   17  O1  UNL     1      46.764  46.140 -19.679  1.00  0.00    -0.357 OA
ATOM     18  H1  UNL     1      45.905  46.006 -20.061  1.00  0.00     0.218 HD
ENDBRANCH  10  17
TORSDOF 4
ENDMDL
MODEL 5
REMARK VINA RESULT: -6.542163565      2.530      4.238
REMARK  4 active torsions:
REMARK  status: ('A' for Active; 'I' for Inactive)
REMARK    1  A    between atoms: C8_10  and  O1_11 
REMARK    2  A    between atoms: C9_13  and  N1_14 
REMARK    3  A    between atoms: N1_14  and  C10_16 
REMARK    4  A    between atoms: C10_16  and  C11_17 
ROOT
HETATM    1  C1  UNL     1      46.052  45.656 -21.066  1.00  0.00     0.018 C 
HETATM    2  C2  UNL     1      46.751  46.593 -20.768  1.00  0.00    -0.075 C 
HETATM    3  C3  UNL     1      47.570  47.722 -20.424  1.00  0.00     0.053 A 
HETATM    4  C4  UNL     1      47.779  48.702 -21.388  1.00  0.00    -0.017 A 
HETATM    5  C5  UNL     1      47.147  48.542 -22.741  1.00  0.00     0.052 C 
HETATM    6  C6  UNL     1      48.555  49.783 -21.077  1.00  0.00     0.066 A 
HETATM    7 CL1  UNL     1      48.848  51.045 -22.263  1.00  0.00    -0.082 Cl
HETATM    8  C7  UNL     1      49.135  49.917 -19.819  1.00  0.00     0.091 A 
HETATM    9 CL2  UNL     1      50.123  51.317 -19.462  1.00  0.00    -0.079 Cl
HETATM   10  C8  UNL     1      48.935  48.954 -18.857  1.00  0.00     0.117 A 
HETATM   11  C9  UNL     1      48.152  47.867 -19.177  1.00  0.00     0.083 A 
ENDROOT
BRANCH  11  12
HETATM   12  N1  UNL     1      47.908  46.842 -18.228  1.00  0.00    -0.385 N 
ATOM     13  H1  UNL     1      48.457  45.983 -18.245  1.00  0.00     0.159 HD
BRANCH  12  14
HETATM   14  C10 UNL     1      46.875  47.029 -17.239  1.00  0.00     0.135 C 
BRANCH  14  15
HETATM   15  C11 UNL     1      47.371  46.850 -15.836  1.00  0.00     0.134 C 
HETATM   16 CL3  UNL     1      46.158  47.286 -14.625  1.00  0.00    -0.129 Cl
ENDBRANCH  14  15
ENDBRANCH  12  14
ENDBRANCH  11  12
BRANCH  10  17
HETATM   17  O1  UNL     1      49.481  49.025 -17.588  1.00  0.00    -0.357 OA
ATOM     18  H1  UNL     1      49.159  49.612 -16.914  1.00  0.00     0.218 HD
ENDBRANCH  10  17
TORSDOF 4
ENDMDL
