MODEL 1
REMARK VINA RESULT: -6.869334098      0.000      0.000
REMARK  3 active torsions:
REMARK  status: ('A' for Active; 'I' for Inactive)
REMARK    1  A    between atoms: C2_3  and  O1_4 
REMARK    2  A    between atoms: O1_4  and  C3_5 
REMARK    3  A    between atoms: C3_5  and  C4_6 
ROOT
HETATM    1  N1  UNL     1      48.731  50.458 -17.864  1.00  0.00    -0.097 NA
HETATM    2  C1  UNL     1      48.055  49.325 -18.355  1.00  0.00     0.109 A 
HETATM    3  C2  UNL     1      47.441  48.366 -17.605  1.00  0.00     0.168 A 
HETATM    4  N2  UNL     1      46.926  47.476 -18.473  1.00  0.00    -0.333 N 
ATOM      5  H2  UNL     1      46.405  46.643 -18.200  1.00  0.00     0.168 HD
HETATM    6  C5  UNL     1      47.184  47.826 -19.745  1.00  0.00     0.070 A 
HETATM    7  C6  UNL     1      46.878  47.255 -20.981  1.00  0.00     0.083 A 
HETATM    8 CL2  UNL     1      45.958  45.750 -21.029  1.00  0.00    -0.080 Cl
HETATM    9  C7  UNL     1      47.281  47.845 -22.161  1.00  0.00     0.058 A 
HETATM   10 CL3  UNL     1      46.854  47.061 -23.660  1.00  0.00    -0.082 Cl
HETATM   11  C8  UNL     1      47.994  49.013 -22.093  1.00  0.00     0.026 A 
HETATM   12  C9  UNL     1      48.304  49.589 -20.869  1.00  0.00     0.017 A 
HETATM   13  C10 UNL     1      47.900  48.996 -19.698  1.00  0.00     0.021 A 
ENDROOT
BRANCH   3  14
HETATM   14  O1  UNL     1      47.347  48.292 -16.201  1.00  0.00    -0.333 OA
BRANCH  14  15
HETATM   15  C3  UNL     1      46.068  48.236 -15.596  1.00  0.00     0.192 C 
BRANCH  15  16
HETATM   16  C4  UNL     1      45.297  49.473 -16.039  1.00  0.00     0.141 C 
HETATM   17 CL1  UNL     1      43.556  49.160 -16.087  1.00  0.00    -0.128 Cl
ENDBRANCH  15  16
ENDBRANCH  14  15
ENDBRANCH   3  14
TORSDOF 3
ENDMDL
MODEL 2
REMARK VINA RESULT: -6.822049107      2.948      5.600
REMARK  3 active torsions:
REMARK  status: ('A' for Active; 'I' for Inactive)
REMARK    1  A    between atoms: C2_3  and  O1_4 
REMARK    2  A    between atoms: O1_4  and  C3_5 
REMARK    3  A    between atoms: C3_5  and  C4_6 
ROOT
HETATM    1  N1  UNL     1      47.421  50.407 -17.319  1.00  0.00    -0.097 NA
HETATM    2  C1  UNL     1      47.067  49.172 -16.741  1.00  0.00     0.109 A 
HETATM    3  C2  UNL     1      47.906  48.124 -16.506  1.00  0.00     0.168 A 
HETATM    4  N2  UNL     1      47.157  47.157 -15.946  1.00  0.00    -0.333 N 
ATOM      5  H2  UNL     1      47.515  46.247 -15.657  1.00  0.00     0.168 HD
HETATM    6  C5  UNL     1      45.875  47.542 -15.813  1.00  0.00     0.070 A 
HETATM    7  C6  UNL     1      44.732  46.924 -15.307  1.00  0.00     0.083 A 
HETATM    8 CL2  UNL     1      44.852  45.283 -14.670  1.00  0.00    -0.080 Cl
HETATM    9  C7  UNL     1      43.514  47.572 -15.295  1.00  0.00     0.058 A 
HETATM   10 CL3  UNL     1      42.137  46.722 -14.642  1.00  0.00    -0.082 Cl
HETATM   11  C8  UNL     1      43.451  48.845 -15.795  1.00  0.00     0.026 A 
HETATM   12  C9  UNL     1      44.583  49.470 -16.302  1.00  0.00     0.017 A 
HETATM   13  C10 UNL     1      45.792  48.818 -16.311  1.00  0.00     0.021 A 
ENDROOT
BRANCH   3  14
HETATM   14  O1  UNL     1      49.285  48.038 -16.782  1.00  0.00    -0.333 OA
BRANCH  14  15
HETATM   15  C3  UNL     1      49.716  47.956 -18.128  1.00  0.00     0.192 C 
BRANCH  15  16
HETATM   16  C4  UNL     1      49.518  46.517 -18.586  1.00  0.00     0.141 C 
HETATM   17 CL1  UNL     1      49.339  46.423 -20.345  1.00  0.00    -0.128 Cl
ENDBRANCH  15  16
ENDBRANCH  14  15
ENDBRANCH   3  14
TORSDOF 3
ENDMDL
MODEL 3
REMARK VINA RESULT: -6.790326456      3.177      5.619
REMARK  3 active torsions:
REMARK  status: ('A' for Active; 'I' for Inactive)
REMARK    1  A    between atoms: C2_3  and  O1_4 
REMARK    2  A    between atoms: O1_4  and  C3_5 
REMARK    3  A    between atoms: C3_5  and  C4_6 
ROOT
HETATM    1  N1  UNL     1      49.944  48.248 -17.304  1.00  0.00    -0.097 NA
HETATM    2  C1  UNL     1      48.624  48.710 -17.140  1.00  0.00     0.109 A 
HETATM    3  C2  UNL     1      48.131  49.906 -17.569  1.00  0.00     0.168 A 
HETATM    4  N2  UNL     1      46.835  49.936 -17.206  1.00  0.00    -0.333 N 
ATOM      5  H2  UNL     1      46.203  50.713 -17.395  1.00  0.00     0.168 HD
HETATM    6  C5  UNL     1      46.480  48.810 -16.562  1.00  0.00     0.070 A 
HETATM    7  C6  UNL     1      45.287  48.359 -15.998  1.00  0.00     0.083 A 
HETATM    8 CL2  UNL     1      43.857  49.390 -16.075  1.00  0.00    -0.080 Cl
HETATM    9  C7  UNL     1      45.206  47.127 -15.384  1.00  0.00     0.058 A 
HETATM   10 CL3  UNL     1      43.672  46.646 -14.705  1.00  0.00    -0.082 Cl
HETATM   11  C8  UNL     1      46.332  46.349 -15.339  1.00  0.00     0.026 A 
HETATM   12  C9  UNL     1      47.525  46.787 -15.898  1.00  0.00     0.017 A 
HETATM   13  C10 UNL     1      47.598  48.015 -16.507  1.00  0.00     0.021 A 
ENDROOT
BRANCH   3  14
HETATM   14  O1  UNL     1      48.813  50.928 -18.258  1.00  0.00    -0.333 OA
BRANCH  14  15
HETATM   15  C3  UNL     1      48.568  51.114 -19.640  1.00  0.00     0.192 C 
BRANCH  15  16
HETATM   16  C4  UNL     1      49.786  50.597 -20.395  1.00  0.00     0.141 C 
HETATM   17 CL1  UNL     1      49.711  51.034 -22.109  1.00  0.00    -0.128 Cl
ENDBRANCH  15  16
ENDBRANCH  14  15
ENDBRANCH   3  14
TORSDOF 3
ENDMDL
MODEL 4
REMARK VINA RESULT: -6.778350681      5.052      6.933
REMARK  3 active torsions:
REMARK  status: ('A' for Active; 'I' for Inactive)
REMARK    1  A    between atoms: C2_3  and  O1_4 
REMARK    2  A    between atoms: O1_4  and  C3_5 
REMARK    3  A    between atoms: C3_5  and  C4_6 
ROOT
HETATM    1  N1  UNL     1      42.273  44.803 -14.071  1.00  0.00    -0.097 NA
HETATM    2  C1  UNL     1      43.604  45.152 -14.370  1.00  0.00     0.109 A 
HETATM    3  C2  UNL     1      44.709  44.391 -14.129  1.00  0.00     0.168 A 
HETATM    4  N2  UNL     1      45.763  45.102 -14.569  1.00  0.00    -0.333 N 
ATOM      5  H2  UNL     1      46.731  44.785 -14.521  1.00  0.00     0.168 HD
HETATM    6  C5  UNL     1      45.379  46.285 -15.080  1.00  0.00     0.070 A 
HETATM    7  C6  UNL     1      46.067  47.356 -15.650  1.00  0.00     0.083 A 
HETATM    8 CL2  UNL     1      47.824  47.272 -15.791  1.00  0.00    -0.080 Cl
HETATM    9  C7  UNL     1      45.400  48.475 -16.103  1.00  0.00     0.058 A 
HETATM   10 CL3  UNL     1      46.342  49.767 -16.802  1.00  0.00    -0.082 Cl
HETATM   11  C8  UNL     1      44.036  48.512 -15.981  1.00  0.00     0.026 A 
HETATM   12  C9  UNL     1      43.341  47.452 -15.416  1.00  0.00     0.017 A 
HETATM   13  C10 UNL     1      44.013  46.341 -14.966  1.00  0.00     0.021 A 
ENDROOT
BRANCH   3  14
HETATM   14  O1  UNL     1      44.770  43.114 -13.539  1.00  0.00    -0.333 OA
BRANCH  14  15
HETATM   15  C3  UNL     1      45.666  42.152 -14.064  1.00  0.00     0.192 C 
BRANCH  15  16
HETATM   16  C4  UNL     1      44.835  41.095 -14.781  1.00  0.00     0.141 C 
HETATM   17 CL1  UNL     1      45.569  40.643 -16.328  1.00  0.00    -0.128 Cl
ENDBRANCH  15  16
ENDBRANCH  14  15
ENDBRANCH   3  14
TORSDOF 3
ENDMDL
MODEL 5
REMARK VINA RESULT: -6.711698102      5.974      7.984
REMARK  3 active torsions:
REMARK  status: ('A' for Active; 'I' for Inactive)
REMARK    1  A    between atoms: C2_3  and  O1_4 
REMARK    2  A    between atoms: O1_4  and  C3_5 
REMARK    3  A    between atoms: C3_5  and  C4_6 
ROOT
HETATM    1  N1  UNL     1      46.504  42.714 -13.143  1.00  0.00    -0.097 NA
HETATM    2  C1  UNL     1      45.390  43.564 -13.281  1.00  0.00     0.109 A 
HETATM    3  C2  UNL     1      44.173  43.398 -12.691  1.00  0.00     0.168 A 
HETATM    4  N2  UNL     1      43.412  44.433 -13.091  1.00  0.00    -0.333 N 
ATOM      5  H2  UNL     1      42.443  44.577 -12.807  1.00  0.00     0.168 HD
HETATM    6  C5  UNL     1      44.091  45.253 -13.912  1.00  0.00     0.070 A 
HETATM    7  C6  UNL     1      43.764  46.433 -14.580  1.00  0.00     0.083 A 
HETATM    8 CL2  UNL     1      42.142  47.103 -14.396  1.00  0.00    -0.080 Cl
HETATM    9  C7  UNL     1      44.682  47.082 -15.378  1.00  0.00     0.058 A 
HETATM   10 CL3  UNL     1      44.185  48.551 -16.176  1.00  0.00    -0.082 Cl
HETATM   11  C8  UNL     1      45.933  46.539 -15.502  1.00  0.00     0.026 A 
HETATM   12  C9  UNL     1      46.270  45.365 -14.841  1.00  0.00     0.017 A 
HETATM   13  C10 UNL     1      45.350  44.724 -14.048  1.00  0.00     0.021 A 
ENDROOT
BRANCH   3  14
HETATM   14  O1  UNL     1      43.761  42.361 -11.830  1.00  0.00    -0.333 OA
BRANCH  14  15
HETATM   15  C3  UNL     1      43.207  42.689 -10.569  1.00  0.00     0.192 C 
BRANCH  15  16
HETATM   16  C4  UNL     1      44.285  43.409  -9.768  1.00  0.00     0.141 C 
HETATM   17 CL1  UNL     1      43.931  43.366  -8.034  1.00  0.00    -0.128 Cl
ENDBRANCH  15  16
ENDBRANCH  14  15
ENDBRANCH   3  14
TORSDOF 3
ENDMDL
