MODEL 1
REMARK VINA RESULT: -8.403685716      0.000      0.000
REMARK  5 active torsions:
REMARK  status: ('A' for Active; 'I' for Inactive)
REMARK    1  A    between atoms: C4_4  and  C5_5 
REMARK    2  A    between atoms: C5_5  and  C6_6 
REMARK    3  A    between atoms: C6_6  and  N1_7 
REMARK    4  A    between atoms: C6_6  and  C7_11 
REMARK    5  A    between atoms: C9_13  and  C10_14 
ROOT
HETATM    1  C6  UNL     1      47.799  48.091 -16.796  1.00  0.00     0.237 C 
ENDROOT
BRANCH   1   2
HETATM    2  C5  UNL     1      47.665  48.002 -18.284  1.00  0.00     0.079 C 
BRANCH   2   3
HETATM    3  C4  UNL     1      48.358  49.123 -18.977  1.00  0.00    -0.039 A 
HETATM    4  C3  UNL     1      48.584  49.229 -20.337  1.00  0.00     0.033 A 
HETATM    5  C2  UNL     1      49.252  50.398 -20.617  1.00  0.00     0.005 A 
HETATM    6  C1  UNL     1      49.690  50.898 -21.968  1.00  0.00     0.068 C 
HETATM    7  N3  UNL     1      49.437  51.011 -19.434  1.00  0.00    -0.369 N 
HETATM    8  C16 UNL     1      48.913  50.272 -18.430  1.00  0.00     0.095 A 
ATOM      9  H3  UNL     1      49.908  51.907 -19.311  1.00  0.00     0.165 HD
ENDBRANCH   2   3
ENDBRANCH   1   2
BRANCH   1  10
HETATM   10  N1  UNL     1      48.792  47.166 -16.278  1.00  0.00    -0.069 N 
ATOM     11  H13 UNL     1      49.303  46.711 -17.035  1.00  0.00     0.275 HD
ATOM     12  H12 UNL     1      49.565  47.663 -15.836  1.00  0.00     0.275 HD
ATOM     13  H11 UNL     1      48.385  46.479 -15.643  1.00  0.00     0.275 HD
ENDBRANCH   1  10
BRANCH   1  14
HETATM   14  C7  UNL     1      46.461  47.831 -16.199  1.00  0.00     0.040 A 
HETATM   15  C8  UNL     1      46.247  46.653 -15.500  1.00  0.00     0.036 A 
HETATM   16  C9  UNL     1      45.022  46.367 -14.929  1.00  0.00    -0.026 A 
HETATM   17  C14 UNL     1      44.038  47.311 -15.092  1.00  0.00     0.056 A 
HETATM   18 CL1  UNL     1      42.499  46.985 -14.394  1.00  0.00    -0.082 Cl
HETATM   19  C15 UNL     1      44.254  48.492 -15.791  1.00  0.00     0.112 A 
HETATM   20  N2  UNL     1      45.454  48.736 -16.332  1.00  0.00    -0.366 N 
ATOM     21  H2  UNL     1      45.613  49.602 -16.845  1.00  0.00     0.165 HD
BRANCH  16  22
HETATM   22  C10 UNL     1      44.838  45.147 -14.217  1.00  0.00    -0.022 C 
HETATM   23  C11 UNL     1      44.342  45.176 -12.822  1.00  0.00     0.019 C 
HETATM   24  C12 UNL     1      46.158  44.374 -14.201  1.00  0.00     0.019 C 
HETATM   25  C13 UNL     1      43.849  44.283 -15.010  1.00  0.00     0.019 C 
ENDBRANCH  16  22
ENDBRANCH   1  14
TORSDOF 5
ENDMDL
MODEL 2
REMARK VINA RESULT: -8.264030119      1.124      1.391
REMARK  5 active torsions:
REMARK  status: ('A' for Active; 'I' for Inactive)
REMARK    1  A    between atoms: C4_4  and  C5_5 
REMARK    2  A    between atoms: C5_5  and  C6_6 
REMARK    3  A    between atoms: C6_6  and  N1_7 
REMARK    4  A    between atoms: C6_6  and  C7_11 
REMARK    5  A    between atoms: C9_13  and  C10_14 
ROOT
HETATM    1  C6  UNL     1      47.752  47.792 -17.095  1.00  0.00     0.237 C 
ENDROOT
BRANCH   1   2
HETATM    2  C5  UNL     1      47.719  46.921 -18.312  1.00  0.00     0.079 C 
BRANCH   2   3
HETATM    3  C4  UNL     1      47.803  47.714 -19.570  1.00  0.00    -0.039 A 
HETATM    4  C3  UNL     1      48.589  48.832 -19.781  1.00  0.00     0.033 A 
HETATM    5  C2  UNL     1      48.412  49.302 -21.061  1.00  0.00     0.005 A 
HETATM    6  C1  UNL     1      49.075  50.495 -21.695  1.00  0.00     0.068 C 
HETATM    7  N3  UNL     1      47.520  48.476 -21.638  1.00  0.00    -0.369 N 
HETATM    8  C16 UNL     1      47.135  47.513 -20.770  1.00  0.00     0.095 A 
ATOM      9  H3  UNL     1      47.181  48.564 -22.595  1.00  0.00     0.165 HD
ENDBRANCH   2   3
ENDBRANCH   1   2
BRANCH   1  10
HETATM   10  N1  UNL     1      48.860  47.463 -16.215  1.00  0.00    -0.069 N 
ATOM     11  H13 UNL     1      49.573  46.923 -16.705  1.00  0.00     0.275 HD
ATOM     12  H12 UNL     1      49.411  48.291 -15.989  1.00  0.00     0.275 HD
ATOM     13  H11 UNL     1      48.552  46.985 -15.368  1.00  0.00     0.275 HD
ENDBRANCH   1  10
BRANCH   1  14
HETATM   14  C7  UNL     1      46.448  47.647 -16.392  1.00  0.00     0.040 A 
HETATM   15  C8  UNL     1      46.203  46.504 -15.645  1.00  0.00     0.036 A 
HETATM   16  C9  UNL     1      45.008  46.324 -14.976  1.00  0.00    -0.026 A 
HETATM   17  C14 UNL     1      44.086  47.334 -15.093  1.00  0.00     0.056 A 
HETATM   18 CL1  UNL     1      42.585  47.140 -14.272  1.00  0.00    -0.082 Cl
HETATM   19  C15 UNL     1      44.332  48.480 -15.840  1.00  0.00     0.112 A 
HETATM   20  N2  UNL     1      45.502  48.621 -16.476  1.00  0.00    -0.366 N 
ATOM     21  H2  UNL     1      45.684  49.460 -17.024  1.00  0.00     0.165 HD
BRANCH  16  22
HETATM   22  C10 UNL     1      44.792  45.138 -14.217  1.00  0.00    -0.022 C 
HETATM   23  C11 UNL     1      44.308  45.235 -12.821  1.00  0.00     0.019 C 
HETATM   24  C12 UNL     1      46.086  44.323 -14.182  1.00  0.00     0.019 C 
HETATM   25  C13 UNL     1      43.769  44.277 -14.970  1.00  0.00     0.019 C 
ENDBRANCH  16  22
ENDBRANCH   1  14
TORSDOF 5
ENDMDL
MODEL 3
REMARK VINA RESULT: -8.194454957      2.792      7.197
REMARK  5 active torsions:
REMARK  status: ('A' for Active; 'I' for Inactive)
REMARK    1  A    between atoms: C4_4  and  C5_5 
REMARK    2  A    between atoms: C5_5  and  C6_6 
REMARK    3  A    between atoms: C6_6  and  N1_7 
REMARK    4  A    between atoms: C6_6  and  C7_11 
REMARK    5  A    between atoms: C9_13  and  C10_14 
ROOT
HETATM    1  C6  UNL     1      47.081  47.788 -16.496  1.00  0.00     0.237 C 
ENDROOT
BRANCH   1   2
HETATM    2  C5  UNL     1      46.087  48.670 -15.805  1.00  0.00     0.079 C 
BRANCH   2   3
HETATM    3  C4  UNL     1      44.855  47.928 -15.419  1.00  0.00    -0.039 A 
HETATM    4  C3  UNL     1      44.802  46.670 -14.848  1.00  0.00     0.033 A 
HETATM    5  C2  UNL     1      43.495  46.303 -14.628  1.00  0.00     0.005 A 
HETATM    6  C1  UNL     1      42.998  45.016 -14.026  1.00  0.00     0.068 C 
HETATM    7  N3  UNL     1      42.745  47.332 -15.060  1.00  0.00    -0.369 N 
HETATM    8  C16 UNL     1      43.530  48.323 -15.541  1.00  0.00     0.095 A 
ATOM      9  H3  UNL     1      41.726  47.361 -15.031  1.00  0.00     0.165 HD
ENDBRANCH   2   3
ENDBRANCH   1   2
BRANCH   1  10
HETATM   10  N1  UNL     1      48.057  47.234 -15.574  1.00  0.00    -0.069 N 
ATOM     11  H13 UNL     1      48.597  47.972 -15.121  1.00  0.00     0.275 HD
ATOM     12  H12 UNL     1      47.604  46.836 -14.752  1.00  0.00     0.275 HD
ATOM     13  H11 UNL     1      48.669  46.553 -16.023  1.00  0.00     0.275 HD
ENDBRANCH   1  10
BRANCH   1  14
HETATM   14  C7  UNL     1      47.744  48.592 -17.560  1.00  0.00     0.040 A 
HETATM   15  C8  UNL     1      47.900  48.044 -18.825  1.00  0.00     0.036 A 
HETATM   16  C9  UNL     1      48.509  48.751 -19.843  1.00  0.00    -0.026 A 
HETATM   17  C14 UNL     1      48.945  50.014 -19.534  1.00  0.00     0.056 A 
HETATM   18 CL1  UNL     1      49.709  50.921 -20.781  1.00  0.00    -0.082 Cl
HETATM   19  C15 UNL     1      48.787  50.563 -18.266  1.00  0.00     0.112 A 
HETATM   20  N2  UNL     1      48.192  49.850 -17.302  1.00  0.00    -0.366 N 
ATOM     21  H2  UNL     1      48.075  50.250 -16.372  1.00  0.00     0.165 HD
BRANCH  16  22
HETATM   22  C10 UNL     1      48.651  48.157 -21.131  1.00  0.00    -0.022 C 
HETATM   23  C11 UNL     1      49.663  48.682 -22.076  1.00  0.00     0.019 C 
HETATM   24  C12 UNL     1      47.304  48.203 -21.855  1.00  0.00     0.019 C 
HETATM   25  C13 UNL     1      48.976  46.671 -20.932  1.00  0.00     0.019 C 
ENDBRANCH  16  22
ENDBRANCH   1  14
TORSDOF 5
ENDMDL
MODEL 4
REMARK VINA RESULT: -7.977683995      2.799      7.253
REMARK  5 active torsions:
REMARK  status: ('A' for Active; 'I' for Inactive)
REMARK    1  A    between atoms: C4_4  and  C5_5 
REMARK    2  A    between atoms: C5_5  and  C6_6 
REMARK    3  A    between atoms: C6_6  and  N1_7 
REMARK    4  A    between atoms: C6_6  and  C7_11 
REMARK    5  A    between atoms: C9_13  and  C10_14 
ROOT
HETATM    1  C6  UNL     1      46.442  47.954 -15.920  1.00  0.00     0.237 C 
ENDROOT
BRANCH   1   2
HETATM    2  C5  UNL     1      46.689  46.477 -15.917  1.00  0.00     0.079 C 
BRANCH   2   3
HETATM    3  C4  UNL     1      45.720  45.749 -15.052  1.00  0.00    -0.039 A 
HETATM    4  C3  UNL     1      45.430  46.031 -13.730  1.00  0.00     0.033 A 
HETATM    5  C2  UNL     1      44.487  45.151 -13.253  1.00  0.00     0.005 A 
HETATM    6  C1  UNL     1      43.897  45.109 -11.868  1.00  0.00     0.068 C 
HETATM    7  N3  UNL     1      44.196  44.329 -14.277  1.00  0.00    -0.369 N 
HETATM    8  C16 UNL     1      44.919  44.662 -15.371  1.00  0.00     0.095 A 
ATOM      9  H3  UNL     1      43.525  43.563 -14.234  1.00  0.00     0.165 HD
ENDBRANCH   2   3
ENDBRANCH   1   2
BRANCH   1  10
HETATM   10  N1  UNL     1      45.033  48.274 -16.076  1.00  0.00    -0.069 N 
ATOM     11  H13 UNL     1      44.550  48.264 -15.178  1.00  0.00     0.275 HD
ATOM     12  H12 UNL     1      44.903  49.256 -16.319  1.00  0.00     0.275 HD
ATOM     13  H11 UNL     1      44.572  47.664 -16.750  1.00  0.00     0.275 HD
ENDBRANCH   1  10
BRANCH   1  14
HETATM   14  C7  UNL     1      47.253  48.552 -17.015  1.00  0.00     0.040 A 
HETATM   15  C8  UNL     1      47.242  47.958 -18.269  1.00  0.00     0.036 A 
HETATM   16  C9  UNL     1      47.979  48.476 -19.316  1.00  0.00    -0.026 A 
HETATM   17  C14 UNL     1      48.715  49.603 -19.045  1.00  0.00     0.056 A 
HETATM   18 CL1  UNL     1      49.646  50.273 -20.329  1.00  0.00    -0.082 Cl
HETATM   19  C15 UNL     1      48.724  50.198 -17.789  1.00  0.00     0.112 A 
HETATM   20  N2  UNL     1      47.998  49.669 -16.797  1.00  0.00    -0.366 N 
ATOM     21  H2  UNL     1      48.004  50.104 -15.875  1.00  0.00     0.165 HD
BRANCH  16  22
HETATM   22  C10 UNL     1      47.943  47.841 -20.591  1.00  0.00    -0.022 C 
HETATM   23  C11 UNL     1      47.979  48.661 -21.823  1.00  0.00     0.019 C 
HETATM   24  C12 UNL     1      46.693  46.965 -20.678  1.00  0.00     0.019 C 
HETATM   25  C13 UNL     1      49.139  46.884 -20.674  1.00  0.00     0.019 C 
ENDBRANCH  16  22
ENDBRANCH   1  14
TORSDOF 5
ENDMDL
MODEL 5
REMARK VINA RESULT: -7.929115305      2.884      7.314
REMARK  5 active torsions:
REMARK  status: ('A' for Active; 'I' for Inactive)
REMARK    1  A    between atoms: C4_4  and  C5_5 
REMARK    2  A    between atoms: C5_5  and  C6_6 
REMARK    3  A    between atoms: C6_6  and  N1_7 
REMARK    4  A    between atoms: C6_6  and  C7_11 
REMARK    5  A    between atoms: C9_13  and  C10_14 
ROOT
HETATM    1  C6  UNL     1      47.280  47.250 -16.664  1.00  0.00     0.237 C 
ENDROOT
BRANCH   1   2
HETATM    2  C5  UNL     1      46.377  48.371 -16.250  1.00  0.00     0.079 C 
BRANCH   2   3
HETATM    3  C4  UNL     1      45.082  47.875 -15.708  1.00  0.00    -0.039 A 
HETATM    4  C3  UNL     1      44.879  46.686 -15.034  1.00  0.00     0.033 A 
HETATM    5  C2  UNL     1      43.555  46.560 -14.682  1.00  0.00     0.005 A 
HETATM    6  C1  UNL     1      42.913  45.418 -13.939  1.00  0.00     0.068 C 
HETATM    7  N3  UNL     1      42.945  47.668 -15.137  1.00  0.00    -0.369 N 
HETATM    8  C16 UNL     1      43.833  48.478 -15.757  1.00  0.00     0.095 A 
ATOM      9  H3  UNL     1      41.951  47.870 -15.030  1.00  0.00     0.165 HD
ENDBRANCH   2   3
ENDBRANCH   1   2
BRANCH   1  10
HETATM   10  N1  UNL     1      48.376  47.055 -15.730  1.00  0.00    -0.069 N 
ATOM     11  H13 UNL     1      49.061  47.807 -15.802  1.00  0.00     0.275 HD
ATOM     12  H12 UNL     1      48.072  47.203 -14.768  1.00  0.00     0.275 HD
ATOM     13  H11 UNL     1      48.818  46.142 -15.840  1.00  0.00     0.275 HD
ENDBRANCH   1  10
BRANCH   1  14
HETATM   14  C7  UNL     1      47.787  47.552 -18.030  1.00  0.00     0.040 A 
HETATM   15  C8  UNL     1      48.316  48.806 -18.296  1.00  0.00     0.036 A 
HETATM   16  C9  UNL     1      48.798  49.132 -19.549  1.00  0.00    -0.026 A 
HETATM   17  C14 UNL     1      48.724  48.151 -20.505  1.00  0.00     0.056 A 
HETATM   18 CL1  UNL     1      49.316  48.526 -22.078  1.00  0.00    -0.082 Cl
HETATM   19  C15 UNL     1      48.195  46.894 -20.238  1.00  0.00     0.112 A 
HETATM   20  N2  UNL     1      47.737  46.612 -19.012  1.00  0.00    -0.366 N 
ATOM     21  H2  UNL     1      47.349  45.691 -18.815  1.00  0.00     0.165 HD
BRANCH  16  22
HETATM   22  C10 UNL     1      49.336  50.431 -19.785  1.00  0.00    -0.022 C 
HETATM   23  C11 UNL     1      49.134  51.082 -21.100  1.00  0.00     0.019 C 
HETATM   24  C12 UNL     1      50.844  50.402 -19.532  1.00  0.00     0.019 C 
HETATM   25  C13 UNL     1      48.747  51.383 -18.736  1.00  0.00     0.019 C 
ENDBRANCH  16  22
ENDBRANCH   1  14
TORSDOF 5
ENDMDL
