MODEL 1
REMARK VINA RESULT: -9.544409955      0.000      0.000
REMARK  4 active torsions:
REMARK  status: ('A' for Active; 'I' for Inactive)
REMARK    1  A    between atoms: C4_4  and  C5_5 
REMARK    2  A    between atoms: C5_5  and  N1_6 
REMARK    3  A    between atoms: N1_6  and  C6_9 
REMARK    4  A    between atoms: C18_22  and  O1_23 
ROOT
HETATM    1  N1  UNL     1      46.995  48.928 -15.796  1.00  0.00    -0.062 N 
ATOM      2  H11 UNL     1      47.230  48.298 -15.029  1.00  0.00     0.278 HD
ATOM      3  H12 UNL     1      47.107  49.820 -15.315  1.00  0.00     0.278 HD
ENDROOT
BRANCH   1   4
HETATM    4  C5  UNL     1      45.647  48.739 -16.220  1.00  0.00     0.271 C 
BRANCH   4   5
HETATM    5  C4  UNL     1      44.967  47.651 -15.446  1.00  0.00    -0.029 A 
HETATM    6  C3  UNL     1      45.648  46.608 -14.884  1.00  0.00     0.018 A 
HETATM    7  C2  UNL     1      44.937  45.653 -14.191  1.00  0.00    -0.025 A 
HETATM    8  C1  UNL     1      45.681  44.503 -13.570  1.00  0.00     0.051 C 
HETATM    9  C18 UNL     1      43.570  45.737 -14.060  1.00  0.00     0.110 A 
HETATM   10  C17 UNL     1      42.897  46.794 -14.632  1.00  0.00     0.150 A 
HETATM   11  C16 UNL     1      43.594  47.753 -15.325  1.00  0.00     0.054 A 
HETATM   12  F1  UNL     1      41.532  46.913 -14.524  1.00  0.00    -0.203 F 
BRANCH   9  13
HETATM   13  O1  UNL     1      42.874  44.758 -13.352  1.00  0.00    -0.357 OA
ATOM     14  H1  UNL     1      42.067  44.979 -12.902  1.00  0.00     0.217 HD
ENDBRANCH   9  13
ENDBRANCH   4   5
ENDBRANCH   1   4
BRANCH   1  15
HETATM   15  C6  UNL     1      47.927  48.801 -16.866  1.00  0.00     0.127 C 
HETATM   16  C7  UNL     1      49.131  47.954 -16.524  1.00  0.00     0.043 C 
HETATM   17  C8  UNL     1      50.093  47.969 -17.690  1.00  0.00    -0.012 C 
HETATM   18  C9  UNL     1      50.468  49.353 -18.131  1.00  0.00     0.009 C 
HETATM   19  C13 UNL     1      49.442  47.167 -18.799  1.00  0.00     0.009 C 
HETATM   20  C10 UNL     1      49.201  50.071 -18.603  1.00  0.00    -0.012 C 
HETATM   21  C11 UNL     1      48.624  49.274 -19.722  1.00  0.00     0.009 C 
HETATM   22  C15 UNL     1      48.302  50.157 -17.387  1.00  0.00     0.043 C 
HETATM   23  C12 UNL     1      48.176  47.912 -19.190  1.00  0.00    -0.012 C 
HETATM   24  C14 UNL     1      47.234  48.073 -18.032  1.00  0.00     0.043 C 
ENDBRANCH   1  15
TORSDOF 4
ENDMDL
MODEL 2
REMARK VINA RESULT: -9.452602766      0.065      1.617
REMARK  4 active torsions:
REMARK  status: ('A' for Active; 'I' for Inactive)
REMARK    1  A    between atoms: C4_4  and  C5_5 
REMARK    2  A    between atoms: C5_5  and  N1_6 
REMARK    3  A    between atoms: N1_6  and  C6_9 
REMARK    4  A    between atoms: C18_22  and  O1_23 
ROOT
HETATM    1  N1  UNL     1      46.994  48.940 -15.810  1.00  0.00    -0.062 N 
ATOM      2  H11 UNL     1      47.248  48.265 -15.090  1.00  0.00     0.278 HD
ATOM      3  H12 UNL     1      47.132  49.802 -15.282  1.00  0.00     0.278 HD
ENDROOT
BRANCH   1   4
HETATM    4  C5  UNL     1      45.630  48.789 -16.197  1.00  0.00     0.271 C 
BRANCH   4   5
HETATM    5  C4  UNL     1      44.954  47.688 -15.439  1.00  0.00    -0.029 A 
HETATM    6  C3  UNL     1      45.641  46.647 -14.881  1.00  0.00     0.018 A 
HETATM    7  C2  UNL     1      44.934  45.678 -14.203  1.00  0.00    -0.025 A 
HETATM    8  C1  UNL     1      45.684  44.529 -13.587  1.00  0.00     0.051 C 
HETATM    9  C18 UNL     1      43.565  45.747 -14.081  1.00  0.00     0.110 A 
HETATM   10  C17 UNL     1      42.886  46.803 -14.649  1.00  0.00     0.150 A 
HETATM   11  C16 UNL     1      43.579  47.775 -15.328  1.00  0.00     0.054 A 
HETATM   12  F1  UNL     1      41.519  46.908 -14.550  1.00  0.00    -0.203 F 
BRANCH   9  13
HETATM   13  O1  UNL     1      42.874  44.755 -13.388  1.00  0.00    -0.357 OA
ATOM     14  H1  UNL     1      41.925  44.781 -13.339  1.00  0.00     0.217 HD
ENDBRANCH   9  13
ENDBRANCH   4   5
ENDBRANCH   1   4
BRANCH   1  15
HETATM   15  C6  UNL     1      47.887  48.868 -16.918  1.00  0.00     0.127 C 
HETATM   16  C7  UNL     1      48.390  50.216 -17.379  1.00  0.00     0.043 C 
HETATM   17  C8  UNL     1      49.245  50.029 -18.611  1.00  0.00    -0.012 C 
HETATM   18  C9  UNL     1      48.554  49.266 -19.703  1.00  0.00     0.009 C 
HETATM   19  C13 UNL     1      50.521  49.351 -18.153  1.00  0.00     0.009 C 
HETATM   20  C10 UNL     1      48.227  47.864 -19.182  1.00  0.00    -0.012 C 
HETATM   21  C11 UNL     1      49.513  47.221 -18.791  1.00  0.00     0.009 C 
HETATM   22  C15 UNL     1      47.270  48.068 -18.027  1.00  0.00     0.043 C 
HETATM   23  C12 UNL     1      50.120  47.987 -17.615  1.00  0.00    -0.012 C 
HETATM   24  C14 UNL     1      49.142  48.092 -16.481  1.00  0.00     0.043 C 
ENDBRANCH   1  15
TORSDOF 4
ENDMDL
MODEL 3
REMARK VINA RESULT: -9.426926964      0.081      1.582
REMARK  4 active torsions:
REMARK  status: ('A' for Active; 'I' for Inactive)
REMARK    1  A    between atoms: C4_4  and  C5_5 
REMARK    2  A    between atoms: C5_5  and  N1_6 
REMARK    3  A    between atoms: N1_6  and  C6_9 
REMARK    4  A    between atoms: C18_22  and  O1_23 
ROOT
HETATM    1  N1  UNL     1      47.016  48.896 -15.798  1.00  0.00    -0.062 N 
ATOM      2  H11 UNL     1      47.257  48.238 -15.058  1.00  0.00     0.278 HD
ATOM      3  H12 UNL     1      47.188  49.770 -15.301  1.00  0.00     0.278 HD
ENDROOT
BRANCH   1   4
HETATM    4  C5  UNL     1      45.644  48.776 -16.164  1.00  0.00     0.271 C 
BRANCH   4   5
HETATM    5  C4  UNL     1      44.960  47.675 -15.413  1.00  0.00    -0.029 A 
HETATM    6  C3  UNL     1      45.641  46.631 -14.853  1.00  0.00     0.018 A 
HETATM    7  C2  UNL     1      44.928  45.663 -14.182  1.00  0.00    -0.025 A 
HETATM    8  C1  UNL     1      45.671  44.511 -13.562  1.00  0.00     0.051 C 
HETATM    9  C18 UNL     1      43.558  45.734 -14.070  1.00  0.00     0.110 A 
HETATM   10  C17 UNL     1      42.885  46.792 -14.641  1.00  0.00     0.150 A 
HETATM   11  C16 UNL     1      43.585  47.764 -15.313  1.00  0.00     0.054 A 
HETATM   12  F1  UNL     1      41.518  46.899 -14.553  1.00  0.00    -0.203 F 
BRANCH   9  13
HETATM   13  O1  UNL     1      42.859  44.741 -13.384  1.00  0.00    -0.357 OA
ATOM     14  H1  UNL     1      41.981  44.502 -13.657  1.00  0.00     0.217 HD
ENDBRANCH   9  13
ENDBRANCH   4   5
ENDBRANCH   1   4
BRANCH   1  15
HETATM   15  C6  UNL     1      47.893  48.759 -16.912  1.00  0.00     0.127 C 
HETATM   16  C7  UNL     1      47.264  48.058 -18.094  1.00  0.00     0.043 C 
HETATM   17  C8  UNL     1      48.307  47.881 -19.175  1.00  0.00    -0.012 C 
HETATM   18  C9  UNL     1      49.550  47.194 -18.691  1.00  0.00     0.009 C 
HETATM   19  C13 UNL     1      48.590  49.261 -19.733  1.00  0.00     0.009 C 
HETATM   20  C10 UNL     1      50.192  48.061 -17.605  1.00  0.00    -0.012 C 
HETATM   21  C11 UNL     1      50.496  49.388 -18.213  1.00  0.00     0.009 C 
HETATM   22  C15 UNL     1      49.181  48.123 -16.479  1.00  0.00     0.043 C 
HETATM   23  C12 UNL     1      49.186  50.076 -18.597  1.00  0.00    -0.012 C 
HETATM   24  C14 UNL     1      48.261  50.164 -17.418  1.00  0.00     0.043 C 
ENDBRANCH   1  15
TORSDOF 4
ENDMDL
MODEL 4
REMARK VINA RESULT: -9.319084483      2.004      3.133
REMARK  4 active torsions:
REMARK  status: ('A' for Active; 'I' for Inactive)
REMARK    1  A    between atoms: C4_4  and  C5_5 
REMARK    2  A    between atoms: C5_5  and  N1_6 
REMARK    3  A    between atoms: N1_6  and  C6_9 
REMARK    4  A    between atoms: C18_22  and  O1_23 
ROOT
HETATM    1  N1  UNL     1      48.118  48.825 -17.989  1.00  0.00    -0.062 N 
ATOM      2  H11 UNL     1      48.757  49.614 -17.889  1.00  0.00     0.278 HD
ATOM      3  H12 UNL     1      47.232  49.315 -17.869  1.00  0.00     0.278 HD
ENDROOT
BRANCH   1   4
HETATM    4  C5  UNL     1      48.318  47.868 -16.951  1.00  0.00     0.271 C 
BRANCH   4   5
HETATM    5  C4  UNL     1      47.042  47.548 -16.234  1.00  0.00    -0.029 A 
HETATM    6  C3  UNL     1      45.924  48.327 -16.335  1.00  0.00     0.018 A 
HETATM    7  C2  UNL     1      44.795  47.955 -15.638  1.00  0.00    -0.025 A 
HETATM    8  C1  UNL     1      43.561  48.808 -15.745  1.00  0.00     0.051 C 
HETATM    9  C18 UNL     1      44.781  46.824 -14.855  1.00  0.00     0.110 A 
HETATM   10  C17 UNL     1      45.916  46.048 -14.762  1.00  0.00     0.150 A 
HETATM   11  C16 UNL     1      47.047  46.409 -15.452  1.00  0.00     0.054 A 
HETATM   12  F1  UNL     1      45.943  44.912 -13.990  1.00  0.00    -0.203 F 
BRANCH   9  13
HETATM   13  O1  UNL     1      43.626  46.468 -14.160  1.00  0.00    -0.357 OA
ATOM     14  H1  UNL     1      43.631  46.438 -13.211  1.00  0.00     0.217 HD
ENDBRANCH   9  13
ENDBRANCH   4   5
ENDBRANCH   1   4
BRANCH   1  15
HETATM   15  C6  UNL     1      48.215  48.249 -19.288  1.00  0.00     0.127 C 
HETATM   16  C7  UNL     1      49.220  47.123 -19.378  1.00  0.00     0.043 C 
HETATM   17  C8  UNL     1      49.310  46.656 -20.813  1.00  0.00    -0.012 C 
HETATM   18  C9  UNL     1      49.598  47.765 -21.781  1.00  0.00     0.009 C 
HETATM   19  C13 UNL     1      48.006  45.947 -21.120  1.00  0.00     0.009 C 
HETATM   20  C10 UNL     1      48.445  48.771 -21.722  1.00  0.00    -0.012 C 
HETATM   21  C11 UNL     1      47.195  48.041 -22.078  1.00  0.00     0.009 C 
HETATM   22  C15 UNL     1      48.451  49.320 -20.311  1.00  0.00     0.043 C 
HETATM   23  C12 UNL     1      46.906  46.989 -21.006  1.00  0.00    -0.012 C 
HETATM   24  C14 UNL     1      46.858  47.614 -19.641  1.00  0.00     0.043 C 
ENDBRANCH   1  15
TORSDOF 4
ENDMDL
MODEL 5
REMARK VINA RESULT: -9.223173793      2.018      3.472
REMARK  4 active torsions:
REMARK  status: ('A' for Active; 'I' for Inactive)
REMARK    1  A    between atoms: C4_4  and  C5_5 
REMARK    2  A    between atoms: C5_5  and  N1_6 
REMARK    3  A    between atoms: N1_6  and  C6_9 
REMARK    4  A    between atoms: C18_22  and  O1_23 
ROOT
HETATM    1  N1  UNL     1      47.991  48.844 -18.026  1.00  0.00    -0.062 N 
ATOM      2  H11 UNL     1      48.610  49.644 -17.902  1.00  0.00     0.278 HD
ATOM      3  H12 UNL     1      47.094  49.306 -17.878  1.00  0.00     0.278 HD
ENDROOT
BRANCH   1   4
HETATM    4  C5  UNL     1      48.228  47.853 -17.029  1.00  0.00     0.271 C 
BRANCH   4   5
HETATM    5  C4  UNL     1      46.978  47.505 -16.280  1.00  0.00    -0.029 A 
HETATM    6  C3  UNL     1      45.844  48.264 -16.346  1.00  0.00     0.018 A 
HETATM    7  C2  UNL     1      44.742  47.867 -15.621  1.00  0.00    -0.025 A 
HETATM    8  C1  UNL     1      43.490  48.698 -15.689  1.00  0.00     0.051 C 
HETATM    9  C18 UNL     1      44.770  46.732 -14.844  1.00  0.00     0.110 A 
HETATM   10  C17 UNL     1      45.921  45.977 -14.787  1.00  0.00     0.150 A 
HETATM   11  C16 UNL     1      47.026  46.362 -15.505  1.00  0.00     0.054 A 
HETATM   12  F1  UNL     1      45.989  44.837 -14.022  1.00  0.00    -0.203 F 
BRANCH   9  13
HETATM   13  O1  UNL     1      43.640  46.351 -14.121  1.00  0.00    -0.357 OA
ATOM     14  H1  UNL     1      42.934  46.971 -13.980  1.00  0.00     0.217 HD
ENDBRANCH   9  13
ENDBRANCH   4   5
ENDBRANCH   1   4
BRANCH   1  15
HETATM   15  C6  UNL     1      48.087  48.321 -19.348  1.00  0.00     0.127 C 
HETATM   16  C7  UNL     1      48.509  49.347 -20.375  1.00  0.00     0.043 C 
HETATM   17  C8  UNL     1      48.483  48.711 -21.747  1.00  0.00    -0.012 C 
HETATM   18  C9  UNL     1      47.167  48.071 -22.078  1.00  0.00     0.009 C 
HETATM   19  C13 UNL     1      49.632  47.724 -21.789  1.00  0.00     0.009 C 
HETATM   20  C10 UNL     1      46.909  46.946 -21.072  1.00  0.00    -0.012 C 
HETATM   21  C11 UNL     1      48.036  45.978 -21.184  1.00  0.00     0.009 C 
HETATM   22  C15 UNL     1      46.814  47.619 -19.719  1.00  0.00     0.043 C 
HETATM   23  C12 UNL     1      49.331  46.662 -20.744  1.00  0.00    -0.012 C 
HETATM   24  C14 UNL     1      49.188  47.246 -19.368  1.00  0.00     0.043 C 
ENDBRANCH   1  15
TORSDOF 4
ENDMDL
