MODEL 1
REMARK VINA RESULT: -9.314376125      0.000      0.000
REMARK  3 active torsions:
REMARK  status: ('A' for Active; 'I' for Inactive)
REMARK    1  A    between atoms: C2_2  and  C3_3 
REMARK    2  A    between atoms: C5_7  and  N2_8 
REMARK       I    between atoms: N2_8  and  C6_10 
REMARK       I    between atoms: C6_10  and  N3_12 
REMARK    3  A    between atoms: N3_12  and  C7_14 
ROOT
HETATM    1  N2  UNL     1      46.780  48.790 -16.442  1.00  0.00    -0.294 N 
ATOM      2  H2  UNL     1      46.736  49.723 -16.033  1.00  0.00     0.172 HD
HETATM    3  C6  UNL     1      47.553  48.641 -17.583  1.00  0.00     0.322 C 
HETATM    4  O1  UNL     1      47.648  47.527 -18.136  1.00  0.00    -0.247 OA
HETATM    5  N3  UNL     1      48.244  49.732 -18.142  1.00  0.00    -0.338 N 
ATOM      6  H3  UNL     1      48.165  50.642 -17.687  1.00  0.00     0.164 HD
ENDROOT
BRANCH   1   7
HETATM    7  C5  UNL     1      46.046  47.770 -15.789  1.00  0.00     0.116 A 
HETATM    8  N1  UNL     1      46.672  46.643 -15.408  1.00  0.00    -0.351 N 
HETATM    9  C4  UNL     1      46.030  45.631 -14.780  1.00  0.00     0.098 A 
ATOM     10  H1  UNL     1      47.669  46.546 -15.599  1.00  0.00     0.166 HD
HETATM   11  C3  UNL     1      44.679  45.744 -14.511  1.00  0.00    -0.021 A 
HETATM   12  C15 UNL     1      44.015  46.881 -14.887  1.00  0.00     0.051 A 
HETATM   13  C13 UNL     1      44.709  47.880 -15.522  1.00  0.00     0.004 A 
HETATM   14 CL1  UNL     1      42.292  47.090 -14.578  1.00  0.00    -0.083 Cl
HETATM   15  C14 UNL     1      44.054  49.136 -15.958  1.00  0.00     0.054 C 
BRANCH  11  16
HETATM   16  C2  UNL     1      43.970  44.636 -13.821  1.00  0.00     0.037 C 
HETATM   17  C1  UNL     1      44.155  44.830 -12.330  1.00  0.00     0.010 C 
ENDBRANCH  11  16
ENDBRANCH   1   7
BRANCH   5  18
HETATM   18  C7  UNL     1      49.067  49.625 -19.340  1.00  0.00     0.086 C 
HETATM   19  C8  UNL     1      48.236  49.131 -20.482  1.00  0.00     0.025 C 
HETATM   20  C9  UNL     1      49.054  49.071 -21.745  1.00  0.00     0.002 C 
HETATM   21  C10 UNL     1      49.600  50.458 -22.014  1.00  0.00     0.000 C 
HETATM   22  C11 UNL     1      50.530  50.824 -20.856  1.00  0.00     0.002 C 
HETATM   23  C12 UNL     1      49.638  51.006 -19.647  1.00  0.00     0.025 C 
ENDBRANCH   5  18
TORSDOF 3
ENDMDL
MODEL 2
REMARK VINA RESULT: -8.336332112      2.461      7.800
REMARK  3 active torsions:
REMARK  status: ('A' for Active; 'I' for Inactive)
REMARK    1  A    between atoms: C2_2  and  C3_3 
REMARK    2  A    between atoms: C5_7  and  N2_8 
REMARK       I    between atoms: N2_8  and  C6_10 
REMARK       I    between atoms: C6_10  and  N3_12 
REMARK    3  A    between atoms: N3_12  and  C7_14 
ROOT
HETATM    1  N2  UNL     1      48.063  47.885 -16.944  1.00  0.00    -0.294 N 
ATOM      2  H2  UNL     1      48.848  47.346 -16.580  1.00  0.00     0.172 HD
HETATM    3  C6  UNL     1      46.865  47.793 -16.253  1.00  0.00     0.322 C 
HETATM    4  O1  UNL     1      45.864  48.426 -16.645  1.00  0.00    -0.247 OA
HETATM    5  N3  UNL     1      46.749  46.993 -15.101  1.00  0.00    -0.338 N 
ATOM      6  H3  UNL     1      47.570  46.478 -14.782  1.00  0.00     0.164 HD
ENDROOT
BRANCH   1   7
HETATM    7  C5  UNL     1      48.301  48.656 -18.108  1.00  0.00     0.116 A 
HETATM    8  N1  UNL     1      48.781  49.907 -17.987  1.00  0.00    -0.351 N 
HETATM    9  C4  UNL     1      49.031  50.696 -19.057  1.00  0.00     0.098 A 
ATOM     10  H1  UNL     1      48.964  50.275 -17.054  1.00  0.00     0.166 HD
HETATM   11  C3  UNL     1      48.791  50.215 -20.330  1.00  0.00    -0.021 A 
HETATM   12  C15 UNL     1      48.302  48.944 -20.484  1.00  0.00     0.051 A 
HETATM   13  C13 UNL     1      48.064  48.182 -19.368  1.00  0.00     0.004 A 
HETATM   14 CL1  UNL     1      47.971  48.269 -22.078  1.00  0.00    -0.083 Cl
HETATM   15  C14 UNL     1      47.535  46.801 -19.460  1.00  0.00     0.054 C 
BRANCH  11  16
HETATM   16  C2  UNL     1      49.065  51.078 -21.508  1.00  0.00     0.037 C 
HETATM   17  C1  UNL     1      50.477  50.786 -21.973  1.00  0.00     0.010 C 
ENDBRANCH  11  16
ENDBRANCH   1   7
BRANCH   5  18
HETATM   18  C7  UNL     1      45.511  46.864 -14.342  1.00  0.00     0.086 C 
HETATM   19  C8  UNL     1      44.338  47.076 -15.247  1.00  0.00     0.025 C 
HETATM   20  C9  UNL     1      43.048  46.887 -14.495  1.00  0.00     0.002 C 
HETATM   21  C10 UNL     1      43.050  45.491 -13.907  1.00  0.00     0.000 C 
HETATM   22  C11 UNL     1      44.206  45.410 -12.907  1.00  0.00     0.002 C 
HETATM   23  C12 UNL     1      45.474  45.465 -13.731  1.00  0.00     0.025 C 
ENDBRANCH   5  18
TORSDOF 3
ENDMDL
MODEL 3
REMARK VINA RESULT: -8.333649966      2.761      8.025
REMARK  3 active torsions:
REMARK  status: ('A' for Active; 'I' for Inactive)
REMARK    1  A    between atoms: C2_2  and  C3_3 
REMARK    2  A    between atoms: C5_7  and  N2_8 
REMARK       I    between atoms: N2_8  and  C6_10 
REMARK       I    between atoms: C6_10  and  N3_12 
REMARK    3  A    between atoms: N3_12  and  C7_14 
ROOT
HETATM    1  N2  UNL     1      46.889  46.728 -16.998  1.00  0.00    -0.294 N 
ATOM      2  H2  UNL     1      46.639  45.963 -17.624  1.00  0.00     0.172 HD
HETATM    3  C6  UNL     1      46.590  46.561 -15.655  1.00  0.00     0.322 C 
HETATM    4  O1  UNL     1      46.867  47.458 -14.833  1.00  0.00    -0.247 OA
HETATM    5  N3  UNL     1      45.972  45.386 -15.187  1.00  0.00    -0.338 N 
ATOM      6  H3  UNL     1      45.748  44.653 -15.861  1.00  0.00     0.164 HD
ENDROOT
BRANCH   1   7
HETATM    7  C5  UNL     1      47.509  47.858 -17.583  1.00  0.00     0.116 A 
HETATM    8  N1  UNL     1      47.927  48.866 -16.797  1.00  0.00    -0.351 N 
HETATM    9  C4  UNL     1      48.527  49.973 -17.291  1.00  0.00     0.098 A 
ATOM     10  H1  UNL     1      47.786  48.794 -15.790  1.00  0.00     0.166 HD
HETATM   11  C3  UNL     1      48.728  50.089 -18.653  1.00  0.00    -0.021 A 
HETATM   12  C15 UNL     1      48.313  49.077 -19.479  1.00  0.00     0.051 A 
HETATM   13  C13 UNL     1      47.708  47.974 -18.931  1.00  0.00     0.004 A 
HETATM   14 CL1  UNL     1      48.534  49.162 -21.226  1.00  0.00    -0.083 Cl
HETATM   15  C14 UNL     1      47.234  46.845 -19.764  1.00  0.00     0.054 C 
BRANCH  11  16
HETATM   16  C2  UNL     1      49.387  51.302 -19.201  1.00  0.00     0.037 C 
HETATM   17  C1  UNL     1      50.858  50.986 -19.378  1.00  0.00     0.010 C 
ENDBRANCH  11  16
ENDBRANCH   1   7
BRANCH   5  18
HETATM   18  C7  UNL     1      45.637  45.166 -13.786  1.00  0.00     0.086 C 
HETATM   19  C8  UNL     1      44.223  45.583 -13.531  1.00  0.00     0.025 C 
HETATM   20  C9  UNL     1      43.838  45.307 -12.102  1.00  0.00     0.002 C 
HETATM   21  C10 UNL     1      44.035  43.827 -11.843  1.00  0.00     0.000 C 
HETATM   22  C11 UNL     1      45.525  43.522 -12.007  1.00  0.00     0.002 C 
HETATM   23  C12 UNL     1      45.823  43.681 -13.482  1.00  0.00     0.025 C 
ENDBRANCH   5  18
TORSDOF 3
ENDMDL
MODEL 4
REMARK VINA RESULT: -8.317402020      0.725      1.249
REMARK  3 active torsions:
REMARK  status: ('A' for Active; 'I' for Inactive)
REMARK    1  A    between atoms: C2_2  and  C3_3 
REMARK    2  A    between atoms: C5_7  and  N2_8 
REMARK       I    between atoms: N2_8  and  C6_10 
REMARK       I    between atoms: C6_10  and  N3_12 
REMARK    3  A    between atoms: N3_12  and  C7_14 
ROOT
HETATM    1  N2  UNL     1      47.301  48.016 -16.367  1.00  0.00    -0.294 N 
ATOM      2  H2  UNL     1      47.977  48.527 -15.801  1.00  0.00     0.172 HD
HETATM    3  C6  UNL     1      47.343  48.229 -17.736  1.00  0.00     0.322 C 
HETATM    4  O1  UNL     1      46.542  47.638 -18.489  1.00  0.00    -0.247 OA
HETATM    5  N3  UNL     1      48.281  49.109 -18.308  1.00  0.00    -0.338 N 
ATOM      6  H3  UNL     1      48.935  49.589 -17.691  1.00  0.00     0.164 HD
ENDROOT
BRANCH   1   7
HETATM    7  C5  UNL     1      46.409  47.157 -15.681  1.00  0.00     0.116 A 
HETATM    8  N1  UNL     1      46.833  45.947 -15.276  1.00  0.00    -0.351 N 
HETATM    9  C4  UNL     1      46.034  45.079 -14.615  1.00  0.00     0.098 A 
ATOM     10  H1  UNL     1      47.795  45.673 -15.475  1.00  0.00     0.166 HD
HETATM   11  C3  UNL     1      44.728  45.433 -14.336  1.00  0.00    -0.021 A 
HETATM   12  C15 UNL     1      44.267  46.660 -14.735  1.00  0.00     0.051 A 
HETATM   13  C13 UNL     1      45.116  47.506 -15.403  1.00  0.00     0.004 A 
HETATM   14 CL1  UNL     1      42.612  47.174 -14.415  1.00  0.00    -0.083 Cl
HETATM   15  C14 UNL     1      44.685  48.846 -15.866  1.00  0.00     0.054 C 
BRANCH  11  16
HETATM   16  C2  UNL     1      43.846  44.484 -13.610  1.00  0.00     0.037 C 
HETATM   17  C1  UNL     1      44.094  44.668 -12.127  1.00  0.00     0.010 C 
ENDBRANCH  11  16
ENDBRANCH   1   7
BRANCH   5  18
HETATM   18  C7  UNL     1      48.362  49.365 -19.741  1.00  0.00     0.086 C 
HETATM   19  C8  UNL     1      49.102  50.642 -19.985  1.00  0.00     0.025 C 
HETATM   20  C9  UNL     1      49.250  50.895 -21.462  1.00  0.00     0.002 C 
HETATM   21  C10 UNL     1      49.973  49.710 -22.068  1.00  0.00     0.000 C 
HETATM   22  C11 UNL     1      49.087  48.477 -21.877  1.00  0.00     0.002 C 
HETATM   23  C12 UNL     1      49.087  48.190 -20.392  1.00  0.00     0.025 C 
ENDBRANCH   5  18
TORSDOF 3
ENDMDL
MODEL 5
REMARK VINA RESULT: -8.097903443      2.677      7.912
REMARK  3 active torsions:
REMARK  status: ('A' for Active; 'I' for Inactive)
REMARK    1  A    between atoms: C2_2  and  C3_3 
REMARK    2  A    between atoms: C5_7  and  N2_8 
REMARK       I    between atoms: N2_8  and  C6_10 
REMARK       I    between atoms: C6_10  and  N3_12 
REMARK    3  A    between atoms: N3_12  and  C7_14 
ROOT
HETATM    1  N2  UNL     1      47.935  47.274 -17.360  1.00  0.00    -0.294 N 
ATOM      2  H2  UNL     1      48.588  46.508 -17.198  1.00  0.00     0.172 HD
HETATM    3  C6  UNL     1      46.846  47.360 -16.507  1.00  0.00     0.322 C 
HETATM    4  O1  UNL     1      46.006  48.272 -16.650  1.00  0.00    -0.247 OA
HETATM    5  N3  UNL     1      46.660  46.430 -15.467  1.00  0.00    -0.338 N 
ATOM      6  H3  UNL     1      47.349  45.687 -15.351  1.00  0.00     0.164 HD
ENDROOT
BRANCH   1   7
HETATM    7  C5  UNL     1      48.228  48.148 -18.434  1.00  0.00     0.116 A 
HETATM    8  N1  UNL     1      47.627  47.963 -19.623  1.00  0.00    -0.351 N 
HETATM    9  C4  UNL     1      47.861  48.761 -20.689  1.00  0.00     0.098 A 
ATOM     10  H1  UNL     1      46.970  47.190 -19.725  1.00  0.00     0.166 HD
HETATM   11  C3  UNL     1      48.748  49.813 -20.570  1.00  0.00    -0.021 A 
HETATM   12  C15 UNL     1      49.376  50.028 -19.371  1.00  0.00     0.051 A 
HETATM   13  C13 UNL     1      49.106  49.190 -18.319  1.00  0.00     0.004 A 
HETATM   14 CL1  UNL     1      50.521  51.350 -19.152  1.00  0.00    -0.083 Cl
HETATM   15  C14 UNL     1      49.749  49.363 -16.995  1.00  0.00     0.054 C 
BRANCH  11  16
HETATM   16  C2  UNL     1      49.009  50.694 -21.739  1.00  0.00     0.037 C 
HETATM   17  C1  UNL     1      50.481  50.584 -22.078  1.00  0.00     0.010 C 
ENDBRANCH  11  16
ENDBRANCH   1   7
BRANCH   5  18
HETATM   18  C7  UNL     1      45.531  46.479 -14.547  1.00  0.00     0.086 C 
HETATM   19  C8  UNL     1      44.267  46.723 -15.310  1.00  0.00     0.025 C 
HETATM   20  C9  UNL     1      43.079  46.717 -14.384  1.00  0.00     0.002 C 
HETATM   21  C10 UNL     1      43.050  45.379 -13.673  1.00  0.00     0.000 C 
HETATM   22  C11 UNL     1      44.320  45.275 -12.826  1.00  0.00     0.002 C 
HETATM   23  C12 UNL     1      45.464  45.145 -13.808  1.00  0.00     0.025 C 
ENDBRANCH   5  18
TORSDOF 3
ENDMDL
