MODEL 1
REMARK VINA RESULT: -7.533441919      0.000      0.000
REMARK  4 active torsions:
REMARK  status: ('A' for Active; 'I' for Inactive)
REMARK    1  A    between atoms: O1_1  and  C1_3 
REMARK    2  A    between atoms: C1_3  and  C2_4 
REMARK    3  A    between atoms: C11_15  and  N1_16 
REMARK    4  A    between atoms: N1_16  and  C12_18 
ROOT
HETATM    1  C1  UNL     1      49.000  47.469 -18.776  1.00  0.00     0.109 C 
HETATM    2  C8  UNL     1      48.865  47.519 -17.338  1.00  0.00     0.009 C 
HETATM    3  C9  UNL     1      48.150  47.237 -16.286  1.00  0.00     0.191 C 
HETATM    4  F1  UNL     1      48.594  47.572 -15.003  1.00  0.00    -0.192 F 
HETATM    5 CL1  UNL     1      46.596  46.426 -16.284  1.00  0.00    -0.051 Cl
HETATM    6  C10 UNL     1      50.243  48.204 -17.330  1.00  0.00     0.069 C 
HETATM    7  C11 UNL     1      49.914  48.670 -18.729  1.00  0.00     0.120 C 
ENDROOT
BRANCH   1   8
HETATM    8  O1  UNL     1      49.788  46.330 -19.099  1.00  0.00    -0.383 OA
ATOM      9  H1  UNL     1      50.535  46.292 -18.514  1.00  0.00     0.211 HD
ENDBRANCH   1   8
BRANCH   1  10
HETATM   10  C2  UNL     1      47.869  47.552 -19.709  1.00  0.00     0.027 C 
HETATM   11  C3  UNL     1      48.396  47.578 -21.141  1.00  0.00     0.008 C 
HETATM   12  C4  UNL     1      47.214  48.040 -21.984  1.00  0.00     0.000 C 
HETATM   13  C5  UNL     1      46.313  46.831 -22.076  1.00  0.00     0.000 C 
HETATM   14  C6  UNL     1      46.591  45.813 -21.029  1.00  0.00     0.000 C 
HETATM   15  C7  UNL     1      46.919  46.396 -19.669  1.00  0.00     0.008 C 
ENDBRANCH   1  10
BRANCH   7  16
HETATM   16  N1  UNL     1      49.388  49.978 -18.696  1.00  0.00    -0.409 N 
ATOM     17  H1  UNL     1      48.739  50.283 -17.971  1.00  0.00     0.154 HD
BRANCH  16  18
HETATM   18  C12 UNL     1      49.823  50.847 -19.740  1.00  0.00     0.077 C 
HETATM   19  C13 UNL     1      48.588  51.323 -20.495  1.00  0.00     0.024 C 
HETATM   20  C14 UNL     1      48.944  51.247 -21.956  1.00  0.00     0.002 C 
HETATM   21  C15 UNL     1      50.451  51.062 -22.005  1.00  0.00     0.002 C 
HETATM   22  C16 UNL     1      50.636  50.131 -20.792  1.00  0.00     0.024 C 
ENDBRANCH  16  18
ENDBRANCH   7  16
TORSDOF 4
ENDMDL
MODEL 2
REMARK VINA RESULT: -7.336509134      3.808      5.698
REMARK  4 active torsions:
REMARK  status: ('A' for Active; 'I' for Inactive)
REMARK    1  A    between atoms: O1_1  and  C1_3 
REMARK    2  A    between atoms: C1_3  and  C2_4 
REMARK    3  A    between atoms: C11_15  and  N1_16 
REMARK    4  A    between atoms: N1_16  and  C12_18 
ROOT
HETATM    1  C1  UNL     1      46.128  47.090 -14.883  1.00  0.00     0.109 C 
HETATM    2  C8  UNL     1      45.071  47.911 -15.430  1.00  0.00     0.009 C 
HETATM    3  C9  UNL     1      43.792  48.108 -15.580  1.00  0.00     0.191 C 
HETATM    4  F1  UNL     1      43.312  49.210 -16.295  1.00  0.00    -0.192 F 
HETATM    5 CL1  UNL     1      42.511  47.094 -14.944  1.00  0.00    -0.051 Cl
HETATM    6  C10 UNL     1      46.189  48.821 -15.966  1.00  0.00     0.069 C 
HETATM    7  C11 UNL     1      47.068  47.592 -15.952  1.00  0.00     0.120 C 
ENDROOT
BRANCH   1   8
HETATM    8  O1  UNL     1      46.526  47.662 -13.644  1.00  0.00    -0.383 OA
ATOM      9  H1  UNL     1      46.203  48.555 -13.595  1.00  0.00     0.211 HD
ENDBRANCH   1   8
BRANCH   1  10
HETATM   10  C2  UNL     1      46.037  45.632 -14.732  1.00  0.00     0.027 C 
HETATM   11  C3  UNL     1      45.302  45.303 -13.436  1.00  0.00     0.008 C 
HETATM   12  C4  UNL     1      45.592  43.828 -13.186  1.00  0.00     0.000 C 
HETATM   13  C5  UNL     1      44.705  43.093 -14.163  1.00  0.00     0.000 C 
HETATM   14  C6  UNL     1      44.229  43.950 -15.280  1.00  0.00     0.000 C 
HETATM   15  C7  UNL     1      45.266  44.923 -15.802  1.00  0.00     0.008 C 
ENDBRANCH   1  10
BRANCH   7  16
HETATM   16  N1  UNL     1      47.093  46.998 -17.230  1.00  0.00    -0.409 N 
ATOM     17  H1  UNL     1      46.329  46.415 -17.572  1.00  0.00     0.154 HD
BRANCH  16  18
HETATM   18  C12 UNL     1      48.254  47.265 -18.014  1.00  0.00     0.077 C 
HETATM   19  C13 UNL     1      49.396  47.597 -17.061  1.00  0.00     0.024 C 
HETATM   20  C14 UNL     1      50.105  48.779 -17.665  1.00  0.00     0.002 C 
HETATM   21  C15 UNL     1      49.588  48.889 -19.090  1.00  0.00     0.002 C 
HETATM   22  C16 UNL     1      48.113  48.510 -18.857  1.00  0.00     0.024 C 
ENDBRANCH  16  18
ENDBRANCH   7  16
TORSDOF 4
ENDMDL
MODEL 3
REMARK VINA RESULT: -7.216196655      3.752      5.625
REMARK  4 active torsions:
REMARK  status: ('A' for Active; 'I' for Inactive)
REMARK    1  A    between atoms: O1_1  and  C1_3 
REMARK    2  A    between atoms: C1_3  and  C2_4 
REMARK    3  A    between atoms: C11_15  and  N1_16 
REMARK    4  A    between atoms: N1_16  and  C12_18 
ROOT
HETATM    1  C1  UNL     1      46.216  47.129 -15.070  1.00  0.00     0.109 C 
HETATM    2  C8  UNL     1      45.171  47.992 -15.573  1.00  0.00     0.009 C 
HETATM    3  C9  UNL     1      43.897  48.257 -15.642  1.00  0.00     0.191 C 
HETATM    4  F1  UNL     1      43.430  49.362 -16.361  1.00  0.00    -0.192 F 
HETATM    5 CL1  UNL     1      42.610  47.339 -14.885  1.00  0.00    -0.051 Cl
HETATM    6  C10 UNL     1      46.297  48.820 -16.215  1.00  0.00     0.069 C 
HETATM    7  C11 UNL     1      47.105  47.543 -16.218  1.00  0.00     0.120 C 
ENDROOT
BRANCH   1   8
HETATM    8  O1  UNL     1      46.731  47.716 -13.882  1.00  0.00    -0.383 OA
ATOM      9  H1  UNL     1      47.354  47.119 -13.484  1.00  0.00     0.211 HD
ENDBRANCH   1   8
BRANCH   1  10
HETATM   10  C2  UNL     1      46.057  45.684 -14.863  1.00  0.00     0.027 C 
HETATM   11  C3  UNL     1      45.377  45.439 -13.519  1.00  0.00     0.008 C 
HETATM   12  C4  UNL     1      45.600  43.959 -13.232  1.00  0.00     0.000 C 
HETATM   13  C5  UNL     1      44.624  43.243 -14.134  1.00  0.00     0.000 C 
HETATM   14  C6  UNL     1      44.134  44.088 -15.254  1.00  0.00     0.000 C 
HETATM   15  C7  UNL     1      45.192  44.984 -15.864  1.00  0.00     0.008 C 
ENDBRANCH   1  10
BRANCH   7  16
HETATM   16  N1  UNL     1      47.009  46.909 -17.473  1.00  0.00    -0.409 N 
ATOM     17  H1  UNL     1      46.340  46.161 -17.653  1.00  0.00     0.154 HD
BRANCH  16  18
HETATM   18  C12 UNL     1      47.906  47.381 -18.476  1.00  0.00     0.077 C 
HETATM   19  C13 UNL     1      47.128  47.499 -19.781  1.00  0.00     0.024 C 
HETATM   20  C14 UNL     1      48.028  46.937 -20.849  1.00  0.00     0.002 C 
HETATM   21  C15 UNL     1      49.404  46.826 -20.214  1.00  0.00     0.002 C 
HETATM   22  C16 UNL     1      48.998  46.387 -18.794  1.00  0.00     0.024 C 
ENDBRANCH  16  18
ENDBRANCH   7  16
TORSDOF 4
ENDMDL
MODEL 4
REMARK VINA RESULT: -7.074515073      2.687      4.240
REMARK  4 active torsions:
REMARK  status: ('A' for Active; 'I' for Inactive)
REMARK    1  A    between atoms: O1_1  and  C1_3 
REMARK    2  A    between atoms: C1_3  and  C2_4 
REMARK    3  A    between atoms: C11_15  and  N1_16 
REMARK    4  A    between atoms: N1_16  and  C12_18 
ROOT
HETATM    1  C1  UNL     1      48.785  48.360 -18.713  1.00  0.00     0.109 C 
HETATM    2  C8  UNL     1      49.627  47.248 -18.332  1.00  0.00     0.009 C 
HETATM    3  C9  UNL     1      50.228  46.147 -18.685  1.00  0.00     0.191 C 
HETATM    4  F1  UNL     1      50.994  45.420 -17.769  1.00  0.00    -0.192 F 
HETATM    5 CL1  UNL     1      50.196  45.422 -20.281  1.00  0.00    -0.051 Cl
HETATM    6  C10 UNL     1      49.683  47.895 -16.937  1.00  0.00     0.069 C 
HETATM    7  C11 UNL     1      48.349  48.518 -17.276  1.00  0.00     0.120 C 
ENDROOT
BRANCH   1   8
HETATM    8  O1  UNL     1      49.632  49.455 -19.038  1.00  0.00    -0.383 OA
ATOM      9  H1  UNL     1      50.446  49.374 -18.555  1.00  0.00     0.211 HD
ENDBRANCH   1   8
BRANCH   1  10
HETATM   10  C2  UNL     1      47.710  48.270 -19.710  1.00  0.00     0.027 C 
HETATM   11  C3  UNL     1      48.322  48.202 -21.106  1.00  0.00     0.008 C 
HETATM   12  C4  UNL     1      47.165  48.493 -22.054  1.00  0.00     0.000 C 
HETATM   13  C5  UNL     1      46.359  47.216 -22.078  1.00  0.00     0.000 C 
HETATM   14  C6  UNL     1      46.642  46.324 -20.922  1.00  0.00     0.000 C 
HETATM   15  C7  UNL     1      46.844  47.054 -19.610  1.00  0.00     0.008 C 
ENDBRANCH   1  10
BRANCH   7  16
HETATM   16  N1  UNL     1      47.300  47.738 -16.748  1.00  0.00    -0.409 N 
ATOM     17  H1  UNL     1      47.193  46.749 -16.974  1.00  0.00     0.154 HD
BRANCH  16  18
HETATM   18  C12 UNL     1      46.399  48.420 -15.879  1.00  0.00     0.077 C 
HETATM   19  C13 UNL     1      45.143  47.566 -15.745  1.00  0.00     0.024 C 
HETATM   20  C14 UNL     1      43.984  48.521 -15.841  1.00  0.00     0.002 C 
HETATM   21  C15 UNL     1      44.579  49.911 -15.686  1.00  0.00     0.002 C 
HETATM   22  C16 UNL     1      45.893  49.716 -16.465  1.00  0.00     0.024 C 
ENDBRANCH  16  18
ENDBRANCH   7  16
TORSDOF 4
ENDMDL
MODEL 5
REMARK VINA RESULT: -6.973608237      7.449     10.336
REMARK  4 active torsions:
REMARK  status: ('A' for Active; 'I' for Inactive)
REMARK    1  A    between atoms: O1_1  and  C1_3 
REMARK    2  A    between atoms: C1_3  and  C2_4 
REMARK    3  A    between atoms: C11_15  and  N1_16 
REMARK    4  A    between atoms: N1_16  and  C12_18 
ROOT
HETATM    1  C1  UNL     1      44.037  44.011 -13.372  1.00  0.00     0.109 C 
HETATM    2  C8  UNL     1      44.798  45.233 -13.507  1.00  0.00     0.009 C 
HETATM    3  C9  UNL     1      45.662  45.925 -14.194  1.00  0.00     0.191 C 
HETATM    4  F1  UNL     1      46.058  47.200 -13.778  1.00  0.00    -0.192 F 
HETATM    5 CL1  UNL     1      46.436  45.420 -15.683  1.00  0.00    -0.051 Cl
HETATM    6  C10 UNL     1      44.099  45.695 -12.217  1.00  0.00     0.069 C 
HETATM    7  C11 UNL     1      43.958  44.229 -11.880  1.00  0.00     0.120 C 
ENDROOT
BRANCH   1   8
HETATM    8  O1  UNL     1      42.745  44.241 -13.919  1.00  0.00    -0.383 OA
ATOM      9  H1  UNL     1      42.745  45.072 -14.380  1.00  0.00     0.211 HD
ENDBRANCH   1   8
BRANCH   1  10
HETATM   10  C2  UNL     1      44.518  42.695 -13.810  1.00  0.00     0.027 C 
HETATM   11  C3  UNL     1      44.357  42.577 -15.323  1.00  0.00     0.008 C 
HETATM   12  C4  UNL     1      44.514  41.090 -15.618  1.00  0.00     0.000 C 
HETATM   13  C5  UNL     1      45.999  40.833 -15.509  1.00  0.00     0.000 C 
HETATM   14  C6  UNL     1      46.722  41.891 -14.756  1.00  0.00     0.000 C 
HETATM   15  C7  UNL     1      45.968  42.424 -13.555  1.00  0.00     0.008 C 
ENDBRANCH   1  10
BRANCH   7  16
HETATM   16  N1  UNL     1      45.007  43.820 -11.033  1.00  0.00    -0.409 N 
ATOM     17  H1  UNL     1      45.987  43.926 -11.294  1.00  0.00     0.154 HD
BRANCH  16  18
HETATM   18  C12 UNL     1      44.611  43.250  -9.787  1.00  0.00     0.077 C 
HETATM   19  C13 UNL     1      43.336  42.448 -10.025  1.00  0.00     0.024 C 
HETATM   20  C14 UNL     1      42.425  42.773  -8.871  1.00  0.00     0.002 C 
HETATM   21  C15 UNL     1      43.298  43.466  -7.838  1.00  0.00     0.002 C 
HETATM   22  C16 UNL     1      44.199  44.292  -8.775  1.00  0.00     0.024 C 
ENDBRANCH  16  18
ENDBRANCH   7  16
TORSDOF 4
ENDMDL
