MODEL 1
REMARK VINA RESULT: -7.189413881      0.000      0.000
REMARK  8 active torsions:
REMARK  status: ('A' for Active; 'I' for Inactive)
REMARK    1  A    between atoms: C3_3  and  C4_4 
REMARK    2  A    between atoms: C6_7  and  C7_8 
REMARK    3  A    between atoms: C7_8  and  C8_16 
REMARK    4  A    between atoms: N1_9  and  N2_11 
REMARK    5  A    between atoms: C11_21  and  N5_22 
REMARK    6  A    between atoms: N5_22  and  C12_24 
REMARK    7  A    between atoms: C12_24  and  C13_25 
REMARK    8  A    between atoms: C13_25  and  N6_26 
ROOT
HETATM    1  C8  UNL     1     -32.965  14.048 -19.783  1.00  0.00     0.117 A 
HETATM    2  C9  UNL     1     -33.392  14.723 -18.717  1.00  0.00     0.129 A 
HETATM    3  N4  UNL     1     -33.895  15.991 -19.070  1.00  0.00    -0.343 N 
ATOM      4  H4  UNL     1     -34.279  16.698 -18.444  1.00  0.00     0.167 HD
HETATM    5  C10 UNL     1     -33.753  16.077 -20.484  1.00  0.00     0.163 A 
HETATM    6  C11 UNL     1     -34.104  17.113 -21.246  1.00  0.00     0.140 C 
HETATM    7  O1  UNL     1     -33.188  14.878 -20.861  1.00  0.00    -0.289 OA
ENDROOT
BRANCH   1   8
HETATM    8  C7  UNL     1     -32.385  12.728 -19.861  1.00  0.00     0.068 C 
HETATM    9  N1  UNL     1     -31.162  12.632 -20.211  1.00  0.00    -0.288 N 
ATOM     10  H1  UNL     1     -30.743  11.704 -20.270  1.00  0.00     0.188 HD
BRANCH   8  11
HETATM   11  C6  UNL     1     -33.124  11.491 -19.563  1.00  0.00     0.064 A 
HETATM   12  C4  UNL     1     -33.319  10.884 -18.267  1.00  0.00     0.034 A 
HETATM   13  C5  UNL     1     -32.504  10.165 -19.399  1.00  0.00     0.077 A 
HETATM   14 BR1  UNL     1     -30.632   9.923 -19.162  1.00  0.00    -0.090 Br
BRANCH  12  15
HETATM   15  C3  UNL     1     -32.514  10.988 -17.058  1.00  0.00    -0.024 C 
HETATM   16  C2  UNL     1     -32.709  10.483 -15.875  1.00  0.00    -0.034 C 
HETATM   17  C1  UNL     1     -31.779  10.683 -14.733  1.00  0.00     0.036 C 
ENDBRANCH  12  15
ENDBRANCH   8  11
BRANCH   9  18
HETATM   18  N2  UNL     1     -30.373  13.738 -20.515  1.00  0.00    -0.249 N 
HETATM   19  N3  UNL     1     -29.308  14.028 -19.893  1.00  0.00    -0.331 N 
ATOM     20  H32 UNL     1     -29.028  13.409 -19.132  1.00  0.00     0.178 HD
ATOM     21  H31 UNL     1     -28.730  14.838 -20.116  1.00  0.00     0.178 HD
ATOM     22  H2  UNL     1     -30.668  14.346 -21.279  1.00  0.00     0.207 HD
ENDBRANCH   9  18
ENDBRANCH   1   8
BRANCH   6  23
HETATM   23  N5  UNL     1     -34.672  18.260 -20.675  1.00  0.00    -0.394 N 
ATOM     24  H5  UNL     1     -34.157  18.734 -19.932  1.00  0.00     0.159 HD
BRANCH  23  25
HETATM   25  C12 UNL     1     -35.951  18.809 -21.081  1.00  0.00     0.147 C 
BRANCH  25  26
HETATM   26  C13 UNL     1     -37.085  17.952 -20.589  1.00  0.00     0.255 C 
BRANCH  26  27
HETATM   27  N6  UNL     1     -38.031  17.598 -21.586  1.00  0.00    -0.077 N 
HETATM   28  C14 UNL     1     -37.850  18.394 -22.810  1.00  0.00     0.271 C 
HETATM   29  C15 UNL     1     -39.408  17.865 -21.158  1.00  0.00     0.271 C 
HETATM   30  C16 UNL     1     -37.981  16.212 -21.992  1.00  0.00     0.271 C 
ENDBRANCH  26  27
ENDBRANCH  25  26
ENDBRANCH  23  25
ENDBRANCH   6  23
TORSDOF 8
ENDMDL
MODEL 2
REMARK VINA RESULT: -6.998988969      1.525      1.958
REMARK  8 active torsions:
REMARK  status: ('A' for Active; 'I' for Inactive)
REMARK    1  A    between atoms: C3_3  and  C4_4 
REMARK    2  A    between atoms: C6_7  and  C7_8 
REMARK    3  A    between atoms: C7_8  and  C8_16 
REMARK    4  A    between atoms: N1_9  and  N2_11 
REMARK    5  A    between atoms: C11_21  and  N5_22 
REMARK    6  A    between atoms: N5_22  and  C12_24 
REMARK    7  A    between atoms: C12_24  and  C13_25 
REMARK    8  A    between atoms: C13_25  and  N6_26 
ROOT
HETATM    1  C8  UNL     1     -34.016  13.428 -20.017  1.00  0.00     0.117 A 
HETATM    2  C9  UNL     1     -34.919  13.658 -19.067  1.00  0.00     0.129 A 
HETATM    3  N4  UNL     1     -35.816  14.681 -19.436  1.00  0.00    -0.343 N 
ATOM      4  H4  UNL     1     -36.595  15.045 -18.888  1.00  0.00     0.167 HD
HETATM    5  C10 UNL     1     -35.404  15.098 -20.733  1.00  0.00     0.163 A 
HETATM    6  C11 UNL     1     -35.975  16.052 -21.469  1.00  0.00     0.140 C 
HETATM    7  O1  UNL     1     -34.315  14.309 -21.035  1.00  0.00    -0.289 OA
ENDROOT
BRANCH   1   8
HETATM    8  C7  UNL     1     -32.931  12.475 -20.041  1.00  0.00     0.068 C 
HETATM    9  N1  UNL     1     -31.786  12.881 -20.431  1.00  0.00    -0.288 N 
ATOM     10  H1  UNL     1     -31.014  12.215 -20.452  1.00  0.00     0.188 HD
BRANCH   8  11
HETATM   11  C6  UNL     1     -33.073  11.066 -19.643  1.00  0.00     0.064 A 
HETATM   12  C4  UNL     1     -33.130  10.542 -18.298  1.00  0.00     0.034 A 
HETATM   13  C5  UNL     1     -31.952  10.184 -19.271  1.00  0.00     0.077 A 
HETATM   14 BR1  UNL     1     -30.210  10.841 -18.874  1.00  0.00    -0.090 Br
BRANCH  12  15
HETATM   15  C3  UNL     1     -32.605  11.097 -17.058  1.00  0.00    -0.024 C 
HETATM   16  C2  UNL     1     -32.561  10.584 -15.863  1.00  0.00    -0.034 C 
HETATM   17  C1  UNL     1     -31.985  11.288 -14.689  1.00  0.00     0.036 C 
ENDBRANCH  12  15
ENDBRANCH   8  11
BRANCH   9  18
HETATM   18  N2  UNL     1     -31.545  14.193 -20.829  1.00  0.00    -0.249 N 
HETATM   19  N3  UNL     1     -31.273  15.129 -20.020  1.00  0.00    -0.331 N 
ATOM     20  H32 UNL     1     -31.232  14.892 -19.028  1.00  0.00     0.178 HD
ATOM     21  H31 UNL     1     -31.095  16.090 -20.311  1.00  0.00     0.178 HD
ATOM     22  H2  UNL     1     -31.589  14.411 -21.825  1.00  0.00     0.207 HD
ENDBRANCH   9  18
ENDBRANCH   1   8
BRANCH   6  23
HETATM   23  N5  UNL     1     -37.089  16.754 -20.987  1.00  0.00    -0.394 N 
ATOM     24  H5  UNL     1     -37.051  17.127 -20.038  1.00  0.00     0.159 HD
BRANCH  23  25
HETATM   25  C12 UNL     1     -38.292  16.979 -21.765  1.00  0.00     0.147 C 
BRANCH  25  26
HETATM   26  C13 UNL     1     -37.955  17.373 -23.176  1.00  0.00     0.255 C 
BRANCH  26  27
HETATM   27  N6  UNL     1     -38.124  18.754 -23.458  1.00  0.00    -0.077 N 
HETATM   28  C14 UNL     1     -38.684  18.968 -24.801  1.00  0.00     0.271 C 
HETATM   29  C15 UNL     1     -36.847  19.475 -23.458  1.00  0.00     0.271 C 
HETATM   30  C16 UNL     1     -38.996  19.449 -22.538  1.00  0.00     0.271 C 
ENDBRANCH  26  27
ENDBRANCH  25  26
ENDBRANCH  23  25
ENDBRANCH   6  23
TORSDOF 8
ENDMDL
MODEL 3
REMARK VINA RESULT: -6.974463723      3.295      8.195
REMARK  8 active torsions:
REMARK  status: ('A' for Active; 'I' for Inactive)
REMARK    1  A    between atoms: C3_3  and  C4_4 
REMARK    2  A    between atoms: C6_7  and  C7_8 
REMARK    3  A    between atoms: C7_8  and  C8_16 
REMARK    4  A    between atoms: N1_9  and  N2_11 
REMARK    5  A    between atoms: C11_21  and  N5_22 
REMARK    6  A    between atoms: N5_22  and  C12_24 
REMARK    7  A    between atoms: C12_24  and  C13_25 
REMARK    8  A    between atoms: C13_25  and  N6_26 
ROOT
HETATM    1  C8  UNL     1     -33.477  12.758 -19.041  1.00  0.00     0.117 A 
HETATM    2  C9  UNL     1     -33.760  11.483 -18.781  1.00  0.00     0.129 A 
HETATM    3  N4  UNL     1     -33.000  10.989 -17.702  1.00  0.00    -0.343 N 
ATOM      4  H4  UNL     1     -33.028  10.050 -17.307  1.00  0.00     0.167 HD
HETATM    5  C10 UNL     1     -32.186  12.078 -17.280  1.00  0.00     0.163 A 
HETATM    6  C11 UNL     1     -31.305  12.058 -16.280  1.00  0.00     0.140 C 
HETATM    7  O1  UNL     1     -32.515  13.119 -18.123  1.00  0.00    -0.289 OA
ENDROOT
BRANCH   1   8
HETATM    8  C7  UNL     1     -34.024  13.631 -20.053  1.00  0.00     0.068 C 
HETATM    9  N1  UNL     1     -33.316  13.863 -21.089  1.00  0.00    -0.288 N 
ATOM     10  H1  UNL     1     -33.693  14.480 -21.809  1.00  0.00     0.188 HD
BRANCH   8  11
HETATM   11  C6  UNL     1     -35.347  14.267 -19.956  1.00  0.00     0.064 A 
HETATM   12  C4  UNL     1     -35.888  15.288 -20.823  1.00  0.00     0.034 A 
HETATM   13  C5  UNL     1     -35.607  15.562 -19.303  1.00  0.00     0.077 A 
HETATM   14 BR1  UNL     1     -34.221  16.780 -18.837  1.00  0.00    -0.090 Br
BRANCH  12  15
HETATM   15  C3  UNL     1     -35.200  16.273 -21.645  1.00  0.00    -0.024 C 
HETATM   16  C2  UNL     1     -35.537  16.791 -22.790  1.00  0.00    -0.034 C 
HETATM   17  C1  UNL     1     -34.716  17.799 -23.508  1.00  0.00     0.036 C 
ENDBRANCH  12  15
ENDBRANCH   8  11
BRANCH   9  18
HETATM   18  N2  UNL     1     -32.051  13.313 -21.279  1.00  0.00    -0.249 N 
HETATM   19  N3  UNL     1     -30.982  13.869 -20.886  1.00  0.00    -0.331 N 
ATOM     20  H32 UNL     1     -31.070  14.764 -20.406  1.00  0.00     0.178 HD
ATOM     21  H31 UNL     1     -30.055  13.466 -21.025  1.00  0.00     0.178 HD
ATOM     22  H2  UNL     1     -31.982  12.417 -21.761  1.00  0.00     0.207 HD
ENDBRANCH   9  18
ENDBRANCH   1   8
BRANCH   6  23
HETATM   23  N5  UNL     1     -31.106  10.893 -15.527  1.00  0.00    -0.394 N 
ATOM     24  H5  UNL     1     -30.675  10.090 -15.986  1.00  0.00     0.159 HD
BRANCH  23  25
HETATM   25  C12 UNL     1     -31.481  10.766 -14.132  1.00  0.00     0.147 C 
BRANCH  25  26
HETATM   26  C13 UNL     1     -32.010  12.067 -13.596  1.00  0.00     0.255 C 
BRANCH  26  27
HETATM   27  N6  UNL     1     -31.256  12.612 -12.523  1.00  0.00    -0.077 N 
HETATM   28  C14 UNL     1     -32.116  13.320 -11.563  1.00  0.00     0.271 C 
HETATM   29  C15 UNL     1     -30.291  13.615 -12.983  1.00  0.00     0.271 C 
HETATM   30  C16 UNL     1     -30.513  11.635 -11.760  1.00  0.00     0.271 C 
ENDBRANCH  26  27
ENDBRANCH  25  26
ENDBRANCH  23  25
ENDBRANCH   6  23
TORSDOF 8
ENDMDL
MODEL 4
REMARK VINA RESULT: -6.909475412      1.508      2.081
REMARK  8 active torsions:
REMARK  status: ('A' for Active; 'I' for Inactive)
REMARK    1  A    between atoms: C3_3  and  C4_4 
REMARK    2  A    between atoms: C6_7  and  C7_8 
REMARK    3  A    between atoms: C7_8  and  C8_16 
REMARK    4  A    between atoms: N1_9  and  N2_11 
REMARK    5  A    between atoms: C11_21  and  N5_22 
REMARK    6  A    between atoms: N5_22  and  C12_24 
REMARK    7  A    between atoms: C12_24  and  C13_25 
REMARK    8  A    between atoms: C13_25  and  N6_26 
ROOT
HETATM    1  C8  UNL     1     -34.058  13.487 -20.000  1.00  0.00     0.117 A 
HETATM    2  C9  UNL     1     -34.928  13.732 -19.022  1.00  0.00     0.129 A 
HETATM    3  N4  UNL     1     -35.837  14.750 -19.375  1.00  0.00    -0.343 N 
ATOM      4  H4  UNL     1     -36.597  15.124 -18.807  1.00  0.00     0.167 HD
HETATM    5  C10 UNL     1     -35.470  15.148 -20.692  1.00  0.00     0.163 A 
HETATM    6  C11 UNL     1     -36.065  16.093 -21.421  1.00  0.00     0.140 C 
HETATM    7  O1  UNL     1     -34.391  14.354 -21.019  1.00  0.00    -0.289 OA
ENDROOT
BRANCH   1   8
HETATM    8  C7  UNL     1     -32.976  12.533 -20.047  1.00  0.00     0.068 C 
HETATM    9  N1  UNL     1     -31.835  12.941 -20.447  1.00  0.00    -0.288 N 
ATOM     10  H1  UNL     1     -31.064  12.275 -20.485  1.00  0.00     0.188 HD
BRANCH   8  11
HETATM   11  C6  UNL     1     -33.114  11.120 -19.661  1.00  0.00     0.064 A 
HETATM   12  C4  UNL     1     -33.163  10.584 -18.321  1.00  0.00     0.034 A 
HETATM   13  C5  UNL     1     -31.991  10.236 -19.305  1.00  0.00     0.077 A 
HETATM   14 BR1  UNL     1     -30.247  10.889 -18.914  1.00  0.00    -0.090 Br
BRANCH  12  15
HETATM   15  C3  UNL     1     -32.629  11.127 -17.080  1.00  0.00    -0.024 C 
HETATM   16  C2  UNL     1     -32.563  10.597 -15.893  1.00  0.00    -0.034 C 
HETATM   17  C1  UNL     1     -31.981  11.291 -14.715  1.00  0.00     0.036 C 
ENDBRANCH  12  15
ENDBRANCH   8  11
BRANCH   9  18
HETATM   18  N2  UNL     1     -31.597  14.257 -20.836  1.00  0.00    -0.249 N 
HETATM   19  N3  UNL     1     -31.394  15.201 -20.015  1.00  0.00    -0.331 N 
ATOM     20  H32 UNL     1     -31.410  14.968 -19.022  1.00  0.00     0.178 HD
ATOM     21  H31 UNL     1     -31.219  16.165 -20.299  1.00  0.00     0.178 HD
ATOM     22  H2  UNL     1     -31.584  14.471 -21.833  1.00  0.00     0.207 HD
ENDBRANCH   9  18
ENDBRANCH   1   8
BRANCH   6  23
HETATM   23  N5  UNL     1     -37.161  16.802 -20.912  1.00  0.00    -0.394 N 
ATOM     24  H5  UNL     1     -38.058  16.321 -20.844  1.00  0.00     0.159 HD
BRANCH  23  25
HETATM   25  C12 UNL     1     -37.089  18.184 -20.478  1.00  0.00     0.147 C 
BRANCH  25  26
HETATM   26  C13 UNL     1     -35.949  18.900 -21.147  1.00  0.00     0.255 C 
BRANCH  26  27
HETATM   27  N6  UNL     1     -36.345  19.871 -22.105  1.00  0.00    -0.077 N 
HETATM   28  C14 UNL     1     -37.722  20.332 -21.871  1.00  0.00     0.271 C 
HETATM   29  C15 UNL     1     -36.351  19.328 -23.467  1.00  0.00     0.271 C 
HETATM   30  C16 UNL     1     -35.518  21.056 -22.131  1.00  0.00     0.271 C 
ENDBRANCH  26  27
ENDBRANCH  25  26
ENDBRANCH  23  25
ENDBRANCH   6  23
TORSDOF 8
ENDMDL
MODEL 5
REMARK VINA RESULT: -6.904130964      1.040      1.435
REMARK  8 active torsions:
REMARK  status: ('A' for Active; 'I' for Inactive)
REMARK    1  A    between atoms: C3_3  and  C4_4 
REMARK    2  A    between atoms: C6_7  and  C7_8 
REMARK    3  A    between atoms: C7_8  and  C8_16 
REMARK    4  A    between atoms: N1_9  and  N2_11 
REMARK    5  A    between atoms: C11_21  and  N5_22 
REMARK    6  A    between atoms: N5_22  and  C12_24 
REMARK    7  A    between atoms: C12_24  and  C13_25 
REMARK    8  A    between atoms: C13_25  and  N6_26 
ROOT
HETATM    1  C8  UNL     1     -33.762  13.728 -19.829  1.00  0.00     0.117 A 
HETATM    2  C9  UNL     1     -34.899  13.906 -19.159  1.00  0.00     0.129 A 
HETATM    3  N4  UNL     1     -35.389  15.220 -19.302  1.00  0.00    -0.343 N 
ATOM      4  H4  UNL     1     -36.237  15.611 -18.891  1.00  0.00     0.167 HD
HETATM    5  C10 UNL     1     -34.451  15.887 -20.140  1.00  0.00     0.163 A 
HETATM    6  C11 UNL     1     -34.519  17.157 -20.538  1.00  0.00     0.140 C 
HETATM    7  O1  UNL     1     -33.491  14.940 -20.428  1.00  0.00    -0.289 OA
ENDROOT
BRANCH   1   8
HETATM    8  C7  UNL     1     -32.942  12.546 -19.946  1.00  0.00     0.068 C 
HETATM    9  N1  UNL     1     -31.747  12.687 -20.370  1.00  0.00    -0.288 N 
ATOM     10  H1  UNL     1     -31.159  11.858 -20.457  1.00  0.00     0.188 HD
BRANCH   8  11
HETATM   11  C6  UNL     1     -33.406  11.192 -19.607  1.00  0.00     0.064 A 
HETATM   12  C4  UNL     1     -33.469  10.597 -18.292  1.00  0.00     0.034 A 
HETATM   13  C5  UNL     1     -32.522  10.030 -19.408  1.00  0.00     0.077 A 
HETATM   14 BR1  UNL     1     -30.640  10.192 -19.177  1.00  0.00    -0.090 Br
BRANCH  12  15
HETATM   15  C3  UNL     1     -32.702  10.903 -17.093  1.00  0.00    -0.024 C 
HETATM   16  C2  UNL     1     -32.813  10.433 -15.884  1.00  0.00    -0.034 C 
HETATM   17  C1  UNL     1     -31.941  10.853 -14.757  1.00  0.00     0.036 C 
ENDBRANCH  12  15
ENDBRANCH   8  11
BRANCH   9  18
HETATM   18  N2  UNL     1     -31.209  13.923 -20.719  1.00  0.00    -0.249 N 
HETATM   19  N3  UNL     1     -30.458  14.598 -19.954  1.00  0.00    -0.331 N 
ATOM     20  H32 UNL     1     -30.246  14.202 -19.038  1.00  0.00     0.178 HD
ATOM     21  H31 UNL     1     -30.064  15.504 -20.210  1.00  0.00     0.178 HD
ATOM     22  H2  UNL     1     -31.431  14.304 -21.639  1.00  0.00     0.207 HD
ENDBRANCH   9  18
ENDBRANCH   1   8
BRANCH   6  23
HETATM   23  N5  UNL     1     -35.584  17.975 -20.137  1.00  0.00    -0.394 N 
ATOM     24  H5  UNL     1     -35.555  18.381 -19.202  1.00  0.00     0.159 HD
BRANCH  23  25
HETATM   25  C12 UNL     1     -36.726  18.275 -20.980  1.00  0.00     0.147 C 
BRANCH  25  26
HETATM   26  C13 UNL     1     -36.409  18.019 -22.427  1.00  0.00     0.255 C 
BRANCH  26  27
HETATM   27  N6  UNL     1     -37.231  17.039 -23.044  1.00  0.00    -0.077 N 
HETATM   28  C14 UNL     1     -38.287  16.567 -22.135  1.00  0.00     0.271 C 
HETATM   29  C15 UNL     1     -36.475  15.836 -23.406  1.00  0.00     0.271 C 
HETATM   30  C16 UNL     1     -37.900  17.489 -24.243  1.00  0.00     0.271 C 
ENDBRANCH  26  27
ENDBRANCH  25  26
ENDBRANCH  23  25
ENDBRANCH   6  23
TORSDOF 8
ENDMDL
