MODEL 1
REMARK VINA RESULT: -6.594539584      0.000      0.000
REMARK  9 active torsions:
REMARK  status: ('A' for Active; 'I' for Inactive)
REMARK    1  A    between atoms: C2_2  and  N1_3 
REMARK    2  A    between atoms: C6_7  and  N2_8 
REMARK       I    between atoms: N2_8  and  C7_10 
REMARK    3  A    between atoms: N3_13  and  C9_14 
REMARK    4  A    between atoms: C9_14  and  O2_15 
REMARK    5  A    between atoms: C9_14  and  C10_17 
REMARK       I    between atoms: C10_17  and  N4_19 
REMARK    6  A    between atoms: N4_19  and  C11_21 
REMARK    7  A    between atoms: C11_21  and  C12_22 
REMARK    8  A    between atoms: C12_22  and  C13_23 
REMARK    9  A    between atoms: C13_23  and  C14_24 
ROOT
HETATM    1  N1  UNL     1     -34.594  14.932 -19.787  1.00  0.00    -0.050 N 
HETATM    2  C3  UNL     1     -35.077  15.960 -18.901  1.00  0.00     0.274 C 
HETATM    3  C4  UNL     1     -33.157  15.106 -20.058  1.00  0.00     0.297 C 
HETATM    4  C5  UNL     1     -32.791  13.678 -20.525  1.00  0.00     0.057 C 
HETATM    5  C6  UNL     1     -31.453  13.501 -21.034  1.00  0.00     0.118 C 
HETATM    6  N3  UNL     1     -33.433  12.877 -19.570  1.00  0.00    -0.299 N 
HETATM    7  C15 UNL     1     -34.706  13.650 -19.207  1.00  0.00     0.369 C 
ENDROOT
BRANCH   6   8
HETATM    8  C9  UNL     1     -33.269  11.655 -18.939  1.00  0.00     0.213 C 
BRANCH   8   9
HETATM    9  O2  UNL     1     -33.612  10.567 -19.657  1.00  0.00    -0.342 OA
ATOM     10  H2  UNL     1     -33.386   9.727 -19.275  1.00  0.00     0.219 HD
ENDBRANCH   8   9
BRANCH   8  11
HETATM   11  C10 UNL     1     -32.801  11.250 -17.654  1.00  0.00     0.292 C 
HETATM   12  O3  UNL     1     -33.428  10.532 -16.866  1.00  0.00    -0.264 OA
HETATM   13  N4  UNL     1     -31.498  11.669 -17.158  1.00  0.00    -0.354 N 
ATOM     14  H4  UNL     1     -30.920  12.264 -17.752  1.00  0.00     0.162 HD
BRANCH  13  15
HETATM   15  C11 UNL     1     -30.993  11.287 -15.886  1.00  0.00     0.123 C 
BRANCH  15  16
HETATM   16  C12 UNL     1     -31.194  12.265 -14.779  1.00  0.00     0.020 C 
BRANCH  16  17
HETATM   17  C13 UNL     1     -31.976  11.635 -13.620  1.00  0.00     0.012 C 
BRANCH  17  18
HETATM   18  C14 UNL     1     -31.087  11.658 -12.375  1.00  0.00     0.085 C 
HETATM   19 BR1  UNL     1     -31.654  13.057 -11.165  1.00  0.00    -0.097 Br
ENDBRANCH  17  18
ENDBRANCH  16  17
ENDBRANCH  15  16
ENDBRANCH  13  15
ENDBRANCH   8  11
ENDBRANCH   6   8
BRANCH   5  20
HETATM   20  N2  UNL     1     -30.272  13.756 -20.314  1.00  0.00    -0.336 N 
HETATM   21  C7  UNL     1     -29.417  12.936 -19.575  1.00  0.00     0.217 C 
HETATM   22  C8  UNL     1     -28.191  13.531 -18.936  1.00  0.00     0.117 C 
HETATM   23  O1  UNL     1     -29.650  11.709 -19.433  1.00  0.00    -0.274 OA
ATOM     24  H2  UNL     1     -29.982  14.734 -20.337  1.00  0.00     0.168 HD
ENDBRANCH   5  20
BRANCH   1  25
HETATM   25  C2  UNL     1     -35.362  14.994 -21.008  1.00  0.00     0.235 C 
HETATM   26  C1  UNL     1     -36.383  16.121 -20.913  1.00  0.00     0.035 C 
ENDBRANCH   1  25
TORSDOF 9
ENDMDL
MODEL 2
REMARK VINA RESULT: -6.288386241      2.208      3.113
REMARK  9 active torsions:
REMARK  status: ('A' for Active; 'I' for Inactive)
REMARK    1  A    between atoms: C2_2  and  N1_3 
REMARK    2  A    between atoms: C6_7  and  N2_8 
REMARK       I    between atoms: N2_8  and  C7_10 
REMARK    3  A    between atoms: N3_13  and  C9_14 
REMARK    4  A    between atoms: C9_14  and  O2_15 
REMARK    5  A    between atoms: C9_14  and  C10_17 
REMARK       I    between atoms: C10_17  and  N4_19 
REMARK    6  A    between atoms: N4_19  and  C11_21 
REMARK    7  A    between atoms: C11_21  and  C12_22 
REMARK    8  A    between atoms: C12_22  and  C13_23 
REMARK    9  A    between atoms: C13_23  and  C14_24 
ROOT
HETATM    1  N1  UNL     1     -33.572  14.764 -19.581  1.00  0.00    -0.050 N 
HETATM    2  C3  UNL     1     -33.348  15.528 -20.781  1.00  0.00     0.274 C 
HETATM    3  C4  UNL     1     -33.470  13.320 -19.852  1.00  0.00     0.297 C 
HETATM    4  C5  UNL     1     -33.202  12.791 -18.423  1.00  0.00     0.057 C 
HETATM    5  C6  UNL     1     -33.195  11.357 -18.270  1.00  0.00     0.118 C 
HETATM    6  N3  UNL     1     -32.232  13.686 -17.950  1.00  0.00    -0.299 N 
HETATM    7  C15 UNL     1     -32.586  15.026 -18.605  1.00  0.00     0.369 C 
ENDROOT
BRANCH   6   8
HETATM    8  C9  UNL     1     -31.147  13.704 -17.089  1.00  0.00     0.213 C 
BRANCH   8   9
HETATM    9  O2  UNL     1     -29.935  13.812 -17.668  1.00  0.00    -0.342 OA
ATOM     10  H2  UNL     1     -29.233  14.128 -17.110  1.00  0.00     0.219 HD
ENDBRANCH   8   9
BRANCH   8  11
HETATM   11  C10 UNL     1     -30.995  13.634 -15.673  1.00  0.00     0.292 C 
HETATM   12  O3  UNL     1     -30.744  14.597 -14.939  1.00  0.00    -0.264 OA
HETATM   13  N4  UNL     1     -31.132  12.371 -14.961  1.00  0.00    -0.354 N 
ATOM     14  H4  UNL     1     -31.339  11.529 -15.498  1.00  0.00     0.162 HD
BRANCH  13  15
HETATM   15  C11 UNL     1     -30.989  12.258 -13.551  1.00  0.00     0.123 C 
BRANCH  15  16
HETATM   16  C12 UNL     1     -32.169  12.667 -12.738  1.00  0.00     0.020 C 
BRANCH  16  17
HETATM   17  C13 UNL     1     -31.743  13.112 -11.333  1.00  0.00     0.012 C 
BRANCH  17  18
HETATM   18  C14 UNL     1     -30.318  12.618 -11.086  1.00  0.00     0.085 C 
HETATM   19 BR1  UNL     1     -29.136  14.107 -10.728  1.00  0.00    -0.097 Br
ENDBRANCH  17  18
ENDBRANCH  16  17
ENDBRANCH  15  16
ENDBRANCH  13  15
ENDBRANCH   8  11
ENDBRANCH   6   8
BRANCH   5  20
HETATM   20  N2  UNL     1     -32.334  10.474 -18.945  1.00  0.00    -0.336 N 
HETATM   21  C7  UNL     1     -30.994  10.126 -18.757  1.00  0.00     0.217 C 
HETATM   22  C8  UNL     1     -30.363   9.101 -19.659  1.00  0.00     0.117 C 
HETATM   23  O1  UNL     1     -30.305  10.652 -17.847  1.00  0.00    -0.274 OA
ATOM     24  H2  UNL     1     -32.776   9.991 -19.727  1.00  0.00     0.168 HD
ENDBRANCH   5  20
BRANCH   1  25
HETATM   25  C2  UNL     1     -34.879  15.102 -19.071  1.00  0.00     0.235 C 
HETATM   26  C1  UNL     1     -35.942  14.722 -20.094  1.00  0.00     0.035 C 
ENDBRANCH   1  25
TORSDOF 9
ENDMDL
MODEL 3
REMARK VINA RESULT: -6.183307314      1.630      2.025
REMARK  9 active torsions:
REMARK  status: ('A' for Active; 'I' for Inactive)
REMARK    1  A    between atoms: C2_2  and  N1_3 
REMARK    2  A    between atoms: C6_7  and  N2_8 
REMARK       I    between atoms: N2_8  and  C7_10 
REMARK    3  A    between atoms: N3_13  and  C9_14 
REMARK    4  A    between atoms: C9_14  and  O2_15 
REMARK    5  A    between atoms: C9_14  and  C10_17 
REMARK       I    between atoms: C10_17  and  N4_19 
REMARK    6  A    between atoms: N4_19  and  C11_21 
REMARK    7  A    between atoms: C11_21  and  C12_22 
REMARK    8  A    between atoms: C12_22  and  C13_23 
REMARK    9  A    between atoms: C13_23  and  C14_24 
ROOT
HETATM    1  N1  UNL     1     -33.427  15.261 -19.715  1.00  0.00    -0.050 N 
HETATM    2  C3  UNL     1     -33.748  16.660 -19.600  1.00  0.00     0.274 C 
HETATM    3  C4  UNL     1     -32.182  15.070 -20.478  1.00  0.00     0.297 C 
HETATM    4  C5  UNL     1     -31.787  13.651 -20.008  1.00  0.00     0.057 C 
HETATM    5  C6  UNL     1     -30.661  13.051 -20.681  1.00  0.00     0.118 C 
HETATM    6  N3  UNL     1     -31.987  13.728 -18.623  1.00  0.00    -0.299 N 
HETATM    7  C15 UNL     1     -33.178  14.678 -18.454  1.00  0.00     0.369 C 
ENDROOT
BRANCH   6   8
HETATM    8  C9  UNL     1     -31.471  13.195 -17.453  1.00  0.00     0.213 C 
BRANCH   8   9
HETATM    9  O2  UNL     1     -30.366  13.796 -16.966  1.00  0.00    -0.342 OA
ATOM     10  H2  UNL     1     -29.608  13.237 -16.844  1.00  0.00     0.219 HD
ENDBRANCH   8   9
BRANCH   8  11
HETATM   11  C10 UNL     1     -31.842  12.115 -16.598  1.00  0.00     0.292 C 
HETATM   12  O3  UNL     1     -32.675  11.246 -16.877  1.00  0.00    -0.264 OA
HETATM   13  N4  UNL     1     -31.239  11.953 -15.283  1.00  0.00    -0.354 N 
ATOM     14  H4  UNL     1     -30.541  12.633 -14.980  1.00  0.00     0.162 HD
BRANCH  13  15
HETATM   15  C11 UNL     1     -31.579  10.891 -14.401  1.00  0.00     0.123 C 
BRANCH  15  16
HETATM   16  C12 UNL     1     -31.486  11.193 -12.944  1.00  0.00     0.020 C 
BRANCH  16  17
HETATM   17  C13 UNL     1     -31.788  12.672 -12.667  1.00  0.00     0.012 C 
BRANCH  17  18
HETATM   18  C14 UNL     1     -31.331  12.994 -11.244  1.00  0.00     0.085 C 
HETATM   19 BR1  UNL     1     -29.439  12.642 -11.043  1.00  0.00    -0.097 Br
ENDBRANCH  17  18
ENDBRANCH  16  17
ENDBRANCH  15  16
ENDBRANCH  13  15
ENDBRANCH   8  11
ENDBRANCH   6   8
BRANCH   5  20
HETATM   20  N2  UNL     1     -29.362  13.587 -20.722  1.00  0.00    -0.336 N 
HETATM   21  C7  UNL     1     -28.245  13.432 -19.897  1.00  0.00     0.217 C 
HETATM   22  C8  UNL     1     -26.965  14.143 -20.245  1.00  0.00     0.117 C 
HETATM   23  O1  UNL     1     -28.288  12.709 -18.871  1.00  0.00    -0.274 OA
ATOM     24  H2  UNL     1     -29.203  14.214 -21.511  1.00  0.00     0.168 HD
ENDBRANCH   5  20
BRANCH   1  25
HETATM   25  C2  UNL     1     -34.535  14.597 -20.360  1.00  0.00     0.235 C 
HETATM   26  C1  UNL     1     -35.541  14.143 -19.309  1.00  0.00     0.035 C 
ENDBRANCH   1  25
TORSDOF 9
ENDMDL
MODEL 4
REMARK VINA RESULT: -6.084339802      2.227      3.129
REMARK  9 active torsions:
REMARK  status: ('A' for Active; 'I' for Inactive)
REMARK    1  A    between atoms: C2_2  and  N1_3 
REMARK    2  A    between atoms: C6_7  and  N2_8 
REMARK       I    between atoms: N2_8  and  C7_10 
REMARK    3  A    between atoms: N3_13  and  C9_14 
REMARK    4  A    between atoms: C9_14  and  O2_15 
REMARK    5  A    between atoms: C9_14  and  C10_17 
REMARK       I    between atoms: C10_17  and  N4_19 
REMARK    6  A    between atoms: N4_19  and  C11_21 
REMARK    7  A    between atoms: C11_21  and  C12_22 
REMARK    8  A    between atoms: C12_22  and  C13_23 
REMARK    9  A    between atoms: C13_23  and  C14_24 
ROOT
HETATM    1  N1  UNL     1     -32.359  13.844 -19.802  1.00  0.00    -0.050 N 
HETATM    2  C3  UNL     1     -32.747  15.152 -20.261  1.00  0.00     0.274 C 
HETATM    3  C4  UNL     1     -30.950  13.569 -20.133  1.00  0.00     0.297 C 
HETATM    4  C5  UNL     1     -30.645  12.442 -19.119  1.00  0.00     0.057 C 
HETATM    5  C6  UNL     1     -29.361  11.800 -19.253  1.00  0.00     0.118 C 
HETATM    6  N3  UNL     1     -31.207  12.944 -17.937  1.00  0.00    -0.299 N 
HETATM    7  C15 UNL     1     -32.433  13.741 -18.397  1.00  0.00     0.369 C 
ENDROOT
BRANCH   6   8
HETATM    8  C9  UNL     1     -31.001  12.892 -16.568  1.00  0.00     0.213 C 
BRANCH   8   9
HETATM    9  O2  UNL     1     -30.434  13.981 -16.013  1.00  0.00    -0.342 OA
ATOM     10  H2  UNL     1     -29.722  13.818 -15.406  1.00  0.00     0.219 HD
ENDBRANCH   8   9
BRANCH   8  11
HETATM   11  C10 UNL     1     -31.256  11.919 -15.556  1.00  0.00     0.292 C 
HETATM   12  O3  UNL     1     -31.494  10.725 -15.766  1.00  0.00    -0.264 OA
HETATM   13  N4  UNL     1     -31.252  12.280 -14.145  1.00  0.00    -0.354 N 
ATOM     14  H4  UNL     1     -31.063  13.250 -13.891  1.00  0.00     0.162 HD
BRANCH  13  15
HETATM   15  C11 UNL     1     -31.500  11.343 -13.105  1.00  0.00     0.123 C 
BRANCH  15  16
HETATM   16  C12 UNL     1     -31.177  11.797 -11.723  1.00  0.00     0.020 C 
BRANCH  16  17
HETATM   17  C13 UNL     1     -30.654  13.239 -11.723  1.00  0.00     0.012 C 
BRANCH  17  18
HETATM   18  C14 UNL     1     -29.265  13.243 -11.084  1.00  0.00     0.085 C 
HETATM   19 BR1  UNL     1     -28.387  14.941 -11.382  1.00  0.00    -0.097 Br
ENDBRANCH  17  18
ENDBRANCH  16  17
ENDBRANCH  15  16
ENDBRANCH  13  15
ENDBRANCH   8  11
ENDBRANCH   6   8
BRANCH   5  20
HETATM   20  N2  UNL     1     -28.116  12.449 -19.170  1.00  0.00    -0.336 N 
HETATM   21  C7  UNL     1     -27.333  12.863 -18.089  1.00  0.00     0.217 C 
HETATM   22  C8  UNL     1     -26.005  13.522 -18.348  1.00  0.00     0.117 C 
HETATM   23  O1  UNL     1     -27.716  12.695 -16.904  1.00  0.00    -0.274 OA
ATOM     24  H2  UNL     1     -27.703  12.660 -20.078  1.00  0.00     0.168 HD
ENDBRANCH   5  20
BRANCH   1  25
HETATM   25  C2  UNL     1     -33.233  12.874 -20.419  1.00  0.00     0.235 C 
HETATM   26  C1  UNL     1     -34.561  12.835 -19.673  1.00  0.00     0.035 C 
ENDBRANCH   1  25
TORSDOF 9
ENDMDL
MODEL 5
REMARK VINA RESULT: -5.962401524      1.575      1.874
REMARK  9 active torsions:
REMARK  status: ('A' for Active; 'I' for Inactive)
REMARK    1  A    between atoms: C2_2  and  N1_3 
REMARK    2  A    between atoms: C6_7  and  N2_8 
REMARK       I    between atoms: N2_8  and  C7_10 
REMARK    3  A    between atoms: N3_13  and  C9_14 
REMARK    4  A    between atoms: C9_14  and  O2_15 
REMARK    5  A    between atoms: C9_14  and  C10_17 
REMARK       I    between atoms: C10_17  and  N4_19 
REMARK    6  A    between atoms: N4_19  and  C11_21 
REMARK    7  A    between atoms: C11_21  and  C12_22 
REMARK    8  A    between atoms: C12_22  and  C13_23 
REMARK    9  A    between atoms: C13_23  and  C14_24 
ROOT
HETATM    1  N1  UNL     1     -33.641  16.644 -20.326  1.00  0.00    -0.050 N 
HETATM    2  C3  UNL     1     -33.873  17.794 -19.491  1.00  0.00     0.274 C 
HETATM    3  C4  UNL     1     -32.259  16.158 -20.175  1.00  0.00     0.297 C 
HETATM    4  C5  UNL     1     -32.420  14.708 -20.688  1.00  0.00     0.057 C 
HETATM    5  C6  UNL     1     -31.204  13.947 -20.832  1.00  0.00     0.118 C 
HETATM    6  N3  UNL     1     -33.593  14.292 -20.041  1.00  0.00    -0.299 N 
HETATM    7  C15 UNL     1     -34.456  15.555 -19.950  1.00  0.00     0.369 C 
ENDROOT
BRANCH   6   8
HETATM    8  C9  UNL     1     -34.162  13.134 -19.535  1.00  0.00     0.213 C 
BRANCH   8   9
HETATM    9  O2  UNL     1     -35.507  13.064 -19.588  1.00  0.00    -0.342 OA
ATOM     10  H2  UNL     1     -35.955  13.851 -19.874  1.00  0.00     0.219 HD
ENDBRANCH   8   9
BRANCH   8  11
HETATM   11  C10 UNL     1     -33.645  11.944 -18.943  1.00  0.00     0.292 C 
HETATM   12  O3  UNL     1     -33.661  10.826 -19.472  1.00  0.00    -0.264 OA
HETATM   13  N4  UNL     1     -33.037  11.961 -17.620  1.00  0.00    -0.354 N 
ATOM     14  H4  UNL     1     -32.987  12.849 -17.119  1.00  0.00     0.162 HD
BRANCH  13  15
HETATM   15  C11 UNL     1     -32.509  10.799 -16.995  1.00  0.00     0.123 C 
BRANCH  15  16
HETATM   16  C12 UNL     1     -31.395  11.022 -16.030  1.00  0.00     0.020 C 
BRANCH  16  17
HETATM   17  C13 UNL     1     -31.772  10.525 -14.629  1.00  0.00     0.012 C 
BRANCH  17  18
HETATM   18  C14 UNL     1     -31.776  11.725 -13.681  1.00  0.00     0.085 C 
HETATM   19 BR1  UNL     1     -30.742  13.180 -14.426  1.00  0.00    -0.097 Br
ENDBRANCH  17  18
ENDBRANCH  16  17
ENDBRANCH  15  16
ENDBRANCH  13  15
ENDBRANCH   8  11
ENDBRANCH   6   8
BRANCH   5  20
HETATM   20  N2  UNL     1     -30.297  13.664 -19.795  1.00  0.00    -0.336 N 
HETATM   21  C7  UNL     1     -29.883  12.472 -19.196  1.00  0.00     0.217 C 
HETATM   22  C8  UNL     1     -28.851  12.513 -18.103  1.00  0.00     0.117 C 
HETATM   23  O1  UNL     1     -30.356  11.364 -19.554  1.00  0.00    -0.274 OA
ATOM     24  H2  UNL     1     -29.853  14.494 -19.402  1.00  0.00     0.168 HD
ENDBRANCH   5  20
BRANCH   1  25
HETATM   25  C2  UNL     1     -33.911  17.019 -21.693  1.00  0.00     0.235 C 
HETATM   26  C1  UNL     1     -35.411  16.953 -21.955  1.00  0.00     0.035 C 
ENDBRANCH   1  25
TORSDOF 9
ENDMDL
