MODEL 1
REMARK VINA RESULT: -6.581181314      0.000      0.000
REMARK  9 active torsions:
REMARK  status: ('A' for Active; 'I' for Inactive)
REMARK    1  A    between atoms: C2_2  and  C3_3 
REMARK    2  A    between atoms: C3_3  and  C4_4 
REMARK    3  A    between atoms: C4_4  and  C5_5 
REMARK    4  A    between atoms: C5_5  and  C6_6 
REMARK    5  A    between atoms: C6_6  and  C7_7 
REMARK    6  A    between atoms: C7_7  and  C8_8 
REMARK    7  A    between atoms: C10_13  and  N2_14 
REMARK    8  A    between atoms: C12_19  and  C13_20 
REMARK    9  A    between atoms: N5_22  and  C15_24 
ROOT
HETATM    1  C8  UNL     1     -33.387  12.691 -18.761  1.00  0.00     0.291 C 
HETATM    2  N1  UNL     1     -34.519  12.338 -19.508  1.00  0.00    -0.331 N 
ATOM      3  H1  UNL     1     -34.690  11.366 -19.766  1.00  0.00     0.164 HD
HETATM    4  C9  UNL     1     -35.419  13.353 -19.894  1.00  0.00     0.244 C 
HETATM    5  O1  UNL     1     -36.678  13.223 -19.966  1.00  0.00    -0.271 OA
HETATM    6  C10 UNL     1     -34.806  14.628 -20.229  1.00  0.00     0.211 C 
HETATM    7  C12 UNL     1     -33.456  14.917 -19.616  1.00  0.00     0.253 C 
HETATM    8  N5  UNL     1     -32.610  13.797 -19.370  1.00  0.00    -0.040 N 
HETATM    9  C14 UNL     1     -31.711  14.116 -18.287  1.00  0.00     0.276 C 
ENDROOT
BRANCH   1  10
HETATM   10  C7  UNL     1     -32.615  11.546 -18.310  1.00  0.00     0.055 C 
BRANCH  10  11
HETATM   11  C6  UNL     1     -33.017  10.908 -17.031  1.00  0.00     0.004 C 
BRANCH  11  12
HETATM   12  C5  UNL     1     -32.012  10.387 -16.095  1.00  0.00     0.000 C 
BRANCH  12  13
HETATM   13  C4  UNL     1     -31.583  11.488 -15.082  1.00  0.00     0.000 C 
BRANCH  13  14
HETATM   14  C3  UNL     1     -31.580  10.794 -13.738  1.00  0.00    -0.000 C 
BRANCH  14  15
HETATM   15  C2  UNL     1     -31.294  11.736 -12.609  1.00  0.00    -0.005 C 
HETATM   16  C1  UNL     1     -32.019  13.053 -12.754  1.00  0.00     0.005 C 
ENDBRANCH  14  15
ENDBRANCH  13  14
ENDBRANCH  12  13
ENDBRANCH  11  12
ENDBRANCH  10  11
ENDBRANCH   1  10
BRANCH   8  17
HETATM   17  C15 UNL     1     -32.029  13.274 -20.548  1.00  0.00     0.236 C 
HETATM   18  C16 UNL     1     -30.545  13.216 -20.642  1.00  0.00     0.035 C 
ENDBRANCH   8  17
BRANCH   7  19
HETATM   19  C13 UNL     1     -32.959  15.988 -20.491  1.00  0.00     0.065 C 
HETATM   20 BR1  UNL     1     -32.692  17.737 -19.909  1.00  0.00    -0.066 Br
ENDBRANCH   7  19
BRANCH   6  21
HETATM   21  N2  UNL     1     -35.699  15.756 -20.076  1.00  0.00    -0.351 N 
HETATM   22  C11 UNL     1     -36.301  16.263 -21.107  1.00  0.00     0.197 C 
HETATM   23  N3  UNL     1     -37.182  17.371 -20.973  1.00  0.00    -0.067 NA
HETATM   24  N4  UNL     1     -36.122  15.752 -22.427  1.00  0.00    -0.067 NA
ATOM     25  H2  UNL     1     -35.858  16.154 -19.150  1.00  0.00     0.162 HD
ENDBRANCH   6  21
TORSDOF 9
ENDMDL
MODEL 2
REMARK VINA RESULT: -6.268829484      1.559      2.151
REMARK  9 active torsions:
REMARK  status: ('A' for Active; 'I' for Inactive)
REMARK    1  A    between atoms: C2_2  and  C3_3 
REMARK    2  A    between atoms: C3_3  and  C4_4 
REMARK    3  A    between atoms: C4_4  and  C5_5 
REMARK    4  A    between atoms: C5_5  and  C6_6 
REMARK    5  A    between atoms: C6_6  and  C7_7 
REMARK    6  A    between atoms: C7_7  and  C8_8 
REMARK    7  A    between atoms: C10_13  and  N2_14 
REMARK    8  A    between atoms: C12_19  and  C13_20 
REMARK    9  A    between atoms: N5_22  and  C15_24 
ROOT
HETATM    1  C8  UNL     1     -33.832  13.363 -19.074  1.00  0.00     0.291 C 
HETATM    2  N1  UNL     1     -34.943  13.214 -19.916  1.00  0.00    -0.331 N 
ATOM      3  H1  UNL     1     -35.262  12.287 -20.196  1.00  0.00     0.164 HD
HETATM    4  C9  UNL     1     -35.610  14.371 -20.367  1.00  0.00     0.244 C 
HETATM    5  O1  UNL     1     -36.862  14.469 -20.546  1.00  0.00    -0.271 OA
HETATM    6  C10 UNL     1     -34.753  15.514 -20.638  1.00  0.00     0.211 C 
HETATM    7  C12 UNL     1     -33.430  15.560 -19.912  1.00  0.00     0.253 C 
HETATM    8  N5  UNL     1     -32.821  14.308 -19.606  1.00  0.00    -0.040 N 
HETATM    9  C14 UNL     1     -31.974  14.468 -18.449  1.00  0.00     0.276 C 
ENDROOT
BRANCH   1  10
HETATM   10  C7  UNL     1     -33.318  12.102 -18.570  1.00  0.00     0.055 C 
BRANCH  10  11
HETATM   11  C6  UNL     1     -33.448  10.909 -19.445  1.00  0.00     0.004 C 
BRANCH  11  12
HETATM   12  C5  UNL     1     -32.413   9.867 -19.466  1.00  0.00     0.000 C 
BRANCH  12  13
HETATM   13  C4  UNL     1     -31.017  10.475 -19.142  1.00  0.00     0.000 C 
BRANCH  13  14
HETATM   14  C3  UNL     1     -30.581   9.779 -17.872  1.00  0.00    -0.000 C 
BRANCH  14  15
HETATM   15  C2  UNL     1     -30.713  10.657 -16.665  1.00  0.00    -0.005 C 
HETATM   16  C1  UNL     1     -31.807  10.197 -15.730  1.00  0.00     0.005 C 
ENDBRANCH  14  15
ENDBRANCH  13  14
ENDBRANCH  12  13
ENDBRANCH  11  12
ENDBRANCH  10  11
ENDBRANCH   1  10
BRANCH   8  17
HETATM   17  C15 UNL     1     -32.246  13.683 -20.735  1.00  0.00     0.236 C 
HETATM   18  C16 UNL     1     -30.777  13.450 -20.747  1.00  0.00     0.035 C 
ENDBRANCH   8  17
BRANCH   7  19
HETATM   19  C13 UNL     1     -32.677  16.520 -20.733  1.00  0.00     0.065 C 
HETATM   20 BR1  UNL     1     -32.257  18.241 -20.159  1.00  0.00    -0.066 Br
ENDBRANCH   7  19
BRANCH   6  21
HETATM   21  N2  UNL     1     -35.440  16.784 -20.551  1.00  0.00    -0.351 N 
HETATM   22  C11 UNL     1     -35.823  17.400 -21.626  1.00  0.00     0.197 C 
HETATM   23  N3  UNL     1     -36.500  18.649 -21.557  1.00  0.00    -0.067 NA
HETATM   24  N4  UNL     1     -35.597  16.875 -22.933  1.00  0.00    -0.067 NA
ATOM     25  H2  UNL     1     -35.624  17.198 -19.637  1.00  0.00     0.162 HD
ENDBRANCH   6  21
TORSDOF 9
ENDMDL
MODEL 3
REMARK VINA RESULT: -6.124149408      2.046      3.307
REMARK  9 active torsions:
REMARK  status: ('A' for Active; 'I' for Inactive)
REMARK    1  A    between atoms: C2_2  and  C3_3 
REMARK    2  A    between atoms: C3_3  and  C4_4 
REMARK    3  A    between atoms: C4_4  and  C5_5 
REMARK    4  A    between atoms: C5_5  and  C6_6 
REMARK    5  A    between atoms: C6_6  and  C7_7 
REMARK    6  A    between atoms: C7_7  and  C8_8 
REMARK    7  A    between atoms: C10_13  and  N2_14 
REMARK    8  A    between atoms: C12_19  and  C13_20 
REMARK    9  A    between atoms: N5_22  and  C15_24 
ROOT
HETATM    1  C8  UNL     1     -35.264  14.965 -19.565  1.00  0.00     0.291 C 
HETATM    2  N1  UNL     1     -36.022  14.690 -20.712  1.00  0.00    -0.331 N 
ATOM      3  H1  UNL     1     -36.117  13.734 -21.055  1.00  0.00     0.164 HD
HETATM    4  C9  UNL     1     -36.649  15.760 -21.381  1.00  0.00     0.244 C 
HETATM    5  O1  UNL     1     -37.781  15.702 -21.951  1.00  0.00    -0.271 OA
HETATM    6  C10 UNL     1     -35.900  17.006 -21.395  1.00  0.00     0.211 C 
HETATM    7  C12 UNL     1     -34.893  17.207 -20.288  1.00  0.00     0.253 C 
HETATM    8  N5  UNL     1     -34.263  16.038 -19.773  1.00  0.00    -0.040 N 
HETATM    9  C14 UNL     1     -33.854  16.285 -18.411  1.00  0.00     0.276 C 
ENDROOT
BRANCH   1  10
HETATM   10  C7  UNL     1     -34.785  13.770 -18.892  1.00  0.00     0.055 C 
BRANCH  10  11
HETATM   11  C6  UNL     1     -34.706  12.519 -19.688  1.00  0.00     0.004 C 
BRANCH  11  12
HETATM   12  C5  UNL     1     -33.413  11.892 -19.991  1.00  0.00     0.000 C 
BRANCH  12  13
HETATM   13  C4  UNL     1     -33.264  10.545 -19.228  1.00  0.00     0.000 C 
BRANCH  13  14
HETATM   14  C3  UNL     1     -32.375  10.869 -18.046  1.00  0.00    -0.000 C 
BRANCH  14  15
HETATM   15  C2  UNL     1     -33.115  10.818 -16.745  1.00  0.00    -0.005 C 
HETATM   16  C1  UNL     1     -32.278  10.252 -15.622  1.00  0.00     0.005 C 
ENDBRANCH  14  15
ENDBRANCH  13  14
ENDBRANCH  12  13
ENDBRANCH  11  12
ENDBRANCH  10  11
ENDBRANCH   1  10
BRANCH   8  17
HETATM   17  C15 UNL     1     -33.285  15.507 -20.645  1.00  0.00     0.236 C 
HETATM   18  C16 UNL     1     -31.899  15.331 -20.135  1.00  0.00     0.035 C 
ENDBRANCH   8  17
BRANCH   7  19
HETATM   19  C13 UNL     1     -34.044  18.266 -20.852  1.00  0.00     0.065 C 
HETATM   20 BR1  UNL     1     -33.004  19.404 -19.805  1.00  0.00    -0.066 Br
ENDBRANCH   7  19
BRANCH   6  21
HETATM   21  N2  UNL     1     -36.731  18.178 -21.563  1.00  0.00    -0.351 N 
HETATM   22  C11 UNL     1     -36.840  18.746 -22.724  1.00  0.00     0.197 C 
HETATM   23  N3  UNL     1     -37.654  19.899 -22.905  1.00  0.00    -0.067 NA
HETATM   24  N4  UNL     1     -36.162  18.262 -23.882  1.00  0.00    -0.067 NA
ATOM     25  H2  UNL     1     -37.236  18.559 -20.763  1.00  0.00     0.162 HD
ENDBRANCH   6  21
TORSDOF 9
ENDMDL
MODEL 4
REMARK VINA RESULT: -6.085164188      2.612      3.547
REMARK  9 active torsions:
REMARK  status: ('A' for Active; 'I' for Inactive)
REMARK    1  A    between atoms: C2_2  and  C3_3 
REMARK    2  A    between atoms: C3_3  and  C4_4 
REMARK    3  A    between atoms: C4_4  and  C5_5 
REMARK    4  A    between atoms: C5_5  and  C6_6 
REMARK    5  A    between atoms: C6_6  and  C7_7 
REMARK    6  A    between atoms: C7_7  and  C8_8 
REMARK    7  A    between atoms: C10_13  and  N2_14 
REMARK    8  A    between atoms: C12_19  and  C13_20 
REMARK    9  A    between atoms: N5_22  and  C15_24 
ROOT
HETATM    1  C8  UNL     1     -35.234  14.811 -19.612  1.00  0.00     0.291 C 
HETATM    2  N1  UNL     1     -35.992  14.615 -20.774  1.00  0.00    -0.331 N 
ATOM      3  H1  UNL     1     -36.112  13.680 -21.165  1.00  0.00     0.164 HD
HETATM    4  C9  UNL     1     -36.585  15.734 -21.393  1.00  0.00     0.244 C 
HETATM    5  O1  UNL     1     -37.715  15.736 -21.969  1.00  0.00    -0.271 OA
HETATM    6  C10 UNL     1     -35.801  16.957 -21.341  1.00  0.00     0.211 C 
HETATM    7  C12 UNL     1     -34.795  17.075 -20.220  1.00  0.00     0.253 C 
HETATM    8  N5  UNL     1     -34.201  15.864 -19.761  1.00  0.00    -0.040 N 
HETATM    9  C14 UNL     1     -33.795  16.032 -18.387  1.00  0.00     0.276 C 
ENDROOT
BRANCH   1  10
HETATM   10  C7  UNL     1     -34.792  13.572 -18.997  1.00  0.00     0.055 C 
BRANCH  10  11
HETATM   11  C6  UNL     1     -34.606  12.394 -19.882  1.00  0.00     0.004 C 
BRANCH  11  12
HETATM   12  C5  UNL     1     -33.583  11.381 -19.592  1.00  0.00     0.000 C 
BRANCH  12  13
HETATM   13  C4  UNL     1     -33.122  11.476 -18.108  1.00  0.00     0.000 C 
BRANCH  13  14
HETATM   14  C3  UNL     1     -31.645  11.795 -18.184  1.00  0.00    -0.000 C 
BRANCH  14  15
HETATM   15  C2  UNL     1     -30.963  11.078 -19.308  1.00  0.00    -0.005 C 
HETATM   16  C1  UNL     1     -30.426   9.728 -18.895  1.00  0.00     0.005 C 
ENDBRANCH  14  15
ENDBRANCH  13  14
ENDBRANCH  12  13
ENDBRANCH  11  12
ENDBRANCH  10  11
ENDBRANCH   1  10
BRANCH   8  17
HETATM   17  C15 UNL     1     -33.234  15.350 -20.654  1.00  0.00     0.236 C 
HETATM   18  C16 UNL     1     -31.880  15.030 -20.127  1.00  0.00     0.035 C 
ENDBRANCH   8  17
BRANCH   7  19
HETATM   19  C13 UNL     1     -33.914  18.137 -20.727  1.00  0.00     0.065 C 
HETATM   20 BR1  UNL     1     -32.893  19.229 -19.616  1.00  0.00    -0.066 Br
ENDBRANCH   7  19
BRANCH   6  21
HETATM   21  N2  UNL     1     -36.599  18.159 -21.454  1.00  0.00    -0.351 N 
HETATM   22  C11 UNL     1     -36.675  18.794 -22.582  1.00  0.00     0.197 C 
HETATM   23  N3  UNL     1     -37.454  19.977 -22.710  1.00  0.00    -0.067 NA
HETATM   24  N4  UNL     1     -35.992  18.357 -23.757  1.00  0.00    -0.067 NA
ATOM     25  H2  UNL     1     -37.105  18.509 -20.641  1.00  0.00     0.162 HD
ENDBRANCH   6  21
TORSDOF 9
ENDMDL
MODEL 5
REMARK VINA RESULT: -6.067253615      2.367      3.037
REMARK  9 active torsions:
REMARK  status: ('A' for Active; 'I' for Inactive)
REMARK    1  A    between atoms: C2_2  and  C3_3 
REMARK    2  A    between atoms: C3_3  and  C4_4 
REMARK    3  A    between atoms: C4_4  and  C5_5 
REMARK    4  A    between atoms: C5_5  and  C6_6 
REMARK    5  A    between atoms: C6_6  and  C7_7 
REMARK    6  A    between atoms: C7_7  and  C8_8 
REMARK    7  A    between atoms: C10_13  and  N2_14 
REMARK    8  A    between atoms: C12_19  and  C13_20 
REMARK    9  A    between atoms: N5_22  and  C15_24 
ROOT
HETATM    1  C8  UNL     1     -32.679  11.830 -17.939  1.00  0.00     0.291 C 
HETATM    2  N1  UNL     1     -33.778  11.887 -18.807  1.00  0.00    -0.331 N 
ATOM      3  H1  UNL     1     -34.532  11.204 -18.736  1.00  0.00     0.164 HD
HETATM    4  C9  UNL     1     -33.820  12.907 -19.779  1.00  0.00     0.244 C 
HETATM    5  O1  UNL     1     -34.871  13.501 -20.168  1.00  0.00    -0.271 OA
HETATM    6  C10 UNL     1     -32.534  13.267 -20.353  1.00  0.00     0.211 C 
HETATM    7  C12 UNL     1     -31.310  12.981 -19.517  1.00  0.00     0.253 C 
HETATM    8  N5  UNL     1     -31.377  11.855 -18.647  1.00  0.00    -0.040 N 
HETATM    9  C14 UNL     1     -30.478  12.064 -17.537  1.00  0.00     0.276 C 
ENDROOT
BRANCH   1  10
HETATM   10  C7  UNL     1     -32.818  10.824 -16.900  1.00  0.00     0.055 C 
BRANCH  10  11
HETATM   11  C6  UNL     1     -32.490  11.225 -15.508  1.00  0.00     0.004 C 
BRANCH  11  12
HETATM   12  C5  UNL     1     -31.656  10.374 -14.650  1.00  0.00     0.000 C 
BRANCH  12  13
HETATM   13  C4  UNL     1     -31.490  11.012 -13.240  1.00  0.00     0.000 C 
BRANCH  13  14
HETATM   14  C3  UNL     1     -31.804  12.478 -13.443  1.00  0.00    -0.000 C 
BRANCH  14  15
HETATM   15  C2  UNL     1     -31.939  13.217 -12.147  1.00  0.00    -0.005 C 
HETATM   16  C1  UNL     1     -31.445  12.416 -10.967  1.00  0.00     0.005 C 
ENDBRANCH  14  15
ENDBRANCH  13  14
ENDBRANCH  12  13
ENDBRANCH  11  12
ENDBRANCH  10  11
ENDBRANCH   1  10
BRANCH   8  17
HETATM   17  C15 UNL     1     -31.270  10.622 -19.329  1.00  0.00     0.236 C 
HETATM   18  C16 UNL     1     -30.189   9.680 -18.931  1.00  0.00     0.035 C 
ENDBRANCH   8  17
BRANCH   7  19
HETATM   19  C13 UNL     1     -30.246  13.018 -20.530  1.00  0.00     0.065 C 
HETATM   20 BR1  UNL     1     -28.442  13.209 -20.106  1.00  0.00    -0.066 Br
ENDBRANCH   7  19
BRANCH   6  21
HETATM   21  N2  UNL     1     -32.498  14.611 -20.887  1.00  0.00    -0.351 N 
HETATM   22  C11 UNL     1     -32.578  15.636 -20.096  1.00  0.00     0.197 C 
HETATM   23  N3  UNL     1     -32.544  16.963 -20.605  1.00  0.00    -0.067 NA
HETATM   24  N4  UNL     1     -32.705  15.504 -18.681  1.00  0.00    -0.067 NA
ATOM     25  H2  UNL     1     -32.408  14.754 -21.894  1.00  0.00     0.162 HD
ENDBRANCH   6  21
TORSDOF 9
ENDMDL
