MODEL 1
REMARK VINA RESULT: -6.747119874      0.000      0.000
REMARK  11 active torsions:
REMARK  status: ('A' for Active; 'I' for Inactive)
REMARK    1  A    between atoms: C3_3  and  C4_4 
REMARK    2  A    between atoms: C5_5  and  C6_6 
REMARK    3  A    between atoms: C6_6  and  C7_7 
REMARK       I    between atoms: C7_7  and  N1_9 
REMARK    4  A    between atoms: N1_9  and  C8_11 
REMARK    5  A    between atoms: C8_11  and  C9_12 
REMARK    6  A    between atoms: C10_13  and  C11_14 
REMARK    7  A    between atoms: C11_14  and  N2_15 
REMARK       I    between atoms: N2_15  and  C12_17 
REMARK       I    between atoms: N4_19  and  C13_21 
REMARK    8  A    between atoms: C13_21  and  C14_23 
REMARK    9  A    between atoms: C14_23  and  C15_24 
REMARK   10  A    between atoms: C15_24  and  C16_25 
REMARK   11  A    between atoms: C16_25  and  C17_26 
ROOT
HETATM    1  C1  UNL     1     -30.695  13.572 -13.238  1.00  0.00     0.013 C 
HETATM    2  C2  UNL     1     -31.269  12.565 -13.552  1.00  0.00    -0.105 C 
HETATM    3  C3  UNL     1     -31.954  11.315 -13.948  1.00  0.00     0.186 C 
ENDROOT
BRANCH   3   4
HETATM    4  C4  UNL     1     -31.408  10.948 -15.263  1.00  0.00    -0.094 C 
HETATM    5  C5  UNL     1     -30.943  10.643 -16.334  1.00  0.00    -0.096 C 
BRANCH   5   6
HETATM    6  C6  UNL     1     -30.359  10.259 -17.620  1.00  0.00     0.196 C 
BRANCH   6   7
HETATM    7  C7  UNL     1     -31.388  10.209 -18.681  1.00  0.00     0.229 C 
HETATM    8  O1  UNL     1     -31.229   9.447 -19.658  1.00  0.00    -0.273 OA
HETATM    9  N1  UNL     1     -32.544  11.025 -18.576  1.00  0.00    -0.350 N 
ATOM     10  H1  UNL     1     -32.653  11.639 -17.769  1.00  0.00     0.163 HD
BRANCH   9  11
HETATM   11  C8  UNL     1     -33.572  10.999 -19.598  1.00  0.00     0.217 C 
BRANCH  11  12
HETATM   12  C9  UNL     1     -34.334  12.261 -19.435  1.00  0.00    -0.085 C 
HETATM   13  C10 UNL     1     -34.970  13.277 -19.293  1.00  0.00    -0.085 C 
BRANCH  13  14
HETATM   14  C11 UNL     1     -35.757  14.500 -19.137  1.00  0.00     0.216 C 
BRANCH  14  15
HETATM   15  N2  UNL     1     -35.031  15.641 -19.695  1.00  0.00    -0.354 N 
HETATM   16  C12 UNL     1     -34.765  15.788 -21.061  1.00  0.00     0.191 C 
HETATM   17  N3  UNL     1     -35.798  15.649 -22.008  1.00  0.00    -0.063 NA
HETATM   18  N4  UNL     1     -33.576  16.050 -21.461  1.00  0.00    -0.301 N 
HETATM   19  C13 UNL     1     -32.520  16.193 -20.509  1.00  0.00     0.224 C 
ATOM     20  H4  UNL     1     -33.385  16.157 -22.457  1.00  0.00     0.171 HD
HETATM   21  O2  UNL     1     -32.157  17.351 -20.250  1.00  0.00    -0.273 OA
ATOM     22  H2  UNL     1     -34.703  16.365 -19.057  1.00  0.00     0.163 HD
BRANCH  19  23
HETATM   23  C14 UNL     1     -31.877  15.043 -19.859  1.00  0.00     0.103 C 
BRANCH  23  24
HETATM   24  C15 UNL     1     -31.548  13.959 -20.835  1.00  0.00     0.010 C 
BRANCH  24  25
HETATM   25  C16 UNL     1     -30.325  13.190 -20.427  1.00  0.00     0.011 C 
BRANCH  25  26
HETATM   26  C17 UNL     1     -29.877  13.649 -19.036  1.00  0.00     0.085 C 
HETATM   27 BR1  UNL     1     -28.010  13.172 -18.800  1.00  0.00    -0.097 Br
ENDBRANCH  25  26
ENDBRANCH  24  25
ENDBRANCH  23  24
ENDBRANCH  19  23
ENDBRANCH  14  15
ENDBRANCH  13  14
ENDBRANCH  11  12
ENDBRANCH   9  11
ENDBRANCH   6   7
ENDBRANCH   5   6
ENDBRANCH   3   4
TORSDOF 11
ENDMDL
MODEL 2
REMARK VINA RESULT: -6.330687312      3.132      5.407
REMARK  11 active torsions:
REMARK  status: ('A' for Active; 'I' for Inactive)
REMARK    1  A    between atoms: C3_3  and  C4_4 
REMARK    2  A    between atoms: C5_5  and  C6_6 
REMARK    3  A    between atoms: C6_6  and  C7_7 
REMARK       I    between atoms: C7_7  and  N1_9 
REMARK    4  A    between atoms: N1_9  and  C8_11 
REMARK    5  A    between atoms: C8_11  and  C9_12 
REMARK    6  A    between atoms: C10_13  and  C11_14 
REMARK    7  A    between atoms: C11_14  and  N2_15 
REMARK       I    between atoms: N2_15  and  C12_17 
REMARK       I    between atoms: N4_19  and  C13_21 
REMARK    8  A    between atoms: C13_21  and  C14_23 
REMARK    9  A    between atoms: C14_23  and  C15_24 
REMARK   10  A    between atoms: C15_24  and  C16_25 
REMARK   11  A    between atoms: C16_25  and  C17_26 
ROOT
HETATM    1  C1  UNL     1     -27.337  16.103 -11.937  1.00  0.00     0.013 C 
HETATM    2  C2  UNL     1     -27.864  15.228 -11.305  1.00  0.00    -0.105 C 
HETATM    3  C3  UNL     1     -28.516  14.137 -10.547  1.00  0.00     0.186 C 
ENDROOT
BRANCH   3   4
HETATM    4  C4  UNL     1     -29.690  13.736 -11.338  1.00  0.00    -0.094 C 
HETATM    5  C5  UNL     1     -30.658  13.427 -11.987  1.00  0.00    -0.096 C 
BRANCH   5   6
HETATM    6  C6  UNL     1     -31.836  13.077 -12.782  1.00  0.00     0.196 C 
BRANCH   6   7
HETATM    7  C7  UNL     1     -31.716  11.715 -13.347  1.00  0.00     0.229 C 
HETATM    8  O1  UNL     1     -31.178  10.812 -12.672  1.00  0.00    -0.273 OA
HETATM    9  N1  UNL     1     -32.214  11.450 -14.650  1.00  0.00    -0.350 N 
ATOM     10  H1  UNL     1     -32.650  12.202 -15.184  1.00  0.00     0.163 HD
BRANCH   9  11
HETATM   11  C8  UNL     1     -32.112  10.127 -15.233  1.00  0.00     0.217 C 
BRANCH  11  12
HETATM   12  C9  UNL     1     -31.355  10.301 -16.497  1.00  0.00    -0.085 C 
HETATM   13  C10 UNL     1     -30.744  10.422 -17.529  1.00  0.00    -0.085 C 
BRANCH  13  14
HETATM   14  C11 UNL     1     -29.986  10.553 -18.774  1.00  0.00     0.216 C 
BRANCH  14  15
HETATM   15  N2  UNL     1     -30.196  11.880 -19.354  1.00  0.00    -0.354 N 
HETATM   16  C12 UNL     1     -29.997  13.069 -18.644  1.00  0.00     0.191 C 
HETATM   17  N3  UNL     1     -28.801  13.283 -17.933  1.00  0.00    -0.063 NA
HETATM   18  N4  UNL     1     -30.904  13.973 -18.636  1.00  0.00    -0.301 N 
HETATM   19  C13 UNL     1     -32.122  13.767 -19.353  1.00  0.00     0.224 C 
ATOM     20  H4  UNL     1     -30.757  14.840 -18.117  1.00  0.00     0.171 HD
HETATM   21  O2  UNL     1     -32.238  14.361 -20.438  1.00  0.00    -0.273 OA
ATOM     22  H2  UNL     1     -30.502  11.941 -20.325  1.00  0.00     0.163 HD
BRANCH  19  23
HETATM   23  C14 UNL     1     -33.202  12.904 -18.854  1.00  0.00     0.103 C 
BRANCH  23  24
HETATM   24  C15 UNL     1     -34.356  12.846 -19.803  1.00  0.00     0.010 C 
BRANCH  24  25
HETATM   25  C16 UNL     1     -35.540  13.616 -19.292  1.00  0.00     0.011 C 
BRANCH  25  26
HETATM   26  C17 UNL     1     -35.737  14.871 -20.147  1.00  0.00     0.085 C 
HETATM   27 BR1  UNL     1     -34.932  16.379 -19.226  1.00  0.00    -0.097 Br
ENDBRANCH  25  26
ENDBRANCH  24  25
ENDBRANCH  23  24
ENDBRANCH  19  23
ENDBRANCH  14  15
ENDBRANCH  13  14
ENDBRANCH  11  12
ENDBRANCH   9  11
ENDBRANCH   6   7
ENDBRANCH   5   6
ENDBRANCH   3   4
TORSDOF 11
ENDMDL
MODEL 3
REMARK VINA RESULT: -6.318134084      3.622      5.067
REMARK  11 active torsions:
REMARK  status: ('A' for Active; 'I' for Inactive)
REMARK    1  A    between atoms: C3_3  and  C4_4 
REMARK    2  A    between atoms: C5_5  and  C6_6 
REMARK    3  A    between atoms: C6_6  and  C7_7 
REMARK       I    between atoms: C7_7  and  N1_9 
REMARK    4  A    between atoms: N1_9  and  C8_11 
REMARK    5  A    between atoms: C8_11  and  C9_12 
REMARK    6  A    between atoms: C10_13  and  C11_14 
REMARK    7  A    between atoms: C11_14  and  N2_15 
REMARK       I    between atoms: N2_15  and  C12_17 
REMARK       I    between atoms: N4_19  and  C13_21 
REMARK    8  A    between atoms: C13_21  and  C14_23 
REMARK    9  A    between atoms: C14_23  and  C15_24 
REMARK   10  A    between atoms: C15_24  and  C16_25 
REMARK   11  A    between atoms: C16_25  and  C17_26 
ROOT
HETATM    1  C1  UNL     1     -29.464  12.902 -10.932  1.00  0.00     0.013 C 
HETATM    2  C2  UNL     1     -30.539  13.020 -11.456  1.00  0.00    -0.105 C 
HETATM    3  C3  UNL     1     -31.865  13.140 -12.102  1.00  0.00     0.186 C 
ENDROOT
BRANCH   3   4
HETATM    4  C4  UNL     1     -31.881  12.148 -13.188  1.00  0.00    -0.094 C 
HETATM    5  C5  UNL     1     -31.887  11.349 -14.091  1.00  0.00    -0.096 C 
BRANCH   5   6
HETATM    6  C6  UNL     1     -31.880  10.396 -15.202  1.00  0.00     0.196 C 
BRANCH   6   7
HETATM    7  C7  UNL     1     -31.626  11.078 -16.491  1.00  0.00     0.229 C 
HETATM    8  O1  UNL     1     -30.982  12.147 -16.507  1.00  0.00    -0.273 OA
HETATM    9  N1  UNL     1     -32.118  10.508 -17.694  1.00  0.00    -0.350 N 
ATOM     10  H1  UNL     1     -32.642   9.633 -17.658  1.00  0.00     0.163 HD
BRANCH   9  11
HETATM   11  C8  UNL     1     -31.887  11.150 -18.973  1.00  0.00     0.217 C 
BRANCH  11  12
HETATM   12  C9  UNL     1     -33.094  11.971 -19.235  1.00  0.00    -0.085 C 
HETATM   13  C10 UNL     1     -34.087  12.625 -19.439  1.00  0.00    -0.085 C 
BRANCH  13  14
HETATM   14  C11 UNL     1     -35.299  13.400 -19.704  1.00  0.00     0.216 C 
BRANCH  14  15
HETATM   15  N2  UNL     1     -34.956  14.665 -20.356  1.00  0.00    -0.354 N 
HETATM   16  C12 UNL     1     -35.082  15.910 -19.731  1.00  0.00     0.191 C 
HETATM   17  N3  UNL     1     -34.541  16.123 -18.449  1.00  0.00    -0.063 NA
HETATM   18  N4  UNL     1     -35.694  16.868 -20.323  1.00  0.00    -0.301 N 
HETATM   19  C13 UNL     1     -36.249  16.663 -21.623  1.00  0.00     0.224 C 
ATOM     20  H4  UNL     1     -35.785  17.775 -19.865  1.00  0.00     0.171 HD
HETATM   21  O2  UNL     1     -35.615  17.138 -22.580  1.00  0.00    -0.273 OA
ATOM     22  H2  UNL     1     -34.606  14.637 -21.313  1.00  0.00     0.163 HD
BRANCH  19  23
HETATM   23  C14 UNL     1     -37.505  15.935 -21.846  1.00  0.00     0.103 C 
BRANCH  23  24
HETATM   24  C15 UNL     1     -38.613  16.846 -22.270  1.00  0.00     0.010 C 
BRANCH  24  25
HETATM   25  C16 UNL     1     -39.190  17.603 -21.109  1.00  0.00     0.011 C 
BRANCH  25  26
HETATM   26  C17 UNL     1     -39.162  19.103 -21.417  1.00  0.00     0.085 C 
HETATM   27 BR1  UNL     1     -38.624  19.344 -23.266  1.00  0.00    -0.097 Br
ENDBRANCH  25  26
ENDBRANCH  24  25
ENDBRANCH  23  24
ENDBRANCH  19  23
ENDBRANCH  14  15
ENDBRANCH  13  14
ENDBRANCH  11  12
ENDBRANCH   9  11
ENDBRANCH   6   7
ENDBRANCH   5   6
ENDBRANCH   3   4
TORSDOF 11
ENDMDL
MODEL 4
REMARK VINA RESULT: -6.196714215      3.129      4.833
REMARK  11 active torsions:
REMARK  status: ('A' for Active; 'I' for Inactive)
REMARK    1  A    between atoms: C3_3  and  C4_4 
REMARK    2  A    between atoms: C5_5  and  C6_6 
REMARK    3  A    between atoms: C6_6  and  C7_7 
REMARK       I    between atoms: C7_7  and  N1_9 
REMARK    4  A    between atoms: N1_9  and  C8_11 
REMARK    5  A    between atoms: C8_11  and  C9_12 
REMARK    6  A    between atoms: C10_13  and  C11_14 
REMARK    7  A    between atoms: C11_14  and  N2_15 
REMARK       I    between atoms: N2_15  and  C12_17 
REMARK       I    between atoms: N4_19  and  C13_21 
REMARK    8  A    between atoms: C13_21  and  C14_23 
REMARK    9  A    between atoms: C14_23  and  C15_24 
REMARK   10  A    between atoms: C15_24  and  C16_25 
REMARK   11  A    between atoms: C16_25  and  C17_26 
ROOT
HETATM    1  C1  UNL     1     -27.741  16.035 -11.935  1.00  0.00     0.013 C 
HETATM    2  C2  UNL     1     -28.196  15.113 -11.313  1.00  0.00    -0.105 C 
HETATM    3  C3  UNL     1     -28.760  13.965 -10.569  1.00  0.00     0.186 C 
ENDROOT
BRANCH   3   4
HETATM    4  C4  UNL     1     -29.937  13.523 -11.332  1.00  0.00    -0.094 C 
HETATM    5  C5  UNL     1     -30.911  13.177 -11.955  1.00  0.00    -0.096 C 
BRANCH   5   6
HETATM    6  C6  UNL     1     -32.100  12.785 -12.712  1.00  0.00     0.196 C 
BRANCH   6   7
HETATM    7  C7  UNL     1     -31.821  11.619 -13.580  1.00  0.00     0.229 C 
HETATM    8  O1  UNL     1     -31.256  10.614 -13.100  1.00  0.00    -0.273 OA
HETATM    9  N1  UNL     1     -32.200  11.656 -14.947  1.00  0.00    -0.350 N 
ATOM     10  H1  UNL     1     -32.661  12.487 -15.318  1.00  0.00     0.163 HD
BRANCH   9  11
HETATM   11  C8  UNL     1     -31.942  10.531 -15.824  1.00  0.00     0.217 C 
BRANCH  11  12
HETATM   12  C9  UNL     1     -32.547  10.891 -17.130  1.00  0.00    -0.085 C 
HETATM   13  C10 UNL     1     -33.057  11.174 -18.186  1.00  0.00    -0.085 C 
BRANCH  13  14
HETATM   14  C11 UNL     1     -33.674  11.493 -19.473  1.00  0.00     0.216 C 
BRANCH  14  15
HETATM   15  N2  UNL     1     -32.972  12.611 -20.105  1.00  0.00    -0.354 N 
HETATM   16  C12 UNL     1     -31.645  12.946 -19.817  1.00  0.00     0.191 C 
HETATM   17  N3  UNL     1     -30.639  11.960 -19.841  1.00  0.00    -0.063 NA
HETATM   18  N4  UNL     1     -31.334  14.154 -19.527  1.00  0.00    -0.301 N 
HETATM   19  C13 UNL     1     -32.346  15.162 -19.499  1.00  0.00     0.224 C 
ATOM     20  H4  UNL     1     -30.365  14.396 -19.317  1.00  0.00     0.171 HD
HETATM   21  O2  UNL     1     -32.393  15.931 -20.472  1.00  0.00    -0.273 OA
ATOM     22  H2  UNL     1     -33.475  13.174 -20.791  1.00  0.00     0.163 HD
BRANCH  19  23
HETATM   23  C14 UNL     1     -33.292  15.307 -18.384  1.00  0.00     0.103 C 
BRANCH  23  24
HETATM   24  C15 UNL     1     -34.589  15.907 -18.825  1.00  0.00     0.010 C 
BRANCH  24  25
HETATM   25  C16 UNL     1     -35.571  14.859 -19.262  1.00  0.00     0.011 C 
BRANCH  25  26
HETATM   26  C17 UNL     1     -35.978  15.120 -20.715  1.00  0.00     0.085 C 
HETATM   27 BR1  UNL     1     -36.090  17.038 -20.991  1.00  0.00    -0.097 Br
ENDBRANCH  25  26
ENDBRANCH  24  25
ENDBRANCH  23  24
ENDBRANCH  19  23
ENDBRANCH  14  15
ENDBRANCH  13  14
ENDBRANCH  11  12
ENDBRANCH   9  11
ENDBRANCH   6   7
ENDBRANCH   5   6
ENDBRANCH   3   4
TORSDOF 11
ENDMDL
MODEL 5
REMARK VINA RESULT: -6.145738573      2.988      7.795
REMARK  11 active torsions:
REMARK  status: ('A' for Active; 'I' for Inactive)
REMARK    1  A    between atoms: C3_3  and  C4_4 
REMARK    2  A    between atoms: C5_5  and  C6_6 
REMARK    3  A    between atoms: C6_6  and  C7_7 
REMARK       I    between atoms: C7_7  and  N1_9 
REMARK    4  A    between atoms: N1_9  and  C8_11 
REMARK    5  A    between atoms: C8_11  and  C9_12 
REMARK    6  A    between atoms: C10_13  and  C11_14 
REMARK    7  A    between atoms: C11_14  and  N2_15 
REMARK       I    between atoms: N2_15  and  C12_17 
REMARK       I    between atoms: N4_19  and  C13_21 
REMARK    8  A    between atoms: C13_21  and  C14_23 
REMARK    9  A    between atoms: C14_23  and  C15_24 
REMARK   10  A    between atoms: C15_24  and  C16_25 
REMARK   11  A    between atoms: C16_25  and  C17_26 
ROOT
HETATM    1  C1  UNL     1     -39.299  18.747 -21.062  1.00  0.00     0.013 C 
HETATM    2  C2  UNL     1     -38.242  19.260 -21.312  1.00  0.00    -0.105 C 
HETATM    3  C3  UNL     1     -36.931  19.869 -21.629  1.00  0.00     0.186 C 
ENDROOT
BRANCH   3   4
HETATM    4  C4  UNL     1     -35.914  18.901 -21.190  1.00  0.00    -0.094 C 
HETATM    5  C5  UNL     1     -35.083  18.097 -20.847  1.00  0.00    -0.096 C 
BRANCH   5   6
HETATM    6  C6  UNL     1     -34.073  17.113 -20.457  1.00  0.00     0.196 C 
BRANCH   6   7
HETATM    7  C7  UNL     1     -34.663  16.041 -19.626  1.00  0.00     0.229 C 
HETATM    8  O1  UNL     1     -34.654  16.149 -18.382  1.00  0.00    -0.273 OA
HETATM    9  N1  UNL     1     -35.233  14.902 -20.252  1.00  0.00    -0.350 N 
ATOM     10  H1  UNL     1     -35.230  14.834 -21.270  1.00  0.00     0.163 HD
BRANCH   9  11
HETATM   11  C8  UNL     1     -35.820  13.834 -19.468  1.00  0.00     0.217 C 
BRANCH  11  12
HETATM   12  C9  UNL     1     -34.841  12.720 -19.506  1.00  0.00    -0.085 C 
HETATM   13  C10 UNL     1     -34.037  11.821 -19.519  1.00  0.00    -0.085 C 
BRANCH  13  14
HETATM   14  C11 UNL     1     -33.044  10.747 -19.537  1.00  0.00     0.216 C 
BRANCH  14  15
HETATM   15  N2  UNL     1     -31.774  11.226 -18.989  1.00  0.00    -0.354 N 
HETATM   16  C12 UNL     1     -30.725  10.375 -18.625  1.00  0.00     0.191 C 
HETATM   17  N3  UNL     1     -30.266   9.388 -19.518  1.00  0.00    -0.063 NA
HETATM   18  N4  UNL     1     -30.172  10.489 -17.475  1.00  0.00    -0.301 N 
HETATM   19  C13 UNL     1     -30.630  11.487 -16.561  1.00  0.00     0.224 C 
ATOM     20  H4  UNL     1     -29.407   9.867 -17.213  1.00  0.00     0.171 HD
HETATM   21  O2  UNL     1     -29.927  12.504 -16.449  1.00  0.00    -0.273 OA
ATOM     22  H2  UNL     1     -31.648  12.230 -18.865  1.00  0.00     0.163 HD
BRANCH  19  23
HETATM   23  C14 UNL     1     -31.864  11.340 -15.778  1.00  0.00     0.103 C 
BRANCH  23  24
HETATM   24  C15 UNL     1     -31.591  10.862 -14.387  1.00  0.00     0.010 C 
BRANCH  24  25
HETATM   25  C16 UNL     1     -32.041  11.855 -13.355  1.00  0.00     0.011 C 
BRANCH  25  26
HETATM   26  C17 UNL     1     -30.873  12.778 -12.996  1.00  0.00     0.085 C 
HETATM   27 BR1  UNL     1     -30.188  12.260 -11.255  1.00  0.00    -0.097 Br
ENDBRANCH  25  26
ENDBRANCH  24  25
ENDBRANCH  23  24
ENDBRANCH  19  23
ENDBRANCH  14  15
ENDBRANCH  13  14
ENDBRANCH  11  12
ENDBRANCH   9  11
ENDBRANCH   6   7
ENDBRANCH   5   6
ENDBRANCH   3   4
TORSDOF 11
ENDMDL
