MODEL 1
REMARK VINA RESULT: -7.820375587      0.000      0.000
REMARK  7 active torsions:
REMARK  status: ('A' for Active; 'I' for Inactive)
REMARK    1  A    between atoms: N1_1  and  C1_5 
REMARK    2  A    between atoms: C1_5  and  C2_6 
REMARK    3  A    between atoms: C2_6  and  C3_7 
REMARK    4  A    between atoms: C3_7  and  N2_8 
REMARK    5  A    between atoms: N2_8  and  C4_10 
REMARK    6  A    between atoms: C5_13  and  N4_14 
REMARK    7  A    between atoms: N5_17  and  C8_18 
ROOT
HETATM    1  C4  UNL     1     -24.608  10.630  -8.347  1.00  0.00     0.134 A 
HETATM    2  N3  UNL     1     -24.961  11.625  -7.522  1.00  0.00    -0.176 N 
ATOM      3  H3  UNL     1     -24.331  11.916  -6.773  1.00  0.00     0.186 HD
HETATM    4  C5  UNL     1     -26.167  12.252  -7.687  1.00  0.00     0.683 A 
HETATM    5  N6  UNL     1     -27.029  11.912  -8.650  1.00  0.00    -0.175 N 
ATOM      6  H6  UNL     1     -27.919  12.402  -8.740  1.00  0.00     0.186 HD
HETATM    7  C14 UNL     1     -26.708  10.908  -9.507  1.00  0.00     0.139 A 
HETATM    8  N7  UNL     1     -27.378  10.369 -10.557  1.00  0.00    -0.333 N 
ATOM      9  H7  UNL     1     -28.299  10.646 -10.897  1.00  0.00     0.168 HD
HETATM   10  C15 UNL     1     -26.605   9.411 -11.054  1.00  0.00     0.121 A 
HETATM   11 BR1  UNL     1     -27.114   8.338 -12.561  1.00  0.00    -0.028 Br
HETATM   12  C16 UNL     1     -25.435   9.308 -10.349  1.00  0.00     0.168 A 
HETATM   13  F1  UNL     1     -24.394   8.444 -10.560  1.00  0.00    -0.202 F 
HETATM   14  C17 UNL     1     -25.492  10.270  -9.348  1.00  0.00     0.094 A 
ENDROOT
BRANCH   4  15
HETATM   15  N4  UNL     1     -26.530  13.312  -6.809  1.00  0.00    -0.214 N 
HETATM   16  C6  UNL     1     -25.595  13.602  -5.727  1.00  0.00     0.171 C 
HETATM   17  C7  UNL     1     -25.397  15.125  -5.811  1.00  0.00     0.293 C 
HETATM   18  N5  UNL     1     -26.640  15.709  -5.359  1.00  0.00     0.096 N 
HETATM   19  C12 UNL     1     -27.793  14.900  -5.589  1.00  0.00     0.293 C 
HETATM   20  C13 UNL     1     -27.712  14.106  -6.888  1.00  0.00     0.171 C 
BRANCH  18  21
HETATM   21  C8  UNL     1     -26.463  16.043  -3.969  1.00  0.00     0.223 A 
HETATM   22  C9  UNL     1     -27.686  15.932  -3.100  1.00  0.00     0.036 A 
HETATM   23  C10 UNL     1     -27.594  17.424  -2.851  1.00  0.00     0.004 A 
HETATM   24  C11 UNL     1     -26.456  17.566  -3.819  1.00  0.00     0.036 A 
ENDBRANCH  18  21
ENDBRANCH   4  15
BRANCH   1  25
HETATM   25  N2  UNL     1     -23.465  10.006  -8.205  1.00  0.00    -0.375 N 
ATOM     26  H2  UNL     1     -22.667  10.245  -8.795  1.00  0.00     0.161 HD
BRANCH  25  27
HETATM   27  C3  UNL     1     -23.351   8.971  -7.197  1.00  0.00     0.123 C 
BRANCH  27  28
HETATM   28  C2  UNL     1     -22.984   9.530  -5.836  1.00  0.00     0.047 C 
BRANCH  28  29
HETATM   29  C1  UNL     1     -23.975   9.114  -4.784  1.00  0.00     0.231 C 
BRANCH  29  30
HETATM   30  N1  UNL     1     -25.256   8.758  -5.363  1.00  0.00    -0.079 N 
ATOM     31  H13 UNL     1     -25.931   9.517  -5.268  1.00  0.00     0.274 HD
ATOM     32  H12 UNL     1     -25.206   8.717  -6.381  1.00  0.00     0.274 HD
ATOM     33  H11 UNL     1     -25.618   7.888  -4.974  1.00  0.00     0.274 HD
ENDBRANCH  29  30
ENDBRANCH  28  29
ENDBRANCH  27  28
ENDBRANCH  25  27
ENDBRANCH   1  25
TORSDOF 7
ENDMDL
MODEL 2
REMARK VINA RESULT: -7.794651429      0.996      1.000
REMARK  7 active torsions:
REMARK  status: ('A' for Active; 'I' for Inactive)
REMARK    1  A    between atoms: N1_1  and  C1_5 
REMARK    2  A    between atoms: C1_5  and  C2_6 
REMARK    3  A    between atoms: C2_6  and  C3_7 
REMARK    4  A    between atoms: C3_7  and  N2_8 
REMARK    5  A    between atoms: N2_8  and  C4_10 
REMARK    6  A    between atoms: C5_13  and  N4_14 
REMARK    7  A    between atoms: N5_17  and  C8_18 
ROOT
HETATM    1  C4  UNL     1     -24.745  10.999  -8.413  1.00  0.00     0.134 A 
HETATM    2  N3  UNL     1     -25.178  11.725  -7.374  1.00  0.00    -0.176 N 
ATOM      3  H3  UNL     1     -24.668  11.708  -6.490  1.00  0.00     0.186 HD
HETATM    4  C5  UNL     1     -26.306  12.493  -7.500  1.00  0.00     0.683 A 
HETATM    5  N6  UNL     1     -27.011  12.552  -8.633  1.00  0.00    -0.175 N 
ATOM      6  H6  UNL     1     -27.847  13.135  -8.689  1.00  0.00     0.186 HD
HETATM    7  C14 UNL     1     -26.604  11.831  -9.710  1.00  0.00     0.139 A 
HETATM    8  N7  UNL     1     -27.117  11.709 -10.961  1.00  0.00    -0.333 N 
ATOM      9  H7  UNL     1     -27.952  12.169 -11.323  1.00  0.00     0.168 HD
HETATM   10  C15 UNL     1     -26.323  10.876 -11.621  1.00  0.00     0.121 A 
HETATM   11 BR1  UNL     1     -26.629  10.371 -13.447  1.00  0.00    -0.028 Br
HETATM   12  C16 UNL     1     -25.294  10.444 -10.827  1.00  0.00     0.168 A 
HETATM   13  F1  UNL     1     -24.279   9.584 -11.151  1.00  0.00    -0.202 F 
HETATM   14  C17 UNL     1     -25.467  11.054  -9.591  1.00  0.00     0.094 A 
ENDROOT
BRANCH   4  15
HETATM   15  N4  UNL     1     -26.754  13.265  -6.392  1.00  0.00    -0.214 N 
HETATM   16  C6  UNL     1     -25.818  14.260  -5.879  1.00  0.00     0.171 C 
HETATM   17  C7  UNL     1     -26.658  15.544  -5.789  1.00  0.00     0.293 C 
HETATM   18  N5  UNL     1     -27.578  15.337  -4.693  1.00  0.00     0.096 N 
HETATM   19  C12 UNL     1     -27.925  13.973  -4.460  1.00  0.00     0.293 C 
HETATM   20  C13 UNL     1     -28.019  13.156  -5.744  1.00  0.00     0.171 C 
BRANCH  18  21
HETATM   21  C8  UNL     1     -26.997  15.969  -3.536  1.00  0.00     0.223 A 
HETATM   22  C9  UNL     1     -27.950  16.711  -2.638  1.00  0.00     0.036 A 
HETATM   23  C10 UNL     1     -27.201  17.987  -2.967  1.00  0.00     0.004 A 
HETATM   24  C11 UNL     1     -26.332  17.279  -3.964  1.00  0.00     0.036 A 
ENDBRANCH  18  21
ENDBRANCH   4  15
BRANCH   1  25
HETATM   25  N2  UNL     1     -23.676  10.249  -8.315  1.00  0.00    -0.375 N 
ATOM     26  H2  UNL     1     -22.854  10.440  -8.888  1.00  0.00     0.161 HD
BRANCH  25  27
HETATM   27  C3  UNL     1     -23.679   9.141  -7.380  1.00  0.00     0.123 C 
BRANCH  27  28
HETATM   28  C2  UNL     1     -23.068   9.514  -6.044  1.00  0.00     0.047 C 
BRANCH  28  29
HETATM   29  C1  UNL     1     -23.993   9.187  -4.904  1.00  0.00     0.231 C 
BRANCH  29  30
HETATM   30  N1  UNL     1     -25.325   8.851  -5.372  1.00  0.00    -0.079 N 
ATOM     31  H13 UNL     1     -25.363   8.814  -6.390  1.00  0.00     0.274 HD
ATOM     32  H12 UNL     1     -25.557   7.879  -5.168  1.00  0.00     0.274 HD
ATOM     33  H11 UNL     1     -26.028   9.487  -4.997  1.00  0.00     0.274 HD
ENDBRANCH  29  30
ENDBRANCH  28  29
ENDBRANCH  27  28
ENDBRANCH  25  27
ENDBRANCH   1  25
TORSDOF 7
ENDMDL
MODEL 3
REMARK VINA RESULT: -7.738337421      1.843      2.295
REMARK  7 active torsions:
REMARK  status: ('A' for Active; 'I' for Inactive)
REMARK    1  A    between atoms: N1_1  and  C1_5 
REMARK    2  A    between atoms: C1_5  and  C2_6 
REMARK    3  A    between atoms: C2_6  and  C3_7 
REMARK    4  A    between atoms: C3_7  and  N2_8 
REMARK    5  A    between atoms: N2_8  and  C4_10 
REMARK    6  A    between atoms: C5_13  and  N4_14 
REMARK    7  A    between atoms: N5_17  and  C8_18 
ROOT
HETATM    1  C4  UNL     1     -25.929  10.498  -6.397  1.00  0.00     0.134 A 
HETATM    2  N3  UNL     1     -26.326  11.515  -5.620  1.00  0.00    -0.176 N 
ATOM      3  H3  UNL     1     -26.710  11.330  -4.692  1.00  0.00     0.186 HD
HETATM    4  C5  UNL     1     -26.215  12.803  -6.072  1.00  0.00     0.683 A 
HETATM    5  N6  UNL     1     -25.721  13.102  -7.277  1.00  0.00    -0.175 N 
ATOM      6  H6  UNL     1     -25.655  14.074  -7.579  1.00  0.00     0.186 HD
HETATM    7  C14 UNL     1     -25.306  12.099  -8.094  1.00  0.00     0.139 A 
HETATM    8  N7  UNL     1     -24.772  12.114  -9.342  1.00  0.00    -0.333 N 
ATOM      9  H7  UNL     1     -24.582  12.939  -9.912  1.00  0.00     0.168 HD
HETATM   10  C15 UNL     1     -24.544  10.850  -9.677  1.00  0.00     0.121 A 
HETATM   11 BR1  UNL     1     -23.791  10.339 -11.366  1.00  0.00    -0.028 Br
HETATM   12  C16 UNL     1     -24.921  10.000  -8.671  1.00  0.00     0.168 A 
HETATM   13  F1  UNL     1     -24.841   8.633  -8.646  1.00  0.00    -0.202 F 
HETATM   14  C17 UNL     1     -25.415  10.796  -7.646  1.00  0.00     0.094 A 
ENDROOT
BRANCH   4  15
HETATM   15  N4  UNL     1     -26.634  13.876  -5.237  1.00  0.00    -0.214 N 
HETATM   16  C6  UNL     1     -25.610  14.852  -4.877  1.00  0.00     0.171 C 
HETATM   17  C7  UNL     1     -26.266  16.207  -5.190  1.00  0.00     0.293 C 
HETATM   18  N5  UNL     1     -27.287  16.391  -4.183  1.00  0.00     0.096 N 
HETATM   19  C12 UNL     1     -27.838  15.179  -3.669  1.00  0.00     0.293 C 
HETATM   20  C13 UNL     1     -27.947  14.083  -4.723  1.00  0.00     0.171 C 
BRANCH  18  21
HETATM   21  C8  UNL     1     -26.713  17.221  -3.154  1.00  0.00     0.223 A 
HETATM   22  C9  UNL     1     -27.681  18.060  -2.364  1.00  0.00     0.036 A 
HETATM   23  C10 UNL     1     -26.990  19.294  -2.909  1.00  0.00     0.004 A 
HETATM   24  C11 UNL     1     -26.109  18.470  -3.801  1.00  0.00     0.036 A 
ENDBRANCH  18  21
ENDBRANCH   4  15
BRANCH   1  25
HETATM   25  N2  UNL     1     -26.034   9.257  -5.993  1.00  0.00    -0.375 N 
ATOM     26  H2  UNL     1     -26.668   8.610  -6.463  1.00  0.00     0.161 HD
BRANCH  25  27
HETATM   27  C3  UNL     1     -25.235   8.816  -4.866  1.00  0.00     0.123 C 
BRANCH  27  28
HETATM   28  C2  UNL     1     -23.752   8.812  -5.179  1.00  0.00     0.047 C 
BRANCH  28  29
HETATM   29  C1  UNL     1     -22.995   9.744  -4.274  1.00  0.00     0.231 C 
BRANCH  29  30
HETATM   30  N1  UNL     1     -22.783  11.040  -4.891  1.00  0.00    -0.079 N 
ATOM     31  H13 UNL     1     -22.532  10.946  -5.875  1.00  0.00     0.274 HD
ATOM     32  H12 UNL     1     -23.660  11.549  -4.998  1.00  0.00     0.274 HD
ATOM     33  H11 UNL     1     -22.093  11.592  -4.383  1.00  0.00     0.274 HD
ENDBRANCH  29  30
ENDBRANCH  28  29
ENDBRANCH  27  28
ENDBRANCH  25  27
ENDBRANCH   1  25
TORSDOF 7
ENDMDL
MODEL 4
REMARK VINA RESULT: -7.412276676      1.754      2.685
REMARK  7 active torsions:
REMARK  status: ('A' for Active; 'I' for Inactive)
REMARK    1  A    between atoms: N1_1  and  C1_5 
REMARK    2  A    between atoms: C1_5  and  C2_6 
REMARK    3  A    between atoms: C2_6  and  C3_7 
REMARK    4  A    between atoms: C3_7  and  N2_8 
REMARK    5  A    between atoms: N2_8  and  C4_10 
REMARK    6  A    between atoms: C5_13  and  N4_14 
REMARK    7  A    between atoms: N5_17  and  C8_18 
ROOT
HETATM    1  C4  UNL     1     -24.806  10.620  -8.609  1.00  0.00     0.134 A 
HETATM    2  N3  UNL     1     -25.163  11.557  -7.720  1.00  0.00    -0.176 N 
ATOM      3  H3  UNL     1     -24.476  12.236  -7.390  1.00  0.00     0.186 HD
HETATM    4  C5  UNL     1     -26.450  11.601  -7.255  1.00  0.00     0.683 A 
HETATM    5  N6  UNL     1     -27.388  10.736  -7.652  1.00  0.00    -0.175 N 
ATOM      6  H6  UNL     1     -28.337  10.800  -7.282  1.00  0.00     0.186 HD
HETATM    7  C14 UNL     1     -27.067   9.772  -8.554  1.00  0.00     0.139 A 
HETATM    8  N7  UNL     1     -27.805   8.786  -9.123  1.00  0.00    -0.333 N 
ATOM      9  H7  UNL     1     -28.792   8.591  -8.953  1.00  0.00     0.168 HD
HETATM   10  C15 UNL     1     -26.996   8.124  -9.941  1.00  0.00     0.121 A 
HETATM   11 BR1  UNL     1     -27.572   6.621 -10.985  1.00  0.00    -0.028 Br
HETATM   12  C16 UNL     1     -25.734   8.657  -9.921  1.00  0.00     0.168 A 
HETATM   13  F1  UNL     1     -24.634   8.250 -10.627  1.00  0.00    -0.202 F 
HETATM   14  C17 UNL     1     -25.769   9.721  -9.029  1.00  0.00     0.094 A 
ENDROOT
BRANCH   4  15
HETATM   15  N4  UNL     1     -26.820  12.603  -6.315  1.00  0.00    -0.214 N 
HETATM   16  C6  UNL     1     -25.740  13.445  -5.811  1.00  0.00     0.171 C 
HETATM   17  C7  UNL     1     -26.277  14.875  -5.985  1.00  0.00     0.293 C 
HETATM   18  N5  UNL     1     -27.322  15.026  -4.998  1.00  0.00     0.096 N 
HETATM   19  C12 UNL     1     -27.986  13.813  -4.647  1.00  0.00     0.293 C 
HETATM   20  C13 UNL     1     -28.135  12.855  -5.824  1.00  0.00     0.171 C 
BRANCH  18  21
HETATM   21  C8  UNL     1     -26.731  15.686  -3.862  1.00  0.00     0.223 A 
HETATM   22  C9  UNL     1     -27.691  16.254  -2.852  1.00  0.00     0.036 A 
HETATM   23  C10 UNL     1     -27.150  17.633  -3.176  1.00  0.00     0.004 A 
HETATM   24  C11 UNL     1     -26.286  17.090  -4.277  1.00  0.00     0.036 A 
ENDBRANCH  18  21
ENDBRANCH   4  15
BRANCH   1  25
HETATM   25  N2  UNL     1     -23.579  10.549  -9.062  1.00  0.00    -0.375 N 
ATOM     26  H2  UNL     1     -22.935   9.843  -8.706  1.00  0.00     0.161 HD
BRANCH  25  27
HETATM   27  C3  UNL     1     -23.151  11.491 -10.078  1.00  0.00     0.123 C 
BRANCH  27  28
HETATM   28  C2  UNL     1     -23.281  10.925 -11.479  1.00  0.00     0.047 C 
BRANCH  28  29
HETATM   29  C1  UNL     1     -24.590  11.311 -12.110  1.00  0.00     0.231 C 
BRANCH  29  30
HETATM   30  N1  UNL     1     -25.234  12.395 -11.393  1.00  0.00    -0.079 N 
ATOM     31  H13 UNL     1     -26.231  12.221 -11.272  1.00  0.00     0.274 HD
ATOM     32  H12 UNL     1     -24.954  12.410 -10.412  1.00  0.00     0.274 HD
ATOM     33  H11 UNL     1     -25.066  13.296 -11.841  1.00  0.00     0.274 HD
ENDBRANCH  29  30
ENDBRANCH  28  29
ENDBRANCH  27  28
ENDBRANCH  25  27
ENDBRANCH   1  25
TORSDOF 7
ENDMDL
MODEL 5
REMARK VINA RESULT: -7.209510281      2.355      3.577
REMARK  7 active torsions:
REMARK  status: ('A' for Active; 'I' for Inactive)
REMARK    1  A    between atoms: N1_1  and  C1_5 
REMARK    2  A    between atoms: C1_5  and  C2_6 
REMARK    3  A    between atoms: C2_6  and  C3_7 
REMARK    4  A    between atoms: C3_7  and  N2_8 
REMARK    5  A    between atoms: N2_8  and  C4_10 
REMARK    6  A    between atoms: C5_13  and  N4_14 
REMARK    7  A    between atoms: N5_17  and  C8_18 
ROOT
HETATM    1  C4  UNL     1     -26.519  10.218 -11.140  1.00  0.00     0.134 A 
HETATM    2  N3  UNL     1     -26.583  11.048 -10.089  1.00  0.00    -0.176 N 
ATOM      3  H3  UNL     1     -26.249  12.009 -10.175  1.00  0.00     0.186 HD
HETATM    4  C5  UNL     1     -27.099  10.605  -8.900  1.00  0.00     0.683 A 
HETATM    5  N6  UNL     1     -27.550   9.358  -8.732  1.00  0.00    -0.175 N 
ATOM      6  H6  UNL     1     -27.926   9.064  -7.831  1.00  0.00     0.186 HD
HETATM    7  C14 UNL     1     -27.503   8.487  -9.774  1.00  0.00     0.139 A 
HETATM    8  N7  UNL     1     -27.886   7.189  -9.883  1.00  0.00    -0.333 N 
ATOM      9  H7  UNL     1     -28.300   6.614  -9.149  1.00  0.00     0.168 HD
HETATM   10  C15 UNL     1     -27.619   6.814 -11.127  1.00  0.00     0.121 A 
HETATM   11 BR1  UNL     1     -27.978   5.046 -11.782  1.00  0.00    -0.028 Br
HETATM   12  C16 UNL     1     -27.064   7.842 -11.842  1.00  0.00     0.168 A 
HETATM   13  F1  UNL     1     -26.657   7.839 -13.149  1.00  0.00    -0.202 F 
HETATM   14  C17 UNL     1     -26.984   8.926 -10.977  1.00  0.00     0.094 A 
ENDROOT
BRANCH   4  15
HETATM   15  N4  UNL     1     -27.168  11.495  -7.793  1.00  0.00    -0.214 N 
HETATM   16  C6  UNL     1     -27.604  12.857  -8.086  1.00  0.00     0.171 C 
HETATM   17  C7  UNL     1     -28.702  13.124  -7.045  1.00  0.00     0.293 C 
HETATM   18  N5  UNL     1     -28.021  13.246  -5.776  1.00  0.00     0.096 N 
HETATM   19  C12 UNL     1     -26.802  12.508  -5.684  1.00  0.00     0.293 C 
HETATM   20  C13 UNL     1     -26.852  11.184  -6.438  1.00  0.00     0.171 C 
BRANCH  18  21
HETATM   21  C8  UNL     1     -27.838  14.654  -5.533  1.00  0.00     0.223 A 
HETATM   22  C9  UNL     1     -26.499  15.063  -4.981  1.00  0.00     0.036 A 
HETATM   23  C10 UNL     1     -27.209  15.552  -3.735  1.00  0.00     0.004 A 
HETATM   24  C11 UNL     1     -28.529  15.028  -4.220  1.00  0.00     0.036 A 
ENDBRANCH  18  21
ENDBRANCH   4  15
BRANCH   1  25
HETATM   25  N2  UNL     1     -26.021  10.613 -12.285  1.00  0.00    -0.375 N 
ATOM     26  H2  UNL     1     -26.525  10.446 -13.155  1.00  0.00     0.161 HD
BRANCH  25  27
HETATM   27  C3  UNL     1     -24.740  11.292 -12.295  1.00  0.00     0.123 C 
BRANCH  27  28
HETATM   28  C2  UNL     1     -23.652  10.481 -11.619  1.00  0.00     0.047 C 
BRANCH  28  29
HETATM   29  C1  UNL     1     -22.995  11.256 -10.511  1.00  0.00     0.231 C 
BRANCH  29  30
HETATM   30  N1  UNL     1     -22.992  10.515  -9.264  1.00  0.00    -0.079 N 
ATOM     31  H13 UNL     1     -22.087  10.574  -8.798  1.00  0.00     0.274 HD
ATOM     32  H12 UNL     1     -23.565  10.976  -8.557  1.00  0.00     0.274 HD
ATOM     33  H11 UNL     1     -23.278   9.546  -9.400  1.00  0.00     0.274 HD
ENDBRANCH  29  30
ENDBRANCH  28  29
ENDBRANCH  27  28
ENDBRANCH  25  27
ENDBRANCH   1  25
TORSDOF 7
ENDMDL
