MODEL 1
REMARK VINA RESULT: -7.479104044      0.000      0.000
REMARK  6 active torsions:
REMARK  status: ('A' for Active; 'I' for Inactive)
REMARK    1  A    between atoms: C2_2  and  C3_3 
REMARK    2  A    between atoms: C3_3  and  C4_4 
REMARK    3  A    between atoms: C7_13  and  N3_14 
REMARK    4  A    between atoms: C10_17  and  N4_18 
REMARK    5  A    between atoms: N4_18  and  C11_20 
REMARK    6  A    between atoms: N6_28  and  C15_29 
ROOT
HETATM    1  N3  UNL     1     -26.801   9.769 -12.500  1.00  0.00    -0.366 N 
HETATM    2  C8  UNL     1     -25.579   9.393 -11.758  1.00  0.00     0.126 C 
HETATM    3  C9  UNL     1     -24.963  10.612 -11.064  1.00  0.00     0.045 C 
HETATM    4  C10 UNL     1     -25.948  11.356 -10.230  1.00  0.00     0.102 C 
HETATM    5  C18 UNL     1     -27.239  10.574 -10.293  1.00  0.00     0.045 C 
HETATM    6  C19 UNL     1     -27.658  10.667 -11.785  1.00  0.00     0.126 C 
ENDROOT
BRANCH   1   7
HETATM    7  C7  UNL     1     -26.980   9.187 -13.748  1.00  0.00     0.130 A 
HETATM    8  C6  UNL     1     -26.685   9.847 -14.907  1.00  0.00     0.121 A 
HETATM    9  C5  UNL     1     -26.912   9.260 -16.168  1.00  0.00     0.126 A 
HETATM   10 CL1  UNL     1     -25.991  11.443 -14.797  1.00  0.00    -0.076 Cl
HETATM   11  N1  UNL     1     -27.432   8.019 -16.190  1.00  0.00    -0.331 N 
HETATM   12  N2  UNL     1     -26.616   9.915 -17.225  1.00  0.00    -0.384 N 
HETATM   13  C4  UNL     1     -27.731   7.348 -15.065  1.00  0.00     0.084 A 
ATOM     14  H1  UNL     1     -27.605   7.573 -17.091  1.00  0.00     0.168 HD
HETATM   15  N7  UNL     1     -27.508   7.928 -13.861  1.00  0.00    -0.331 N 
ATOM     16  H7  UNL     1     -27.739   7.411 -13.013  1.00  0.00     0.168 HD
ATOM     17  H22 UNL     1     -26.780   9.490 -18.137  1.00  0.00     0.157 HD
ATOM     18  H21 UNL     1     -26.221  10.855 -17.208  1.00  0.00     0.157 HD
BRANCH  13  19
HETATM   19  C3  UNL     1     -28.302   5.987 -15.186  1.00  0.00     0.076 C 
BRANCH  19  20
HETATM   20  C2  UNL     1     -28.613   5.378 -13.834  1.00  0.00     0.003 C 
HETATM   21  C1  UNL     1     -28.565   3.867 -14.010  1.00  0.00     0.005 C 
ENDBRANCH  19  20
ENDBRANCH  13  19
ENDBRANCH   1   7
BRANCH   4  22
HETATM   22  N4  UNL     1     -25.516  11.780  -8.969  1.00  0.00    -0.221 N 
ATOM     23  H4  UNL     1     -24.529  12.038  -8.959  1.00  0.00     0.178 HD
BRANCH  22  24
HETATM   24  C11 UNL     1     -26.058  11.916  -7.851  1.00  0.00     0.683 A 
HETATM   25  N5  UNL     1     -26.729  13.033  -7.534  1.00  0.00    -0.199 N 
HETATM   26  C12 UNL     1     -27.318  13.152  -6.312  1.00  0.00     0.154 A 
ATOM     27  H5  UNL     1     -26.798  13.794  -8.209  1.00  0.00     0.183 HD
HETATM   28  C13 UNL     1     -27.227  12.127  -5.404  1.00  0.00     0.200 A 
HETATM   29  F1  UNL     1     -27.818  12.261  -4.204  1.00  0.00    -0.199 F 
HETATM   30  C14 UNL     1     -26.522  10.987  -5.770  1.00  0.00     0.302 A 
HETATM   31  O1  UNL     1     -26.442  10.041  -4.915  1.00  0.00    -0.264 OA
HETATM   32  N6  UNL     1     -25.940  10.872  -6.978  1.00  0.00    -0.140 N 
BRANCH  32  33
HETATM   33  C15 UNL     1     -25.235   9.661  -7.268  1.00  0.00     0.111 A 
HETATM   34  C16 UNL     1     -23.817   9.642  -7.678  1.00  0.00     0.028 A 
HETATM   35  C17 UNL     1     -24.200   9.144  -6.313  1.00  0.00     0.028 A 
ENDBRANCH  32  33
ENDBRANCH  22  24
ENDBRANCH   4  22
TORSDOF 6
ENDMDL
MODEL 2
REMARK VINA RESULT: -7.456031823      2.132      3.779
REMARK  6 active torsions:
REMARK  status: ('A' for Active; 'I' for Inactive)
REMARK    1  A    between atoms: C2_2  and  C3_3 
REMARK    2  A    between atoms: C3_3  and  C4_4 
REMARK    3  A    between atoms: C7_13  and  N3_14 
REMARK    4  A    between atoms: C10_17  and  N4_18 
REMARK    5  A    between atoms: N4_18  and  C11_20 
REMARK    6  A    between atoms: N6_28  and  C15_29 
ROOT
HETATM    1  N3  UNL     1     -27.129   9.009 -12.348  1.00  0.00    -0.366 N 
HETATM    2  C8  UNL     1     -28.238   9.497 -11.502  1.00  0.00     0.126 C 
HETATM    3  C9  UNL     1     -28.123   8.946 -10.077  1.00  0.00     0.045 C 
HETATM    4  C10 UNL     1     -26.781   9.183  -9.477  1.00  0.00     0.102 C 
HETATM    5  C18 UNL     1     -25.996   9.987 -10.486  1.00  0.00     0.045 C 
HETATM    6  C19 UNL     1     -25.853   9.027 -11.698  1.00  0.00     0.126 C 
ENDROOT
BRANCH   1   7
HETATM    7  C7  UNL     1     -27.449   8.641 -13.649  1.00  0.00     0.130 A 
HETATM    8  C6  UNL     1     -27.693   7.342 -13.998  1.00  0.00     0.121 A 
HETATM    9  C5  UNL     1     -27.976   6.977 -15.329  1.00  0.00     0.126 A 
HETATM   10 CL1  UNL     1     -27.673   6.131 -12.743  1.00  0.00    -0.076 Cl
HETATM   11  N1  UNL     1     -27.996   7.958 -16.250  1.00  0.00    -0.331 N 
HETATM   12  N2  UNL     1     -28.202   5.750 -15.606  1.00  0.00    -0.384 N 
HETATM   13  C4  UNL     1     -27.759   9.241 -15.934  1.00  0.00     0.084 A 
ATOM     14  H1  UNL     1     -28.197   7.718 -17.221  1.00  0.00     0.168 HD
HETATM   15  N7  UNL     1     -27.489   9.575 -14.648  1.00  0.00    -0.331 N 
ATOM     16  H7  UNL     1     -27.309  10.553 -14.419  1.00  0.00     0.168 HD
ATOM     17  H22 UNL     1     -28.406   5.485 -16.569  1.00  0.00     0.157 HD
ATOM     18  H21 UNL     1     -28.186   5.007 -14.908  1.00  0.00     0.157 HD
BRANCH  13  19
HETATM   19  C3  UNL     1     -27.801  10.254 -17.014  1.00  0.00     0.076 C 
BRANCH  19  20
HETATM   20  C2  UNL     1     -26.708  10.038 -18.041  1.00  0.00     0.003 C 
HETATM   21  C1  UNL     1     -25.385  10.308 -17.339  1.00  0.00     0.005 C 
ENDBRANCH  19  20
ENDBRANCH  13  19
ENDBRANCH   1   7
BRANCH   4  22
HETATM   22  N4  UNL     1     -26.750   9.617  -8.147  1.00  0.00    -0.221 N 
ATOM     23  H4  UNL     1     -27.683   9.740  -7.754  1.00  0.00     0.178 HD
BRANCH  22  24
HETATM   24  C11 UNL     1     -25.845   9.889  -7.329  1.00  0.00     0.683 A 
HETATM   25  N5  UNL     1     -25.003   8.946  -6.882  1.00  0.00    -0.199 N 
HETATM   26  C12 UNL     1     -24.020   9.272  -5.998  1.00  0.00     0.154 A 
ATOM     27  H5  UNL     1     -25.100   7.983  -7.205  1.00  0.00     0.183 HD
HETATM   28  C13 UNL     1     -23.889  10.567  -5.564  1.00  0.00     0.200 A 
HETATM   29  F1  UNL     1     -22.911  10.870  -4.694  1.00  0.00    -0.199 F 
HETATM   30  C14 UNL     1     -24.781  11.514  -6.050  1.00  0.00     0.302 A 
HETATM   31  O1  UNL     1     -24.651  12.716  -5.638  1.00  0.00    -0.264 OA
HETATM   32  N6  UNL     1     -25.753  11.190  -6.924  1.00  0.00    -0.140 N 
BRANCH  32  33
HETATM   33  C15 UNL     1     -26.626  12.233  -7.370  1.00  0.00     0.111 A 
HETATM   34  C16 UNL     1     -28.080  12.040  -7.536  1.00  0.00     0.028 A 
HETATM   35  C17 UNL     1     -27.570  12.890  -6.408  1.00  0.00     0.028 A 
ENDBRANCH  32  33
ENDBRANCH  22  24
ENDBRANCH   4  22
TORSDOF 6
ENDMDL
MODEL 3
REMARK VINA RESULT: -7.434041823      4.167      8.945
REMARK  6 active torsions:
REMARK  status: ('A' for Active; 'I' for Inactive)
REMARK    1  A    between atoms: C2_2  and  C3_3 
REMARK    2  A    between atoms: C3_3  and  C4_4 
REMARK    3  A    between atoms: C7_13  and  N3_14 
REMARK    4  A    between atoms: C10_17  and  N4_18 
REMARK    5  A    between atoms: N4_18  and  C11_20 
REMARK    6  A    between atoms: N6_28  and  C15_29 
ROOT
HETATM    1  N3  UNL     1     -27.053   9.697  -8.940  1.00  0.00    -0.366 N 
HETATM    2  C8  UNL     1     -26.421   9.431 -10.249  1.00  0.00     0.126 C 
HETATM    3  C9  UNL     1     -26.836   8.058 -10.789  1.00  0.00     0.045 C 
HETATM    4  C10 UNL     1     -28.314   7.872 -10.805  1.00  0.00     0.102 C 
HETATM    5  C18 UNL     1     -28.916   9.178 -10.344  1.00  0.00     0.045 C 
HETATM    6  C19 UNL     1     -28.432   9.314  -8.875  1.00  0.00     0.126 C 
ENDROOT
BRANCH   1   7
HETATM    7  C7  UNL     1     -26.263  10.307  -7.975  1.00  0.00     0.130 A 
HETATM    8  C6  UNL     1     -26.511  11.573  -7.524  1.00  0.00     0.121 A 
HETATM    9  C5  UNL     1     -25.677  12.195  -6.575  1.00  0.00     0.126 A 
HETATM   10 CL1  UNL     1     -27.915  12.407  -8.136  1.00  0.00    -0.076 Cl
HETATM   11  N1  UNL     1     -24.619  11.495  -6.125  1.00  0.00    -0.331 N 
HETATM   12  N2  UNL     1     -25.953  13.380  -6.181  1.00  0.00    -0.384 N 
HETATM   13  C4  UNL     1     -24.352  10.250  -6.552  1.00  0.00     0.084 A 
ATOM     14  H1  UNL     1     -24.000  11.925  -5.438  1.00  0.00     0.168 HD
HETATM   15  N7  UNL     1     -25.165   9.666  -7.465  1.00  0.00    -0.331 N 
ATOM     16  H7  UNL     1     -24.953   8.720  -7.783  1.00  0.00     0.168 HD
ATOM     17  H22 UNL     1     -25.349  13.830  -5.494  1.00  0.00     0.157 HD
ATOM     18  H21 UNL     1     -26.754  13.910  -6.522  1.00  0.00     0.157 HD
BRANCH  13  19
HETATM   19  C3  UNL     1     -23.165   9.555  -6.002  1.00  0.00     0.076 C 
BRANCH  19  20
HETATM   20  C2  UNL     1     -23.137   9.586  -4.487  1.00  0.00     0.003 C 
HETATM   21  C1  UNL     1     -24.312   8.746  -4.008  1.00  0.00     0.005 C 
ENDBRANCH  19  20
ENDBRANCH  13  19
ENDBRANCH   1   7
BRANCH   4  22
HETATM   22  N4  UNL     1     -28.864   7.279 -11.946  1.00  0.00    -0.221 N 
ATOM     23  H4  UNL     1     -29.514   7.896 -12.432  1.00  0.00     0.178 HD
BRANCH  22  24
HETATM   24  C11 UNL     1     -28.746   6.169 -12.507  1.00  0.00     0.683 A 
HETATM   25  N5  UNL     1     -28.799   5.026 -11.809  1.00  0.00    -0.199 N 
HETATM   26  C12 UNL     1     -28.676   3.829 -12.448  1.00  0.00     0.154 A 
ATOM     27  H5  UNL     1     -28.932   5.052 -10.799  1.00  0.00     0.183 HD
HETATM   28  C13 UNL     1     -28.498   3.793 -13.808  1.00  0.00     0.200 A 
HETATM   29  F1  UNL     1     -28.382   2.602 -14.421  1.00  0.00    -0.199 F 
HETATM   30  C14 UNL     1     -28.448   4.999 -14.495  1.00  0.00     0.302 A 
HETATM   31  O1  UNL     1     -28.280   4.952 -15.761  1.00  0.00    -0.264 OA
HETATM   32  N6  UNL     1     -28.569   6.180 -13.862  1.00  0.00    -0.140 N 
BRANCH  32  33
HETATM   33  C15 UNL     1     -28.505   7.372 -14.652  1.00  0.00     0.111 A 
HETATM   34  C16 UNL     1     -27.664   8.529 -14.285  1.00  0.00     0.028 A 
HETATM   35  C17 UNL     1     -27.278   7.677 -15.460  1.00  0.00     0.028 A 
ENDBRANCH  32  33
ENDBRANCH  22  24
ENDBRANCH   4  22
TORSDOF 6
ENDMDL
MODEL 4
REMARK VINA RESULT: -7.383808451      4.052      9.226
REMARK  6 active torsions:
REMARK  status: ('A' for Active; 'I' for Inactive)
REMARK    1  A    between atoms: C2_2  and  C3_3 
REMARK    2  A    between atoms: C3_3  and  C4_4 
REMARK    3  A    between atoms: C7_13  and  N3_14 
REMARK    4  A    between atoms: C10_17  and  N4_18 
REMARK    5  A    between atoms: N4_18  and  C11_20 
REMARK    6  A    between atoms: N6_28  and  C15_29 
ROOT
HETATM    1  N3  UNL     1     -27.221  10.386  -8.876  1.00  0.00    -0.366 N 
HETATM    2  C8  UNL     1     -26.769  10.515 -10.277  1.00  0.00     0.126 C 
HETATM    3  C9  UNL     1     -26.745   9.150 -10.973  1.00  0.00     0.045 C 
HETATM    4  C10 UNL     1     -28.035   8.417 -10.840  1.00  0.00     0.102 C 
HETATM    5  C18 UNL     1     -28.980   9.342 -10.109  1.00  0.00     0.045 C 
HETATM    6  C19 UNL     1     -28.335   9.502  -8.706  1.00  0.00     0.126 C 
ENDROOT
BRANCH   1   7
HETATM    7  C7  UNL     1     -26.551  11.150  -7.929  1.00  0.00     0.130 A 
HETATM    8  C6  UNL     1     -25.453  10.684  -7.262  1.00  0.00     0.121 A 
HETATM    9  C5  UNL     1     -24.809  11.454  -6.274  1.00  0.00     0.126 A 
HETATM   10 CL1  UNL     1     -24.840   9.106  -7.681  1.00  0.00    -0.076 Cl
HETATM   11  N1  UNL     1     -25.316  12.671  -6.007  1.00  0.00    -0.331 N 
HETATM   12  N2  UNL     1     -23.782  10.976  -5.681  1.00  0.00    -0.384 N 
HETATM   13  C4  UNL     1     -26.394  13.153  -6.647  1.00  0.00     0.084 A 
ATOM     14  H1  UNL     1     -24.867  13.247  -5.295  1.00  0.00     0.168 HD
HETATM   15  N7  UNL     1     -27.002  12.399  -7.595  1.00  0.00    -0.331 N 
ATOM     16  H7  UNL     1     -27.821  12.774  -8.074  1.00  0.00     0.168 HD
ATOM     17  H22 UNL     1     -23.315  11.533  -4.965  1.00  0.00     0.157 HD
ATOM     18  H21 UNL     1     -23.397  10.054  -5.883  1.00  0.00     0.157 HD
BRANCH  13  19
HETATM   19  C3  UNL     1     -26.884  14.504  -6.288  1.00  0.00     0.076 C 
BRANCH  19  20
HETATM   20  C2  UNL     1     -25.931  15.226  -5.357  1.00  0.00     0.003 C 
HETATM   21  C1  UNL     1     -26.741  15.653  -4.142  1.00  0.00     0.005 C 
ENDBRANCH  19  20
ENDBRANCH  13  19
ENDBRANCH   1   7
BRANCH   4  22
HETATM   22  N4  UNL     1     -28.521   7.777 -11.985  1.00  0.00    -0.221 N 
ATOM     23  H4  UNL     1     -29.034   8.411 -12.599  1.00  0.00     0.178 HD
BRANCH  22  24
HETATM   24  C11 UNL     1     -28.473   6.611 -12.431  1.00  0.00     0.683 A 
HETATM   25  N5  UNL     1     -28.469   5.551 -11.611  1.00  0.00    -0.199 N 
HETATM   26  C12 UNL     1     -28.426   4.290 -12.123  1.00  0.00     0.154 A 
ATOM     27  H5  UNL     1     -28.499   5.689 -10.600  1.00  0.00     0.183 HD
HETATM   28  C13 UNL     1     -28.387   4.104 -13.482  1.00  0.00     0.200 A 
HETATM   29  F1  UNL     1     -28.348   2.852 -13.970  1.00  0.00    -0.199 F 
HETATM   30  C14 UNL     1     -28.392   5.228 -14.299  1.00  0.00     0.302 A 
HETATM   31  O1  UNL     1     -28.353   5.041 -15.562  1.00  0.00    -0.264 OA
HETATM   32  N6  UNL     1     -28.434   6.473 -13.790  1.00  0.00    -0.140 N 
BRANCH  32  33
HETATM   33  C15 UNL     1     -28.436   7.571 -14.708  1.00  0.00     0.111 A 
HETATM   34  C16 UNL     1     -27.656   8.804 -14.478  1.00  0.00     0.028 A 
HETATM   35  C17 UNL     1     -27.229   7.847 -15.555  1.00  0.00     0.028 A 
ENDBRANCH  32  33
ENDBRANCH  22  24
ENDBRANCH   4  22
TORSDOF 6
ENDMDL
MODEL 5
REMARK VINA RESULT: -7.382597207      1.636      2.831
REMARK  6 active torsions:
REMARK  status: ('A' for Active; 'I' for Inactive)
REMARK    1  A    between atoms: C2_2  and  C3_3 
REMARK    2  A    between atoms: C3_3  and  C4_4 
REMARK    3  A    between atoms: C7_13  and  N3_14 
REMARK    4  A    between atoms: C10_17  and  N4_18 
REMARK    5  A    between atoms: N4_18  and  C11_20 
REMARK    6  A    between atoms: N6_28  and  C15_29 
ROOT
HETATM    1  N3  UNL     1     -26.407  10.315 -12.252  1.00  0.00    -0.366 N 
HETATM    2  C8  UNL     1     -27.367  10.815 -11.244  1.00  0.00     0.126 C 
HETATM    3  C9  UNL     1     -26.850  10.564  -9.824  1.00  0.00     0.045 C 
HETATM    4  C10 UNL     1     -25.467  11.077  -9.619  1.00  0.00     0.102 C 
HETATM    5  C18 UNL     1     -25.070  11.765 -10.904  1.00  0.00     0.045 C 
HETATM    6  C19 UNL     1     -25.040  10.617 -11.948  1.00  0.00     0.126 C 
ENDROOT
BRANCH   1   7
HETATM    7  C7  UNL     1     -26.941   9.669 -13.359  1.00  0.00     0.130 A 
HETATM    8  C6  UNL     1     -27.139   8.316 -13.386  1.00  0.00     0.121 A 
HETATM    9  C5  UNL     1     -27.642   7.668 -14.531  1.00  0.00     0.126 A 
HETATM   10 CL1  UNL     1     -26.774   7.399 -11.949  1.00  0.00    -0.076 Cl
HETATM   11  N1  UNL     1     -27.922   8.431 -15.604  1.00  0.00    -0.331 N 
HETATM   12  N2  UNL     1     -27.813   6.401 -14.507  1.00  0.00    -0.384 N 
HETATM   13  C4  UNL     1     -27.737   9.761 -15.603  1.00  0.00     0.084 A 
ATOM     14  H1  UNL     1     -28.287   7.983 -16.445  1.00  0.00     0.168 HD
HETATM   15  N7  UNL     1     -27.252  10.369 -14.493  1.00  0.00    -0.331 N 
ATOM     16  H7  UNL     1     -27.114  11.380 -14.504  1.00  0.00     0.168 HD
ATOM     17  H22 UNL     1     -28.177   5.931 -15.336  1.00  0.00     0.157 HD
ATOM     18  H21 UNL     1     -27.601   5.823 -13.695  1.00  0.00     0.157 HD
BRANCH  13  19
HETATM   19  C3  UNL     1     -28.073  10.521 -16.829  1.00  0.00     0.076 C 
BRANCH  19  20
HETATM   20  C2  UNL     1     -27.306  10.021 -18.037  1.00  0.00     0.003 C 
HETATM   21  C1  UNL     1     -25.830  10.257 -17.750  1.00  0.00     0.005 C 
ENDBRANCH  19  20
ENDBRANCH  13  19
ENDBRANCH   1   7
BRANCH   4  22
HETATM   22  N4  UNL     1     -25.215  11.758  -8.423  1.00  0.00    -0.221 N 
ATOM     23  H4  UNL     1     -24.227  11.981  -8.300  1.00  0.00     0.178 HD
BRANCH  22  24
HETATM   24  C11 UNL     1     -25.919  12.156  -7.470  1.00  0.00     0.683 A 
HETATM   25  N5  UNL     1     -26.422  13.398  -7.447  1.00  0.00    -0.199 N 
HETATM   26  C12 UNL     1     -27.194  13.803  -6.401  1.00  0.00     0.154 A 
ATOM     27  H5  UNL     1     -26.227  14.041  -8.214  1.00  0.00     0.183 HD
HETATM   28  C13 UNL     1     -27.458  12.939  -5.369  1.00  0.00     0.200 A 
HETATM   29  F1  UNL     1     -28.225  13.355  -4.346  1.00  0.00    -0.199 F 
HETATM   30  C14 UNL     1     -26.918  11.660  -5.429  1.00  0.00     0.302 A 
HETATM   31  O1  UNL     1     -27.169  10.865  -4.461  1.00  0.00    -0.264 OA
HETATM   32  N6  UNL     1     -26.154  11.262  -6.464  1.00  0.00    -0.140 N 
BRANCH  32  33
HETATM   33  C15 UNL     1     -25.641   9.927  -6.441  1.00  0.00     0.111 A 
HETATM   34  C16 UNL     1     -24.197   9.626  -6.518  1.00  0.00     0.028 A 
HETATM   35  C17 UNL     1     -24.930   9.413  -5.224  1.00  0.00     0.028 A 
ENDBRANCH  32  33
ENDBRANCH  22  24
ENDBRANCH   4  22
TORSDOF 6
ENDMDL
