MODEL 1
REMARK VINA RESULT: -7.158034935      0.000      0.000
REMARK  5 active torsions:
REMARK  status: ('A' for Active; 'I' for Inactive)
REMARK    1  A    between atoms: C3_5  and  C4_6 
REMARK    2  A    between atoms: C4_6  and  C5_7 
REMARK    3  A    between atoms: C5_7  and  N2_8 
REMARK    4  A    between atoms: N5_15  and  C8_17 
REMARK    5  A    between atoms: C8_17  and  C9_18 
ROOT
HETATM    1  N2  UNL     1     -27.899   5.888 -10.683  1.00  0.00    -0.328 N 
ATOM      2  H2  UNL     1     -27.995   5.696  -9.685  1.00  0.00     0.171 HD
HETATM    3  C6  UNL     1     -27.937   4.828 -11.593  1.00  0.00     0.177 C 
HETATM    4  N3  UNL     1     -27.963   3.961 -12.356  1.00  0.00    -0.172 NA
ENDROOT
BRANCH   1   5
HETATM    5  C5  UNL     1     -27.725   7.247 -11.131  1.00  0.00     0.139 C 
BRANCH   5   6
HETATM    6  C4  UNL     1     -26.284   7.400 -11.548  1.00  0.00     0.097 C 
BRANCH   6   7
HETATM    7  C3  UNL     1     -25.559   8.400 -10.716  1.00  0.00     0.100 A 
HETATM    8  N1  UNL     1     -24.655   9.180 -11.331  1.00  0.00    -0.335 N 
HETATM    9  C2  UNL     1     -23.989  10.087 -10.568  1.00  0.00     0.094 A 
ATOM     10  H1  UNL     1     -24.476   9.096 -12.332  1.00  0.00     0.168 HD
HETATM   11  C1  UNL     1     -22.966  10.996 -11.183  1.00  0.00     0.089 C 
HETATM   12  N7  UNL     1     -24.243  10.176  -9.256  1.00  0.00    -0.181 N 
HETATM   13  C7  UNL     1     -25.146   9.397  -8.636  1.00  0.00     0.681 A 
ATOM     14  H7  UNL     1     -23.730  10.862  -8.704  1.00  0.00     0.185 HD
HETATM   15  N4  UNL     1     -25.809   8.495  -9.402  1.00  0.00    -0.180 N 
HETATM   16  N5  UNL     1     -25.405   9.469  -7.369  1.00  0.00    -0.220 N 
ATOM     17  H4  UNL     1     -26.504   7.884  -8.974  1.00  0.00     0.185 HD
ATOM     18  H5  UNL     1     -26.109   8.832  -6.995  1.00  0.00     0.178 HD
BRANCH  16  19
HETATM   19  C8  UNL     1     -24.775  10.378  -6.448  1.00  0.00     0.195 C 
BRANCH  19  20
HETATM   20  C9  UNL     1     -25.546  11.675  -6.454  1.00  0.00     0.029 A 
HETATM   21  C10 UNL     1     -26.840  11.862  -6.879  1.00  0.00     0.048 A 
HETATM   22  C11 UNL     1     -27.206  13.183  -6.728  1.00  0.00     0.046 A 
HETATM   23 BR1  UNL     1     -28.896  13.993  -7.165  1.00  0.00    -0.048 Br
HETATM   24  C12 UNL     1     -26.097  13.805  -6.198  1.00  0.00     0.097 A 
HETATM   25 BR2  UNL     1     -26.007  15.654  -5.769  1.00  0.00    -0.030 Br
HETATM   26  N6  UNL     1     -25.117  12.882  -6.043  1.00  0.00    -0.351 N 
ATOM     27  H6  UNL     1     -24.188  13.075  -5.668  1.00  0.00     0.166 HD
ENDBRANCH  19  20
ENDBRANCH  16  19
ENDBRANCH   6   7
ENDBRANCH   5   6
ENDBRANCH   1   5
TORSDOF 5
ENDMDL
MODEL 2
REMARK VINA RESULT: -7.029992389      0.595      1.377
REMARK  5 active torsions:
REMARK  status: ('A' for Active; 'I' for Inactive)
REMARK    1  A    between atoms: C3_5  and  C4_6 
REMARK    2  A    between atoms: C4_6  and  C5_7 
REMARK    3  A    between atoms: C5_7  and  N2_8 
REMARK    4  A    between atoms: N5_15  and  C8_17 
REMARK    5  A    between atoms: C8_17  and  C9_18 
ROOT
HETATM    1  N2  UNL     1     -27.904   5.830 -10.731  1.00  0.00    -0.328 N 
ATOM      2  H2  UNL     1     -27.979   5.637  -9.731  1.00  0.00     0.171 HD
HETATM    3  C6  UNL     1     -27.973   4.774 -11.642  1.00  0.00     0.177 C 
HETATM    4  N3  UNL     1     -28.024   3.910 -12.407  1.00  0.00    -0.172 NA
ENDROOT
BRANCH   1   5
HETATM    5  C5  UNL     1     -27.728   7.189 -11.179  1.00  0.00     0.139 C 
BRANCH   5   6
HETATM    6  C4  UNL     1     -26.277   7.353 -11.555  1.00  0.00     0.097 C 
BRANCH   6   7
HETATM    7  C3  UNL     1     -25.589   8.376 -10.719  1.00  0.00     0.100 A 
HETATM    8  N1  UNL     1     -24.670   9.150 -11.319  1.00  0.00    -0.335 N 
HETATM    9  C2  UNL     1     -24.038  10.079 -10.553  1.00  0.00     0.094 A 
ATOM     10  H1  UNL     1     -24.454   9.046 -12.310  1.00  0.00     0.168 HD
HETATM   11  C1  UNL     1     -23.000  10.982 -11.150  1.00  0.00     0.089 C 
HETATM   12  N7  UNL     1     -24.340  10.193  -9.252  1.00  0.00    -0.181 N 
HETATM   13  C7  UNL     1     -25.258   9.421  -8.648  1.00  0.00     0.681 A 
ATOM     14  H7  UNL     1     -23.851  10.895  -8.697  1.00  0.00     0.185 HD
HETATM   15  N4  UNL     1     -25.887   8.498  -9.417  1.00  0.00    -0.180 N 
HETATM   16  N5  UNL     1     -25.563   9.518  -7.393  1.00  0.00    -0.220 N 
ATOM     17  H4  UNL     1     -26.592   7.890  -9.002  1.00  0.00     0.185 HD
ATOM     18  H5  UNL     1     -26.276   8.884  -7.031  1.00  0.00     0.178 HD
BRANCH  16  19
HETATM   19  C8  UNL     1     -24.973  10.451  -6.471  1.00  0.00     0.195 C 
BRANCH  19  20
HETATM   20  C9  UNL     1     -25.788  11.722  -6.489  1.00  0.00     0.029 A 
HETATM   21  C10 UNL     1     -25.425  12.939  -5.965  1.00  0.00     0.048 A 
HETATM   22  C11 UNL     1     -26.423  13.867  -6.176  1.00  0.00     0.046 A 
HETATM   23 BR1  UNL     1     -26.440  15.717  -5.649  1.00  0.00    -0.048 Br
HETATM   24  C12 UNL     1     -27.413  13.183  -6.848  1.00  0.00     0.097 A 
HETATM   25 BR2  UNL     1     -29.053  13.955  -7.415  1.00  0.00    -0.030 Br
HETATM   26  N6  UNL     1     -27.009  11.902  -7.023  1.00  0.00    -0.351 N 
ATOM     27  H6  UNL     1     -27.553  11.178  -7.492  1.00  0.00     0.166 HD
ENDBRANCH  19  20
ENDBRANCH  16  19
ENDBRANCH   6   7
ENDBRANCH   5   6
ENDBRANCH   1   5
TORSDOF 5
ENDMDL
MODEL 3
REMARK VINA RESULT: -7.029344119      4.491      9.351
REMARK  5 active torsions:
REMARK  status: ('A' for Active; 'I' for Inactive)
REMARK    1  A    between atoms: C3_5  and  C4_6 
REMARK    2  A    between atoms: C4_6  and  C5_7 
REMARK    3  A    between atoms: C5_7  and  N2_8 
REMARK    4  A    between atoms: N5_15  and  C8_17 
REMARK    5  A    between atoms: C8_17  and  C9_18 
ROOT
HETATM    1  N2  UNL     1     -27.496  17.830  -2.834  1.00  0.00    -0.328 N 
ATOM      2  H2  UNL     1     -28.492  17.621  -2.758  1.00  0.00     0.171 HD
HETATM    3  C6  UNL     1     -27.064  19.156  -2.743  1.00  0.00     0.177 C 
HETATM    4  N3  UNL     1     -26.693  20.248  -2.675  1.00  0.00    -0.172 NA
ENDROOT
BRANCH   1   5
HETATM    5  C5  UNL     1     -26.557  16.754  -3.033  1.00  0.00     0.139 C 
BRANCH   5   6
HETATM    6  C4  UNL     1     -26.366  16.595  -4.519  1.00  0.00     0.097 C 
BRANCH   6   7
HETATM    7  C3  UNL     1     -26.904  15.301  -5.023  1.00  0.00     0.100 A 
HETATM    8  N1  UNL     1     -27.341  14.415  -4.114  1.00  0.00    -0.335 N 
HETATM    9  C2  UNL     1     -27.825  13.232  -4.575  1.00  0.00     0.094 A 
ATOM     10  H1  UNL     1     -27.311  14.622  -3.115  1.00  0.00     0.168 HD
HETATM   11  C1  UNL     1     -28.334  12.191  -3.622  1.00  0.00     0.089 C 
HETATM   12  N7  UNL     1     -27.851  12.985  -5.892  1.00  0.00    -0.181 N 
HETATM   13  C7  UNL     1     -27.415  13.869  -6.806  1.00  0.00     0.681 A 
ATOM     14  H7  UNL     1     -28.217  12.090  -6.214  1.00  0.00     0.185 HD
HETATM   15  N4  UNL     1     -26.935  15.048  -6.340  1.00  0.00    -0.180 N 
HETATM   16  N5  UNL     1     -27.433  13.648  -8.082  1.00  0.00    -0.220 N 
ATOM     17  H4  UNL     1     -26.593  15.749  -6.997  1.00  0.00     0.185 HD
ATOM     18  H5  UNL     1     -27.079  14.385  -8.692  1.00  0.00     0.178 HD
BRANCH  16  19
HETATM   19  C8  UNL     1     -27.914  12.444  -8.704  1.00  0.00     0.195 C 
BRANCH  19  20
HETATM   20  C9  UNL     1     -26.954  12.055  -9.802  1.00  0.00     0.029 A 
HETATM   21  C10 UNL     1     -27.239  11.936 -11.141  1.00  0.00     0.048 A 
HETATM   22  C11 UNL     1     -26.109  11.568 -11.839  1.00  0.00     0.046 A 
HETATM   23 BR1  UNL     1     -25.942  11.261 -13.732  1.00  0.00    -0.048 Br
HETATM   24  C12 UNL     1     -25.117  11.463 -10.888  1.00  0.00     0.097 A 
HETATM   25 BR2  UNL     1     -23.318  10.982 -11.264  1.00  0.00    -0.030 Br
HETATM   26  N6  UNL     1     -25.648  11.759  -9.677  1.00  0.00    -0.351 N 
ATOM     27  H6  UNL     1     -25.131  11.758  -8.798  1.00  0.00     0.166 HD
ENDBRANCH  19  20
ENDBRANCH  16  19
ENDBRANCH   6   7
ENDBRANCH   5   6
ENDBRANCH   1   5
TORSDOF 5
ENDMDL
MODEL 4
REMARK VINA RESULT: -7.005818646      4.255      9.295
REMARK  5 active torsions:
REMARK  status: ('A' for Active; 'I' for Inactive)
REMARK    1  A    between atoms: C3_5  and  C4_6 
REMARK    2  A    between atoms: C4_6  and  C5_7 
REMARK    3  A    between atoms: C5_7  and  N2_8 
REMARK    4  A    between atoms: N5_15  and  C8_17 
REMARK    5  A    between atoms: C8_17  and  C9_18 
ROOT
HETATM    1  N2  UNL     1     -27.462  17.840  -2.866  1.00  0.00    -0.328 N 
ATOM      2  H2  UNL     1     -28.456  17.619  -2.809  1.00  0.00     0.171 HD
HETATM    3  C6  UNL     1     -27.045  19.168  -2.745  1.00  0.00     0.177 C 
HETATM    4  N3  UNL     1     -26.686  20.263  -2.650  1.00  0.00    -0.172 NA
ENDROOT
BRANCH   1   5
HETATM    5  C5  UNL     1     -26.509  16.778  -3.073  1.00  0.00     0.139 C 
BRANCH   5   6
HETATM    6  C4  UNL     1     -26.371  16.582  -4.561  1.00  0.00     0.097 C 
BRANCH   6   7
HETATM    7  C3  UNL     1     -26.946  15.285  -5.016  1.00  0.00     0.100 A 
HETATM    8  N1  UNL     1     -27.368  14.428  -4.072  1.00  0.00    -0.335 N 
HETATM    9  C2  UNL     1     -27.886  13.243  -4.489  1.00  0.00     0.094 A 
ATOM     10  H1  UNL     1     -27.302  14.658  -3.080  1.00  0.00     0.168 HD
HETATM   11  C1  UNL     1     -28.379  12.234  -3.495  1.00  0.00     0.089 C 
HETATM   12  N7  UNL     1     -27.959  12.966  -5.798  1.00  0.00    -0.181 N 
HETATM   13  C7  UNL     1     -27.538  13.821  -6.746  1.00  0.00     0.681 A 
ATOM     14  H7  UNL     1     -28.349  12.070  -6.087  1.00  0.00     0.185 HD
HETATM   15  N4  UNL     1     -27.024  15.002  -6.324  1.00  0.00    -0.180 N 
HETATM   16  N5  UNL     1     -27.601  13.570  -8.015  1.00  0.00    -0.220 N 
ATOM     17  H4  UNL     1     -26.693  15.682  -7.009  1.00  0.00     0.185 HD
ATOM     18  H5  UNL     1     -27.255  14.287  -8.654  1.00  0.00     0.178 HD
BRANCH  16  19
HETATM   19  C8  UNL     1     -28.122  12.360  -8.593  1.00  0.00     0.195 C 
BRANCH  19  20
HETATM   20  C9  UNL     1     -26.990  11.626  -9.269  1.00  0.00     0.029 A 
HETATM   21  C10 UNL     1     -27.015  10.339  -9.750  1.00  0.00     0.048 A 
HETATM   22  C11 UNL     1     -25.796  10.014 -10.308  1.00  0.00     0.046 A 
HETATM   23 BR1  UNL     1     -25.283   8.348 -11.122  1.00  0.00    -0.048 Br
HETATM   24  C12 UNL     1     -25.019  11.141 -10.155  1.00  0.00     0.097 A 
HETATM   25 BR2  UNL     1     -23.218  11.289 -10.742  1.00  0.00    -0.030 Br
HETATM   26  N6  UNL     1     -25.755  12.091  -9.531  1.00  0.00    -0.351 N 
ATOM     27  H6  UNL     1     -25.422  13.026  -9.294  1.00  0.00     0.166 HD
ENDBRANCH  19  20
ENDBRANCH  16  19
ENDBRANCH   6   7
ENDBRANCH   5   6
ENDBRANCH   1   5
TORSDOF 5
ENDMDL
MODEL 5
REMARK VINA RESULT: -6.896025925      4.552      9.410
REMARK  5 active torsions:
REMARK  status: ('A' for Active; 'I' for Inactive)
REMARK    1  A    between atoms: C3_5  and  C4_6 
REMARK    2  A    between atoms: C4_6  and  C5_7 
REMARK    3  A    between atoms: C5_7  and  N2_8 
REMARK    4  A    between atoms: N5_15  and  C8_17 
REMARK    5  A    between atoms: C8_17  and  C9_18 
ROOT
HETATM    1  N2  UNL     1     -27.471  17.816  -2.917  1.00  0.00    -0.328 N 
ATOM      2  H2  UNL     1     -28.469  17.610  -2.872  1.00  0.00     0.171 HD
HETATM    3  C6  UNL     1     -27.035  19.138  -2.794  1.00  0.00     0.177 C 
HETATM    4  N3  UNL     1     -26.662  20.227  -2.698  1.00  0.00    -0.172 NA
ENDROOT
BRANCH   1   5
HETATM    5  C5  UNL     1     -26.532  16.739  -3.108  1.00  0.00     0.139 C 
BRANCH   5   6
HETATM    6  C4  UNL     1     -26.354  16.557  -4.593  1.00  0.00     0.097 C 
BRANCH   6   7
HETATM    7  C3  UNL     1     -26.897  15.256  -5.073  1.00  0.00     0.100 A 
HETATM    8  N1  UNL     1     -27.340  14.390  -4.146  1.00  0.00    -0.335 N 
HETATM    9  C2  UNL     1     -27.829  13.200  -4.585  1.00  0.00     0.094 A 
ATOM     10  H1  UNL     1     -27.311  14.617  -3.152  1.00  0.00     0.168 HD
HETATM   11  C1  UNL     1     -28.345  12.181  -3.612  1.00  0.00     0.089 C 
HETATM   12  N7  UNL     1     -27.854  12.928  -5.897  1.00  0.00    -0.181 N 
HETATM   13  C7  UNL     1     -27.412  13.791  -6.828  1.00  0.00     0.681 A 
ATOM     14  H7  UNL     1     -28.224  12.028  -6.203  1.00  0.00     0.185 HD
HETATM   15  N4  UNL     1     -26.927  14.977  -6.384  1.00  0.00    -0.180 N 
HETATM   16  N5  UNL     1     -27.429  13.545  -8.099  1.00  0.00    -0.220 N 
ATOM     17  H4  UNL     1     -26.581  15.664  -7.054  1.00  0.00     0.185 HD
ATOM     18  H5  UNL     1     -27.070  14.268  -8.723  1.00  0.00     0.178 HD
BRANCH  16  19
HETATM   19  C8  UNL     1     -27.915  12.331  -8.698  1.00  0.00     0.195 C 
BRANCH  19  20
HETATM   20  C9  UNL     1     -26.996  11.957  -9.835  1.00  0.00     0.029 A 
HETATM   21  C10 UNL     1     -25.678  11.580  -9.738  1.00  0.00     0.048 A 
HETATM   22  C11 UNL     1     -25.165  11.307 -10.988  1.00  0.00     0.046 A 
HETATM   23 BR1  UNL     1     -23.380  10.743 -11.430  1.00  0.00    -0.048 Br
HETATM   24  C12 UNL     1     -26.209  11.528 -11.861  1.00  0.00     0.097 A 
HETATM   25 BR2  UNL     1     -26.096  11.309 -13.744  1.00  0.00    -0.030 Br
HETATM   26  N6  UNL     1     -27.293  11.916 -11.146  1.00  0.00    -0.351 N 
ATOM     27  H6  UNL     1     -28.203  12.144 -11.546  1.00  0.00     0.166 HD
ENDBRANCH  19  20
ENDBRANCH  16  19
ENDBRANCH   6   7
ENDBRANCH   5   6
ENDBRANCH   1   5
TORSDOF 5
ENDMDL
