MODEL 1
REMARK VINA RESULT: -7.407382456      0.000      0.000
REMARK  8 active torsions:
REMARK  status: ('A' for Active; 'I' for Inactive)
REMARK    1  A    between atoms: C3_7  and  C4_10 
REMARK    2  A    between atoms: C3_7  and  C17_30 
REMARK    3  A    between atoms: C7_14  and  N3_15 
REMARK    4  A    between atoms: N3_15  and  S1_17 
REMARK    5  A    between atoms: S1_17  and  C8_20 
REMARK    6  A    between atoms: C8_20  and  C9_21 
REMARK    7  A    between atoms: C9_21  and  C10_22 
REMARK    8  A    between atoms: C14_27  and  C15_28 
ROOT
HETATM    1  C4  UNL     1     -27.475   8.923 -11.764  1.00  0.00     0.016 A 
HETATM    2  C5  UNL     1     -27.692   8.335 -10.548  1.00  0.00     0.046 A 
HETATM    3 CL1  UNL     1     -27.498   6.603 -10.415  1.00  0.00    -0.084 Cl
HETATM    4  C6  UNL     1     -28.062   9.098  -9.425  1.00  0.00     0.057 A 
HETATM    5  C7  UNL     1     -28.207  10.455  -9.561  1.00  0.00     0.083 A 
HETATM    6  C13 UNL     1     -27.984  11.057 -10.811  1.00  0.00     0.153 A 
HETATM    7  F1  UNL     1     -28.117  12.380 -10.978  1.00  0.00    -0.203 F 
HETATM    8  C14 UNL     1     -27.619  10.285 -11.905  1.00  0.00     0.023 A 
ENDROOT
BRANCH   5   9
HETATM    9  N3  UNL     1     -28.579  11.239  -8.463  1.00  0.00    -0.281 N 
ATOM     10  H3  UNL     1     -29.558  11.249  -8.177  1.00  0.00     0.178 HD
BRANCH   9  11
HETATM   11  S1  UNL     1     -27.463  12.172  -7.591  1.00  0.00     0.231 S 
HETATM   12  O3  UNL     1     -27.420  11.649  -6.162  1.00  0.00    -0.206 OA
HETATM   13  O4  UNL     1     -26.054  12.085  -8.119  1.00  0.00    -0.206 OA
BRANCH  11  14
HETATM   14  C8  UNL     1     -27.904  13.906  -7.570  1.00  0.00     0.164 C 
BRANCH  14  15
HETATM   15  C9  UNL     1     -27.742  14.393  -6.159  1.00  0.00     0.021 C 
BRANCH  15  16
HETATM   16  C10 UNL     1     -26.458  15.171  -5.966  1.00  0.00    -0.014 A 
HETATM   17  C11 UNL     1     -25.944  15.358  -4.562  1.00  0.00     0.005 A 
HETATM   18  C12 UNL     1     -25.214  14.499  -5.550  1.00  0.00     0.005 A 
ENDBRANCH  15  16
ENDBRANCH  14  15
ENDBRANCH  11  14
ENDBRANCH   9  11
ENDBRANCH   5   9
BRANCH   8  19
HETATM   19  C15 UNL     1     -27.367  10.846 -13.256  1.00  0.00     0.161 C 
HETATM   20  C16 UNL     1     -26.590  12.115 -13.088  1.00  0.00     0.072 C 
HETATM   21  C17 UNL     1     -25.423  11.154 -12.962  1.00  0.00     0.168 C 
HETATM   22  O5  UNL     1     -26.166  10.240 -13.696  1.00  0.00    -0.372 OA
BRANCH  21  23
HETATM   23  C3  UNL     1     -25.239  10.710 -11.509  1.00  0.00     0.172 C 
HETATM   24  C2  UNL     1     -24.128   9.767 -11.433  1.00  0.00     0.261 C 
HETATM   25  N1  UNL     1     -23.000  10.437 -10.909  1.00  0.00    -0.277 N 
HETATM   26  O2  UNL     1     -24.152   8.562 -11.769  1.00  0.00    -0.270 OA
HETATM   27  C1  UNL     1     -23.384  11.736 -10.491  1.00  0.00     0.324 C 
ATOM     28  H1  UNL     1     -22.060  10.049 -10.842  1.00  0.00     0.173 HD
HETATM   29  O1  UNL     1     -22.671  12.634  -9.975  1.00  0.00    -0.247 OA
HETATM   30  N2  UNL     1     -24.782  11.881 -10.758  1.00  0.00    -0.318 N 
ATOM     31  H2  UNL     1     -25.363  12.669 -10.473  1.00  0.00     0.166 HD
ENDBRANCH  21  23
ENDBRANCH   8  19
TORSDOF 8
ENDMDL
MODEL 2
REMARK VINA RESULT: -7.280311901      2.840      4.013
REMARK  8 active torsions:
REMARK  status: ('A' for Active; 'I' for Inactive)
REMARK    1  A    between atoms: C3_7  and  C4_10 
REMARK    2  A    between atoms: C3_7  and  C17_30 
REMARK    3  A    between atoms: C7_14  and  N3_15 
REMARK    4  A    between atoms: N3_15  and  S1_17 
REMARK    5  A    between atoms: S1_17  and  C8_20 
REMARK    6  A    between atoms: C8_20  and  C9_21 
REMARK    7  A    between atoms: C9_21  and  C10_22 
REMARK    8  A    between atoms: C14_27  and  C15_28 
ROOT
HETATM    1  C4  UNL     1     -24.273  10.347  -9.038  1.00  0.00     0.016 A 
HETATM    2  C5  UNL     1     -24.255   9.975  -7.722  1.00  0.00     0.046 A 
HETATM    3 CL1  UNL     1     -23.037   8.837  -7.194  1.00  0.00    -0.084 Cl
HETATM    4  C6  UNL     1     -25.192  10.490  -6.807  1.00  0.00     0.057 A 
HETATM    5  C7  UNL     1     -26.135  11.381  -7.250  1.00  0.00     0.083 A 
HETATM    6  C13 UNL     1     -26.152  11.762  -8.602  1.00  0.00     0.153 A 
HETATM    7  F1  UNL     1     -27.060  12.629  -9.069  1.00  0.00    -0.203 F 
HETATM    8  C14 UNL     1     -25.219  11.240  -9.488  1.00  0.00     0.023 A 
ENDROOT
BRANCH   5   9
HETATM    9  N3  UNL     1     -27.082  11.906  -6.364  1.00  0.00    -0.281 N 
ATOM     10  H3  UNL     1     -27.886  11.334  -6.108  1.00  0.00     0.178 HD
BRANCH   9  11
HETATM   11  S1  UNL     1     -26.942  13.461  -5.699  1.00  0.00     0.231 S 
HETATM   12  O3  UNL     1     -25.473  13.715  -5.392  1.00  0.00    -0.206 OA
HETATM   13  O4  UNL     1     -27.379  14.562  -6.631  1.00  0.00    -0.206 OA
BRANCH  11  14
HETATM   14  C8  UNL     1     -27.897  13.641  -4.197  1.00  0.00     0.164 C 
BRANCH  14  15
HETATM   15  C9  UNL     1     -28.298  15.083  -4.090  1.00  0.00     0.021 C 
BRANCH  15  16
HETATM   16  C10 UNL     1     -27.321  15.890  -3.263  1.00  0.00    -0.014 A 
HETATM   17  C11 UNL     1     -26.489  16.933  -3.963  1.00  0.00     0.005 A 
HETATM   18  C12 UNL     1     -27.557  17.319  -2.984  1.00  0.00     0.005 A 
ENDBRANCH  15  16
ENDBRANCH  14  15
ENDBRANCH  11  14
ENDBRANCH   9  11
ENDBRANCH   5   9
BRANCH   8  19
HETATM   19  C15 UNL     1     -25.171  11.592 -10.930  1.00  0.00     0.161 C 
HETATM   20  C16 UNL     1     -24.902  10.336 -11.699  1.00  0.00     0.072 C 
HETATM   21  C17 UNL     1     -26.393  10.133 -11.511  1.00  0.00     0.168 C 
HETATM   22  O5  UNL     1     -26.510  11.509 -11.381  1.00  0.00    -0.372 OA
BRANCH  21  23
HETATM   23  C3  UNL     1     -26.681   9.405 -10.196  1.00  0.00     0.172 C 
HETATM   24  C2  UNL     1     -28.125   9.288 -10.019  1.00  0.00     0.261 C 
HETATM   25  N1  UNL     1     -28.512   7.964 -10.326  1.00  0.00    -0.277 N 
HETATM   26  O2  UNL     1     -28.905  10.196  -9.656  1.00  0.00    -0.270 OA
HETATM   27  C1  UNL     1     -27.352   7.178 -10.537  1.00  0.00     0.324 C 
ATOM     28  H1  UNL     1     -29.473   7.628 -10.385  1.00  0.00     0.173 HD
HETATM   29  O1  UNL     1     -27.278   5.957 -10.830  1.00  0.00    -0.247 OA
HETATM   30  N2  UNL     1     -26.215   8.027 -10.358  1.00  0.00    -0.318 N 
ATOM     31  H2  UNL     1     -25.242   7.722 -10.346  1.00  0.00     0.166 HD
ENDBRANCH  21  23
ENDBRANCH   8  19
TORSDOF 8
ENDMDL
MODEL 3
REMARK VINA RESULT: -7.274746526      2.735      3.750
REMARK  8 active torsions:
REMARK  status: ('A' for Active; 'I' for Inactive)
REMARK    1  A    between atoms: C3_7  and  C4_10 
REMARK    2  A    between atoms: C3_7  and  C17_30 
REMARK    3  A    between atoms: C7_14  and  N3_15 
REMARK    4  A    between atoms: N3_15  and  S1_17 
REMARK    5  A    between atoms: S1_17  and  C8_20 
REMARK    6  A    between atoms: C8_20  and  C9_21 
REMARK    7  A    between atoms: C9_21  and  C10_22 
REMARK    8  A    between atoms: C14_27  and  C15_28 
ROOT
HETATM    1  C4  UNL     1     -25.224  11.874 -11.103  1.00  0.00     0.016 A 
HETATM    2  C5  UNL     1     -24.247  11.122 -10.509  1.00  0.00     0.046 A 
HETATM    3 CL1  UNL     1     -22.688  11.015 -11.291  1.00  0.00    -0.084 Cl
HETATM    4  C6  UNL     1     -24.484  10.449  -9.296  1.00  0.00     0.057 A 
HETATM    5  C7  UNL     1     -25.718  10.552  -8.706  1.00  0.00     0.083 A 
HETATM    6  C13 UNL     1     -26.719  11.324  -9.319  1.00  0.00     0.153 A 
HETATM    7  F1  UNL     1     -27.935  11.446  -8.771  1.00  0.00    -0.203 F 
HETATM    8  C14 UNL     1     -26.465  11.980 -10.516  1.00  0.00     0.023 A 
ENDROOT
BRANCH   5   9
HETATM    9  N3  UNL     1     -25.983   9.889  -7.503  1.00  0.00    -0.281 N 
ATOM     10  H3  UNL     1     -26.399   8.959  -7.536  1.00  0.00     0.178 HD
BRANCH   9  11
HETATM   11  S1  UNL     1     -25.639  10.577  -5.991  1.00  0.00     0.231 S 
HETATM   12  O3  UNL     1     -25.971   9.551  -4.916  1.00  0.00    -0.206 OA
HETATM   13  O4  UNL     1     -24.187  10.936  -5.803  1.00  0.00    -0.206 OA
BRANCH  11  14
HETATM   14  C8  UNL     1     -26.586  12.066  -5.695  1.00  0.00     0.164 C 
BRANCH  14  15
HETATM   15  C9  UNL     1     -25.733  13.230  -6.106  1.00  0.00     0.021 C 
BRANCH  15  16
HETATM   16  C10 UNL     1     -25.741  14.339  -5.076  1.00  0.00    -0.014 A 
HETATM   17  C11 UNL     1     -26.063  15.736  -5.539  1.00  0.00     0.005 A 
HETATM   18  C12 UNL     1     -27.002  14.975  -4.652  1.00  0.00     0.005 A 
ENDBRANCH  15  16
ENDBRANCH  14  15
ENDBRANCH  11  14
ENDBRANCH   9  11
ENDBRANCH   5   9
BRANCH   8  19
HETATM   19  C15 UNL     1     -27.469  12.813 -11.224  1.00  0.00     0.161 C 
HETATM   20  C16 UNL     1     -27.356  12.519 -12.688  1.00  0.00     0.072 C 
HETATM   21  C17 UNL     1     -28.204  11.319 -12.314  1.00  0.00     0.168 C 
HETATM   22  O5  UNL     1     -28.659  12.047 -11.224  1.00  0.00    -0.372 OA
BRANCH  21  23
HETATM   23  C3  UNL     1     -27.323  10.142 -11.890  1.00  0.00     0.172 C 
HETATM   24  C2  UNL     1     -28.172   9.004 -11.552  1.00  0.00     0.261 C 
HETATM   25  N1  UNL     1     -28.134   8.078 -12.619  1.00  0.00    -0.277 N 
HETATM   26  O2  UNL     1     -28.830   8.855 -10.499  1.00  0.00    -0.270 OA
HETATM   27  C1  UNL     1     -27.165   8.499 -13.564  1.00  0.00     0.324 C 
ATOM     28  H1  UNL     1     -28.711   7.242 -12.697  1.00  0.00     0.173 HD
HETATM   29  O1  UNL     1     -26.836   7.946 -14.646  1.00  0.00    -0.247 OA
HETATM   30  N2  UNL     1     -26.584   9.711 -13.078  1.00  0.00    -0.318 N 
ATOM     31  H2  UNL     1     -25.787  10.196 -13.491  1.00  0.00     0.166 HD
ENDBRANCH  21  23
ENDBRANCH   8  19
TORSDOF 8
ENDMDL
MODEL 4
REMARK VINA RESULT: -7.249145389      2.717      3.838
REMARK  8 active torsions:
REMARK  status: ('A' for Active; 'I' for Inactive)
REMARK    1  A    between atoms: C3_7  and  C4_10 
REMARK    2  A    between atoms: C3_7  and  C17_30 
REMARK    3  A    between atoms: C7_14  and  N3_15 
REMARK    4  A    between atoms: N3_15  and  S1_17 
REMARK    5  A    between atoms: S1_17  and  C8_20 
REMARK    6  A    between atoms: C8_20  and  C9_21 
REMARK    7  A    between atoms: C9_21  and  C10_22 
REMARK    8  A    between atoms: C14_27  and  C15_28 
ROOT
HETATM    1  C4  UNL     1     -25.617  11.603 -11.001  1.00  0.00     0.016 A 
HETATM    2  C5  UNL     1     -24.640  11.492 -10.050  1.00  0.00     0.046 A 
HETATM    3 CL1  UNL     1     -22.990  11.256 -10.577  1.00  0.00    -0.084 Cl
HETATM    4  C6  UNL     1     -24.947  11.564  -8.679  1.00  0.00     0.057 A 
HETATM    5  C7  UNL     1     -26.251  11.750  -8.297  1.00  0.00     0.083 A 
HETATM    6  C13 UNL     1     -27.253  11.863  -9.275  1.00  0.00     0.153 A 
HETATM    7  F1  UNL     1     -28.536  12.044  -8.937  1.00  0.00    -0.203 F 
HETATM    8  C14 UNL     1     -26.928  11.788 -10.622  1.00  0.00     0.023 A 
ENDROOT
BRANCH   5   9
HETATM    9  N3  UNL     1     -26.586  11.821  -6.940  1.00  0.00    -0.281 N 
ATOM     10  H3  UNL     1     -26.890  10.972  -6.464  1.00  0.00     0.178 HD
BRANCH   9  11
HETATM   11  S1  UNL     1     -26.505  13.267  -6.058  1.00  0.00     0.231 S 
HETATM   12  O3  UNL     1     -25.052  13.504  -5.668  1.00  0.00    -0.206 OA
HETATM   13  O4  UNL     1     -26.940  14.480  -6.838  1.00  0.00    -0.206 OA
BRANCH  11  14
HETATM   14  C8  UNL     1     -27.509  13.212  -4.578  1.00  0.00     0.164 C 
BRANCH  14  15
HETATM   15  C9  UNL     1     -28.105  14.577  -4.389  1.00  0.00     0.021 C 
BRANCH  15  16
HETATM   16  C10 UNL     1     -27.284  15.436  -3.453  1.00  0.00    -0.014 A 
HETATM   17  C11 UNL     1     -26.624  16.669  -4.015  1.00  0.00     0.005 A 
HETATM   18  C12 UNL     1     -27.753  16.769  -3.033  1.00  0.00     0.005 A 
ENDBRANCH  15  16
ENDBRANCH  14  15
ENDBRANCH  11  14
ENDBRANCH   9  11
ENDBRANCH   5   9
BRANCH   8  19
HETATM   19  C15 UNL     1     -27.928  11.898 -11.714  1.00  0.00     0.161 C 
HETATM   20  C16 UNL     1     -27.600  10.860 -12.742  1.00  0.00     0.072 C 
HETATM   21  C17 UNL     1     -28.339   9.952 -11.778  1.00  0.00     0.168 C 
HETATM   22  O5  UNL     1     -29.010  11.076 -11.317  1.00  0.00    -0.372 OA
BRANCH  21  23
HETATM   23  C3  UNL     1     -27.384   9.382 -10.727  1.00  0.00     0.172 C 
HETATM   24  C2  UNL     1     -28.139   8.560  -9.788  1.00  0.00     0.261 C 
HETATM   25  N1  UNL     1     -27.912   7.199 -10.093  1.00  0.00    -0.277 N 
HETATM   26  O2  UNL     1     -28.870   8.972  -8.860  1.00  0.00    -0.270 OA
HETATM   27  C1  UNL     1     -26.910   7.109 -11.092  1.00  0.00     0.324 C 
ATOM     28  H1  UNL     1     -28.392   6.409  -9.664  1.00  0.00     0.173 HD
HETATM   29  O1  UNL     1     -26.431   6.076 -11.628  1.00  0.00    -0.247 OA
HETATM   30  N2  UNL     1     -26.502   8.440 -11.417  1.00  0.00    -0.318 N 
ATOM     31  H2  UNL     1     -25.725   8.690 -12.028  1.00  0.00     0.166 HD
ENDBRANCH  21  23
ENDBRANCH   8  19
TORSDOF 8
ENDMDL
MODEL 5
REMARK VINA RESULT: -7.192385070      2.835      3.675
REMARK  8 active torsions:
REMARK  status: ('A' for Active; 'I' for Inactive)
REMARK    1  A    between atoms: C3_7  and  C4_10 
REMARK    2  A    between atoms: C3_7  and  C17_30 
REMARK    3  A    between atoms: C7_14  and  N3_15 
REMARK    4  A    between atoms: N3_15  and  S1_17 
REMARK    5  A    between atoms: S1_17  and  C8_20 
REMARK    6  A    between atoms: C8_20  and  C9_21 
REMARK    7  A    between atoms: C9_21  and  C10_22 
REMARK    8  A    between atoms: C14_27  and  C15_28 
ROOT
HETATM    1  C4  UNL     1     -27.191  10.302  -7.466  1.00  0.00     0.016 A 
HETATM    2  C5  UNL     1     -26.849  10.719  -6.209  1.00  0.00     0.046 A 
HETATM    3 CL1  UNL     1     -26.379   9.516  -5.032  1.00  0.00    -0.084 Cl
HETATM    4  C6  UNL     1     -26.872  12.083  -5.864  1.00  0.00     0.057 A 
HETATM    5  C7  UNL     1     -27.245  13.004  -6.809  1.00  0.00     0.083 A 
HETATM    6  C13 UNL     1     -27.597  12.573  -8.099  1.00  0.00     0.153 A 
HETATM    7  F1  UNL     1     -27.967  13.445  -9.046  1.00  0.00    -0.203 F 
HETATM    8  C14 UNL     1     -27.568  11.222  -8.419  1.00  0.00     0.023 A 
ENDROOT
BRANCH   5   9
HETATM    9  N3  UNL     1     -27.282  14.366  -6.492  1.00  0.00    -0.281 N 
ATOM     10  H3  UNL     1     -28.138  14.890  -6.674  1.00  0.00     0.178 HD
BRANCH   9  11
HETATM   11  S1  UNL     1     -25.956  15.179  -5.816  1.00  0.00     0.231 S 
HETATM   12  O3  UNL     1     -24.697  14.387  -6.142  1.00  0.00    -0.206 OA
HETATM   13  O4  UNL     1     -25.744  16.564  -6.370  1.00  0.00    -0.206 OA
BRANCH  11  14
HETATM   14  C8  UNL     1     -26.101  15.346  -4.040  1.00  0.00     0.164 C 
BRANCH  14  15
HETATM   15  C9  UNL     1     -27.134  16.402  -3.772  1.00  0.00     0.021 C 
BRANCH  15  16
HETATM   16  C10 UNL     1     -26.586  17.539  -2.935  1.00  0.00    -0.014 A 
HETATM   17  C11 UNL     1     -26.287  18.846  -3.622  1.00  0.00     0.005 A 
HETATM   18  C12 UNL     1     -27.407  18.725  -2.632  1.00  0.00     0.005 A 
ENDBRANCH  15  16
ENDBRANCH  14  15
ENDBRANCH  11  14
ENDBRANCH   9  11
ENDBRANCH   5   9
BRANCH   8  19
HETATM   19  C15 UNL     1     -27.924  10.689  -9.757  1.00  0.00     0.161 C 
HETATM   20  C16 UNL     1     -27.047  11.362 -10.767  1.00  0.00     0.072 C 
HETATM   21  C17 UNL     1     -26.049  10.317 -10.308  1.00  0.00     0.168 C 
HETATM   22  O5  UNL     1     -27.127   9.532  -9.925  1.00  0.00    -0.372 OA
BRANCH  21  23
HETATM   23  C3  UNL     1     -25.249  10.821  -9.104  1.00  0.00     0.172 C 
HETATM   24  C2  UNL     1     -24.185   9.870  -8.802  1.00  0.00     0.261 C 
HETATM   25  N1  UNL     1     -22.962  10.394  -9.276  1.00  0.00    -0.277 N 
HETATM   26  O2  UNL     1     -24.315   8.770  -8.221  1.00  0.00    -0.270 OA
HETATM   27  C1  UNL     1     -23.169  11.721  -9.728  1.00  0.00     0.324 C 
ATOM     28  H1  UNL     1     -22.072   9.897  -9.291  1.00  0.00     0.173 HD
HETATM   29  O1  UNL     1     -22.330  12.520 -10.219  1.00  0.00    -0.247 OA
HETATM   30  N2  UNL     1     -24.550  12.034  -9.532  1.00  0.00    -0.318 N 
ATOM     31  H2  UNL     1     -24.977  12.950  -9.668  1.00  0.00     0.166 HD
ENDBRANCH  21  23
ENDBRANCH   8  19
TORSDOF 8
ENDMDL
